MODEL        1
REMARK 921   NORMALIZED FREE ENERGY PREDICTED BY IDOCK:   -6.54 KCAL/MOL
REMARK 922        TOTAL FREE ENERGY PREDICTED BY IDOCK:  -10.70 KCAL/MOL
REMARK 923 INTER-LIGAND FREE ENERGY PREDICTED BY IDOCK:   -9.61 KCAL/MOL
REMARK 924 INTRA-LIGAND FREE ENERGY PREDICTED BY IDOCK:   -1.09 KCAL/MOL
REMARK 927      BINDING AFFINITY PREDICTED BY RF-SCORE:    0.00 PKD
ROOT
HETATM    1  C   UNL     1     -11.194  13.530  67.864  1.00  0.00    -0.274 C  
HETATM    2  S   UNL     1      -9.588  14.243  68.304  1.00  0.00    -0.224 SA 
HETATM    3  C   UNL     1     -10.085  15.923  67.854  1.00  0.00    -0.235 C  
HETATM    4  C   UNL     1     -10.742  16.044  66.484  1.00  0.00    -0.238 C  
HETATM    5  O   UNL     1     -12.688  14.235  63.915  1.00  0.00    -0.749 OA 
HETATM    6  C   UNL     1     -11.388  15.017  65.852  1.00  0.00    -0.273 C  
HETATM    7  N   UNL     1     -11.440  13.782  66.452  1.00  0.00    -0.325 N  
HETATM    8  C   UNL     1     -11.212  11.966  67.535  1.00  0.00    -0.296 C  
HETATM    9  C   UNL     1     -12.019  15.252  64.485  1.00  0.00    -0.271 C  
HETATM   10  O   UNL     1     -12.291  12.093  65.120  1.00  0.00    -0.488 OA 
HETATM   11  C   UNL     1     -11.774  12.513  66.131  1.00  0.00    -0.409 C  
HETATM   12  O   UNL     1     -12.007  16.334  63.911  1.00  0.00    -1.003 OA 
ENDROOT
BRANCH   4  13
HETATM   13  C   UNL     1     -10.494  17.434  65.885  1.00  0.00    -0.252 C  
BRANCH  13  14
HETATM   14  S   UNL     1      -9.619  18.507  67.060  1.00  0.00    -0.310 SA 
BRANCH  14  15
HETATM   15  C   UNL     1      -8.216  18.906  66.131  1.00  0.00    -0.204 A  
HETATM   16  N   UNL     1      -8.008  20.037  65.497  1.00  0.00    -0.242 NA 
HETATM   17  N   UNL     1      -6.288  18.684  65.068  1.00  0.00    -0.455 NA 
HETATM   18  N   UNL     1      -6.811  19.881  64.834  1.00  0.00    -0.346 NA 
HETATM   19  C   UNL     1      -6.897  16.742  66.364  1.00  0.00    -0.070 C  
HETATM   20  N   UNL     1      -7.166  18.069  65.885  1.00  0.00    -0.465 NA 
ENDBRANCH  14  15
ENDBRANCH  13  14
ENDBRANCH   4  13
BRANCH   8  21
HETATM   21  O   UNL     1     -12.183  11.195  68.299  1.00  0.00    -0.613 OA 
HETATM   22  C   UNL     1     -12.019  11.217  69.716  1.00  0.00    -0.357 C  
ENDBRANCH   8  21
BRANCH   8  23
HETATM   23  N   UNL     1      -9.858  11.331  67.549  1.00  0.00    -0.177 N  
HETATM   24  C   UNL     1      -9.606  10.050  67.130  1.00  0.00    -0.165 C  
HETATM   25  H   UNL     1      -9.073  11.886  67.892  1.00  0.00     0.000 HD 
HETATM   26  O   UNL     1     -10.485   9.296  66.727  1.00  0.00    -0.244 OA 
BRANCH  24  27
HETATM   27  C   UNL     1      -8.169   9.588  67.276  1.00  0.00    -0.114 C  
BRANCH  27  28
HETATM   28  S   UNL     1      -7.142  10.278  65.934  1.00  0.00    -0.136 SA 
BRANCH  28  29
HETATM   29  C   UNL     1      -7.756   9.298  64.508  1.00  0.00    -0.114 C  
HETATM   30  C   UNL     1      -8.803   9.968  63.725  1.00  0.00    -0.231 C  
HETATM   31  N   UNL     1      -9.626  10.503  63.104  1.00  0.00    -0.327 NA 
ENDBRANCH  28  29
ENDBRANCH  27  28
ENDBRANCH  24  27
ENDBRANCH   8  23
TORSDOF 8
ENDMDL
MODEL        2
REMARK 921   NORMALIZED FREE ENERGY PREDICTED BY IDOCK:   -6.51 KCAL/MOL
REMARK 922        TOTAL FREE ENERGY PREDICTED BY IDOCK:  -10.65 KCAL/MOL
REMARK 923 INTER-LIGAND FREE ENERGY PREDICTED BY IDOCK:   -9.55 KCAL/MOL
REMARK 924 INTRA-LIGAND FREE ENERGY PREDICTED BY IDOCK:   -1.10 KCAL/MOL
REMARK 927      BINDING AFFINITY PREDICTED BY RF-SCORE:    0.00 PKD
ROOT
HETATM    1  C   UNL     1     -11.322  13.534  67.800  1.00  0.00    -0.296 C  
HETATM    2  S   UNL     1      -9.773  14.292  68.353  1.00  0.00    -0.226 SA 
HETATM    3  C   UNL     1     -10.301  15.963  67.901  1.00  0.00    -0.269 C  
HETATM    4  C   UNL     1     -10.873  16.087  66.494  1.00  0.00    -0.167 C  
HETATM    5  O   UNL     1     -12.587  14.262  63.776  1.00  0.00    -0.821 OA 
HETATM    6  C   UNL     1     -11.441  15.051  65.804  1.00  0.00    -0.236 C  
HETATM    7  N   UNL     1     -11.487  13.804  66.379  1.00  0.00    -0.325 N  
HETATM    8  C   UNL     1     -11.264  11.976  67.444  1.00  0.00    -0.307 C  
HETATM    9  C   UNL     1     -11.993  15.290  64.404  1.00  0.00    -0.277 C  
HETATM   10  O   UNL     1     -12.193  12.112  64.968  1.00  0.00    -0.405 OA 
HETATM   11  C   UNL     1     -11.755  12.530  66.017  1.00  0.00    -0.417 C  
HETATM   12  O   UNL     1     -11.983  16.382  63.850  1.00  0.00    -1.023 OA 
ENDROOT
BRANCH   4  13
HETATM   13  C   UNL     1     -10.638  17.496  65.935  1.00  0.00    -0.203 C  
BRANCH  13  14
HETATM   14  S   UNL     1      -9.719  18.524  67.116  1.00  0.00    -0.316 SA 
BRANCH  14  15
HETATM   15  C   UNL     1      -8.310  18.888  66.182  1.00  0.00    -0.193 A  
HETATM   16  N   UNL     1      -8.087  20.004  65.528  1.00  0.00    -0.211 NA 
HETATM   17  N   UNL     1      -6.383  18.622  65.127  1.00  0.00    -0.426 NA 
HETATM   18  N   UNL     1      -6.891  19.821  64.870  1.00  0.00    -0.360 NA 
HETATM   19  C   UNL     1      -7.019  16.713  66.458  1.00  0.00    -0.141 C  
HETATM   20  N   UNL     1      -7.270  18.033  65.954  1.00  0.00    -0.465 NA 
ENDBRANCH  14  15
ENDBRANCH  13  14
ENDBRANCH   4  13
BRANCH   8  21
HETATM   21  O   UNL     1     -12.253  11.159  68.132  1.00  0.00    -0.612 OA 
HETATM   22  C   UNL     1     -12.053  10.985  69.533  1.00  0.00    -0.329 C  
ENDBRANCH   8  21
BRANCH   8  23
HETATM   23  N   UNL     1      -9.891  11.388  67.534  1.00  0.00    -0.177 N  
HETATM   24  C   UNL     1      -9.521  10.209  66.940  1.00  0.00    -0.169 C  
HETATM   25  H   UNL     1      -9.188  11.896  68.070  1.00  0.00     0.000 HD 
HETATM   26  O   UNL     1     -10.300   9.513  66.299  1.00  0.00    -0.244 OA 
BRANCH  24  27
HETATM   27  C   UNL     1      -8.093   9.770  67.199  1.00  0.00    -0.116 C  
BRANCH  27  28
HETATM   28  S   UNL     1      -7.690   9.933  68.971  1.00  0.00    -0.096 SA 
BRANCH  28  29
HETATM   29  C   UNL     1      -8.890   8.747  69.695  1.00  0.00    -0.141 C  
HETATM   30  C   UNL     1      -9.008   8.828  71.158  1.00  0.00    -0.222 C  
HETATM   31  N   UNL     1      -9.103   8.899  72.312  1.00  0.00    -0.357 NA 
ENDBRANCH  28  29
ENDBRANCH  27  28
ENDBRANCH  24  27
ENDBRANCH   8  23
TORSDOF 8
ENDMDL
MODEL        3
REMARK 921   NORMALIZED FREE ENERGY PREDICTED BY IDOCK:   -6.48 KCAL/MOL
REMARK 922        TOTAL FREE ENERGY PREDICTED BY IDOCK:  -10.60 KCAL/MOL
REMARK 923 INTER-LIGAND FREE ENERGY PREDICTED BY IDOCK:   -9.69 KCAL/MOL
REMARK 924 INTRA-LIGAND FREE ENERGY PREDICTED BY IDOCK:   -0.92 KCAL/MOL
REMARK 927      BINDING AFFINITY PREDICTED BY RF-SCORE:    0.00 PKD
ROOT
HETATM    1  C   UNL     1     -11.204  13.499  67.849  1.00  0.00    -0.274 C  
HETATM    2  S   UNL     1      -9.601  14.156  68.377  1.00  0.00    -0.220 SA 
HETATM    3  C   UNL     1     -10.039  15.862  67.966  1.00  0.00    -0.230 C  
HETATM    4  C   UNL     1     -10.635  16.045  66.575  1.00  0.00    -0.284 C  
HETATM    5  O   UNL     1     -12.516  14.372  63.869  1.00  0.00    -0.798 OA 
HETATM    6  C   UNL     1     -11.279  15.056  65.882  1.00  0.00    -0.313 C  
HETATM    7  N   UNL     1     -11.385  13.804  66.437  1.00  0.00    -0.310 N  
HETATM    8  C   UNL     1     -11.246  11.947  67.466  1.00  0.00    -0.296 C  
HETATM    9  C   UNL     1     -11.847  15.352  64.500  1.00  0.00    -0.256 C  
HETATM   10  O   UNL     1     -12.222  12.182  65.015  1.00  0.00    -0.405 OA 
HETATM   11  C   UNL     1     -11.736  12.555  66.060  1.00  0.00    -0.417 C  
HETATM   12  O   UNL     1     -11.786  16.452  63.964  1.00  0.00    -1.044 OA 
ENDROOT
BRANCH   4  13
HETATM   13  C   UNL     1     -10.330  17.447  66.034  1.00  0.00    -0.304 C  
BRANCH  13  14
HETATM   14  S   UNL     1     -10.049  18.624  67.388  1.00  0.00    -0.384 SA 
BRANCH  14  15
HETATM   15  C   UNL     1      -8.540  19.311  66.895  1.00  0.00    -0.298 A  
HETATM   16  N   UNL     1      -8.216  19.662  65.672  1.00  0.00    -0.358 NA 
HETATM   17  N   UNL     1      -6.439  20.000  66.976  1.00  0.00    -0.191 NA 
HETATM   18  N   UNL     1      -6.906  20.080  65.736  1.00  0.00    -0.266 NA 
HETATM   19  C   UNL     1      -7.311  19.329  69.123  1.00  0.00    -0.306 C  
HETATM   20  N   UNL     1      -7.463  19.520  67.708  1.00  0.00    -0.262 NA 
ENDBRANCH  14  15
ENDBRANCH  13  14
ENDBRANCH   4  13
BRANCH   8  21
HETATM   21  O   UNL     1     -12.266  11.177  68.164  1.00  0.00    -0.612 OA 
HETATM   22  C   UNL     1     -12.048  10.973  69.558  1.00  0.00    -0.329 C  
ENDBRANCH   8  21
BRANCH   8  23
HETATM   23  N   UNL     1      -9.909  11.278  67.514  1.00  0.00    -0.177 N  
HETATM   24  C   UNL     1      -9.613  10.109  66.862  1.00  0.00    -0.177 C  
HETATM   25  H   UNL     1      -9.173  11.720  68.065  1.00  0.00     0.000 HD 
HETATM   26  O   UNL     1     -10.436   9.490  66.197  1.00  0.00    -0.170 OA 
BRANCH  24  27
HETATM   27  C   UNL     1      -8.210   9.578  67.084  1.00  0.00    -0.113 C  
BRANCH  27  28
HETATM   28  S   UNL     1      -8.272   7.875  67.736  1.00  0.00    -0.130 SA 
BRANCH  28  29
HETATM   29  C   UNL     1      -9.361   8.117  69.194  1.00  0.00    -0.151 C  
HETATM   30  C   UNL     1     -10.455   7.141  69.296  1.00  0.00    -0.211 C  
HETATM   31  N   UNL     1     -11.314   6.365  69.376  1.00  0.00    -0.402 NA 
ENDBRANCH  28  29
ENDBRANCH  27  28
ENDBRANCH  24  27
ENDBRANCH   8  23
TORSDOF 8
ENDMDL
MODEL        4
REMARK 921   NORMALIZED FREE ENERGY PREDICTED BY IDOCK:   -6.46 KCAL/MOL
REMARK 922        TOTAL FREE ENERGY PREDICTED BY IDOCK:  -10.57 KCAL/MOL
REMARK 923 INTER-LIGAND FREE ENERGY PREDICTED BY IDOCK:   -9.45 KCAL/MOL
REMARK 924 INTRA-LIGAND FREE ENERGY PREDICTED BY IDOCK:   -1.12 KCAL/MOL
REMARK 927      BINDING AFFINITY PREDICTED BY RF-SCORE:    0.00 PKD
ROOT
HETATM    1  C   UNL     1     -11.169  13.597  67.719  1.00  0.00    -0.285 C  
HETATM    2  S   UNL     1      -9.584  14.290  68.255  1.00  0.00    -0.224 SA 
HETATM    3  C   UNL     1     -10.052  15.983  67.822  1.00  0.00    -0.243 C  
HETATM    4  C   UNL     1     -10.638  16.141  66.424  1.00  0.00    -0.269 C  
HETATM    5  O   UNL     1     -12.460  14.404  63.718  1.00  0.00    -0.814 OA 
HETATM    6  C   UNL     1     -11.256  15.133  65.735  1.00  0.00    -0.287 C  
HETATM    7  N   UNL     1     -11.343  13.884  66.302  1.00  0.00    -0.317 N  
HETATM    8  C   UNL     1     -11.177  12.041  67.351  1.00  0.00    -0.307 C  
HETATM    9  C   UNL     1     -11.817  15.403  64.345  1.00  0.00    -0.256 C  
HETATM   10  O   UNL     1     -12.134  12.231  64.889  1.00  0.00    -0.396 OA 
HETATM   11  C   UNL     1     -11.666  12.625  65.935  1.00  0.00    -0.420 C  
HETATM   12  O   UNL     1     -11.771  16.498  63.798  1.00  0.00    -1.086 OA 
ENDROOT
BRANCH   4  13
HETATM   13  C   UNL     1     -10.355  17.543  65.872  1.00  0.00    -0.259 C  
BRANCH  13  14
HETATM   14  S   UNL     1     -10.040  18.724  67.214  1.00  0.00    -0.380 SA 
BRANCH  14  15
HETATM   15  C   UNL     1      -8.430  19.219  66.821  1.00  0.00    -0.305 A  
HETATM   16  N   UNL     1      -8.068  19.881  65.747  1.00  0.00    -0.351 NA 
HETATM   17  N   UNL     1      -6.228  19.411  66.915  1.00  0.00    -0.181 NA 
HETATM   18  N   UNL     1      -6.697  19.984  65.814  1.00  0.00    -0.244 NA 
HETATM   19  C   UNL     1      -7.171  18.260  68.813  1.00  0.00    -0.279 C  
HETATM   20  N   UNL     1      -7.313  18.931  67.553  1.00  0.00    -0.226 NA 
ENDBRANCH  14  15
ENDBRANCH  13  14
ENDBRANCH   4  13
BRANCH   8  21
HETATM   21  O   UNL     1     -12.188  11.258  68.047  1.00  0.00    -0.621 OA 
HETATM   22  C   UNL     1     -11.939  11.004  69.428  1.00  0.00    -0.337 C  
ENDBRANCH   8  21
BRANCH   8  23
HETATM   23  N   UNL     1      -9.828  11.399  67.418  1.00  0.00    -0.181 N  
HETATM   24  C   UNL     1      -9.528  10.183  66.860  1.00  0.00    -0.169 C  
HETATM   25  H   UNL     1      -9.085  11.897  67.909  1.00  0.00     0.000 HD 
HETATM   26  O   UNL     1     -10.358   9.496  66.274  1.00  0.00    -0.244 OA 
BRANCH  24  27
HETATM   27  C   UNL     1      -8.110   9.694  67.087  1.00  0.00    -0.110 C  
BRANCH  27  28
HETATM   28  S   UNL     1      -6.911  10.879  66.390  1.00  0.00    -0.118 SA 
BRANCH  28  29
HETATM   29  C   UNL     1      -6.332  11.707  67.923  1.00  0.00    -0.054 C  
HETATM   30  C   UNL     1      -5.897  13.097  67.729  1.00  0.00    -0.138 C  
HETATM   31  N   UNL     1      -5.560  14.196  67.573  1.00  0.00    -0.349 NA 
ENDBRANCH  28  29
ENDBRANCH  27  28
ENDBRANCH  24  27
ENDBRANCH   8  23
TORSDOF 8
ENDMDL
MODEL        5
REMARK 921   NORMALIZED FREE ENERGY PREDICTED BY IDOCK:   -6.16 KCAL/MOL
REMARK 922        TOTAL FREE ENERGY PREDICTED BY IDOCK:  -10.14 KCAL/MOL
REMARK 923 INTER-LIGAND FREE ENERGY PREDICTED BY IDOCK:   -9.00 KCAL/MOL
REMARK 924 INTRA-LIGAND FREE ENERGY PREDICTED BY IDOCK:   -1.13 KCAL/MOL
REMARK 927      BINDING AFFINITY PREDICTED BY RF-SCORE:    0.00 PKD
ROOT
HETATM    1  C   UNL     1     -11.471  12.114  68.491  1.00  0.00    -0.300 C  
HETATM    2  S   UNL     1      -9.956  11.123  68.471  1.00  0.00    -0.204 SA 
HETATM    3  C   UNL     1     -10.804   9.614  68.998  1.00  0.00    -0.183 C  
HETATM    4  C   UNL     1     -11.710   9.788  70.211  1.00  0.00    -0.253 C  
HETATM    5  O   UNL     1     -13.759  12.209  72.108  1.00  0.00    -0.345 OA 
HETATM    6  C   UNL     1     -12.278  10.977  70.578  1.00  0.00    -0.381 C  
HETATM    7  N   UNL     1     -12.010  12.107  69.844  1.00  0.00    -0.325 N  
HETATM    8  C   UNL     1     -11.285  13.696  68.630  1.00  0.00    -0.277 C  
HETATM    9  C   UNL     1     -13.179  11.036  71.806  1.00  0.00    -0.400 C  
HETATM   10  O   UNL     1     -12.793  14.076  70.773  1.00  0.00    -0.323 OA 
HETATM   11  C   UNL     1     -12.178  13.444  69.943  1.00  0.00    -0.271 C  
HETATM   12  O   UNL     1     -13.455  10.058  72.489  1.00  0.00    -0.274 OA 
ENDROOT
BRANCH   4  13
HETATM   13  C   UNL     1     -11.815   8.479  71.002  1.00  0.00    -0.257 C  
BRANCH  13  14
HETATM   14  S   UNL     1     -10.375   7.414  70.700  1.00  0.00    -0.214 SA 
BRANCH  14  15
HETATM   15  C   UNL     1      -9.335   7.924  71.984  1.00  0.00    -0.162 A  
HETATM   16  N   UNL     1      -8.296   8.718  71.865  1.00  0.00    -0.349 NA 
HETATM   17  N   UNL     1      -8.412   8.055  73.991  1.00  0.00    -0.259 NA 
HETATM   18  N   UNL     1      -7.728   8.782  73.117  1.00  0.00    -0.379 NA 
HETATM   19  C   UNL     1     -10.391   6.676  73.934  1.00  0.00    -0.360 C  
HETATM   20  N   UNL     1      -9.425   7.516  73.284  1.00  0.00    -0.215 NA 
ENDBRANCH  14  15
ENDBRANCH  13  14
ENDBRANCH   4  13
BRANCH   8  21
HETATM   21  O   UNL     1     -11.955  14.479  67.601  1.00  0.00    -0.374 OA 
HETATM   22  C   UNL     1     -12.197  13.809  66.366  1.00  0.00    -0.436 C  
ENDBRANCH   8  21
BRANCH   8  23
HETATM   23  N   UNL     1      -9.863  14.121  68.819  1.00  0.00    -0.339 N  
HETATM   24  C   UNL     1      -9.487  15.350  69.297  1.00  0.00    -0.261 C  
HETATM   25  H   UNL     1      -9.129  13.456  68.577  1.00  0.00     0.000 HD 
HETATM   26  O   UNL     1     -10.293  16.226  69.590  1.00  0.00    -0.275 OA 
BRANCH  24  27
HETATM   27  C   UNL     1      -7.991  15.592  69.364  1.00  0.00    -0.229 C  
BRANCH  27  28
HETATM   28  S   UNL     1      -7.554  17.117  68.464  1.00  0.00    -0.254 SA 
BRANCH  28  29
HETATM   29  C   UNL     1      -7.659  16.521  66.730  1.00  0.00    -0.263 C  
HETATM   30  C   UNL     1      -8.968  16.739  66.099  1.00  0.00    -0.260 C  
HETATM   31  N   UNL     1     -10.001  16.918  65.601  1.00  0.00    -0.583 NA 
ENDBRANCH  28  29
ENDBRANCH  27  28
ENDBRANCH  24  27
ENDBRANCH   8  23
TORSDOF 8
ENDMDL
MODEL        6
REMARK 921   NORMALIZED FREE ENERGY PREDICTED BY IDOCK:   -6.11 KCAL/MOL
REMARK 922        TOTAL FREE ENERGY PREDICTED BY IDOCK:  -10.06 KCAL/MOL
REMARK 923 INTER-LIGAND FREE ENERGY PREDICTED BY IDOCK:  -10.15 KCAL/MOL
REMARK 924 INTRA-LIGAND FREE ENERGY PREDICTED BY IDOCK:    0.09 KCAL/MOL
REMARK 927      BINDING AFFINITY PREDICTED BY RF-SCORE:    0.00 PKD
ROOT
HETATM    1  C   UNL     1      -9.467  14.742  66.092  1.00  0.00    -0.292 C  
HETATM    2  S   UNL     1      -9.253  13.644  67.516  1.00  0.00    -0.229 SA 
HETATM    3  C   UNL     1      -8.926  12.192  66.487  1.00  0.00    -0.179 C  
HETATM    4  C   UNL     1      -9.933  11.971  65.365  1.00  0.00    -0.279 C  
HETATM    5  O   UNL     1     -12.351  13.644  63.127  1.00  0.00    -0.729 OA 
HETATM    6  C   UNL     1     -10.690  12.966  64.809  1.00  0.00    -0.333 C  
HETATM    7  N   UNL     1     -10.576  14.248  65.290  1.00  0.00    -0.356 N  
HETATM    8  C   UNL     1     -10.311  16.077  66.344  1.00  0.00    -0.305 C  
HETATM    9  C   UNL     1     -11.660  12.634  63.682  1.00  0.00    -0.503 C  
HETATM   10  O   UNL     1     -12.138  15.737  64.457  1.00  0.00    -0.182 OA 
HETATM   11  C   UNL     1     -11.223  15.429  65.188  1.00  0.00    -0.350 C  
HETATM   12  O   UNL     1     -11.794  11.511  63.213  1.00  0.00    -0.300 OA 
ENDROOT
BRANCH   4  13
HETATM   13  C   UNL     1     -10.043  10.481  65.021  1.00  0.00    -0.321 C  
BRANCH  13  14
HETATM   14  S   UNL     1      -9.564   9.445  66.434  1.00  0.00    -0.245 SA 
BRANCH  14  15
HETATM   15  C   UNL     1     -10.568  10.121  67.670  1.00  0.00    -0.265 A  
HETATM   16  N   UNL     1     -11.767  10.628  67.497  1.00  0.00    -0.316 NA 
HETATM   17  N   UNL     1     -11.210  10.899  69.640  1.00  0.00    -0.262 NA 
HETATM   18  N   UNL     1     -12.149  11.115  68.727  1.00  0.00    -0.552 NA 
HETATM   19  C   UNL     1      -9.032   9.862  69.682  1.00  0.00    -0.216 C  
HETATM   20  N   UNL     1     -10.216  10.272  68.981  1.00  0.00    -0.197 NA 
ENDBRANCH  14  15
ENDBRANCH  13  14
ENDBRANCH   4  13
BRANCH   8  21
HETATM   21  O   UNL     1      -9.639  17.305  65.946  1.00  0.00    -0.500 OA 
HETATM   22  C   UNL     1     -10.482  18.435  65.730  1.00  0.00    -0.227 C  
ENDBRANCH   8  21
BRANCH   8  23
HETATM   23  N   UNL     1     -10.888  16.174  67.720  1.00  0.00    -0.327 N  
HETATM   24  C   UNL     1     -10.180  16.583  68.822  1.00  0.00    -0.267 C  
HETATM   25  H   UNL     1     -11.868  15.922  67.848  1.00  0.00     0.000 HD 
HETATM   26  O   UNL     1      -8.992  16.881  68.776  1.00  0.00    -0.260 OA 
BRANCH  24  27
HETATM   27  C   UNL     1     -10.944  16.562  70.131  1.00  0.00    -0.207 C  
BRANCH  27  28
HETATM   28  S   UNL     1     -11.639  14.902  70.434  1.00  0.00    -0.289 SA 
BRANCH  28  29
HETATM   29  C   UNL     1     -13.280  15.350  71.126  1.00  0.00    -0.513 C  
HETATM   30  C   UNL     1     -13.243  15.776  72.532  1.00  0.00    -0.487 C  
HETATM   31  N   UNL     1     -13.210  16.118  73.641  1.00  0.00    -0.660 NA 
ENDBRANCH  28  29
ENDBRANCH  27  28
ENDBRANCH  24  27
ENDBRANCH   8  23
TORSDOF 8
ENDMDL
MODEL        7
REMARK 921   NORMALIZED FREE ENERGY PREDICTED BY IDOCK:   -6.09 KCAL/MOL
REMARK 922        TOTAL FREE ENERGY PREDICTED BY IDOCK:  -10.02 KCAL/MOL
REMARK 923 INTER-LIGAND FREE ENERGY PREDICTED BY IDOCK:   -8.93 KCAL/MOL
REMARK 924 INTRA-LIGAND FREE ENERGY PREDICTED BY IDOCK:   -1.09 KCAL/MOL
REMARK 927      BINDING AFFINITY PREDICTED BY RF-SCORE:    0.00 PKD
ROOT
HETATM    1  C   UNL     1     -11.530  12.773  67.725  1.00  0.00    -0.326 C  
HETATM    2  S   UNL     1     -10.198  11.559  67.907  1.00  0.00    -0.189 SA 
HETATM    3  C   UNL     1     -11.196  10.453  68.933  1.00  0.00    -0.235 C  
HETATM    4  C   UNL     1     -11.910  11.137  70.093  1.00  0.00    -0.449 C  
HETATM    5  O   UNL     1     -13.314  14.340  71.286  1.00  0.00    -0.339 OA 
HETATM    6  C   UNL     1     -12.239  12.465  70.113  1.00  0.00    -0.229 C  
HETATM    7  N   UNL     1     -11.893  13.261  69.047  1.00  0.00    -0.313 N  
HETATM    8  C   UNL     1     -11.087  14.264  67.353  1.00  0.00    -0.304 C  
HETATM    9  C   UNL     1     -12.963  13.044  71.322  1.00  0.00    -0.243 C  
HETATM   10  O   UNL     1     -12.245  15.524  69.374  1.00  0.00    -0.312 OA 
HETATM   11  C   UNL     1     -11.841  14.575  68.740  1.00  0.00    -0.315 C  
HETATM   12  O   UNL     1     -13.300  12.377  72.292  1.00  0.00    -0.522 OA 
ENDROOT
BRANCH   4  13
HETATM   13  C   UNL     1     -12.116  10.159  71.256  1.00  0.00    -0.394 C  
BRANCH  13  14
HETATM   14  S   UNL     1     -11.524   8.497  70.827  1.00  0.00    -0.220 SA 
BRANCH  14  15
HETATM   15  C   UNL     1     -10.274   8.298  72.005  1.00  0.00    -0.269 A  
HETATM   16  N   UNL     1     -10.418   7.772  73.199  1.00  0.00    -0.360 NA 
HETATM   17  N   UNL     1      -8.308   8.465  73.006  1.00  0.00    -0.354 NA 
HETATM   18  N   UNL     1      -9.191   7.891  73.813  1.00  0.00    -0.268 NA 
HETATM   19  C   UNL     1      -8.313   9.326  70.752  1.00  0.00    -0.186 C  
HETATM   20  N   UNL     1      -8.983   8.720  71.868  1.00  0.00    -0.337 NA 
ENDBRANCH  14  15
ENDBRANCH  13  14
ENDBRANCH   4  13
BRANCH   8  21
HETATM   21  O   UNL     1     -11.751  14.820  66.183  1.00  0.00    -0.342 OA 
HETATM   22  C   UNL     1     -12.415  13.882  65.338  1.00  0.00    -0.501 C  
ENDBRANCH   8  21
BRANCH   8  23
HETATM   23  N   UNL     1      -9.605  14.457  67.301  1.00  0.00    -0.222 N  
HETATM   24  C   UNL     1      -8.986  15.676  67.410  1.00  0.00    -0.194 C  
HETATM   25  H   UNL     1      -9.019  13.631  67.177  1.00  0.00     0.000 HD 
HETATM   26  O   UNL     1      -9.603  16.728  67.535  1.00  0.00    -0.236 OA 
BRANCH  24  27
HETATM   27  C   UNL     1      -7.475  15.651  67.282  1.00  0.00    -0.222 C  
BRANCH  27  28
HETATM   28  S   UNL     1      -6.712  16.706  68.561  1.00  0.00    -0.155 SA 
BRANCH  28  29
HETATM   29  C   UNL     1      -5.814  17.911  67.506  1.00  0.00    -0.148 C  
HETATM   30  C   UNL     1      -6.545  18.312  66.296  1.00  0.00    -0.228 C  
HETATM   31  N   UNL     1      -7.128  18.632  65.344  1.00  0.00    -0.524 NA 
ENDBRANCH  28  29
ENDBRANCH  27  28
ENDBRANCH  24  27
ENDBRANCH   8  23
TORSDOF 8
ENDMDL
MODEL        8
REMARK 921   NORMALIZED FREE ENERGY PREDICTED BY IDOCK:   -6.08 KCAL/MOL
REMARK 922        TOTAL FREE ENERGY PREDICTED BY IDOCK:  -10.01 KCAL/MOL
REMARK 923 INTER-LIGAND FREE ENERGY PREDICTED BY IDOCK:   -9.48 KCAL/MOL
REMARK 924 INTRA-LIGAND FREE ENERGY PREDICTED BY IDOCK:   -0.54 KCAL/MOL
REMARK 927      BINDING AFFINITY PREDICTED BY RF-SCORE:    0.00 PKD
ROOT
HETATM    1  C   UNL     1      -9.965  14.220  66.821  1.00  0.00    -0.265 C  
HETATM    2  S   UNL     1      -9.910  13.004  68.162  1.00  0.00    -0.228 SA 
HETATM    3  C   UNL     1      -9.035  11.776  67.163  1.00  0.00    -0.177 C  
HETATM    4  C   UNL     1      -9.647  11.524  65.790  1.00  0.00    -0.259 C  
HETATM    5  O   UNL     1     -11.686  13.015  63.092  1.00  0.00    -0.438 OA 
HETATM    6  C   UNL     1     -10.419  12.433  65.118  1.00  0.00    -0.292 C  
HETATM    7  N   UNL     1     -10.700  13.643  65.705  1.00  0.00    -0.278 N  
HETATM    8  C   UNL     1     -11.100  15.341  66.922  1.00  0.00    -0.288 C  
HETATM    9  C   UNL     1     -10.973  12.081  63.743  1.00  0.00    -0.426 C  
HETATM   10  O   UNL     1     -12.261  14.926  64.579  1.00  0.00    -0.456 OA 
HETATM   11  C   UNL     1     -11.526  14.695  65.513  1.00  0.00    -0.341 C  
HETATM   12  O   UNL     1     -10.747  11.020  63.174  1.00  0.00    -0.203 OA 
ENDROOT
BRANCH   4  13
HETATM   13  C   UNL     1      -9.356  10.094  65.320  1.00  0.00    -0.224 C  
BRANCH  13  14
HETATM   14  S   UNL     1      -8.484   9.149  66.601  1.00  0.00    -0.124 SA 
BRANCH  14  15
HETATM   15  C   UNL     1      -9.506   7.757  66.711  1.00  0.00    -0.197 A  
HETATM   16  N   UNL     1     -10.682   7.709  67.293  1.00  0.00    -0.305 NA 
HETATM   17  N   UNL     1     -10.188   5.657  66.575  1.00  0.00    -0.209 NA 
HETATM   18  N   UNL     1     -11.089   6.397  67.208  1.00  0.00    -0.377 NA 
HETATM   19  C   UNL     1      -8.047   6.039  65.531  1.00  0.00    -0.133 C  
HETATM   20  N   UNL     1      -9.193   6.508  66.257  1.00  0.00    -0.155 NA 
ENDBRANCH  14  15
ENDBRANCH  13  14
ENDBRANCH   4  13
BRANCH   8  21
HETATM   21  O   UNL     1     -10.614  16.709  66.822  1.00  0.00    -0.293 OA 
HETATM   22  C   UNL     1      -9.247  16.858  66.440  1.00  0.00    -0.279 C  
ENDBRANCH   8  21
BRANCH   8  23
HETATM   23  N   UNL     1     -12.024  15.159  68.085  1.00  0.00    -0.521 N  
HETATM   24  C   UNL     1     -11.859  15.775  69.299  1.00  0.00    -0.346 C  
HETATM   25  H   UNL     1     -12.825  14.539  67.967  1.00  0.00     0.000 HD 
HETATM   26  O   UNL     1     -10.914  16.516  69.547  1.00  0.00    -0.318 OA 
BRANCH  24  27
HETATM   27  C   UNL     1     -12.884  15.414  70.357  1.00  0.00    -0.311 C  
BRANCH  27  28
HETATM   28  S   UNL     1     -12.558  13.742  71.012  1.00  0.00    -0.362 SA 
BRANCH  28  29
HETATM   29  C   UNL     1     -13.374  13.863  72.652  1.00  0.00    -0.538 C  
HETATM   30  C   UNL     1     -13.068  15.099  73.386  1.00  0.00    -0.464 C  
HETATM   31  N   UNL     1     -12.830  16.079  73.960  1.00  0.00    -0.672 NA 
ENDBRANCH  28  29
ENDBRANCH  27  28
ENDBRANCH  24  27
ENDBRANCH   8  23
TORSDOF 8
ENDMDL
MODEL        9
REMARK 921   NORMALIZED FREE ENERGY PREDICTED BY IDOCK:   -5.99 KCAL/MOL
REMARK 922        TOTAL FREE ENERGY PREDICTED BY IDOCK:   -9.89 KCAL/MOL
REMARK 923 INTER-LIGAND FREE ENERGY PREDICTED BY IDOCK:   -8.82 KCAL/MOL
REMARK 924 INTRA-LIGAND FREE ENERGY PREDICTED BY IDOCK:   -1.07 KCAL/MOL
REMARK 927      BINDING AFFINITY PREDICTED BY RF-SCORE:    0.00 PKD
ROOT
HETATM    1  C   UNL     1      -8.602   9.129  68.335  1.00  0.00    -0.129 C  
HETATM    2  S   UNL     1     -10.362   9.136  67.906  1.00  0.00    -0.233 SA 
HETATM    3  C   UNL     1     -10.141  10.316  66.553  1.00  0.00    -0.231 C  
HETATM    4  C   UNL     1      -9.333  11.556  66.918  1.00  0.00    -0.189 C  
HETATM    5  O   UNL     1      -6.728  12.884  69.179  1.00  0.00    -0.105 OA 
HETATM    6  C   UNL     1      -8.416  11.600  67.934  1.00  0.00    -0.148 C  
HETATM    7  N   UNL     1      -8.212  10.482  68.706  1.00  0.00    -0.125 N  
HETATM    8  C   UNL     1      -8.234   8.671  69.822  1.00  0.00    -0.121 C  
HETATM    9  C   UNL     1      -7.655  12.891  68.207  1.00  0.00    -0.134 C  
HETATM   10  O   UNL     1      -6.868  10.816  70.559  1.00  0.00    -0.285 OA 
HETATM   11  C   UNL     1      -7.596  10.146  69.860  1.00  0.00    -0.166 C  
HETATM   12  O   UNL     1      -7.795  13.911  67.545  1.00  0.00    -0.161 OA 
ENDROOT
BRANCH   4  13
HETATM   13  C   UNL     1      -9.757  12.753  66.060  1.00  0.00    -0.224 C  
BRANCH  13  14
HETATM   14  S   UNL     1     -11.414  13.334  66.522  1.00  0.00    -0.353 SA 
BRANCH  14  15
HETATM   15  C   UNL     1     -11.613  14.633  65.397  1.00  0.00    -0.345 A  
HETATM   16  N   UNL     1     -12.467  14.665  64.400  1.00  0.00    -0.653 NA 
HETATM   17  N   UNL     1     -11.244  16.527  64.314  1.00  0.00    -1.010 NA 
HETATM   18  N   UNL     1     -12.220  15.843  63.731  1.00  0.00    -0.661 NA 
HETATM   19  C   UNL     1      -9.823  16.232  66.242  1.00  0.00    -0.313 C  
HETATM   20  N   UNL     1     -10.861  15.773  65.363  1.00  0.00    -0.370 NA 
ENDBRANCH  14  15
ENDBRANCH  13  14
ENDBRANCH   4  13
BRANCH   8  21
HETATM   21  O   UNL     1      -7.251   7.600  69.902  1.00  0.00    -0.068 OA 
HETATM   22  C   UNL     1      -7.569   6.408  69.186  1.00  0.00    -0.100 C  
ENDBRANCH   8  21
BRANCH   8  23
HETATM   23  N   UNL     1      -9.428   8.400  70.682  1.00  0.00    -0.163 N  
HETATM   24  C   UNL     1      -9.411   8.439  72.053  1.00  0.00    -0.268 C  
HETATM   25  H   UNL     1     -10.309   8.173  70.220  1.00  0.00     0.000 HD 
HETATM   26  O   UNL     1      -8.397   8.677  72.700  1.00  0.00    -0.378 OA 
BRANCH  24  27
HETATM   27  C   UNL     1     -10.721   8.085  72.730  1.00  0.00    -0.362 C  
BRANCH  27  28
HETATM   28  S   UNL     1     -12.060   7.962  71.496  1.00  0.00    -0.316 SA 
BRANCH  28  29
HETATM   29  C   UNL     1     -12.969   9.520  71.837  1.00  0.00    -0.425 C  
HETATM   30  C   UNL     1     -12.497  10.674  71.060  1.00  0.00    -0.413 C  
HETATM   31  N   UNL     1     -12.126  11.582  70.440  1.00  0.00    -0.372 NA 
ENDBRANCH  28  29
ENDBRANCH  27  28
ENDBRANCH  24  27
ENDBRANCH   8  23
TORSDOF 8
ENDMDL
MODEL       10
REMARK 921   NORMALIZED FREE ENERGY PREDICTED BY IDOCK:   -5.94 KCAL/MOL
REMARK 922        TOTAL FREE ENERGY PREDICTED BY IDOCK:   -9.82 KCAL/MOL
REMARK 923 INTER-LIGAND FREE ENERGY PREDICTED BY IDOCK:   -8.75 KCAL/MOL
REMARK 924 INTRA-LIGAND FREE ENERGY PREDICTED BY IDOCK:   -1.07 KCAL/MOL
REMARK 927      BINDING AFFINITY PREDICTED BY RF-SCORE:    0.00 PKD
ROOT
HETATM    1  C   UNL     1     -11.427  14.091  67.906  1.00  0.00    -0.316 C  
HETATM    2  S   UNL     1     -12.020  14.968  69.375  1.00  0.00    -0.283 SA 
HETATM    3  C   UNL     1     -11.115  16.482  68.974  1.00  0.00    -0.284 C  
HETATM    4  C   UNL     1      -9.647  16.269  68.626  1.00  0.00    -0.237 C  
HETATM    5  O   UNL     1      -7.198  13.845  67.289  1.00  0.00    -0.139 OA 
HETATM    6  C   UNL     1      -9.138  15.096  68.138  1.00  0.00    -0.176 C  
HETATM    7  N   UNL     1      -9.974  14.018  67.967  1.00  0.00    -0.229 N  
HETATM    8  C   UNL     1     -11.458  12.494  67.970  1.00  0.00    -0.317 C  
HETATM    9  C   UNL     1      -7.653  14.995  67.813  1.00  0.00    -0.160 C  
HETATM   10  O   UNL     1      -8.905  12.038  67.433  1.00  0.00    -0.165 OA 
HETATM   11  C   UNL     1      -9.882  12.694  67.718  1.00  0.00    -0.212 C  
HETATM   12  O   UNL     1      -6.868  15.926  67.940  1.00  0.00    -0.122 OA 
ENDROOT
BRANCH   4  13
HETATM   13  C   UNL     1      -8.818  17.507  68.986  1.00  0.00    -0.033 C  
BRANCH  13  14
HETATM   14  S   UNL     1      -9.319  18.942  67.992  1.00  0.00    -0.320 SA 
BRANCH  14  15
HETATM   15  C   UNL     1      -8.062  18.952  66.804  1.00  0.00    -0.269 A  
HETATM   16  N   UNL     1      -8.006  18.191  65.736  1.00  0.00    -0.515 NA 
HETATM   17  N   UNL     1      -6.141  19.412  65.806  1.00  0.00    -0.180 NA 
HETATM   18  N   UNL     1      -6.804  18.481  65.131  1.00  0.00    -0.490 NA 
HETATM   19  C   UNL     1      -6.523  20.718  67.798  1.00  0.00    -0.331 C  
HETATM   20  N   UNL     1      -6.929  19.713  66.857  1.00  0.00    -0.197 NA 
ENDBRANCH  14  15
ENDBRANCH  13  14
ENDBRANCH   4  13
BRANCH   8  21
HETATM   21  O   UNL     1     -12.155  11.855  66.863  1.00  0.00    -0.599 OA 
HETATM   22  C   UNL     1     -12.007  12.480  65.589  1.00  0.00    -0.433 C  
ENDBRANCH   8  21
BRANCH   8  23
HETATM   23  N   UNL     1     -11.894  11.952  69.294  1.00  0.00    -0.315 N  
HETATM   24  C   UNL     1     -11.593  10.692  69.745  1.00  0.00    -0.309 C  
HETATM   25  H   UNL     1     -12.449  12.557  69.899  1.00  0.00     0.000 HD 
HETATM   26  O   UNL     1     -10.954   9.883  69.082  1.00  0.00    -0.224 OA 
BRANCH  24  27
HETATM   27  C   UNL     1     -12.176  10.328  71.097  1.00  0.00    -0.397 C  
BRANCH  27  28
HETATM   28  S   UNL     1     -11.236   8.955  71.844  1.00  0.00    -0.360 SA 
BRANCH  28  29
HETATM   29  C   UNL     1     -12.291   7.531  71.367  1.00  0.00    -0.345 C  
HETATM   30  C   UNL     1     -11.704   6.669  70.332  1.00  0.00    -0.386 C  
HETATM   31  N   UNL     1     -11.236   5.986  69.518  1.00  0.00    -0.403 NA 
ENDBRANCH  28  29
ENDBRANCH  27  28
ENDBRANCH  24  27
ENDBRANCH   8  23
TORSDOF 8
ENDMDL
MODEL       11
REMARK 921   NORMALIZED FREE ENERGY PREDICTED BY IDOCK:   -5.93 KCAL/MOL
REMARK 922        TOTAL FREE ENERGY PREDICTED BY IDOCK:   -9.80 KCAL/MOL
REMARK 923 INTER-LIGAND FREE ENERGY PREDICTED BY IDOCK:   -8.77 KCAL/MOL
REMARK 924 INTRA-LIGAND FREE ENERGY PREDICTED BY IDOCK:   -1.03 KCAL/MOL
REMARK 927      BINDING AFFINITY PREDICTED BY RF-SCORE:    0.00 PKD
ROOT
HETATM    1  C   UNL     1     -11.366  12.252  68.445  1.00  0.00    -0.292 C  
HETATM    2  S   UNL     1      -9.833  11.292  68.368  1.00  0.00    -0.204 SA 
HETATM    3  C   UNL     1     -10.641   9.752  68.868  1.00  0.00    -0.218 C  
HETATM    4  C   UNL     1     -11.526   9.874  70.103  1.00  0.00    -0.309 C  
HETATM    5  O   UNL     1     -13.583  12.200  72.107  1.00  0.00    -0.431 OA 
HETATM    6  C   UNL     1     -12.110  11.041  70.514  1.00  0.00    -0.377 C  
HETATM    7  N   UNL     1     -11.878  12.196  69.807  1.00  0.00    -0.332 N  
HETATM    8  C   UNL     1     -11.208  13.833  68.624  1.00  0.00    -0.278 C  
HETATM    9  C   UNL     1     -12.986  11.047  71.760  1.00  0.00    -0.438 C  
HETATM   10  O   UNL     1     -12.680  14.122  70.806  1.00  0.00    -0.329 OA 
HETATM   11  C   UNL     1     -12.070  13.526  69.947  1.00  0.00    -0.341 C  
HETATM   12  O   UNL     1     -13.230  10.046  72.421  1.00  0.00    -0.364 OA 
ENDROOT
BRANCH   4  13
HETATM   13  C   UNL     1     -11.589   8.541  70.858  1.00  0.00    -0.263 C  
BRANCH  13  14
HETATM   14  S   UNL     1     -10.069   8.255  71.809  1.00  0.00    -0.249 SA 
BRANCH  14  15
HETATM   15  C   UNL     1     -10.439   6.730  72.536  1.00  0.00    -0.209 A  
HETATM   16  N   UNL     1     -10.849   6.544  73.770  1.00  0.00    -0.159 NA 
HETATM   17  N   UNL     1     -10.606   4.542  72.819  1.00  0.00    -0.196 NA 
HETATM   18  N   UNL     1     -10.939   5.180  73.934  1.00  0.00    -0.255 NA 
HETATM   19  C   UNL     1      -9.906   5.171  70.597  1.00  0.00    -0.205 C  
HETATM   20  N   UNL     1     -10.294   5.512  71.937  1.00  0.00    -0.209 NA 
ENDBRANCH  14  15
ENDBRANCH  13  14
ENDBRANCH   4  13
BRANCH   8  21
HETATM   21  O   UNL     1     -11.914  14.630  67.632  1.00  0.00    -0.362 OA 
HETATM   22  C   UNL     1     -12.297  13.946  66.440  1.00  0.00    -0.426 C  
ENDBRANCH   8  21
BRANCH   8  23
HETATM   23  N   UNL     1      -9.791  14.280  68.798  1.00  0.00    -0.307 N  
HETATM   24  C   UNL     1      -9.428  15.484  69.345  1.00  0.00    -0.278 C  
HETATM   25  H   UNL     1      -9.050  13.651  68.490  1.00  0.00     0.000 HD 
HETATM   26  O   UNL     1     -10.245  16.318  69.720  1.00  0.00    -0.245 OA 
BRANCH  24  27
HETATM   27  C   UNL     1      -7.938  15.759  69.383  1.00  0.00    -0.211 C  
BRANCH  27  28
HETATM   28  S   UNL     1      -7.158  15.243  67.816  1.00  0.00    -0.177 SA 
BRANCH  28  29
HETATM   29  C   UNL     1      -7.542  16.695  66.760  1.00  0.00    -0.257 C  
HETATM   30  C   UNL     1      -8.869  16.646  66.130  1.00  0.00    -0.288 C  
HETATM   31  N   UNL     1      -9.920  16.607  65.639  1.00  0.00    -0.563 NA 
ENDBRANCH  28  29
ENDBRANCH  27  28
ENDBRANCH  24  27
ENDBRANCH   8  23
TORSDOF 8
ENDMDL
MODEL       12
REMARK 921   NORMALIZED FREE ENERGY PREDICTED BY IDOCK:   -5.88 KCAL/MOL
REMARK 922        TOTAL FREE ENERGY PREDICTED BY IDOCK:   -9.73 KCAL/MOL
REMARK 923 INTER-LIGAND FREE ENERGY PREDICTED BY IDOCK:   -9.28 KCAL/MOL
REMARK 924 INTRA-LIGAND FREE ENERGY PREDICTED BY IDOCK:   -0.44 KCAL/MOL
REMARK 927      BINDING AFFINITY PREDICTED BY RF-SCORE:    0.00 PKD
ROOT
HETATM    1  C   UNL     1     -10.401  12.689  68.085  1.00  0.00    -0.234 C  
HETATM    2  S   UNL     1      -8.603  12.476  68.088  1.00  0.00    -0.182 SA 
HETATM    3  C   UNL     1      -8.281  14.249  67.928  1.00  0.00    -0.156 C  
HETATM    4  C   UNL     1      -9.070  14.939  66.822  1.00  0.00    -0.295 C  
HETATM    5  O   UNL     1     -12.166  14.802  64.807  1.00  0.00    -0.408 OA 
HETATM    6  C   UNL     1     -10.263  14.480  66.332  1.00  0.00    -0.287 C  
HETATM    7  N   UNL     1     -10.791  13.313  66.828  1.00  0.00    -0.279 N  
HETATM    8  C   UNL     1     -11.269  11.414  67.662  1.00  0.00    -0.283 C  
HETATM    9  C   UNL     1     -10.974  15.256  65.230  1.00  0.00    -0.393 C  
HETATM   10  O   UNL     1     -12.638  12.520  65.683  1.00  0.00    -0.612 OA 
HETATM   11  C   UNL     1     -11.773  12.436  66.527  1.00  0.00    -0.379 C  
HETATM   12  O   UNL     1     -10.550  16.303  64.759  1.00  0.00    -0.658 OA 
ENDROOT
BRANCH   4  13
HETATM   13  C   UNL     1      -8.301  16.150  66.281  1.00  0.00    -0.287 C  
BRANCH  13  14
HETATM   14  S   UNL     1      -7.723  17.216  67.632  1.00  0.00    -0.174 SA 
BRANCH  14  15
HETATM   15  C   UNL     1      -8.845  18.526  67.496  1.00  0.00    -0.265 A  
HETATM   16  N   UNL     1     -10.004  18.613  68.106  1.00  0.00    -0.340 NA 
HETATM   17  N   UNL     1      -9.791  20.394  66.781  1.00  0.00    -0.438 NA 
HETATM   18  N   UNL     1     -10.584  19.773  67.645  1.00  0.00    -0.422 NA 
HETATM   19  C   UNL     1      -7.603  20.006  65.841  1.00  0.00    -0.300 C  
HETATM   20  N   UNL     1      -8.695  19.615  66.687  1.00  0.00    -0.331 NA 
ENDBRANCH  14  15
ENDBRANCH  13  14
ENDBRANCH   4  13
BRANCH   8  21
HETATM   21  O   UNL     1     -12.300  11.037  68.617  1.00  0.00    -0.539 OA 
HETATM   22  C   UNL     1     -12.217  11.654  69.900  1.00  0.00    -0.239 C  
ENDBRANCH   8  21
BRANCH   8  23
HETATM   23  N   UNL     1     -10.445  10.241  67.233  1.00  0.00    -0.236 N  
HETATM   24  C   UNL     1      -9.862   9.355  68.102  1.00  0.00    -0.160 C  
HETATM   25  H   UNL     1     -10.310  10.092  66.233  1.00  0.00     0.000 HD 
HETATM   26  O   UNL     1      -9.945   9.464  69.320  1.00  0.00    -0.168 OA 
BRANCH  24  27
HETATM   27  C   UNL     1      -9.029   8.264  67.457  1.00  0.00    -0.134 C  
BRANCH  27  28
HETATM   28  S   UNL     1     -10.109   7.019  66.674  1.00  0.00    -0.098 SA 
BRANCH  28  29
HETATM   29  C   UNL     1     -10.197   5.767  68.014  1.00  0.00    -0.187 C  
HETATM   30  C   UNL     1     -10.961   6.200  69.192  1.00  0.00    -0.381 C  
HETATM   31  N   UNL     1     -11.570   6.542  70.119  1.00  0.00    -0.417 NA 
ENDBRANCH  28  29
ENDBRANCH  27  28
ENDBRANCH  24  27
ENDBRANCH   8  23
TORSDOF 8
ENDMDL
MODEL       13
REMARK 921   NORMALIZED FREE ENERGY PREDICTED BY IDOCK:   -5.88 KCAL/MOL
REMARK 922        TOTAL FREE ENERGY PREDICTED BY IDOCK:   -9.72 KCAL/MOL
REMARK 923 INTER-LIGAND FREE ENERGY PREDICTED BY IDOCK:   -8.81 KCAL/MOL
REMARK 924 INTRA-LIGAND FREE ENERGY PREDICTED BY IDOCK:   -0.90 KCAL/MOL
REMARK 927      BINDING AFFINITY PREDICTED BY RF-SCORE:    0.00 PKD
ROOT
HETATM    1  C   UNL     1     -11.579  12.407  67.645  1.00  0.00    -0.357 C  
HETATM    2  S   UNL     1     -10.128  11.329  67.761  1.00  0.00    -0.183 SA 
HETATM    3  C   UNL     1     -10.970  10.121  68.812  1.00  0.00    -0.223 C  
HETATM    4  C   UNL     1     -11.702  10.722  70.006  1.00  0.00    -0.417 C  
HETATM    5  O   UNL     1     -13.368  13.760  71.291  1.00  0.00    -0.295 OA 
HETATM    6  C   UNL     1     -12.160  12.010  70.055  1.00  0.00    -0.280 C  
HETATM    7  N   UNL     1     -11.937  12.845  68.987  1.00  0.00    -0.283 N  
HETATM    8  C   UNL     1     -11.301  13.937  67.275  1.00  0.00    -0.323 C  
HETATM    9  C   UNL     1     -12.889  12.505  71.297  1.00  0.00    -0.241 C  
HETATM   10  O   UNL     1     -12.498  15.059  69.354  1.00  0.00    -0.171 OA 
HETATM   11  C   UNL     1     -12.027  14.161  68.693  1.00  0.00    -0.338 C  
HETATM   12  O   UNL     1     -13.120  11.800  72.272  1.00  0.00    -0.378 OA 
ENDROOT
BRANCH   4  13
HETATM   13  C   UNL     1     -11.764   9.719  71.164  1.00  0.00    -0.385 C  
BRANCH  13  14
HETATM   14  S   UNL     1     -10.130   9.002  71.498  1.00  0.00    -0.322 SA 
BRANCH  14  15
HETATM   15  C   UNL     1     -10.591   7.477  72.172  1.00  0.00    -0.221 A  
HETATM   16  N   UNL     1     -10.581   7.164  73.447  1.00  0.00    -0.360 NA 
HETATM   17  N   UNL     1     -11.185   5.349  72.300  1.00  0.00    -0.211 NA 
HETATM   18  N   UNL     1     -10.944   5.837  73.510  1.00  0.00    -0.233 NA 
HETATM   19  C   UNL     1     -11.163   6.204  70.044  1.00  0.00    -0.401 C  
HETATM   20  N   UNL     1     -10.968   6.377  71.456  1.00  0.00    -0.253 NA 
ENDBRANCH  14  15
ENDBRANCH  13  14
ENDBRANCH   4  13
BRANCH   8  21
HETATM   21  O   UNL     1     -12.062  14.435  66.138  1.00  0.00    -0.399 OA 
HETATM   22  C   UNL     1     -12.480  13.454  65.190  1.00  0.00    -0.459 C  
ENDBRANCH   8  21
BRANCH   8  23
HETATM   23  N   UNL     1      -9.849  14.277  67.169  1.00  0.00    -0.247 N  
HETATM   24  C   UNL     1      -9.345  15.545  67.308  1.00  0.00    -0.212 C  
HETATM   25  H   UNL     1      -9.192  13.519  66.981  1.00  0.00     0.000 HD 
HETATM   26  O   UNL     1     -10.054  16.525  67.508  1.00  0.00    -0.255 OA 
BRANCH  24  27
HETATM   27  C   UNL     1      -7.847  15.675  67.114  1.00  0.00    -0.217 C  
BRANCH  27  28
HETATM   28  S   UNL     1      -7.453  17.221  66.228  1.00  0.00    -0.297 SA 
BRANCH  28  29
HETATM   29  C   UNL     1      -6.836  18.252  67.616  1.00  0.00    -0.202 C  
HETATM   30  C   UNL     1      -7.893  18.953  68.359  1.00  0.00    -0.325 C  
HETATM   31  N   UNL     1      -8.729  19.501  68.948  1.00  0.00    -0.321 NA 
ENDBRANCH  28  29
ENDBRANCH  27  28
ENDBRANCH  24  27
ENDBRANCH   8  23
TORSDOF 8
ENDMDL
MODEL       14
REMARK 921   NORMALIZED FREE ENERGY PREDICTED BY IDOCK:   -5.87 KCAL/MOL
REMARK 922        TOTAL FREE ENERGY PREDICTED BY IDOCK:   -9.71 KCAL/MOL
REMARK 923 INTER-LIGAND FREE ENERGY PREDICTED BY IDOCK:   -8.63 KCAL/MOL
REMARK 924 INTRA-LIGAND FREE ENERGY PREDICTED BY IDOCK:   -1.08 KCAL/MOL
REMARK 927      BINDING AFFINITY PREDICTED BY RF-SCORE:    0.00 PKD
ROOT
HETATM    1  C   UNL     1     -11.584  12.791  67.700  1.00  0.00    -0.358 C  
HETATM    2  S   UNL     1     -10.275  11.569  67.966  1.00  0.00    -0.198 SA 
HETATM    3  C   UNL     1     -11.284  10.567  69.085  1.00  0.00    -0.256 C  
HETATM    4  C   UNL     1     -11.973  11.354  70.193  1.00  0.00    -0.460 C  
HETATM    5  O   UNL     1     -13.303  14.669  71.142  1.00  0.00    -0.357 OA 
HETATM    6  C   UNL     1     -12.276  12.686  70.111  1.00  0.00    -0.238 C  
HETATM    7  N   UNL     1     -11.925  13.389  68.983  1.00  0.00    -0.327 N  
HETATM    8  C   UNL     1     -11.117  14.239  67.209  1.00  0.00    -0.306 C  
HETATM    9  C   UNL     1     -12.977  13.373  71.276  1.00  0.00    -0.287 C  
HETATM   10  O   UNL     1     -12.230  15.677  69.134  1.00  0.00    -0.298 OA 
HETATM   11  C   UNL     1     -11.850  14.673  68.573  1.00  0.00    -0.311 C  
HETATM   12  O   UNL     1     -13.317  12.791  72.299  1.00  0.00    -0.532 OA 
ENDROOT
BRANCH   4  13
HETATM   13  C   UNL     1     -12.187  10.475  71.430  1.00  0.00    -0.327 C  
BRANCH  13  14
HETATM   14  S   UNL     1     -12.035   8.714  71.017  1.00  0.00    -0.195 SA 
BRANCH  14  15
HETATM   15  C   UNL     1     -10.842   8.225  72.169  1.00  0.00    -0.320 A  
HETATM   16  N   UNL     1     -11.073   7.589  73.294  1.00  0.00    -0.335 NA 
HETATM   17  N   UNL     1      -8.889   8.027  73.191  1.00  0.00    -0.227 NA 
HETATM   18  N   UNL     1      -9.852   7.481  73.922  1.00  0.00    -0.236 NA 
HETATM   19  C   UNL     1      -8.744   9.133  71.052  1.00  0.00    -0.189 C  
HETATM   20  N   UNL     1      -9.505   8.493  72.087  1.00  0.00    -0.284 NA 
ENDBRANCH  14  15
ENDBRANCH  13  14
ENDBRANCH   4  13
BRANCH   8  21
HETATM   21  O   UNL     1     -11.781  14.716  66.004  1.00  0.00    -0.359 OA 
HETATM   22  C   UNL     1     -12.642  13.781  65.356  1.00  0.00    -0.497 C  
ENDBRANCH   8  21
BRANCH   8  23
HETATM   23  N   UNL     1      -9.632  14.398  67.130  1.00  0.00    -0.243 N  
HETATM   24  C   UNL     1      -8.980  15.597  67.266  1.00  0.00    -0.199 C  
HETATM   25  H   UNL     1      -9.069  13.563  66.965  1.00  0.00     0.000 HD 
HETATM   26  O   UNL     1      -9.567  16.659  67.441  1.00  0.00    -0.237 OA 
BRANCH  24  27
HETATM   27  C   UNL     1      -7.473  15.540  67.103  1.00  0.00    -0.209 C  
BRANCH  27  28
HETATM   28  S   UNL     1      -6.793  14.096  67.985  1.00  0.00    -0.163 SA 
BRANCH  28  29
HETATM   29  C   UNL     1      -6.409  14.851  69.614  1.00  0.00    -0.142 C  
HETATM   30  C   UNL     1      -6.022  13.883  70.649  1.00  0.00    -0.174 C  
HETATM   31  N   UNL     1      -5.710  13.116  71.463  1.00  0.00    -0.363 NA 
ENDBRANCH  28  29
ENDBRANCH  27  28
ENDBRANCH  24  27
ENDBRANCH   8  23
TORSDOF 8
ENDMDL
MODEL       15
REMARK 921   NORMALIZED FREE ENERGY PREDICTED BY IDOCK:   -5.86 KCAL/MOL
REMARK 922        TOTAL FREE ENERGY PREDICTED BY IDOCK:   -9.69 KCAL/MOL
REMARK 923 INTER-LIGAND FREE ENERGY PREDICTED BY IDOCK:   -9.17 KCAL/MOL
REMARK 924 INTRA-LIGAND FREE ENERGY PREDICTED BY IDOCK:   -0.52 KCAL/MOL
REMARK 927      BINDING AFFINITY PREDICTED BY RF-SCORE:    0.00 PKD
ROOT
HETATM    1  C   UNL     1      -9.853  10.388  69.668  1.00  0.00    -0.144 C  
HETATM    2  S   UNL     1      -9.648  10.376  67.869  1.00  0.00    -0.143 SA 
HETATM    3  C   UNL     1      -9.500  12.176  67.762  1.00  0.00    -0.192 C  
HETATM    4  C   UNL     1     -10.584  12.946  68.506  1.00  0.00    -0.270 C  
HETATM    5  O   UNL     1     -12.982  12.801  71.314  1.00  0.00    -0.321 OA 
HETATM    6  C   UNL     1     -11.288  12.445  69.567  1.00  0.00    -0.180 C  
HETATM    7  N   UNL     1     -11.043  11.162  69.992  1.00  0.00    -0.175 N  
HETATM    8  C   UNL     1     -10.571   9.112  70.312  1.00  0.00    -0.223 C  
HETATM    9  C   UNL     1     -12.345  13.308  70.245  1.00  0.00    -0.264 C  
HETATM   10  O   UNL     1     -12.524  10.369  71.583  1.00  0.00    -0.391 OA 
HETATM   11  C   UNL     1     -11.597  10.244  70.814  1.00  0.00    -0.355 C  
HETATM   12  O   UNL     1     -12.597  14.458  69.910  1.00  0.00    -0.303 OA 
ENDROOT
BRANCH   4  13
HETATM   13  C   UNL     1     -10.835  14.306  67.843  1.00  0.00    -0.253 C  
BRANCH  13  14
HETATM   14  S   UNL     1      -9.663  14.601  66.489  1.00  0.00    -0.294 SA 
BRANCH  14  15
HETATM   15  C   UNL     1     -10.732  15.226  65.282  1.00  0.00    -0.415 A  
HETATM   16  N   UNL     1     -10.702  16.439  64.780  1.00  0.00    -0.701 NA 
HETATM   17  N   UNL     1     -12.443  15.371  63.886  1.00  0.00    -0.624 NA 
HETATM   18  N   UNL     1     -11.776  16.517  63.922  1.00  0.00    -1.022 NA 
HETATM   19  C   UNL     1     -12.235  13.204  64.927  1.00  0.00    -0.428 C  
HETATM   20  N   UNL     1     -11.789  14.555  64.737  1.00  0.00    -0.420 NA 
ENDBRANCH  14  15
ENDBRANCH  13  14
ENDBRANCH   4  13
BRANCH   8  21
HETATM   21  O   UNL     1      -9.824   8.473  71.386  1.00  0.00    -0.189 OA 
HETATM   22  C   UNL     1     -10.606   7.879  72.420  1.00  0.00    -0.298 C  
ENDBRANCH   8  21
BRANCH   8  23
HETATM   23  N   UNL     1     -11.058   8.122  69.302  1.00  0.00    -0.434 N  
HETATM   24  C   UNL     1     -10.280   7.129  68.763  1.00  0.00    -0.179 C  
HETATM   25  H   UNL     1     -12.028   8.190  68.995  1.00  0.00     0.000 HD 
HETATM   26  O   UNL     1      -9.096   6.983  69.047  1.00  0.00    -0.137 OA 
BRANCH  24  27
HETATM   27  C   UNL     1     -10.959   6.265  67.719  1.00  0.00    -0.332 C  
BRANCH  27  28
HETATM   28  S   UNL     1      -9.989   4.748  67.423  1.00  0.00    -0.129 SA 
BRANCH  28  29
HETATM   29  C   UNL     1      -9.440   5.036  65.695  1.00  0.00    -0.141 C  
HETATM   30  C   UNL     1      -8.764   6.324  65.487  1.00  0.00    -0.082 C  
HETATM   31  N   UNL     1      -8.224   7.340  65.327  1.00  0.00    -0.134 NA 
ENDBRANCH  28  29
ENDBRANCH  27  28
ENDBRANCH  24  27
ENDBRANCH   8  23
TORSDOF 8
ENDMDL
MODEL       16
REMARK 921   NORMALIZED FREE ENERGY PREDICTED BY IDOCK:   -5.85 KCAL/MOL
REMARK 922        TOTAL FREE ENERGY PREDICTED BY IDOCK:   -9.67 KCAL/MOL
REMARK 923 INTER-LIGAND FREE ENERGY PREDICTED BY IDOCK:   -8.58 KCAL/MOL
REMARK 924 INTRA-LIGAND FREE ENERGY PREDICTED BY IDOCK:   -1.10 KCAL/MOL
REMARK 927      BINDING AFFINITY PREDICTED BY RF-SCORE:    0.00 PKD
ROOT
HETATM    1  C   UNL     1      -8.648   9.453  68.473  1.00  0.00    -0.123 C  
HETATM    2  S   UNL     1     -10.435   9.595  68.216  1.00  0.00    -0.223 SA 
HETATM    3  C   UNL     1     -10.266  10.914  66.989  1.00  0.00    -0.214 C  
HETATM    4  C   UNL     1      -9.358  12.061  67.413  1.00  0.00    -0.178 C  
HETATM    5  O   UNL     1      -6.489  12.988  69.552  1.00  0.00    -0.116 OA 
HETATM    6  C   UNL     1      -8.354  11.942  68.336  1.00  0.00    -0.157 C  
HETATM    7  N   UNL     1      -8.147  10.732  68.955  1.00  0.00    -0.138 N  
HETATM    8  C   UNL     1      -8.177   8.807  69.857  1.00  0.00    -0.118 C  
HETATM    9  C   UNL     1      -7.497  13.154  68.678  1.00  0.00    -0.092 C  
HETATM   10  O   UNL     1      -6.628  10.783  70.698  1.00  0.00    -0.332 OA 
HETATM   11  C   UNL     1      -7.452  10.235  70.000  1.00  0.00    -0.132 C  
HETATM   12  O   UNL     1      -7.635  14.251  68.151  1.00  0.00    -0.111 OA 
ENDROOT
BRANCH   4  13
HETATM   13  C   UNL     1      -9.785  13.370  66.739  1.00  0.00    -0.262 C  
BRANCH  13  14
HETATM   14  S   UNL     1     -11.549  13.703  67.016  1.00  0.00    -0.382 SA 
BRANCH  14  15
HETATM   15  C   UNL     1     -12.165  13.467  65.417  1.00  0.00    -0.447 A  
HETATM   16  N   UNL     1     -12.698  12.361  64.953  1.00  0.00    -0.684 NA 
HETATM   17  N   UNL     1     -12.624  13.840  63.285  1.00  0.00    -0.734 NA 
HETATM   18  N   UNL     1     -12.970  12.604  63.625  1.00  0.00    -0.630 NA 
HETATM   19  C   UNL     1     -11.663  15.748  64.406  1.00  0.00    -0.201 C  
HETATM   20  N   UNL     1     -12.120  14.387  64.408  1.00  0.00    -0.479 NA 
ENDBRANCH  14  15
ENDBRANCH  13  14
ENDBRANCH   4  13
BRANCH   8  21
HETATM   21  O   UNL     1      -7.256   7.688  69.723  1.00  0.00    -0.074 OA 
HETATM   22  C   UNL     1      -7.587   6.724  68.725  1.00  0.00    -0.105 C  
ENDBRANCH   8  21
BRANCH   8  23
HETATM   23  N   UNL     1      -9.304   8.495  70.791  1.00  0.00    -0.161 N  
HETATM   24  C   UNL     1      -9.183   8.464  72.156  1.00  0.00    -0.243 C  
HETATM   25  H   UNL     1     -10.218   8.293  70.386  1.00  0.00     0.000 HD 
HETATM   26  O   UNL     1      -8.121   8.665  72.736  1.00  0.00    -0.380 OA 
BRANCH  24  27
HETATM   27  C   UNL     1     -10.440   8.078  72.912  1.00  0.00    -0.332 C  
BRANCH  27  28
HETATM   28  S   UNL     1     -11.921   8.664  72.023  1.00  0.00    -0.387 SA 
BRANCH  28  29
HETATM   29  C   UNL     1     -12.571   7.074  71.375  1.00  0.00    -0.386 C  
HETATM   30  C   UNL     1     -11.776   6.501  70.281  1.00  0.00    -0.366 C  
HETATM   31  N   UNL     1     -11.143   6.047  69.420  1.00  0.00    -0.390 NA 
ENDBRANCH  28  29
ENDBRANCH  27  28
ENDBRANCH  24  27
ENDBRANCH   8  23
TORSDOF 8
ENDMDL
MODEL       17
REMARK 921   NORMALIZED FREE ENERGY PREDICTED BY IDOCK:   -5.80 KCAL/MOL
REMARK 922        TOTAL FREE ENERGY PREDICTED BY IDOCK:   -9.60 KCAL/MOL
REMARK 923 INTER-LIGAND FREE ENERGY PREDICTED BY IDOCK:   -9.36 KCAL/MOL
REMARK 924 INTRA-LIGAND FREE ENERGY PREDICTED BY IDOCK:   -0.24 KCAL/MOL
REMARK 927      BINDING AFFINITY PREDICTED BY RF-SCORE:    0.00 PKD
ROOT
HETATM    1  C   UNL     1     -10.449  12.935  67.504  1.00  0.00    -0.223 C  
HETATM    2  S   UNL     1      -8.645  13.085  67.544  1.00  0.00    -0.204 SA 
HETATM    3  C   UNL     1      -8.682  14.893  67.499  1.00  0.00    -0.187 C  
HETATM    4  C   UNL     1      -9.577  15.481  66.415  1.00  0.00    -0.317 C  
HETATM    5  O   UNL     1     -12.550  14.861  64.310  1.00  0.00    -0.699 OA 
HETATM    6  C   UNL     1     -10.645  14.826  65.865  1.00  0.00    -0.314 C  
HETATM    7  N   UNL     1     -10.936  13.548  66.276  1.00  0.00    -0.288 N  
HETATM    8  C   UNL     1     -11.037  11.543  66.981  1.00  0.00    -0.307 C  
HETATM    9  C   UNL     1     -11.480  15.514  64.792  1.00  0.00    -0.313 C  
HETATM   10  O   UNL     1     -12.570  12.479  65.035  1.00  0.00    -0.592 OA 
HETATM   11  C   UNL     1     -11.719  12.515  65.896  1.00  0.00    -0.426 C  
HETATM   12  O   UNL     1     -11.267  16.653  64.396  1.00  0.00    -1.033 OA 
ENDROOT
BRANCH   4  13
HETATM   13  C   UNL     1      -9.057  16.853  65.968  1.00  0.00    -0.164 C  
BRANCH  13  14
HETATM   14  S   UNL     1      -7.362  17.133  66.554  1.00  0.00    -0.300 SA 
BRANCH  14  15
HETATM   15  C   UNL     1      -6.944  18.538  65.636  1.00  0.00    -0.209 A  
HETATM   16  N   UNL     1      -6.158  18.565  64.584  1.00  0.00    -0.323 NA 
HETATM   17  N   UNL     1      -6.762  20.662  65.043  1.00  0.00    -0.239 NA 
HETATM   18  N   UNL     1      -6.047  19.892  64.233  1.00  0.00    -0.267 NA 
HETATM   19  C   UNL     1      -8.203  20.319  66.947  1.00  0.00    -0.294 C  
HETATM   20  N   UNL     1      -7.329  19.816  65.925  1.00  0.00    -0.308 NA 
ENDBRANCH  14  15
ENDBRANCH  13  14
ENDBRANCH   4  13
BRANCH   8  21
HETATM   21  O   UNL     1     -11.986  10.908  67.883  1.00  0.00    -0.585 OA 
HETATM   22  C   UNL     1     -11.803  11.177  69.272  1.00  0.00    -0.352 C  
ENDBRANCH   8  21
BRANCH   8  23
HETATM   23  N   UNL     1      -9.989  10.587  66.507  1.00  0.00    -0.207 N  
HETATM   24  C   UNL     1      -9.804  10.241  65.193  1.00  0.00    -0.321 C  
HETATM   25  H   UNL     1      -9.374  10.167  67.204  1.00  0.00     0.000 HD 
HETATM   26  O   UNL     1     -10.508  10.670  64.286  1.00  0.00    -0.349 OA 
BRANCH  24  27
HETATM   27  C   UNL     1      -8.716   9.217  64.937  1.00  0.00    -0.182 C  
BRANCH  27  28
HETATM   28  S   UNL     1      -8.818   7.863  66.156  1.00  0.00    -0.163 SA 
BRANCH  28  29
HETATM   29  C   UNL     1      -7.099   7.866  66.801  1.00  0.00    -0.077 C  
HETATM   30  C   UNL     1      -6.608   9.193  67.197  1.00  0.00    -0.061 C  
HETATM   31  N   UNL     1      -6.225  10.242  67.514  1.00  0.00    -0.057 NA 
ENDBRANCH  28  29
ENDBRANCH  27  28
ENDBRANCH  24  27
ENDBRANCH   8  23
TORSDOF 8
ENDMDL
MODEL       18
REMARK 921   NORMALIZED FREE ENERGY PREDICTED BY IDOCK:   -5.79 KCAL/MOL
REMARK 922        TOTAL FREE ENERGY PREDICTED BY IDOCK:   -9.59 KCAL/MOL
REMARK 923 INTER-LIGAND FREE ENERGY PREDICTED BY IDOCK:   -8.63 KCAL/MOL
REMARK 924 INTRA-LIGAND FREE ENERGY PREDICTED BY IDOCK:   -0.96 KCAL/MOL
REMARK 927      BINDING AFFINITY PREDICTED BY RF-SCORE:    0.00 PKD
ROOT
HETATM    1  C   UNL     1     -10.690  13.390  66.711  1.00  0.00    -0.277 C  
HETATM    2  S   UNL     1      -9.296  12.250  66.897  1.00  0.00    -0.214 SA 
HETATM    3  C   UNL     1     -10.267  11.038  67.825  1.00  0.00    -0.183 C  
HETATM    4  C   UNL     1     -11.070  11.621  68.981  1.00  0.00    -0.297 C  
HETATM    5  O   UNL     1     -12.718  14.673  70.256  1.00  0.00    -0.335 OA 
HETATM    6  C   UNL     1     -11.481  12.924  69.047  1.00  0.00    -0.308 C  
HETATM    7  N   UNL     1     -11.139  13.791  68.037  1.00  0.00    -0.253 N  
HETATM    8  C   UNL     1     -10.325  14.921  66.429  1.00  0.00    -0.286 C  
HETATM    9  C   UNL     1     -12.289  13.400  70.248  1.00  0.00    -0.284 C  
HETATM   10  O   UNL     1     -11.643  16.010  68.452  1.00  0.00    -0.364 OA 
HETATM   11  C   UNL     1     -11.155  15.119  67.793  1.00  0.00    -0.313 C  
HETATM   12  O   UNL     1     -12.625  12.667  71.170  1.00  0.00    -0.366 OA 
ENDROOT
BRANCH   4  13
HETATM   13  C   UNL     1     -11.265  10.577  70.087  1.00  0.00    -0.315 C  
BRANCH  13  14
HETATM   14  S   UNL     1      -9.764   9.582  70.320  1.00  0.00    -0.269 SA 
BRANCH  14  15
HETATM   15  C   UNL     1     -10.432   7.989  70.252  1.00  0.00    -0.222 A  
HETATM   16  N   UNL     1     -10.581   7.262  69.168  1.00  0.00    -0.215 NA 
HETATM   17  N   UNL     1     -11.447   6.125  70.880  1.00  0.00    -0.297 NA 
HETATM   18  N   UNL     1     -11.220   6.112  69.573  1.00  0.00    -0.417 NA 
HETATM   19  C   UNL     1     -11.006   7.640  72.706  1.00  0.00    -0.377 C  
HETATM   20  N   UNL     1     -10.950   7.302  71.312  1.00  0.00    -0.240 NA 
ENDBRANCH  14  15
ENDBRANCH  13  14
ENDBRANCH   4  13
BRANCH   8  21
HETATM   21  O   UNL     1     -10.971  15.494  65.257  1.00  0.00    -0.361 OA 
HETATM   22  C   UNL     1     -11.810  14.612  64.514  1.00  0.00    -0.431 C  
ENDBRANCH   8  21
BRANCH   8  23
HETATM   23  N   UNL     1      -8.857  15.205  66.454  1.00  0.00    -0.421 N  
HETATM   24  C   UNL     1      -8.317  16.434  66.734  1.00  0.00    -0.250 C  
HETATM   25  H   UNL     1      -8.218  14.436  66.250  1.00  0.00     0.000 HD 
HETATM   26  O   UNL     1      -9.001  17.425  66.965  1.00  0.00    -0.230 OA 
BRANCH  24  27
HETATM   27  C   UNL     1      -6.804  16.513  66.657  1.00  0.00    -0.126 C  
BRANCH  27  28
HETATM   28  S   UNL     1      -6.291  18.062  65.842  1.00  0.00    -0.254 SA 
BRANCH  28  29
HETATM   29  C   UNL     1      -5.370  18.868  67.210  1.00  0.00    -0.157 C  
HETATM   30  C   UNL     1      -6.218  19.319  68.322  1.00  0.00    -0.224 C  
HETATM   31  N   UNL     1      -6.890  19.669  69.201  1.00  0.00    -0.338 NA 
ENDBRANCH  28  29
ENDBRANCH  27  28
ENDBRANCH  24  27
ENDBRANCH   8  23
TORSDOF 8
ENDMDL
MODEL       19
REMARK 921   NORMALIZED FREE ENERGY PREDICTED BY IDOCK:   -5.78 KCAL/MOL
REMARK 922        TOTAL FREE ENERGY PREDICTED BY IDOCK:   -9.57 KCAL/MOL
REMARK 923 INTER-LIGAND FREE ENERGY PREDICTED BY IDOCK:   -8.79 KCAL/MOL
REMARK 924 INTRA-LIGAND FREE ENERGY PREDICTED BY IDOCK:   -0.78 KCAL/MOL
REMARK 927      BINDING AFFINITY PREDICTED BY RF-SCORE:    0.00 PKD
ROOT
HETATM    1  C   UNL     1     -11.290  12.120  66.589  1.00  0.00    -0.350 C  
HETATM    2  S   UNL     1      -9.634  11.581  66.093  1.00  0.00    -0.231 SA 
HETATM    3  C   UNL     1      -9.793   9.971  66.903  1.00  0.00    -0.197 C  
HETATM    4  C   UNL     1     -10.290  10.033  68.342  1.00  0.00    -0.218 C  
HETATM    5  O   UNL     1     -12.270  12.013  70.754  1.00  0.00    -0.377 OA 
HETATM    6  C   UNL     1     -11.041  11.059  68.850  1.00  0.00    -0.239 C  
HETATM    7  N   UNL     1     -11.358  12.125  68.043  1.00  0.00    -0.272 N  
HETATM    8  C   UNL     1     -11.544  13.698  66.623  1.00  0.00    -0.364 C  
HETATM    9  C   UNL     1     -11.494  11.014  70.304  1.00  0.00    -0.273 C  
HETATM   10  O   UNL     1     -12.359  13.902  69.135  1.00  0.00    -0.314 OA 
HETATM   11  C   UNL     1     -11.872  13.368  68.162  1.00  0.00    -0.361 C  
HETATM   12  O   UNL     1     -11.244  10.085  71.062  1.00  0.00    -0.341 OA 
ENDROOT
BRANCH   4  13
HETATM   13  C   UNL     1      -9.755   8.847  69.153  1.00  0.00    -0.168 C  
BRANCH  13  14
HETATM   14  S   UNL     1     -10.607   7.308  68.701  1.00  0.00    -0.130 SA 
BRANCH  14  15
HETATM   15  C   UNL     1     -11.093   6.751  70.264  1.00  0.00    -0.310 A  
HETATM   16  N   UNL     1     -12.277   6.914  70.806  1.00  0.00    -0.364 NA 
HETATM   17  N   UNL     1     -10.974   5.895  72.301  1.00  0.00    -0.251 NA 
HETATM   18  N   UNL     1     -12.186   6.386  72.074  1.00  0.00    -0.327 NA 
HETATM   19  C   UNL     1      -8.920   5.686  71.053  1.00  0.00    -0.141 C  
HETATM   20  N   UNL     1     -10.284   6.120  71.166  1.00  0.00    -0.193 NA 
ENDBRANCH  14  15
ENDBRANCH  13  14
ENDBRANCH   4  13
BRANCH   8  21
HETATM   21  O   UNL     1     -12.699  14.144  65.856  1.00  0.00    -0.487 OA 
HETATM   22  C   UNL     1     -12.457  14.442  64.482  1.00  0.00    -0.339 C  
ENDBRANCH   8  21
BRANCH   8  23
HETATM   23  N   UNL     1     -10.325  14.511  66.324  1.00  0.00    -0.285 N  
HETATM   24  C   UNL     1     -10.098  15.767  66.827  1.00  0.00    -0.271 C  
HETATM   25  H   UNL     1      -9.620  14.107  65.708  1.00  0.00     0.000 HD 
HETATM   26  O   UNL     1     -10.896  16.348  67.553  1.00  0.00    -0.315 OA 
BRANCH  24  27
HETATM   27  C   UNL     1      -8.820  16.434  66.357  1.00  0.00    -0.311 C  
BRANCH  27  28
HETATM   28  S   UNL     1      -8.258  17.663  67.583  1.00  0.00    -0.228 SA 
BRANCH  28  29
HETATM   29  C   UNL     1      -8.600  19.221  66.673  1.00  0.00    -0.322 C  
HETATM   30  C   UNL     1      -7.683  20.322  67.001  1.00  0.00    -0.321 C  
HETATM   31  N   UNL     1      -6.954  21.187  67.257  1.00  0.00    -0.493 NA 
ENDBRANCH  28  29
ENDBRANCH  27  28
ENDBRANCH  24  27
ENDBRANCH   8  23
TORSDOF 8
ENDMDL
MODEL       20
REMARK 921   NORMALIZED FREE ENERGY PREDICTED BY IDOCK:   -5.77 KCAL/MOL
REMARK 922        TOTAL FREE ENERGY PREDICTED BY IDOCK:   -9.56 KCAL/MOL
REMARK 923 INTER-LIGAND FREE ENERGY PREDICTED BY IDOCK:   -8.84 KCAL/MOL
REMARK 924 INTRA-LIGAND FREE ENERGY PREDICTED BY IDOCK:   -0.71 KCAL/MOL
REMARK 927      BINDING AFFINITY PREDICTED BY RF-SCORE:    0.00 PKD
ROOT
HETATM    1  C   UNL     1      -9.045   9.973  69.350  1.00  0.00    -0.215 C  
HETATM    2  S   UNL     1      -8.943   9.823  67.548  1.00  0.00    -0.130 SA 
HETATM    3  C   UNL     1      -9.085  11.607  67.280  1.00  0.00    -0.167 C  
HETATM    4  C   UNL     1     -10.233  12.271  68.031  1.00  0.00    -0.206 C  
HETATM    5  O   UNL     1     -12.417  12.030  71.002  1.00  0.00    -0.368 OA 
HETATM    6  C   UNL     1     -10.789  11.771  69.177  1.00  0.00    -0.172 C  
HETATM    7  N   UNL     1     -10.322  10.585  69.690  1.00  0.00    -0.222 N  
HETATM    8  C   UNL     1      -9.517   8.670  70.147  1.00  0.00    -0.164 C  
HETATM    9  C   UNL     1     -11.928  12.523  69.852  1.00  0.00    -0.301 C  
HETATM   10  O   UNL     1     -11.568   9.731  71.442  1.00  0.00    -0.364 OA 
HETATM   11  C   UNL     1     -10.678   9.675  70.623  1.00  0.00    -0.322 C  
HETATM   12  O   UNL     1     -12.375  13.586  69.440  1.00  0.00    -0.262 OA 
ENDROOT
BRANCH   4  13
HETATM   13  C   UNL     1     -10.731  13.509  67.275  1.00  0.00    -0.267 C  
BRANCH  13  14
HETATM   14  S   UNL     1     -10.457  13.340  65.489  1.00  0.00    -0.293 SA 
BRANCH  14  15
HETATM   15  C   UNL     1     -11.043  14.871  64.937  1.00  0.00    -0.414 A  
HETATM   16  N   UNL     1     -12.064  15.061  64.135  1.00  0.00    -0.535 NA 
HETATM   17  N   UNL     1     -11.152  17.050  64.566  1.00  0.00    -1.062 NA 
HETATM   18  N   UNL     1     -12.115  16.418  63.906  1.00  0.00    -0.747 NA 
HETATM   19  C   UNL     1      -9.368  16.420  66.063  1.00  0.00    -0.300 C  
HETATM   20  N   UNL     1     -10.478  16.082  65.218  1.00  0.00    -0.531 NA 
ENDBRANCH  14  15
ENDBRANCH  13  14
ENDBRANCH   4  13
BRANCH   8  21
HETATM   21  O   UNL     1      -8.620   8.254  71.216  1.00  0.00    -0.125 OA 
HETATM   22  C   UNL     1      -7.226   8.328  70.924  1.00  0.00    -0.058 C  
ENDBRANCH   8  21
BRANCH   8  23
HETATM   23  N   UNL     1      -9.898   7.527  69.261  1.00  0.00    -0.167 N  
HETATM   24  C   UNL     1     -10.661   6.462  69.667  1.00  0.00    -0.282 C  
HETATM   25  H   UNL     1      -9.571   7.541  68.294  1.00  0.00     0.000 HD 
HETATM   26  O   UNL     1     -11.079   6.341  70.813  1.00  0.00    -0.279 OA 
BRANCH  24  27
HETATM   27  C   UNL     1     -10.889   5.389  68.620  1.00  0.00     0.090 C  
BRANCH  27  28
HETATM   28  S   UNL     1     -10.550   6.046  66.952  1.00  0.00    -0.318 SA 
BRANCH  28  29
HETATM   29  C   UNL     1      -9.584   4.658  66.238  1.00  0.00    -0.184 C  
HETATM   30  C   UNL     1     -10.137   4.122  64.987  1.00  0.00    -0.208 C  
HETATM   31  N   UNL     1     -10.572   3.704  63.995  1.00  0.00    -0.270 NA 
ENDBRANCH  28  29
ENDBRANCH  27  28
ENDBRANCH  24  27
ENDBRANCH   8  23
TORSDOF 8
ENDMDL
MODEL       21
REMARK 921   NORMALIZED FREE ENERGY PREDICTED BY IDOCK:   -5.76 KCAL/MOL
REMARK 922        TOTAL FREE ENERGY PREDICTED BY IDOCK:   -9.54 KCAL/MOL
REMARK 923 INTER-LIGAND FREE ENERGY PREDICTED BY IDOCK:   -8.40 KCAL/MOL
REMARK 924 INTRA-LIGAND FREE ENERGY PREDICTED BY IDOCK:   -1.15 KCAL/MOL
REMARK 927      BINDING AFFINITY PREDICTED BY RF-SCORE:    0.00 PKD
ROOT
HETATM    1  C   UNL     1      -8.636   8.932  71.391  1.00  0.00    -0.172 C  
HETATM    2  S   UNL     1      -8.160   8.659  69.665  1.00  0.00    -0.115 SA 
HETATM    3  C   UNL     1      -9.071  10.103  69.069  1.00  0.00    -0.173 C  
HETATM    4  C   UNL     1     -10.509  10.195  69.567  1.00  0.00    -0.263 C  
HETATM    5  O   UNL     1     -12.809   9.235  72.295  1.00  0.00    -0.389 OA 
HETATM    6  C   UNL     1     -10.957   9.613  70.722  1.00  0.00    -0.327 C  
HETATM    7  N   UNL     1     -10.088   8.871  71.484  1.00  0.00    -0.297 N  
HETATM    8  C   UNL     1      -8.573   7.659  72.357  1.00  0.00    -0.125 C  
HETATM    9  C   UNL     1     -12.415   9.778  71.131  1.00  0.00    -0.350 C  
HETATM   10  O   UNL     1     -11.075   7.709  73.225  1.00  0.00    -0.382 OA 
HETATM   11  C   UNL     1     -10.133   8.010  72.524  1.00  0.00    -0.278 C  
HETATM   12  O   UNL     1     -13.228  10.434  70.492  1.00  0.00    -0.300 OA 
ENDROOT
BRANCH   4  13
HETATM   13  C   UNL     1     -11.387  10.941  68.556  1.00  0.00    -0.299 C  
BRANCH  13  14
HETATM   14  S   UNL     1     -10.384  11.663  67.225  1.00  0.00    -0.209 SA 
BRANCH  14  15
HETATM   15  C   UNL     1     -11.622  12.399  66.268  1.00  0.00    -0.393 A  
HETATM   16  N   UNL     1     -12.236  11.849  65.246  1.00  0.00    -0.292 NA 
HETATM   17  N   UNL     1     -12.989  13.937  65.453  1.00  0.00    -0.748 NA 
HETATM   18  N   UNL     1     -13.075  12.818  64.745  1.00  0.00    -0.836 NA 
HETATM   19  C   UNL     1     -11.754  14.680  67.388  1.00  0.00    -0.390 C  
HETATM   20  N   UNL     1     -12.079  13.678  66.413  1.00  0.00    -0.425 NA 
ENDBRANCH  14  15
ENDBRANCH  13  14
ENDBRANCH   4  13
BRANCH   8  21
HETATM   21  O   UNL     1      -7.791   7.854  73.568  1.00  0.00    -0.138 OA 
HETATM   22  C   UNL     1      -6.451   8.306  73.379  1.00  0.00    -0.111 C  
ENDBRANCH   8  21
BRANCH   8  23
HETATM   23  N   UNL     1      -8.212   6.388  71.655  1.00  0.00    -0.116 N  
HETATM   24  C   UNL     1      -8.517   5.137  72.127  1.00  0.00    -0.125 C  
HETATM   25  H   UNL     1      -7.707   6.456  70.771  1.00  0.00     0.000 HD 
HETATM   26  O   UNL     1      -9.098   4.950  73.191  1.00  0.00    -0.117 OA 
BRANCH  24  27
HETATM   27  C   UNL     1      -8.014   3.982  71.283  1.00  0.00    -0.071 C  
BRANCH  27  28
HETATM   28  S   UNL     1      -9.339   3.373  70.186  1.00  0.00    -0.173 SA 
BRANCH  28  29
HETATM   29  C   UNL     1      -9.390   4.725  68.944  1.00  0.00    -0.135 C  
HETATM   30  C   UNL     1     -10.519   5.652  69.111  1.00  0.00    -0.269 C  
HETATM   31  N   UNL     1     -11.407   6.385  69.248  1.00  0.00    -0.378 NA 
ENDBRANCH  28  29
ENDBRANCH  27  28
ENDBRANCH  24  27
ENDBRANCH   8  23
TORSDOF 8
ENDMDL
MODEL       22
REMARK 921   NORMALIZED FREE ENERGY PREDICTED BY IDOCK:   -5.71 KCAL/MOL
REMARK 922        TOTAL FREE ENERGY PREDICTED BY IDOCK:   -9.48 KCAL/MOL
REMARK 923 INTER-LIGAND FREE ENERGY PREDICTED BY IDOCK:   -8.92 KCAL/MOL
REMARK 924 INTRA-LIGAND FREE ENERGY PREDICTED BY IDOCK:   -0.56 KCAL/MOL
REMARK 927      BINDING AFFINITY PREDICTED BY RF-SCORE:    0.00 PKD
ROOT
HETATM    1  C   UNL     1      -9.813  14.325  66.869  1.00  0.00    -0.263 C  
HETATM    2  S   UNL     1      -9.623  13.200  68.275  1.00  0.00    -0.192 SA 
HETATM    3  C   UNL     1      -8.794  11.929  67.289  1.00  0.00    -0.179 C  
HETATM    4  C   UNL     1      -9.502  11.577  65.986  1.00  0.00    -0.249 C  
HETATM    5  O   UNL     1     -11.780  12.845  63.367  1.00  0.00    -0.514 OA 
HETATM    6  C   UNL     1     -10.347  12.423  65.321  1.00  0.00    -0.282 C  
HETATM    7  N   UNL     1     -10.616  13.661  65.851  1.00  0.00    -0.284 N  
HETATM    8  C   UNL     1     -10.968  15.425  66.988  1.00  0.00    -0.306 C  
HETATM    9  C   UNL     1     -10.995  11.971  64.018  1.00  0.00    -0.381 C  
HETATM   10  O   UNL     1     -12.292  14.835  64.773  1.00  0.00    -0.394 OA 
HETATM   11  C   UNL     1     -11.482  14.680  65.659  1.00  0.00    -0.340 C  
HETATM   12  O   UNL     1     -10.784  10.881  63.500  1.00  0.00    -0.260 OA 
ENDROOT
BRANCH   4  13
HETATM   13  C   UNL     1      -9.209  10.126  65.585  1.00  0.00    -0.187 C  
BRANCH  13  14
HETATM   14  S   UNL     1     -10.157   8.961  66.604  1.00  0.00    -0.273 SA 
BRANCH  14  15
HETATM   15  C   UNL     1      -8.954   7.753  66.897  1.00  0.00    -0.134 A  
HETATM   16  N   UNL     1      -8.689   6.726  66.123  1.00  0.00    -0.145 NA 
HETATM   17  N   UNL     1      -7.396   6.572  67.933  1.00  0.00    -0.090 NA 
HETATM   18  N   UNL     1      -7.726   5.997  66.784  1.00  0.00    -0.099 NA 
HETATM   19  C   UNL     1      -8.045   8.564  69.131  1.00  0.00    -0.117 C  
HETATM   20  N   UNL     1      -8.163   7.678  68.007  1.00  0.00    -0.123 NA 
ENDBRANCH  14  15
ENDBRANCH  13  14
ENDBRANCH   4  13
BRANCH   8  21
HETATM   21  O   UNL     1     -10.528  16.794  66.765  1.00  0.00    -0.301 OA 
HETATM   22  C   UNL     1      -9.182  16.952  66.319  1.00  0.00    -0.267 C  
ENDBRANCH   8  21
BRANCH   8  23
HETATM   23  N   UNL     1     -11.794  15.297  68.229  1.00  0.00    -0.495 N  
HETATM   24  C   UNL     1     -11.478  15.888  69.425  1.00  0.00    -0.351 C  
HETATM   25  H   UNL     1     -12.645  14.737  68.181  1.00  0.00     0.000 HD 
HETATM   26  O   UNL     1     -10.464  16.557  69.591  1.00  0.00    -0.301 OA 
BRANCH  24  27
HETATM   27  C   UNL     1     -12.428  15.589  70.569  1.00  0.00    -0.427 C  
BRANCH  27  28
HETATM   28  S   UNL     1     -12.503  13.793  70.880  1.00  0.00    -0.372 SA 
BRANCH  28  29
HETATM   29  C   UNL     1     -13.323  13.774  72.523  1.00  0.00    -0.552 C  
HETATM   30  C   UNL     1     -13.164  15.018  73.288  1.00  0.00    -0.422 C  
HETATM   31  N   UNL     1     -13.042  16.005  73.887  1.00  0.00    -0.623 NA 
ENDBRANCH  28  29
ENDBRANCH  27  28
ENDBRANCH  24  27
ENDBRANCH   8  23
TORSDOF 8
ENDMDL
MODEL       23
REMARK 921   NORMALIZED FREE ENERGY PREDICTED BY IDOCK:   -5.71 KCAL/MOL
REMARK 922        TOTAL FREE ENERGY PREDICTED BY IDOCK:   -9.48 KCAL/MOL
REMARK 923 INTER-LIGAND FREE ENERGY PREDICTED BY IDOCK:   -8.39 KCAL/MOL
REMARK 924 INTRA-LIGAND FREE ENERGY PREDICTED BY IDOCK:   -1.09 KCAL/MOL
REMARK 927      BINDING AFFINITY PREDICTED BY RF-SCORE:    0.00 PKD
ROOT
HETATM    1  C   UNL     1     -10.034  11.123  67.064  1.00  0.00    -0.192 C  
HETATM    2  S   UNL     1     -11.560  12.046  67.374  1.00  0.00    -0.286 SA 
HETATM    3  C   UNL     1     -11.042  13.457  66.367  1.00  0.00    -0.299 C  
HETATM    4  C   UNL     1      -9.641  13.972  66.671  1.00  0.00    -0.299 C  
HETATM    5  O   UNL     1      -6.313  13.033  67.976  1.00  0.00    -0.086 OA 
HETATM    6  C   UNL     1      -8.648  13.210  67.224  1.00  0.00    -0.210 C  
HETATM    7  N   UNL     1      -8.911  11.904  67.563  1.00  0.00    -0.166 N  
HETATM    8  C   UNL     1      -9.655   9.994  68.131  1.00  0.00    -0.139 C  
HETATM    9  C   UNL     1      -7.277  13.824  67.477  1.00  0.00    -0.158 C  
HETATM   10  O   UNL     1      -7.233  10.858  68.763  1.00  0.00    -0.077 OA 
HETATM   11  C   UNL     1      -8.337  10.905  68.267  1.00  0.00    -0.129 C  
HETATM   12  O   UNL     1      -6.990  14.979  67.187  1.00  0.00    -0.234 OA 
ENDROOT
BRANCH   4  13
HETATM   13  C   UNL     1      -9.534  15.470  66.361  1.00  0.00    -0.291 C  
BRANCH  13  14
HETATM   14  S   UNL     1     -10.327  16.465  67.655  1.00  0.00    -0.290 SA 
BRANCH  14  15
HETATM   15  C   UNL     1     -10.437  17.992  66.851  1.00  0.00    -0.341 A  
HETATM   16  N   UNL     1     -10.653  18.174  65.569  1.00  0.00    -0.590 NA 
HETATM   17  N   UNL     1     -10.338  20.175  66.501  1.00  0.00    -0.428 NA 
HETATM   18  N   UNL     1     -10.580  19.534  65.365  1.00  0.00    -0.414 NA 
HETATM   19  C   UNL     1     -10.015  19.559  68.811  1.00  0.00    -0.463 C  
HETATM   20  N   UNL     1     -10.250  19.211  67.439  1.00  0.00    -0.373 NA 
ENDBRANCH  14  15
ENDBRANCH  13  14
ENDBRANCH   4  13
BRANCH   8  21
HETATM   21  O   UNL     1      -9.407   8.678  67.562  1.00  0.00    -0.135 OA 
HETATM   22  C   UNL     1     -10.532   8.035  66.965  1.00  0.00    -0.340 C  
ENDBRANCH   8  21
BRANCH   8  23
HETATM   23  N   UNL     1     -10.589   9.932  69.299  1.00  0.00    -0.212 N  
HETATM   24  C   UNL     1     -10.234   9.473  70.541  1.00  0.00    -0.287 C  
HETATM   25  H   UNL     1     -11.548  10.250  69.161  1.00  0.00     0.000 HD 
HETATM   26  O   UNL     1      -9.114   9.045  70.799  1.00  0.00    -0.202 OA 
BRANCH  24  27
HETATM   27  C   UNL     1     -11.349   9.450  71.569  1.00  0.00    -0.394 C  
BRANCH  27  28
HETATM   28  S   UNL     1     -12.894  10.094  70.844  1.00  0.00    -0.332 SA 
BRANCH  28  29
HETATM   29  C   UNL     1     -13.078  11.658  71.788  1.00  0.00    -0.382 C  
HETATM   30  C   UNL     1     -12.591  12.849  71.079  1.00  0.00    -0.287 C  
HETATM   31  N   UNL     1     -12.211  13.789  70.514  1.00  0.00    -0.353 NA 
ENDBRANCH  28  29
ENDBRANCH  27  28
ENDBRANCH  24  27
ENDBRANCH   8  23
TORSDOF 8
ENDMDL
MODEL       24
REMARK 921   NORMALIZED FREE ENERGY PREDICTED BY IDOCK:   -5.70 KCAL/MOL
REMARK 922        TOTAL FREE ENERGY PREDICTED BY IDOCK:   -9.46 KCAL/MOL
REMARK 923 INTER-LIGAND FREE ENERGY PREDICTED BY IDOCK:   -8.54 KCAL/MOL
REMARK 924 INTRA-LIGAND FREE ENERGY PREDICTED BY IDOCK:   -0.92 KCAL/MOL
REMARK 927      BINDING AFFINITY PREDICTED BY RF-SCORE:    0.00 PKD
ROOT
HETATM    1  C   UNL     1     -10.082  11.381  66.985  1.00  0.00    -0.208 C  
HETATM    2  S   UNL     1     -11.660  12.233  67.235  1.00  0.00    -0.338 SA 
HETATM    3  C   UNL     1     -11.169  13.667  66.248  1.00  0.00    -0.305 C  
HETATM    4  C   UNL     1      -9.806  14.246  66.606  1.00  0.00    -0.288 C  
HETATM    5  O   UNL     1      -6.492  13.460  68.042  1.00  0.00    -0.098 OA 
HETATM    6  C   UNL     1      -8.802  13.529  67.199  1.00  0.00    -0.226 C  
HETATM    7  N   UNL     1      -9.017  12.213  67.528  1.00  0.00    -0.170 N  
HETATM    8  C   UNL     1      -9.694  10.270  68.068  1.00  0.00    -0.149 C  
HETATM    9  C   UNL     1      -7.472  14.206  67.505  1.00  0.00    -0.174 C  
HETATM   10  O   UNL     1      -7.341  11.243  68.794  1.00  0.00    -0.094 OA 
HETATM   11  C   UNL     1      -8.426  11.240  68.255  1.00  0.00    -0.152 C  
HETATM   12  O   UNL     1      -7.227  15.373  67.226  1.00  0.00    -0.199 OA 
ENDROOT
BRANCH   4  13
HETATM   13  C   UNL     1      -9.756  15.747  66.300  1.00  0.00    -0.302 C  
BRANCH  13  14
HETATM   14  S   UNL     1     -10.581  16.709  67.600  1.00  0.00    -0.299 SA 
BRANCH  14  15
HETATM   15  C   UNL     1     -10.450  18.302  66.940  1.00  0.00    -0.373 A  
HETATM   16  N   UNL     1     -10.612  18.629  65.678  1.00  0.00    -0.587 NA 
HETATM   17  N   UNL     1     -10.027  20.469  66.793  1.00  0.00    -0.384 NA 
HETATM   18  N   UNL     1     -10.337  19.976  65.601  1.00  0.00    -0.392 NA 
HETATM   19  C   UNL     1      -9.843  19.606  69.038  1.00  0.00    -0.393 C  
HETATM   20  N   UNL     1     -10.099  19.422  67.638  1.00  0.00    -0.371 NA 
ENDBRANCH  14  15
ENDBRANCH  13  14
ENDBRANCH   4  13
BRANCH   8  21
HETATM   21  O   UNL     1      -9.363   8.967  67.509  1.00  0.00    -0.134 OA 
HETATM   22  C   UNL     1     -10.451   8.235  66.946  1.00  0.00    -0.295 C  
ENDBRANCH   8  21
BRANCH   8  23
HETATM   23  N   UNL     1     -10.669  10.163  69.197  1.00  0.00    -0.214 N  
HETATM   24  C   UNL     1     -10.354   9.674  70.439  1.00  0.00    -0.291 C  
HETATM   25  H   UNL     1     -11.627  10.473  69.033  1.00  0.00     0.000 HD 
HETATM   26  O   UNL     1      -9.239   9.254  70.726  1.00  0.00    -0.240 OA 
BRANCH  24  27
HETATM   27  C   UNL     1     -11.505   9.609  71.424  1.00  0.00    -0.385 C  
BRANCH  27  28
HETATM   28  S   UNL     1     -11.453   8.042  72.358  1.00  0.00    -0.409 SA 
BRANCH  28  29
HETATM   29  C   UNL     1     -12.321   6.927  71.186  1.00  0.00    -0.370 C  
HETATM   30  C   UNL     1     -11.439   6.282  70.204  1.00  0.00    -0.382 C  
HETATM   31  N   UNL     1     -10.738   5.768  69.435  1.00  0.00    -0.316 NA 
ENDBRANCH  28  29
ENDBRANCH  27  28
ENDBRANCH  24  27
ENDBRANCH   8  23
TORSDOF 8
ENDMDL
MODEL       25
REMARK 921   NORMALIZED FREE ENERGY PREDICTED BY IDOCK:   -5.67 KCAL/MOL
REMARK 922        TOTAL FREE ENERGY PREDICTED BY IDOCK:   -9.42 KCAL/MOL
REMARK 923 INTER-LIGAND FREE ENERGY PREDICTED BY IDOCK:   -8.89 KCAL/MOL
REMARK 924 INTRA-LIGAND FREE ENERGY PREDICTED BY IDOCK:   -0.53 KCAL/MOL
REMARK 927      BINDING AFFINITY PREDICTED BY RF-SCORE:    0.00 PKD
ROOT
HETATM    1  C   UNL     1      -7.913  15.824  69.169  1.00  0.00    -0.231 C  
HETATM    2  S   UNL     1      -9.445  16.609  68.606  1.00  0.00    -0.256 SA 
HETATM    3  C   UNL     1     -10.364  15.051  68.576  1.00  0.00    -0.230 C  
HETATM    4  C   UNL     1      -9.656  13.912  67.851  1.00  0.00    -0.227 C  
HETATM    5  O   UNL     1      -6.358  12.575  66.857  1.00  0.00    -0.176 OA 
HETATM    6  C   UNL     1      -8.300  13.834  67.689  1.00  0.00    -0.182 C  
HETATM    7  N   UNL     1      -7.504  14.844  68.173  1.00  0.00    -0.107 N  
HETATM    8  C   UNL     1      -6.556  16.616  68.871  1.00  0.00    -0.178 C  
HETATM    9  C   UNL     1      -7.696  12.643  66.955  1.00  0.00    -0.014 C  
HETATM   10  O   UNL     1      -5.281  14.711  67.547  1.00  0.00    -0.335 OA 
HETATM   11  C   UNL     1      -6.222  15.260  68.075  1.00  0.00    -0.144 C  
HETATM   12  O   UNL     1      -8.359  11.715  66.511  1.00  0.00    -0.170 OA 
ENDROOT
BRANCH   4  13
HETATM   13  C   UNL     1     -10.674  12.932  67.257  1.00  0.00    -0.245 C  
BRANCH  13  14
HETATM   14  S   UNL     1     -12.275  13.741  66.975  1.00  0.00    -0.257 SA 
BRANCH  14  15
HETATM   15  C   UNL     1     -12.520  13.371  65.303  1.00  0.00    -0.483 A  
HETATM   16  N   UNL     1     -12.943  12.226  64.822  1.00  0.00    -0.667 NA 
HETATM   17  N   UNL     1     -12.488  13.567  63.099  1.00  0.00    -0.712 NA 
HETATM   18  N   UNL     1     -12.909  12.359  63.452  1.00  0.00    -0.726 NA 
HETATM   19  C   UNL     1     -11.791  15.570  64.249  1.00  0.00    -0.173 C  
HETATM   20  N   UNL     1     -12.245  14.208  64.259  1.00  0.00    -0.601 NA 
ENDBRANCH  14  15
ENDBRANCH  13  14
ENDBRANCH   4  13
BRANCH   8  21
HETATM   21  O   UNL     1      -5.715  16.839  70.038  1.00  0.00    -0.206 OA 
HETATM   22  C   UNL     1      -5.278  15.667  70.724  1.00  0.00    -0.160 C  
ENDBRANCH   8  21
BRANCH   8  23
HETATM   23  N   UNL     1      -6.751  17.867  68.075  1.00  0.00    -0.192 N  
HETATM   24  C   UNL     1      -6.746  19.129  68.614  1.00  0.00    -0.280 C  
HETATM   25  H   UNL     1      -6.897  17.777  67.070  1.00  0.00     0.000 HD 
HETATM   26  O   UNL     1      -6.606  19.340  69.813  1.00  0.00    -0.267 OA 
BRANCH  24  27
HETATM   27  C   UNL     1      -7.011  20.255  67.634  1.00  0.00    -0.282 C  
BRANCH  27  28
HETATM   28  S   UNL     1      -7.513  19.583  66.014  1.00  0.00    -0.296 SA 
BRANCH  28  29
HETATM   29  C   UNL     1      -9.298  20.012  66.015  1.00  0.00    -0.265 C  
HETATM   30  C   UNL     1      -9.906  20.053  67.352  1.00  0.00    -0.422 C  
HETATM   31  N   UNL     1     -10.381  20.091  68.410  1.00  0.00    -0.407 NA 
ENDBRANCH  28  29
ENDBRANCH  27  28
ENDBRANCH  24  27
ENDBRANCH   8  23
TORSDOF 8
ENDMDL
MODEL       26
REMARK 921   NORMALIZED FREE ENERGY PREDICTED BY IDOCK:   -5.66 KCAL/MOL
REMARK 922        TOTAL FREE ENERGY PREDICTED BY IDOCK:   -9.41 KCAL/MOL
REMARK 923 INTER-LIGAND FREE ENERGY PREDICTED BY IDOCK:   -8.29 KCAL/MOL
REMARK 924 INTRA-LIGAND FREE ENERGY PREDICTED BY IDOCK:   -1.12 KCAL/MOL
REMARK 927      BINDING AFFINITY PREDICTED BY RF-SCORE:    0.00 PKD
ROOT
HETATM    1  C   UNL     1      -9.812  15.015  69.461  1.00  0.00    -0.126 C  
HETATM    2  S   UNL     1     -11.309  15.753  70.164  1.00  0.00    -0.386 SA 
HETATM    3  C   UNL     1     -11.927  14.173  70.792  1.00  0.00    -0.306 C  
HETATM    4  C   UNL     1     -11.915  13.039  69.775  1.00  0.00    -0.377 C  
HETATM    5  O   UNL     1     -10.277  11.763  66.718  1.00  0.00    -0.206 OA 
HETATM    6  C   UNL     1     -11.080  12.990  68.692  1.00  0.00    -0.269 C  
HETATM    7  N   UNL     1     -10.207  14.027  68.467  1.00  0.00    -0.234 N  
HETATM    8  C   UNL     1      -9.099  15.834  68.287  1.00  0.00    -0.187 C  
HETATM    9  C   UNL     1     -11.146  11.801  67.742  1.00  0.00    -0.243 C  
HETATM   10  O   UNL     1      -9.095  13.936  66.441  1.00  0.00    -0.198 OA 
HETATM   11  C   UNL     1      -9.393  14.471  67.485  1.00  0.00    -0.193 C  
HETATM   12  O   UNL     1     -11.899  10.849  67.901  1.00  0.00    -0.590 OA 
ENDROOT
BRANCH   4  13
HETATM   13  C   UNL     1     -13.022  12.023  70.082  1.00  0.00     0.579 C  
BRANCH  13  14
HETATM   14  S   UNL     1     -12.937  11.463  71.806  1.00  0.00    -0.308 SA 
BRANCH  14  15
HETATM   15  C   UNL     1     -13.054   9.752  71.584  1.00  0.00    -0.419 A  
HETATM   16  N   UNL     1     -14.137   9.026  71.742  1.00  0.00    -0.351 NA 
HETATM   17  N   UNL     1     -12.455   7.648  71.249  1.00  0.00    -0.316 NA 
HETATM   18  N   UNL     1     -13.747   7.721  71.540  1.00  0.00    -0.363 NA 
HETATM   19  C   UNL     1     -10.642   9.216  70.973  1.00  0.00    -0.292 C  
HETATM   20  N   UNL     1     -12.015   8.922  71.272  1.00  0.00    -0.297 NA 
ENDBRANCH  14  15
ENDBRANCH  13  14
ENDBRANCH   4  13
BRANCH   8  21
HETATM   21  O   UNL     1      -7.684  16.098  68.504  1.00  0.00    -0.154 OA 
HETATM   22  C   UNL     1      -7.050  15.311  69.511  1.00  0.00    -0.201 C  
ENDBRANCH   8  21
BRANCH   8  23
HETATM   23  N   UNL     1      -9.841  17.065  67.874  1.00  0.00    -0.262 N  
HETATM   24  C   UNL     1      -9.731  17.650  66.639  1.00  0.00    -0.301 C  
HETATM   25  H   UNL     1     -10.468  17.497  68.554  1.00  0.00     0.000 HD 
HETATM   26  O   UNL     1      -8.985  17.222  65.764  1.00  0.00    -0.521 OA 
BRANCH  24  27
HETATM   27  C   UNL     1     -10.535  18.921  66.446  1.00  0.00    -0.439 C  
BRANCH  27  28
HETATM   28  S   UNL     1     -10.061  20.166  67.692  1.00  0.00    -0.377 SA 
BRANCH  28  29
HETATM   29  C   UNL     1      -8.242  20.201  67.452  1.00  0.00    -0.340 C  
HETATM   30  C   UNL     1      -7.476  19.667  68.587  1.00  0.00    -0.333 C  
HETATM   31  N   UNL     1      -6.874  19.239  69.482  1.00  0.00    -0.277 NA 
ENDBRANCH  28  29
ENDBRANCH  27  28
ENDBRANCH  24  27
ENDBRANCH   8  23
TORSDOF 8
ENDMDL
MODEL       27
REMARK 921   NORMALIZED FREE ENERGY PREDICTED BY IDOCK:   -5.61 KCAL/MOL
REMARK 922        TOTAL FREE ENERGY PREDICTED BY IDOCK:   -9.32 KCAL/MOL
REMARK 923 INTER-LIGAND FREE ENERGY PREDICTED BY IDOCK:   -8.25 KCAL/MOL
REMARK 924 INTRA-LIGAND FREE ENERGY PREDICTED BY IDOCK:   -1.07 KCAL/MOL
REMARK 927      BINDING AFFINITY PREDICTED BY RF-SCORE:    0.00 PKD
ROOT
HETATM    1  C   UNL     1     -10.137  12.556  66.511  1.00  0.00    -0.238 C  
HETATM    2  S   UNL     1      -8.587  13.408  66.901  1.00  0.00    -0.029 SA 
HETATM    3  C   UNL     1      -9.398  15.007  67.145  1.00  0.00    -0.215 C  
HETATM    4  C   UNL     1     -10.352  15.411  66.027  1.00  0.00    -0.339 C  
HETATM    5  O   UNL     1     -12.551  14.131  63.347  1.00  0.00    -0.818 OA 
HETATM    6  C   UNL     1     -10.975  14.522  65.194  1.00  0.00    -0.379 C  
HETATM    7  N   UNL     1     -10.722  13.178  65.332  1.00  0.00    -0.288 N  
HETATM    8  C   UNL     1     -10.013  11.201  65.671  1.00  0.00    -0.249 C  
HETATM    9  C   UNL     1     -11.919  15.035  64.115  1.00  0.00    -0.201 C  
HETATM   10  O   UNL     1     -11.607  11.849  63.659  1.00  0.00    -0.427 OA 
HETATM   11  C   UNL     1     -10.941  12.031  64.654  1.00  0.00    -0.317 C  
HETATM   12  O   UNL     1     -12.183  16.220  63.954  1.00  0.00    -0.945 OA 
ENDROOT
BRANCH   4  13
HETATM   13  C   UNL     1     -10.436  16.937  65.911  1.00  0.00    -0.285 C  
BRANCH  13  14
HETATM   14  S   UNL     1     -10.484  17.717  67.550  1.00  0.00    -0.347 SA 
BRANCH  14  15
HETATM   15  C   UNL     1      -9.197  18.860  67.389  1.00  0.00    -0.286 A  
HETATM   16  N   UNL     1      -9.251  19.993  66.727  1.00  0.00    -0.365 NA 
HETATM   17  N   UNL     1      -7.175  19.753  67.506  1.00  0.00    -0.237 NA 
HETATM   18  N   UNL     1      -7.986  20.532  66.801  1.00  0.00    -0.238 NA 
HETATM   19  C   UNL     1      -7.369  17.660  68.690  1.00  0.00    -0.257 C  
HETATM   20  N   UNL     1      -7.932  18.702  67.880  1.00  0.00    -0.254 NA 
ENDBRANCH  14  15
ENDBRANCH  13  14
ENDBRANCH   4  13
BRANCH   8  21
HETATM   21  O   UNL     1     -10.674  10.052  66.271  1.00  0.00    -0.090 OA 
HETATM   22  C   UNL     1     -10.702  10.022  67.697  1.00  0.00    -0.284 C  
ENDBRANCH   8  21
BRANCH   8  23
HETATM   23  N   UNL     1      -8.615  10.883  65.245  1.00  0.00    -0.310 N  
HETATM   24  C   UNL     1      -8.302  10.069  64.187  1.00  0.00    -0.167 C  
HETATM   25  H   UNL     1      -7.847  11.297  65.774  1.00  0.00     0.000 HD 
HETATM   26  O   UNL     1      -9.151   9.504  63.507  1.00  0.00    -0.230 OA 
BRANCH  24  27
HETATM   27  C   UNL     1      -6.820   9.841  63.957  1.00  0.00    -0.120 C  
BRANCH  27  28
HETATM   28  S   UNL     1      -6.020   9.271  65.495  1.00  0.00    -0.060 SA 
BRANCH  28  29
HETATM   29  C   UNL     1      -6.860   7.654  65.727  1.00  0.00    -0.053 C  
HETATM   30  C   UNL     1      -7.574   7.526  67.005  1.00  0.00    -0.103 C  
HETATM   31  N   UNL     1      -8.143   7.430  68.012  1.00  0.00    -0.122 NA 
ENDBRANCH  28  29
ENDBRANCH  27  28
ENDBRANCH  24  27
ENDBRANCH   8  23
TORSDOF 8
ENDMDL
MODEL       28
REMARK 921   NORMALIZED FREE ENERGY PREDICTED BY IDOCK:   -5.60 KCAL/MOL
REMARK 922        TOTAL FREE ENERGY PREDICTED BY IDOCK:   -9.30 KCAL/MOL
REMARK 923 INTER-LIGAND FREE ENERGY PREDICTED BY IDOCK:   -8.25 KCAL/MOL
REMARK 924 INTRA-LIGAND FREE ENERGY PREDICTED BY IDOCK:   -1.05 KCAL/MOL
REMARK 927      BINDING AFFINITY PREDICTED BY RF-SCORE:    0.00 PKD
ROOT
HETATM    1  C   UNL     1     -11.163  11.595  68.368  1.00  0.00    -0.249 C  
HETATM    2  S   UNL     1      -9.476  10.944  68.270  1.00  0.00    -0.174 SA 
HETATM    3  C   UNL     1      -9.969   9.281  68.784  1.00  0.00    -0.181 C  
HETATM    4  C   UNL     1     -10.844   9.237  70.031  1.00  0.00    -0.264 C  
HETATM    5  O   UNL     1     -13.278  11.138  72.061  1.00  0.00    -0.493 OA 
HETATM    6  C   UNL     1     -11.633  10.274  70.449  1.00  0.00    -0.328 C  
HETATM    7  N   UNL     1     -11.636  11.449  69.737  1.00  0.00    -0.310 N  
HETATM    8  C   UNL     1     -11.306  13.178  68.543  1.00  0.00    -0.286 C  
HETATM    9  C   UNL     1     -12.478  10.118  71.708  1.00  0.00    -0.360 C  
HETATM   10  O   UNL     1     -12.776  13.191  70.746  1.00  0.00    -0.273 OA 
HETATM   11  C   UNL     1     -12.075  12.718  69.878  1.00  0.00    -0.259 C  
HETATM   12  O   UNL     1     -12.517   9.091  72.373  1.00  0.00    -0.361 OA 
ENDROOT
BRANCH   4  13
HETATM   13  C   UNL     1     -10.642   7.920  70.789  1.00  0.00    -0.214 C  
BRANCH  13  14
HETATM   14  S   UNL     1     -11.645   6.589  70.068  1.00  0.00    -0.299 SA 
BRANCH  14  15
HETATM   15  C   UNL     1     -10.404   5.613  69.361  1.00  0.00    -0.273 A  
HETATM   16  N   UNL     1      -9.602   4.799  70.007  1.00  0.00    -0.170 NA 
HETATM   17  N   UNL     1      -9.005   4.786  67.858  1.00  0.00    -0.108 NA 
HETATM   18  N   UNL     1      -8.733   4.299  69.063  1.00  0.00    -0.083 NA 
HETATM   19  C   UNL     1     -10.635   6.297  66.921  1.00  0.00    -0.305 C  
HETATM   20  N   UNL     1     -10.056   5.609  68.040  1.00  0.00    -0.158 NA 
ENDBRANCH  14  15
ENDBRANCH  13  14
ENDBRANCH   4  13
BRANCH   8  21
HETATM   21  O   UNL     1     -12.165  13.823  67.560  1.00  0.00    -0.355 OA 
HETATM   22  C   UNL     1     -12.159  13.248  66.255  1.00  0.00    -0.414 C  
ENDBRANCH   8  21
BRANCH   8  23
HETATM   23  N   UNL     1      -9.998  13.888  68.696  1.00  0.00    -0.306 N  
HETATM   24  C   UNL     1      -9.865  15.145  69.227  1.00  0.00    -0.230 C  
HETATM   25  H   UNL     1      -9.154  13.407  68.386  1.00  0.00     0.000 HD 
HETATM   26  O   UNL     1     -10.821  15.814  69.603  1.00  0.00    -0.248 OA 
BRANCH  24  27
HETATM   27  C   UNL     1      -8.452  15.698  69.244  1.00  0.00    -0.265 C  
BRANCH  27  28
HETATM   28  S   UNL     1      -7.762  15.729  67.555  1.00  0.00    -0.179 SA 
BRANCH  28  29
HETATM   29  C   UNL     1      -8.680  17.153  66.848  1.00  0.00    -0.232 C  
HETATM   30  C   UNL     1      -9.677  16.782  65.835  1.00  0.00    -0.217 C  
HETATM   31  N   UNL     1     -10.469  16.485  65.039  1.00  0.00    -0.655 NA 
ENDBRANCH  28  29
ENDBRANCH  27  28
ENDBRANCH  24  27
ENDBRANCH   8  23
TORSDOF 8
ENDMDL
MODEL       29
REMARK 921   NORMALIZED FREE ENERGY PREDICTED BY IDOCK:   -5.59 KCAL/MOL
REMARK 922        TOTAL FREE ENERGY PREDICTED BY IDOCK:   -9.30 KCAL/MOL
REMARK 923 INTER-LIGAND FREE ENERGY PREDICTED BY IDOCK:   -8.81 KCAL/MOL
REMARK 924 INTRA-LIGAND FREE ENERGY PREDICTED BY IDOCK:   -0.49 KCAL/MOL
REMARK 927      BINDING AFFINITY PREDICTED BY RF-SCORE:    0.00 PKD
ROOT
HETATM    1  C   UNL     1      -9.059  15.222  66.592  1.00  0.00    -0.282 C  
HETATM    2  S   UNL     1      -9.256  14.873  68.358  1.00  0.00    -0.195 SA 
HETATM    3  C   UNL     1      -9.752  13.156  68.076  1.00  0.00    -0.224 C  
HETATM    4  C   UNL     1     -10.845  12.976  67.030  1.00  0.00    -0.278 C  
HETATM    5  O   UNL     1     -12.386  14.449  64.011  1.00  0.00    -0.667 OA 
HETATM    6  C   UNL     1     -11.091  13.864  66.019  1.00  0.00    -0.289 C  
HETATM    7  N   UNL     1     -10.341  15.012  65.934  1.00  0.00    -0.293 N  
HETATM    8  C   UNL     1      -9.145  16.758  66.156  1.00  0.00    -0.253 C  
HETATM    9  C   UNL     1     -12.205  13.580  65.019  1.00  0.00    -0.419 C  
HETATM   10  O   UNL     1     -11.085  16.542  64.366  1.00  0.00    -0.894 OA 
HETATM   11  C   UNL     1     -10.359  16.188  65.269  1.00  0.00    -0.252 C  
HETATM   12  O   UNL     1     -12.897  12.570  65.047  1.00  0.00    -0.742 OA 
ENDROOT
BRANCH   4  13
HETATM   13  C   UNL     1     -11.678  11.723  67.326  1.00  0.00    -0.217 C  
BRANCH  13  14
HETATM   14  S   UNL     1     -10.701  10.484  68.223  1.00  0.00    -0.250 SA 
BRANCH  14  15
HETATM   15  C   UNL     1     -11.532  10.471  69.740  1.00  0.00    -0.294 A  
HETATM   16  N   UNL     1     -12.187  11.478  70.268  1.00  0.00    -0.339 NA 
HETATM   17  N   UNL     1     -12.239   9.790  71.723  1.00  0.00    -0.388 NA 
HETATM   18  N   UNL     1     -12.613  11.044  71.503  1.00  0.00    -0.376 NA 
HETATM   19  C   UNL     1     -11.027   8.097  70.504  1.00  0.00    -0.243 C  
HETATM   20  N   UNL     1     -11.562   9.424  70.617  1.00  0.00    -0.274 NA 
ENDBRANCH  14  15
ENDBRANCH  13  14
ENDBRANCH   4  13
BRANCH   8  21
HETATM   21  O   UNL     1      -8.013  17.231  65.373  1.00  0.00     0.062 OA 
HETATM   22  C   UNL     1      -6.819  17.504  66.104  1.00  0.00    -0.276 C  
ENDBRANCH   8  21
BRANCH   8  23
HETATM   23  N   UNL     1      -9.474  17.686  67.282  1.00  0.00    -0.253 N  
HETATM   24  C   UNL     1     -10.203  18.839  67.138  1.00  0.00    -0.386 C  
HETATM   25  H   UNL     1      -9.135  17.446  68.214  1.00  0.00     0.000 HD 
HETATM   26  O   UNL     1     -10.631  19.226  66.057  1.00  0.00    -0.471 OA 
BRANCH  24  27
HETATM   27  C   UNL     1     -10.379  19.658  68.402  1.00  0.00    -0.386 C  
BRANCH  27  28
HETATM   28  S   UNL     1      -8.912  20.703  68.690  1.00  0.00     0.997 SA 
BRANCH  28  29
HETATM   29  C   UNL     1      -7.680  19.425  69.157  1.00  0.00    -0.252 C  
HETATM   30  C   UNL     1      -6.503  19.953  69.860  1.00  0.00    -0.337 C  
HETATM   31  N   UNL     1      -5.577  20.373  70.421  1.00  0.00    -0.342 NA 
ENDBRANCH  28  29
ENDBRANCH  27  28
ENDBRANCH  24  27
ENDBRANCH   8  23
TORSDOF 8
ENDMDL
MODEL       30
REMARK 921   NORMALIZED FREE ENERGY PREDICTED BY IDOCK:   -5.59 KCAL/MOL
REMARK 922        TOTAL FREE ENERGY PREDICTED BY IDOCK:   -9.29 KCAL/MOL
REMARK 923 INTER-LIGAND FREE ENERGY PREDICTED BY IDOCK:   -8.28 KCAL/MOL
REMARK 924 INTRA-LIGAND FREE ENERGY PREDICTED BY IDOCK:   -1.02 KCAL/MOL
REMARK 927      BINDING AFFINITY PREDICTED BY RF-SCORE:    0.00 PKD
ROOT
HETATM    1  C   UNL     1      -8.730  13.674  67.155  1.00  0.00    -0.216 C  
HETATM    2  S   UNL     1      -8.511  12.267  68.273  1.00  0.00    -0.152 SA 
HETATM    3  C   UNL     1      -8.183  11.105  66.926  1.00  0.00    -0.149 C  
HETATM    4  C   UNL     1      -9.193  11.157  65.786  1.00  0.00    -0.234 C  
HETATM    5  O   UNL     1     -11.619  13.312  64.017  1.00  0.00    -0.390 OA 
HETATM    6  C   UNL     1      -9.952  12.254  65.485  1.00  0.00    -0.244 C  
HETATM    7  N   UNL     1      -9.840  13.384  66.259  1.00  0.00    -0.287 N  
HETATM    8  C   UNL     1      -9.577  14.908  67.720  1.00  0.00    -0.208 C  
HETATM    9  C   UNL     1     -10.925  12.200  64.314  1.00  0.00    -0.339 C  
HETATM   10  O   UNL     1     -11.407  15.026  65.810  1.00  0.00    -0.337 OA 
HETATM   11  C   UNL     1     -10.490  14.554  66.445  1.00  0.00    -0.295 C  
HETATM   12  O   UNL     1     -11.058  11.222  63.589  1.00  0.00    -0.376 OA 
ENDROOT
BRANCH   4  13
HETATM   13  C   UNL     1      -9.301   9.792  65.095  1.00  0.00    -0.260 C  
BRANCH  13  14
HETATM   14  S   UNL     1      -8.282   8.549  65.938  1.00  0.00    -0.132 SA 
BRANCH  14  15
HETATM   15  C   UNL     1      -9.511   7.471  66.505  1.00  0.00    -0.179 A  
HETATM   16  N   UNL     1      -9.772   6.279  66.021  1.00  0.00     0.034 NA 
HETATM   17  N   UNL     1     -11.264   6.713  67.621  1.00  0.00    -0.261 NA 
HETATM   18  N   UNL     1     -10.869   5.824  66.718  1.00  0.00    -0.293 NA 
HETATM   19  C   UNL     1     -10.536   8.895  68.348  1.00  0.00    -0.187 C  
HETATM   20  N   UNL     1     -10.412   7.748  67.493  1.00  0.00    -0.261 NA 
ENDBRANCH  14  15
ENDBRANCH  13  14
ENDBRANCH   4  13
BRANCH   8  21
HETATM   21  O   UNL     1      -8.907  16.197  67.628  1.00  0.00    -0.184 OA 
HETATM   22  C   UNL     1      -7.543  16.223  68.044  1.00  0.00    -0.136 C  
ENDBRANCH   8  21
BRANCH   8  23
HETATM   23  N   UNL     1     -10.150  14.671  69.081  1.00  0.00    -0.339 N  
HETATM   24  C   UNL     1     -11.251  15.324  69.574  1.00  0.00    -0.281 C  
HETATM   25  H   UNL     1      -9.695  13.981  69.679  1.00  0.00     0.000 HD 
HETATM   26  O   UNL     1     -11.851  16.187  68.944  1.00  0.00    -0.338 OA 
BRANCH  24  27
HETATM   27  C   UNL     1     -11.636  14.968  70.997  1.00  0.00    -0.322 C  
BRANCH  27  28
HETATM   28  S   UNL     1     -13.443  15.086  71.214  1.00  0.00    -0.458 SA 
BRANCH  28  29
HETATM   29  C   UNL     1     -13.694  13.877  72.573  1.00  0.00    -0.560 C  
HETATM   30  C   UNL     1     -13.405  12.486  72.201  1.00  0.00    -0.435 C  
HETATM   31  N   UNL     1     -13.170  11.388  71.905  1.00  0.00    -0.458 NA 
ENDBRANCH  28  29
ENDBRANCH  27  28
ENDBRANCH  24  27
ENDBRANCH   8  23
TORSDOF 8
ENDMDL
MODEL       31
REMARK 921   NORMALIZED FREE ENERGY PREDICTED BY IDOCK:   -5.58 KCAL/MOL
REMARK 922        TOTAL FREE ENERGY PREDICTED BY IDOCK:   -9.29 KCAL/MOL
REMARK 923 INTER-LIGAND FREE ENERGY PREDICTED BY IDOCK:   -8.05 KCAL/MOL
REMARK 924 INTRA-LIGAND FREE ENERGY PREDICTED BY IDOCK:   -1.24 KCAL/MOL
REMARK 927      BINDING AFFINITY PREDICTED BY RF-SCORE:    0.00 PKD
ROOT
HETATM    1  C   UNL     1      -9.166  10.187  68.956  1.00  0.00    -0.185 C  
HETATM    2  S   UNL     1      -8.836  10.428  67.192  1.00  0.00    -0.136 SA 
HETATM    3  C   UNL     1      -8.879  12.233  67.316  1.00  0.00    -0.190 C  
HETATM    4  C   UNL     1     -10.091  12.788  68.055  1.00  0.00    -0.230 C  
HETATM    5  O   UNL     1     -12.649  12.042  70.616  1.00  0.00    -0.261 OA 
HETATM    6  C   UNL     1     -10.808  12.086  68.986  1.00  0.00    -0.177 C  
HETATM    7  N   UNL     1     -10.454  10.789  69.271  1.00  0.00    -0.219 N  
HETATM    8  C   UNL     1      -9.783   8.774  69.378  1.00  0.00    -0.172 C  
HETATM    9  C   UNL     1     -11.998  12.743  69.672  1.00  0.00    -0.288 C  
HETATM   10  O   UNL     1     -11.947   9.654  70.625  1.00  0.00    -0.272 OA 
HETATM   11  C   UNL     1     -10.960   9.722  69.927  1.00  0.00    -0.264 C  
HETATM   12  O   UNL     1     -12.350  13.897  69.459  1.00  0.00    -0.333 OA 
ENDROOT
BRANCH   4  13
HETATM   13  C   UNL     1     -10.442  14.190  67.544  1.00  0.00    -0.249 C  
BRANCH  13  14
HETATM   14  S   UNL     1      -9.621  14.535  65.962  1.00  0.00    -0.232 SA 
BRANCH  14  15
HETATM   15  C   UNL     1     -10.931  14.266  64.865  1.00  0.00    -0.404 A  
HETATM   16  N   UNL     1     -11.896  15.115  64.595  1.00  0.00    -0.382 NA 
HETATM   17  N   UNL     1     -12.310  13.229  63.480  1.00  0.00    -0.753 NA 
HETATM   18  N   UNL     1     -12.749  14.454  63.741  1.00  0.00    -0.682 NA 
HETATM   19  C   UNL     1     -10.401  11.895  64.111  1.00  0.00    -0.336 C  
HETATM   20  N   UNL     1     -11.166  13.108  64.182  1.00  0.00    -0.388 NA 
ENDBRANCH  14  15
ENDBRANCH  13  14
ENDBRANCH   4  13
BRANCH   8  21
HETATM   21  O   UNL     1      -9.048   8.079  70.425  1.00  0.00    -0.148 OA 
HETATM   22  C   UNL     1      -7.726   7.663  70.088  1.00  0.00    -0.091 C  
ENDBRANCH   8  21
BRANCH   8  23
HETATM   23  N   UNL     1     -10.086   7.879  68.218  1.00  0.00    -0.188 N  
HETATM   24  C   UNL     1     -10.901   6.778  68.291  1.00  0.00    -0.226 C  
HETATM   25  H   UNL     1      -9.661   8.101  67.318  1.00  0.00     0.000 HD 
HETATM   26  O   UNL     1     -11.436   6.413  69.332  1.00  0.00    -0.401 OA 
BRANCH  24  27
HETATM   27  C   UNL     1     -11.034   5.981  67.008  1.00  0.00    -0.276 C  
BRANCH  27  28
HETATM   28  S   UNL     1      -9.861   4.583  67.004  1.00  0.00    -0.182 SA 
BRANCH  28  29
HETATM   29  C   UNL     1      -8.837   5.013  65.542  1.00  0.00    -0.146 C  
HETATM   30  C   UNL     1      -8.233   6.351  65.604  1.00  0.00    -0.140 C  
HETATM   31  N   UNL     1      -7.752   7.406  65.659  1.00  0.00    -0.098 NA 
ENDBRANCH  28  29
ENDBRANCH  27  28
ENDBRANCH  24  27
ENDBRANCH   8  23
TORSDOF 8
ENDMDL
MODEL       32
REMARK 921   NORMALIZED FREE ENERGY PREDICTED BY IDOCK:   -5.58 KCAL/MOL
REMARK 922        TOTAL FREE ENERGY PREDICTED BY IDOCK:   -9.28 KCAL/MOL
REMARK 923 INTER-LIGAND FREE ENERGY PREDICTED BY IDOCK:   -7.69 KCAL/MOL
REMARK 924 INTRA-LIGAND FREE ENERGY PREDICTED BY IDOCK:   -1.59 KCAL/MOL
REMARK 927      BINDING AFFINITY PREDICTED BY RF-SCORE:    0.00 PKD
ROOT
HETATM    1  C   UNL     1      -9.038   9.854  67.887  1.00  0.00    -0.131 C  
HETATM    2  S   UNL     1     -10.836  10.019  67.742  1.00  0.00    -0.246 SA 
HETATM    3  C   UNL     1     -10.727  11.341  66.512  1.00  0.00    -0.271 C  
HETATM    4  C   UNL     1      -9.779  12.475  66.884  1.00  0.00    -0.232 C  
HETATM    5  O   UNL     1      -6.772  13.357  68.844  1.00  0.00    -0.100 OA 
HETATM    6  C   UNL     1      -8.721  12.339  67.742  1.00  0.00    -0.174 C  
HETATM    7  N   UNL     1      -8.493  11.125  68.342  1.00  0.00    -0.145 N  
HETATM    8  C   UNL     1      -8.491   9.195  69.238  1.00  0.00    -0.132 C  
HETATM    9  C   UNL     1      -7.830  13.539  68.035  1.00  0.00    -0.147 C  
HETATM   10  O   UNL     1      -6.867  11.148  69.988  1.00  0.00    -0.126 OA 
HETATM   11  C   UNL     1      -7.741  10.614  69.341  1.00  0.00    -0.129 C  
HETATM   12  O   UNL     1      -7.986  14.640  67.522  1.00  0.00    -0.160 OA 
ENDROOT
BRANCH   4  13
HETATM   13  C   UNL     1     -10.231  13.792  66.242  1.00  0.00    -0.297 C  
BRANCH  13  14
HETATM   14  S   UNL     1     -11.942  14.190  66.700  1.00  0.00    -0.443 SA 
BRANCH  14  15
HETATM   15  C   UNL     1     -11.739  14.553  68.379  1.00  0.00    -0.333 A  
HETATM   16  N   UNL     1     -12.075  13.775  69.381  1.00  0.00    -0.337 NA 
HETATM   17  N   UNL     1     -11.306  15.689  70.228  1.00  0.00    -0.311 NA 
HETATM   18  N   UNL     1     -11.808  14.497  70.523  1.00  0.00    -0.295 NA 
HETATM   19  C   UNL     1     -10.734  16.885  68.211  1.00  0.00    -0.377 C  
HETATM   20  N   UNL     1     -11.257  15.728  68.881  1.00  0.00    -0.309 NA 
ENDBRANCH  14  15
ENDBRANCH  13  14
ENDBRANCH   4  13
BRANCH   8  21
HETATM   21  O   UNL     1      -7.594   8.066  69.042  1.00  0.00    -0.094 OA 
HETATM   22  C   UNL     1      -8.076   7.026  68.193  1.00  0.00    -0.119 C  
ENDBRANCH   8  21
BRANCH   8  23
HETATM   23  N   UNL     1      -9.562   8.893  70.238  1.00  0.00    -0.176 N  
HETATM   24  C   UNL     1      -9.338   8.757  71.584  1.00  0.00    -0.275 C  
HETATM   25  H   UNL     1     -10.517   8.781  69.897  1.00  0.00     0.000 HD 
HETATM   26  O   UNL     1      -8.223   8.847  72.086  1.00  0.00    -0.373 OA 
BRANCH  24  27
HETATM   27  C   UNL     1     -10.557   8.403  72.413  1.00  0.00    -0.335 C  
BRANCH  27  28
HETATM   28  S   UNL     1     -11.870   7.714  71.350  1.00  0.00    -0.303 SA 
BRANCH  28  29
HETATM   29  C   UNL     1     -13.329   8.625  71.991  1.00  0.00    -0.392 C  
HETATM   30  C   UNL     1     -13.208  10.087  71.911  1.00  0.00    -0.452 C  
HETATM   31  N   UNL     1     -13.112  11.242  71.841  1.00  0.00    -0.477 NA 
ENDBRANCH  28  29
ENDBRANCH  27  28
ENDBRANCH  24  27
ENDBRANCH   8  23
TORSDOF 8
ENDMDL
MODEL       33
REMARK 921   NORMALIZED FREE ENERGY PREDICTED BY IDOCK:   -5.57 KCAL/MOL
REMARK 922        TOTAL FREE ENERGY PREDICTED BY IDOCK:   -9.27 KCAL/MOL
REMARK 923 INTER-LIGAND FREE ENERGY PREDICTED BY IDOCK:   -8.10 KCAL/MOL
REMARK 924 INTRA-LIGAND FREE ENERGY PREDICTED BY IDOCK:   -1.18 KCAL/MOL
REMARK 927      BINDING AFFINITY PREDICTED BY RF-SCORE:    0.00 PKD
ROOT
HETATM    1  C   UNL     1     -10.530  10.523  66.995  1.00  0.00    -0.249 C  
HETATM    2  S   UNL     1      -9.816  11.519  68.328  1.00  0.00    -0.208 SA 
HETATM    3  C   UNL     1     -11.252  12.614  68.430  1.00  0.00    -0.279 C  
HETATM    4  C   UNL     1     -11.722  13.168  67.090  1.00  0.00    -0.430 C  
HETATM    5  O   UNL     1     -11.816  12.545  63.448  1.00  0.00    -0.491 OA 
HETATM    6  C   UNL     1     -11.492  12.559  65.887  1.00  0.00    -0.373 C  
HETATM    7  N   UNL     1     -10.772  11.389  65.850  1.00  0.00    -0.267 N  
HETATM    8  C   UNL     1      -9.499   9.702  66.090  1.00  0.00    -0.217 C  
HETATM    9  C   UNL     1     -12.018  13.196  64.606  1.00  0.00    -0.388 C  
HETATM   10  O   UNL     1     -10.213  10.661  63.727  1.00  0.00    -0.320 OA 
HETATM   11  C   UNL     1     -10.173  10.596  64.936  1.00  0.00    -0.324 C  
HETATM   12  O   UNL     1     -12.670  14.232  64.585  1.00  0.00    -0.655 OA 
ENDROOT
BRANCH   4  13
HETATM   13  C   UNL     1     -12.395  14.533  67.273  1.00  0.00     0.022 C  
BRANCH  13  14
HETATM   14  S   UNL     1     -11.409  15.610  68.353  1.00  0.00    -0.362 SA 
BRANCH  14  15
HETATM   15  C   UNL     1     -10.353  16.334  67.190  1.00  0.00    -0.285 A  
HETATM   16  N   UNL     1      -9.520  15.694  66.403  1.00  0.00    -0.266 NA 
HETATM   17  N   UNL     1      -9.248  17.880  66.057  1.00  0.00    -0.525 NA 
HETATM   18  N   UNL     1      -8.834  16.667  65.711  1.00  0.00    -0.466 NA 
HETATM   19  C   UNL     1     -10.896  18.791  67.565  1.00  0.00    -0.331 C  
HETATM   20  N   UNL     1     -10.205  17.676  66.984  1.00  0.00    -0.320 NA 
ENDBRANCH  14  15
ENDBRANCH  13  14
ENDBRANCH   4  13
BRANCH   8  21
HETATM   21  O   UNL     1      -9.788   8.279  65.979  1.00  0.00    -0.147 OA 
HETATM   22  C   UNL     1     -10.367   7.669  67.130  1.00  0.00    -0.315 C  
ENDBRANCH   8  21
BRANCH   8  23
HETATM   23  N   UNL     1      -8.065   9.957  66.428  1.00  0.00    -0.116 N  
HETATM   24  C   UNL     1      -7.022   9.740  65.563  1.00  0.00    -0.099 C  
HETATM   25  H   UNL     1      -7.849  10.314  67.359  1.00  0.00     0.000 HD 
HETATM   26  O   UNL     1      -7.176   9.289  64.434  1.00  0.00    -0.094 OA 
BRANCH  24  27
HETATM   27  C   UNL     1      -5.642  10.019  66.126  1.00  0.00    -0.059 C  
BRANCH  27  28
HETATM   28  S   UNL     1      -5.628   9.758  67.932  1.00  0.00    -0.039 SA 
BRANCH  28  29
HETATM   29  C   UNL     1      -5.350  11.477  68.514  1.00  0.00    -0.042 C  
HETATM   30  C   UNL     1      -5.608  11.674  69.947  1.00  0.00    -0.102 C  
HETATM   31  N   UNL     1      -5.806  11.826  71.081  1.00  0.00    -0.346 NA 
ENDBRANCH  28  29
ENDBRANCH  27  28
ENDBRANCH  24  27
ENDBRANCH   8  23
TORSDOF 8
ENDMDL
MODEL       34
REMARK 921   NORMALIZED FREE ENERGY PREDICTED BY IDOCK:   -5.56 KCAL/MOL
REMARK 922        TOTAL FREE ENERGY PREDICTED BY IDOCK:   -9.26 KCAL/MOL
REMARK 923 INTER-LIGAND FREE ENERGY PREDICTED BY IDOCK:   -8.01 KCAL/MOL
REMARK 924 INTRA-LIGAND FREE ENERGY PREDICTED BY IDOCK:   -1.25 KCAL/MOL
REMARK 927      BINDING AFFINITY PREDICTED BY RF-SCORE:    0.00 PKD
ROOT
HETATM    1  C   UNL     1     -10.560  12.425  66.872  1.00  0.00    -0.229 C  
HETATM    2  S   UNL     1     -11.679  12.743  68.260  1.00  0.00    -0.336 SA 
HETATM    3  C   UNL     1     -11.294  14.510  68.311  1.00  0.00    -0.297 C  
HETATM    4  C   UNL     1      -9.805  14.834  68.306  1.00  0.00    -0.222 C  
HETATM    5  O   UNL     1      -6.469  13.618  67.281  1.00  0.00    -0.279 OA 
HETATM    6  C   UNL     1      -8.843  14.006  67.796  1.00  0.00    -0.187 C  
HETATM    7  N   UNL     1      -9.209  12.788  67.276  1.00  0.00    -0.196 N  
HETATM    8  C   UNL     1     -10.049  10.920  66.700  1.00  0.00    -0.219 C  
HETATM    9  C   UNL     1      -7.381  14.435  67.834  1.00  0.00    -0.154 C  
HETATM   10  O   UNL     1      -7.443  11.391  66.745  1.00  0.00    -0.141 OA 
HETATM   11  C   UNL     1      -8.621  11.640  66.873  1.00  0.00    -0.174 C  
HETATM   12  O   UNL     1      -7.004  15.511  68.280  1.00  0.00    -0.107 OA 
ENDROOT
BRANCH   4  13
HETATM   13  C   UNL     1      -9.536  16.159  69.030  1.00  0.00    -0.251 C  
BRANCH  13  14
HETATM   14  S   UNL     1     -10.273  17.555  68.134  1.00  0.00    -0.379 SA 
BRANCH  14  15
HETATM   15  C   UNL     1      -8.930  18.043  67.159  1.00  0.00    -0.255 A  
HETATM   16  N   UNL     1      -8.682  17.644  65.934  1.00  0.00    -0.520 NA 
HETATM   17  N   UNL     1      -7.007  18.969  66.574  1.00  0.00    -0.204 NA 
HETATM   18  N   UNL     1      -7.481  18.219  65.586  1.00  0.00    -0.544 NA 
HETATM   19  C   UNL     1      -7.729  19.580  68.793  1.00  0.00    -0.340 C  
HETATM   20  N   UNL     1      -7.916  18.864  67.563  1.00  0.00    -0.243 NA 
ENDBRANCH  14  15
ENDBRANCH  13  14
ENDBRANCH   4  13
BRANCH   8  21
HETATM   21  O   UNL     1     -10.267  10.352  65.377  1.00  0.00    -0.292 OA 
HETATM   22  C   UNL     1     -10.641  11.275  64.356  1.00  0.00    -0.345 C  
ENDBRANCH   8  21
BRANCH   8  23
HETATM   23  N   UNL     1     -10.507  10.000  67.787  1.00  0.00    -0.216 N  
HETATM   24  C   UNL     1      -9.890   8.816  68.100  1.00  0.00    -0.168 C  
HETATM   25  H   UNL     1     -11.328  10.271  68.328  1.00  0.00     0.000 HD 
HETATM   26  O   UNL     1      -8.914   8.392  67.492  1.00  0.00    -0.134 OA 
BRANCH  24  27
HETATM   27  C   UNL     1     -10.548   8.013  69.206  1.00  0.00    -0.184 C  
BRANCH  27  28
HETATM   28  S   UNL     1      -9.983   8.598  70.838  1.00  0.00    -0.223 SA 
BRANCH  28  29
HETATM   29  C   UNL     1     -11.581   8.668  71.739  1.00  0.00    -0.332 C  
HETATM   30  C   UNL     1     -12.321   9.924  71.554  1.00  0.00    -0.412 C  
HETATM   31  N   UNL     1     -12.906  10.914  71.401  1.00  0.00    -0.425 NA 
ENDBRANCH  28  29
ENDBRANCH  27  28
ENDBRANCH  24  27
ENDBRANCH   8  23
TORSDOF 8
ENDMDL
MODEL       35
REMARK 921   NORMALIZED FREE ENERGY PREDICTED BY IDOCK:   -5.49 KCAL/MOL
REMARK 922        TOTAL FREE ENERGY PREDICTED BY IDOCK:   -9.15 KCAL/MOL
REMARK 923 INTER-LIGAND FREE ENERGY PREDICTED BY IDOCK:   -8.42 KCAL/MOL
REMARK 924 INTRA-LIGAND FREE ENERGY PREDICTED BY IDOCK:   -0.74 KCAL/MOL
REMARK 927      BINDING AFFINITY PREDICTED BY RF-SCORE:    0.00 PKD
ROOT
HETATM    1  C   UNL     1      -9.983   9.451  70.697  1.00  0.00    -0.284 C  
HETATM    2  S   UNL     1      -9.674   9.462  68.912  1.00  0.00    -0.169 SA 
HETATM    3  C   UNL     1      -9.767  11.265  68.795  1.00  0.00    -0.174 C  
HETATM    4  C   UNL     1     -10.988  11.881  69.466  1.00  0.00    -0.090 C  
HETATM    5  O   UNL     1     -13.503  11.417  72.134  1.00  0.00    -0.397 OA 
HETATM    6  C   UNL     1     -11.677  11.291  70.491  1.00  0.00    -0.247 C  
HETATM    7  N   UNL     1     -11.284  10.055  70.944  1.00  0.00    -0.343 N  
HETATM    8  C   UNL     1     -10.555   8.091  71.312  1.00  0.00    -0.209 C  
HETATM    9  C   UNL     1     -12.880  12.003  71.098  1.00  0.00    -0.235 C  
HETATM   10  O   UNL     1     -12.733   9.071  72.456  1.00  0.00    -0.379 OA 
HETATM   11  C   UNL     1     -11.754   9.072  71.743  1.00  0.00    -0.369 C  
HETATM   12  O   UNL     1     -13.266  13.107  70.736  1.00  0.00     0.025 OA 
ENDROOT
BRANCH   4  13
HETATM   13  C   UNL     1     -11.383  13.191  68.776  1.00  0.00    -0.291 C  
BRANCH  13  14
HETATM   14  S   UNL     1     -10.347  13.502  67.318  1.00  0.00    -0.242 SA 
BRANCH  14  15
HETATM   15  C   UNL     1     -11.528  13.368  66.062  1.00  0.00    -0.326 A  
HETATM   16  N   UNL     1     -12.377  12.378  65.906  1.00  0.00    -0.577 NA 
HETATM   17  N   UNL     1     -12.652  13.793  64.204  1.00  0.00    -0.685 NA 
HETATM   18  N   UNL     1     -13.062  12.652  64.743  1.00  0.00    -0.848 NA 
HETATM   19  C   UNL     1     -11.036  15.496  64.758  1.00  0.00    -0.399 C  
HETATM   20  N   UNL     1     -11.690  14.248  65.031  1.00  0.00    -0.365 NA 
ENDBRANCH  14  15
ENDBRANCH  13  14
ENDBRANCH   4  13
BRANCH   8  21
HETATM   21  O   UNL     1      -9.792   7.563  72.434  1.00  0.00    -0.158 OA 
HETATM   22  C   UNL     1     -10.546   6.881  73.434  1.00  0.00    -0.344 C  
ENDBRANCH   8  21
BRANCH   8  23
HETATM   23  N   UNL     1     -10.842   7.040  70.287  1.00  0.00    -0.244 N  
HETATM   24  C   UNL     1      -9.921   6.125  69.846  1.00  0.00    -0.172 C  
HETATM   25  H   UNL     1     -11.782   7.002  69.891  1.00  0.00     0.000 HD 
HETATM   26  O   UNL     1      -8.760   6.105  70.242  1.00  0.00    -0.140 OA 
BRANCH  24  27
HETATM   27  C   UNL     1     -10.408   5.178  68.766  1.00  0.00    -0.092 C  
BRANCH  27  28
HETATM   28  S   UNL     1     -10.620   6.071  67.189  1.00  0.00    -0.332 SA 
BRANCH  28  29
HETATM   29  C   UNL     1      -8.988   5.758  66.409  1.00  0.00    -0.137 C  
HETATM   30  C   UNL     1      -7.913   6.635  66.893  1.00  0.00    -0.109 C  
HETATM   31  N   UNL     1      -7.064   7.324  67.282  1.00  0.00    -0.088 NA 
ENDBRANCH  28  29
ENDBRANCH  27  28
ENDBRANCH  24  27
ENDBRANCH   8  23
TORSDOF 8
ENDMDL
MODEL       36
REMARK 921   NORMALIZED FREE ENERGY PREDICTED BY IDOCK:   -5.48 KCAL/MOL
REMARK 922        TOTAL FREE ENERGY PREDICTED BY IDOCK:   -9.13 KCAL/MOL
REMARK 923 INTER-LIGAND FREE ENERGY PREDICTED BY IDOCK:   -8.77 KCAL/MOL
REMARK 924 INTRA-LIGAND FREE ENERGY PREDICTED BY IDOCK:   -0.37 KCAL/MOL
REMARK 927      BINDING AFFINITY PREDICTED BY RF-SCORE:    0.00 PKD
ROOT
HETATM    1  C   UNL     1     -10.507   9.232  67.058  1.00  0.00    -0.233 C  
HETATM    2  S   UNL     1     -10.578  10.801  67.959  1.00  0.00    -0.226 SA 
HETATM    3  C   UNL     1     -11.322  11.692  66.572  1.00  0.00    -0.263 C  
HETATM    4  C   UNL     1     -10.615  11.490  65.237  1.00  0.00    -0.339 C  
HETATM    5  O   UNL     1      -8.500   9.179  63.277  1.00  0.00    -0.189 OA 
HETATM    6  C   UNL     1      -9.854  10.395  64.931  1.00  0.00    -0.334 C  
HETATM    7  N   UNL     1      -9.675   9.414  65.877  1.00  0.00    -0.272 N  
HETATM    8  C   UNL     1      -9.442   8.159  67.579  1.00  0.00    -0.152 C  
HETATM    9  C   UNL     1      -9.199  10.290  63.560  1.00  0.00    -0.289 C  
HETATM   10  O   UNL     1      -8.120   7.797  65.313  1.00  0.00    -0.120 OA 
HETATM   11  C   UNL     1      -8.897   8.328  66.075  1.00  0.00    -0.168 C  
HETATM   12  O   UNL     1      -9.333  11.132  62.680  1.00  0.00    -0.327 OA 
ENDROOT
BRANCH   4  13
HETATM   13  C   UNL     1     -10.799  12.716  64.335  1.00  0.00    -0.356 C  
BRANCH  13  14
HETATM   14  S   UNL     1     -12.298  13.639  64.781  1.00  0.00    -0.372 SA 
BRANCH  14  15
HETATM   15  C   UNL     1     -11.670  15.250  64.824  1.00  0.00    -0.276 A  
HETATM   16  N   UNL     1     -12.096  16.262  64.104  1.00  0.00    -0.744 NA 
HETATM   17  N   UNL     1     -10.351  16.961  65.304  1.00  0.00    -0.638 NA 
HETATM   18  N   UNL     1     -11.261  17.315  64.406  1.00  0.00    -0.833 NA 
HETATM   19  C   UNL     1      -9.812  14.958  66.538  1.00  0.00    -0.266 C  
HETATM   20  N   UNL     1     -10.606  15.665  65.573  1.00  0.00    -0.379 NA 
ENDBRANCH  14  15
ENDBRANCH  13  14
ENDBRANCH   4  13
BRANCH   8  21
HETATM   21  O   UNL     1      -9.995   6.843  67.862  1.00  0.00    -0.138 OA 
HETATM   22  C   UNL     1     -11.033   6.401  66.988  1.00  0.00    -0.389 C  
ENDBRANCH   8  21
BRANCH   8  23
HETATM   23  N   UNL     1      -8.583   8.658  68.697  1.00  0.00    -0.130 N  
HETATM   24  C   UNL     1      -8.889   8.510  70.025  1.00  0.00    -0.141 C  
HETATM   25  H   UNL     1      -7.715   9.137  68.456  1.00  0.00     0.000 HD 
HETATM   26  O   UNL     1      -9.920   7.972  70.415  1.00  0.00    -0.187 OA 
BRANCH  24  27
HETATM   27  C   UNL     1      -7.903   9.133  70.994  1.00  0.00    -0.116 C  
BRANCH  27  28
HETATM   28  S   UNL     1      -7.149   7.848  72.046  1.00  0.00    -0.080 SA 
BRANCH  28  29
HETATM   29  C   UNL     1      -7.979   8.198  73.646  1.00  0.00    -0.199 C  
HETATM   30  C   UNL     1      -9.174   7.381  73.894  1.00  0.00    -0.265 C  
HETATM   31  N   UNL     1     -10.115   6.730  74.091  1.00  0.00    -0.346 NA 
ENDBRANCH  28  29
ENDBRANCH  27  28
ENDBRANCH  24  27
ENDBRANCH   8  23
TORSDOF 8
ENDMDL
MODEL       37
REMARK 921   NORMALIZED FREE ENERGY PREDICTED BY IDOCK:   -5.41 KCAL/MOL
REMARK 922        TOTAL FREE ENERGY PREDICTED BY IDOCK:   -9.04 KCAL/MOL
REMARK 923 INTER-LIGAND FREE ENERGY PREDICTED BY IDOCK:   -8.14 KCAL/MOL
REMARK 924 INTRA-LIGAND FREE ENERGY PREDICTED BY IDOCK:   -0.90 KCAL/MOL
REMARK 927      BINDING AFFINITY PREDICTED BY RF-SCORE:    0.00 PKD
ROOT
HETATM    1  C   UNL     1      -9.570  10.117  68.012  1.00  0.00    -0.145 C  
HETATM    2  S   UNL     1     -11.107  10.850  68.627  1.00  0.00    -0.276 SA 
HETATM    3  C   UNL     1     -11.202   9.733  70.047  1.00  0.00    -0.251 C  
HETATM    4  C   UNL     1     -11.020   8.258  69.706  1.00  0.00    -0.132 C  
HETATM    5  O   UNL     1      -9.504   5.896  67.303  1.00  0.00    -0.112 OA 
HETATM    6  C   UNL     1     -10.345   7.804  68.606  1.00  0.00    -0.199 C  
HETATM    7  N   UNL     1      -9.812   8.711  67.721  1.00  0.00    -0.166 N  
HETATM    8  C   UNL     1      -9.252  10.329  66.459  1.00  0.00    -0.153 C  
HETATM    9  C   UNL     1     -10.215   6.306  68.367  1.00  0.00    -0.172 C  
HETATM   10  O   UNL     1      -8.981   7.786  65.770  1.00  0.00    -0.150 OA 
HETATM   11  C   UNL     1      -9.275   8.721  66.482  1.00  0.00    -0.179 C  
HETATM   12  O   UNL     1     -10.664   5.458  69.127  1.00  0.00    -0.220 OA 
ENDROOT
BRANCH   4  13
HETATM   13  C   UNL     1     -11.773   7.374  70.707  1.00  0.00    -0.276 C  
BRANCH  13  14
HETATM   14  S   UNL     1     -11.866   8.165  72.339  1.00  0.00    -0.367 SA 
BRANCH  14  15
HETATM   15  C   UNL     1     -10.311   7.753  72.974  1.00  0.00    -0.347 A  
HETATM   16  N   UNL     1      -9.242   8.513  72.947  1.00  0.00    -0.283 NA 
HETATM   17  N   UNL     1      -8.669   6.558  73.853  1.00  0.00    -0.127 NA 
HETATM   18  N   UNL     1      -8.227   7.755  73.487  1.00  0.00    -0.163 NA 
HETATM   19  C   UNL     1     -10.785   5.401  73.821  1.00  0.00    -0.280 C  
HETATM   20  N   UNL     1      -9.978   6.553  73.535  1.00  0.00    -0.192 NA 
ENDBRANCH  14  15
ENDBRANCH  13  14
ENDBRANCH   4  13
BRANCH   8  21
HETATM   21  O   UNL     1      -7.941  10.896  66.180  1.00  0.00    -0.161 OA 
HETATM   22  C   UNL     1      -7.220  11.387  67.309  1.00  0.00    -0.119 C  
ENDBRANCH   8  21
BRANCH   8  23
HETATM   23  N   UNL     1     -10.338  11.036  65.713  1.00  0.00    -0.257 N  
HETATM   24  C   UNL     1     -10.460  11.030  64.347  1.00  0.00    -0.354 C  
HETATM   25  H   UNL     1     -11.031  11.554  66.253  1.00  0.00     0.000 HD 
HETATM   26  O   UNL     1      -9.664  10.459  63.609  1.00  0.00    -0.296 OA 
BRANCH  24  27
HETATM   27  C   UNL     1     -11.608  11.852  63.792  1.00  0.00    -0.462 C  
BRANCH  27  28
HETATM   28  S   UNL     1     -12.250  12.986  65.069  1.00  0.00    -0.477 SA 
BRANCH  28  29
HETATM   29  C   UNL     1     -10.933  14.264  65.072  1.00  0.00    -0.387 C  
HETATM   30  C   UNL     1     -11.329  15.538  64.457  1.00  0.00    -0.314 C  
HETATM   31  N   UNL     1     -11.648  16.545  63.976  1.00  0.00    -1.124 NA 
ENDBRANCH  28  29
ENDBRANCH  27  28
ENDBRANCH  24  27
ENDBRANCH   8  23
TORSDOF 8
ENDMDL
MODEL       38
REMARK 921   NORMALIZED FREE ENERGY PREDICTED BY IDOCK:   -5.41 KCAL/MOL
REMARK 922        TOTAL FREE ENERGY PREDICTED BY IDOCK:   -9.04 KCAL/MOL
REMARK 923 INTER-LIGAND FREE ENERGY PREDICTED BY IDOCK:   -8.21 KCAL/MOL
REMARK 924 INTRA-LIGAND FREE ENERGY PREDICTED BY IDOCK:   -0.82 KCAL/MOL
REMARK 927      BINDING AFFINITY PREDICTED BY RF-SCORE:    0.00 PKD
ROOT
HETATM    1  C   UNL     1     -11.640  12.162  67.283  1.00  0.00    -0.334 C  
HETATM    2  S   UNL     1     -10.128  11.214  66.979  1.00  0.00    -0.207 SA 
HETATM    3  C   UNL     1     -10.743   9.746  67.840  1.00  0.00    -0.258 C  
HETATM    4  C   UNL     1     -11.332  10.021  69.218  1.00  0.00    -0.169 C  
HETATM    5  O   UNL     1     -12.972  12.572  71.330  1.00  0.00    -0.322 OA 
HETATM    6  C   UNL     1     -11.852  11.227  69.602  1.00  0.00    -0.360 C  
HETATM    7  N   UNL     1     -11.830  12.282  68.721  1.00  0.00    -0.317 N  
HETATM    8  C   UNL     1     -11.506  13.755  67.221  1.00  0.00    -0.341 C  
HETATM    9  C   UNL     1     -12.425  11.389  71.004  1.00  0.00    -0.383 C  
HETATM   10  O   UNL     1     -12.459  14.315  69.627  1.00  0.00    -0.308 OA 
HETATM   11  C   UNL     1     -12.036  13.616  68.733  1.00  0.00    -0.359 C  
HETATM   12  O   UNL     1     -12.475  10.481  71.824  1.00  0.00    -0.373 OA 
ENDROOT
BRANCH   4  13
HETATM   13  C   UNL     1     -11.172   8.799  70.130  1.00  0.00    -0.152 C  
BRANCH  13  14
HETATM   14  S   UNL     1      -9.430   8.307  70.268  1.00  0.00    -0.165 SA 
BRANCH  14  15
HETATM   15  C   UNL     1      -9.314   8.048  71.974  1.00  0.00    -0.178 A  
HETATM   16  N   UNL     1      -8.539   8.710  72.802  1.00  0.00    -0.409 NA 
HETATM   17  N   UNL     1      -9.589   7.122  73.965  1.00  0.00    -0.270 NA 
HETATM   18  N   UNL     1      -8.713   8.117  74.033  1.00  0.00    -0.216 NA 
HETATM   19  C   UNL     1     -10.947   6.116  72.243  1.00  0.00    -0.260 C  
HETATM   20  N   UNL     1      -9.971   7.077  72.673  1.00  0.00    -0.168 NA 
ENDBRANCH  14  15
ENDBRANCH  13  14
ENDBRANCH   4  13
BRANCH   8  21
HETATM   21  O   UNL     1     -12.447  14.409  66.324  1.00  0.00    -0.393 OA 
HETATM   22  C   UNL     1     -12.551  13.852  65.015  1.00  0.00    -0.390 C  
ENDBRANCH   8  21
BRANCH   8  23
HETATM   23  N   UNL     1     -10.105  14.233  67.009  1.00  0.00    -0.257 N  
HETATM   24  C   UNL     1      -9.705  15.535  67.173  1.00  0.00    -0.222 C  
HETATM   25  H   UNL     1      -9.403  13.549  66.725  1.00  0.00     0.000 HD 
HETATM   26  O   UNL     1     -10.478  16.434  67.487  1.00  0.00    -0.293 OA 
BRANCH  24  27
HETATM   27  C   UNL     1      -8.248  15.813  66.859  1.00  0.00    -0.253 C  
BRANCH  27  28
HETATM   28  S   UNL     1      -7.165  14.863  67.979  1.00  0.00    -0.151 SA 
BRANCH  28  29
HETATM   29  C   UNL     1      -6.961  16.071  69.347  1.00  0.00    -0.216 C  
HETATM   30  C   UNL     1      -6.807  17.463  68.902  1.00  0.00    -0.241 C  
HETATM   31  N   UNL     1      -6.691  18.562  68.547  1.00  0.00    -0.246 NA 
ENDBRANCH  28  29
ENDBRANCH  27  28
ENDBRANCH  24  27
ENDBRANCH   8  23
TORSDOF 8
ENDMDL
MODEL       39
REMARK 921   NORMALIZED FREE ENERGY PREDICTED BY IDOCK:   -5.40 KCAL/MOL
REMARK 922        TOTAL FREE ENERGY PREDICTED BY IDOCK:   -9.02 KCAL/MOL
REMARK 923 INTER-LIGAND FREE ENERGY PREDICTED BY IDOCK:   -8.23 KCAL/MOL
REMARK 924 INTRA-LIGAND FREE ENERGY PREDICTED BY IDOCK:   -0.79 KCAL/MOL
REMARK 927      BINDING AFFINITY PREDICTED BY RF-SCORE:    0.00 PKD
ROOT
HETATM    1  C   UNL     1     -10.687   9.090  68.114  1.00  0.00    -0.109 C  
HETATM    2  S   UNL     1     -10.515  10.343  69.410  1.00  0.00    -0.248 SA 
HETATM    3  C   UNL     1     -11.654  11.494  68.605  1.00  0.00    -0.313 C  
HETATM    4  C   UNL     1     -11.373  11.733  67.126  1.00  0.00    -0.387 C  
HETATM    5  O   UNL     1      -9.895  10.264  64.074  1.00  0.00    -0.311 OA 
HETATM    6  C   UNL     1     -10.717  10.844  66.318  1.00  0.00    -0.176 C  
HETATM    7  N   UNL     1     -10.247   9.668  66.852  1.00  0.00    -0.230 N  
HETATM    8  C   UNL     1      -9.495   8.032  67.984  1.00  0.00    -0.146 C  
HETATM    9  C   UNL     1     -10.499  11.181  64.849  1.00  0.00    -0.308 C  
HETATM   10  O   UNL     1      -8.901   8.431  65.434  1.00  0.00    -0.170 OA 
HETATM   11  C   UNL     1      -9.426   8.654  66.503  1.00  0.00    -0.216 C  
HETATM   12  O   UNL     1     -10.904  12.210  64.323  1.00  0.00    -0.295 OA 
ENDROOT
BRANCH   4  13
HETATM   13  C   UNL     1     -11.840  13.131  66.705  1.00  0.00    -0.391 C  
BRANCH  13  14
HETATM   14  S   UNL     1     -10.530  14.362  66.958  1.00  0.00    -0.270 SA 
BRANCH  14  15
HETATM   15  C   UNL     1     -10.957  15.524  65.750  1.00  0.00    -0.283 A  
HETATM   16  N   UNL     1     -11.598  15.273  64.632  1.00  0.00    -0.383 NA 
HETATM   17  N   UNL     1     -11.059  17.437  64.642  1.00  0.00    -0.851 NA 
HETATM   18  N   UNL     1     -11.646  16.468  63.950  1.00  0.00    -1.071 NA 
HETATM   19  C   UNL     1      -9.957  17.625  66.780  1.00  0.00    -0.320 C  
HETATM   20  N   UNL     1     -10.627  16.849  65.775  1.00  0.00    -0.398 NA 
ENDBRANCH  14  15
ENDBRANCH  13  14
ENDBRANCH   4  13
BRANCH   8  21
HETATM   21  O   UNL     1      -9.915   6.638  68.019  1.00  0.00    -0.135 OA 
HETATM   22  C   UNL     1     -11.011   6.295  67.173  1.00  0.00    -0.370 C  
ENDBRANCH   8  21
BRANCH   8  23
HETATM   23  N   UNL     1      -8.351   8.296  68.910  1.00  0.00    -0.126 N  
HETATM   24  C   UNL     1      -7.076   7.835  68.706  1.00  0.00    -0.076 C  
HETATM   25  H   UNL     1      -8.531   8.853  69.746  1.00  0.00     0.000 HD 
HETATM   26  O   UNL     1      -6.766   7.136  67.748  1.00  0.00    -0.059 OA 
BRANCH  24  27
HETATM   27  C   UNL     1      -6.078   8.177  69.795  1.00  0.00    -0.029 C  
BRANCH  27  28
HETATM   28  S   UNL     1      -6.694   9.565  70.807  1.00  0.00    -0.086 SA 
BRANCH  28  29
HETATM   29  C   UNL     1      -6.320  10.978  69.695  1.00  0.00    -0.106 C  
HETATM   30  C   UNL     1      -5.961  12.217  70.399  1.00  0.00    -0.098 C  
HETATM   31  N   UNL     1      -5.672  13.193  70.957  1.00  0.00    -0.269 NA 
ENDBRANCH  28  29
ENDBRANCH  27  28
ENDBRANCH  24  27
ENDBRANCH   8  23
TORSDOF 8
ENDMDL
MODEL       40
REMARK 921   NORMALIZED FREE ENERGY PREDICTED BY IDOCK:   -5.40 KCAL/MOL
REMARK 922        TOTAL FREE ENERGY PREDICTED BY IDOCK:   -9.02 KCAL/MOL
REMARK 923 INTER-LIGAND FREE ENERGY PREDICTED BY IDOCK:   -7.81 KCAL/MOL
REMARK 924 INTRA-LIGAND FREE ENERGY PREDICTED BY IDOCK:   -1.21 KCAL/MOL
REMARK 927      BINDING AFFINITY PREDICTED BY RF-SCORE:    0.00 PKD
ROOT
HETATM    1  C   UNL     1      -9.814  11.400  68.796  1.00  0.00    -0.164 C  
HETATM    2  S   UNL     1     -11.496  10.863  68.394  1.00  0.00    -0.274 SA 
HETATM    3  C   UNL     1     -11.932  10.560  70.123  1.00  0.00    -0.316 C  
HETATM    4  C   UNL     1     -10.917   9.727  70.896  1.00  0.00    -0.411 C  
HETATM    5  O   UNL     1      -7.358   8.752  71.093  1.00  0.00    -0.079 OA 
HETATM    6  C   UNL     1      -9.592   9.636  70.567  1.00  0.00    -0.199 C  
HETATM    7  N   UNL     1      -9.125  10.303  69.460  1.00  0.00    -0.197 N  
HETATM    8  C   UNL     1      -8.734  11.298  67.621  1.00  0.00    -0.131 C  
HETATM    9  C   UNL     1      -8.661   8.779  71.417  1.00  0.00    -0.214 C  
HETATM   10  O   UNL     1      -6.946   9.797  68.871  1.00  0.00    -0.060 OA 
HETATM   11  C   UNL     1      -8.014  10.341  68.694  1.00  0.00    -0.111 C  
HETATM   12  O   UNL     1      -9.025   8.171  72.415  1.00  0.00    -0.159 OA 
ENDROOT
BRANCH   4  13
HETATM   13  C   UNL     1     -11.603   8.942  72.020  1.00  0.00    -0.364 C  
BRANCH  13  14
HETATM   14  S   UNL     1     -12.706   7.665  71.348  1.00  0.00    -0.299 SA 
BRANCH  14  15
HETATM   15  C   UNL     1     -11.544   6.535  70.746  1.00  0.00    -0.377 A  
HETATM   16  N   UNL     1     -11.187   6.393  69.490  1.00  0.00    -0.397 NA 
HETATM   17  N   UNL     1     -10.118   4.845  70.687  1.00  0.00    -0.238 NA 
HETATM   18  N   UNL     1     -10.308   5.333  69.468  1.00  0.00    -0.269 NA 
HETATM   19  C   UNL     1     -10.908   5.356  72.909  1.00  0.00    -0.270 C  
HETATM   20  N   UNL     1     -10.890   5.598  71.494  1.00  0.00    -0.250 NA 
ENDBRANCH  14  15
ENDBRANCH  13  14
ENDBRANCH   4  13
BRANCH   8  21
HETATM   21  O   UNL     1      -8.011  12.532  67.352  1.00  0.00    -0.161 OA 
HETATM   22  C   UNL     1      -8.814  13.688  67.123  1.00  0.00    -0.230 C  
ENDBRANCH   8  21
BRANCH   8  23
HETATM   23  N   UNL     1      -9.264  10.675  66.369  1.00  0.00    -0.164 N  
HETATM   24  C   UNL     1      -8.485  10.332  65.293  1.00  0.00    -0.163 C  
HETATM   25  H   UNL     1     -10.266  10.493  66.311  1.00  0.00     0.000 HD 
HETATM   26  O   UNL     1      -7.276  10.534  65.255  1.00  0.00    -0.128 OA 
BRANCH  24  27
HETATM   27  C   UNL     1      -9.232   9.757  64.105  1.00  0.00    -0.224 C  
BRANCH  27  28
HETATM   28  S   UNL     1      -9.331  10.988  62.762  1.00  0.00    -0.335 SA 
BRANCH  28  29
HETATM   29  C   UNL     1     -10.306  12.305  63.588  1.00  0.00    -0.432 C  
HETATM   30  C   UNL     1     -11.760  12.095  63.543  1.00  0.00    -0.490 C  
HETATM   31  N   UNL     1     -12.907  11.923  63.512  1.00  0.00    -0.700 NA 
ENDBRANCH  28  29
ENDBRANCH  27  28
ENDBRANCH  24  27
ENDBRANCH   8  23
TORSDOF 8
ENDMDL
MODEL       41
REMARK 921   NORMALIZED FREE ENERGY PREDICTED BY IDOCK:   -5.40 KCAL/MOL
REMARK 922        TOTAL FREE ENERGY PREDICTED BY IDOCK:   -9.01 KCAL/MOL
REMARK 923 INTER-LIGAND FREE ENERGY PREDICTED BY IDOCK:   -7.99 KCAL/MOL
REMARK 924 INTRA-LIGAND FREE ENERGY PREDICTED BY IDOCK:   -1.02 KCAL/MOL
REMARK 927      BINDING AFFINITY PREDICTED BY RF-SCORE:    0.00 PKD
ROOT
HETATM    1  C   UNL     1     -10.379   8.804  67.398  1.00  0.00    -0.280 C  
HETATM    2  S   UNL     1     -10.307  10.019  68.739  1.00  0.00    -0.210 SA 
HETATM    3  C   UNL     1     -11.443  11.161  67.915  1.00  0.00    -0.284 C  
HETATM    4  C   UNL     1     -11.100  11.455  66.460  1.00  0.00    -0.312 C  
HETATM    5  O   UNL     1      -9.435  10.129  63.439  1.00  0.00    -0.290 OA 
HETATM    6  C   UNL     1     -10.380  10.613  65.658  1.00  0.00    -0.216 C  
HETATM    7  N   UNL     1      -9.899   9.435  66.177  1.00  0.00    -0.271 N  
HETATM    8  C   UNL     1      -9.151   7.786  67.294  1.00  0.00    -0.131 C  
HETATM    9  C   UNL     1     -10.103  11.002  64.211  1.00  0.00    -0.339 C  
HETATM   10  O   UNL     1      -8.450   8.284  64.789  1.00  0.00    -0.148 OA 
HETATM   11  C   UNL     1      -9.031   8.458  65.837  1.00  0.00    -0.178 C  
HETATM   12  O   UNL     1     -10.514  12.036  63.698  1.00  0.00    -0.373 OA 
ENDROOT
BRANCH   4  13
HETATM   13  C   UNL     1     -11.590  12.852  66.059  1.00  0.00    -0.375 C  
BRANCH  13  14
HETATM   14  S   UNL     1     -10.446  14.138  66.639  1.00  0.00    -0.282 SA 
BRANCH  14  15
HETATM   15  C   UNL     1     -10.847  15.423  65.553  1.00  0.00    -0.374 A  
HETATM   16  N   UNL     1     -11.406  15.288  64.373  1.00  0.00    -0.274 NA 
HETATM   17  N   UNL     1     -10.962  17.452  64.678  1.00  0.00    -0.747 NA 
HETATM   18  N   UNL     1     -11.462  16.555  63.837  1.00  0.00    -1.052 NA 
HETATM   19  C   UNL     1     -10.004  17.416  66.892  1.00  0.00    -0.300 C  
HETATM   20  N   UNL     1     -10.577  16.746  65.759  1.00  0.00    -0.375 NA 
ENDBRANCH  14  15
ENDBRANCH  13  14
ENDBRANCH   4  13
BRANCH   8  21
HETATM   21  O   UNL     1      -9.528   6.380  67.266  1.00  0.00    -0.120 OA 
HETATM   22  C   UNL     1     -10.906   6.100  67.502  1.00  0.00    -0.332 C  
ENDBRANCH   8  21
BRANCH   8  23
HETATM   23  N   UNL     1      -8.060   8.054  68.282  1.00  0.00    -0.124 N  
HETATM   24  C   UNL     1      -6.865   7.382  68.307  1.00  0.00    -0.063 C  
HETATM   25  H   UNL     1      -8.215   8.782  68.980  1.00  0.00     0.000 HD 
HETATM   26  O   UNL     1      -6.595   6.474  67.529  1.00  0.00    -0.056 OA 
BRANCH  24  27
HETATM   27  C   UNL     1      -5.919   7.779  69.424  1.00  0.00    -0.033 C  
BRANCH  27  28
HETATM   28  S   UNL     1      -6.737   8.945  70.564  1.00  0.00    -0.059 SA 
BRANCH  28  29
HETATM   29  C   UNL     1      -7.499   7.771  71.752  1.00  0.00    -0.072 C  
HETATM   30  C   UNL     1      -8.807   7.252  71.329  1.00  0.00    -0.135 C  
HETATM   31  N   UNL     1      -9.837   6.839  70.989  1.00  0.00    -0.182 NA 
ENDBRANCH  28  29
ENDBRANCH  27  28
ENDBRANCH  24  27
ENDBRANCH   8  23
TORSDOF 8
ENDMDL
MODEL       42
REMARK 921   NORMALIZED FREE ENERGY PREDICTED BY IDOCK:   -5.38 KCAL/MOL
REMARK 922        TOTAL FREE ENERGY PREDICTED BY IDOCK:   -8.99 KCAL/MOL
REMARK 923 INTER-LIGAND FREE ENERGY PREDICTED BY IDOCK:   -8.05 KCAL/MOL
REMARK 924 INTRA-LIGAND FREE ENERGY PREDICTED BY IDOCK:   -0.94 KCAL/MOL
REMARK 927      BINDING AFFINITY PREDICTED BY RF-SCORE:    0.00 PKD
ROOT
HETATM    1  C   UNL     1      -8.110  10.036  67.029  1.00  0.00    -0.117 C  
HETATM    2  S   UNL     1      -9.283  10.949  68.063  1.00  0.00    -0.161 SA 
HETATM    3  C   UNL     1      -9.236   9.723  69.393  1.00  0.00    -0.205 C  
HETATM    4  C   UNL     1      -9.424   8.282  68.933  1.00  0.00    -0.151 C  
HETATM    5  O   UNL     1      -9.016   5.959  66.088  1.00  0.00    -0.145 OA 
HETATM    6  C   UNL     1      -9.137   7.837  67.671  1.00  0.00    -0.133 C  
HETATM    7  N   UNL     1      -8.677   8.728  66.731  1.00  0.00    -0.121 N  
HETATM    8  C   UNL     1      -8.148  10.351  65.462  1.00  0.00    -0.156 C  
HETATM    9  C   UNL     1      -9.354   6.371  67.321  1.00  0.00    -0.119 C  
HETATM   10  O   UNL     1      -8.539   7.884  64.582  1.00  0.00    -0.021 OA 
HETATM   11  C   UNL     1      -8.468   8.776  65.398  1.00  0.00    -0.170 C  
HETATM   12  O   UNL     1      -9.755   5.536  68.122  1.00  0.00    -0.121 OA 
ENDROOT
BRANCH   4  13
HETATM   13  C   UNL     1     -10.061   7.437  70.043  1.00  0.00    -0.191 C  
BRANCH  13  14
HETATM   14  S   UNL     1     -10.454   8.453  71.495  1.00  0.00    -0.260 SA 
BRANCH  14  15
HETATM   15  C   UNL     1     -12.156   8.172  71.621  1.00  0.00    -0.304 A  
HETATM   16  N   UNL     1     -12.743   6.997  71.637  1.00  0.00    -0.377 NA 
HETATM   17  N   UNL     1     -14.334   8.560  71.683  1.00  0.00    -0.434 NA 
HETATM   18  N   UNL     1     -14.095   7.254  71.667  1.00  0.00    -0.415 NA 
HETATM   19  C   UNL     1     -13.000  10.571  71.690  1.00  0.00    -0.476 C  
HETATM   20  N   UNL     1     -13.118   9.140  71.657  1.00  0.00    -0.349 NA 
ENDBRANCH  14  15
ENDBRANCH  13  14
ENDBRANCH   4  13
BRANCH   8  21
HETATM   21  O   UNL     1      -6.863  10.716  64.884  1.00  0.00    -0.025 OA 
HETATM   22  C   UNL     1      -5.745  10.664  65.768  1.00  0.00    -0.139 C  
ENDBRANCH   8  21
BRANCH   8  23
HETATM   23  N   UNL     1      -9.231  11.303  65.065  1.00  0.00    -0.347 N  
HETATM   24  C   UNL     1      -9.806  11.336  63.820  1.00  0.00    -0.322 C  
HETATM   25  H   UNL     1      -9.563  11.969  65.763  1.00  0.00     0.000 HD 
HETATM   26  O   UNL     1      -9.459  10.596  62.906  1.00  0.00    -0.284 OA 
BRANCH  24  27
HETATM   27  C   UNL     1     -10.853  12.414  63.616  1.00  0.00    -0.462 C  
BRANCH  27  28
HETATM   28  S   UNL     1     -11.834  12.643  65.137  1.00  0.00    -0.418 SA 
BRANCH  28  29
HETATM   29  C   UNL     1     -11.244  14.299  65.666  1.00  0.00    -0.314 C  
HETATM   30  C   UNL     1     -11.517  15.372  64.699  1.00  0.00    -0.337 C  
HETATM   31  N   UNL     1     -11.740  16.217  63.937  1.00  0.00    -0.978 NA 
ENDBRANCH  28  29
ENDBRANCH  27  28
ENDBRANCH  24  27
ENDBRANCH   8  23
TORSDOF 8
ENDMDL
MODEL       43
REMARK 921   NORMALIZED FREE ENERGY PREDICTED BY IDOCK:   -5.38 KCAL/MOL
REMARK 922        TOTAL FREE ENERGY PREDICTED BY IDOCK:   -8.99 KCAL/MOL
REMARK 923 INTER-LIGAND FREE ENERGY PREDICTED BY IDOCK:   -8.23 KCAL/MOL
REMARK 924 INTRA-LIGAND FREE ENERGY PREDICTED BY IDOCK:   -0.76 KCAL/MOL
REMARK 927      BINDING AFFINITY PREDICTED BY RF-SCORE:    0.00 PKD
ROOT
HETATM    1  C   UNL     1      -9.749  11.042  68.004  1.00  0.00    -0.172 C  
HETATM    2  S   UNL     1     -11.213  11.975  68.519  1.00  0.00    -0.282 SA 
HETATM    3  C   UNL     1     -10.629  13.517  67.775  1.00  0.00    -0.246 C  
HETATM    4  C   UNL     1      -9.195  13.889  68.131  1.00  0.00    -0.202 C  
HETATM    5  O   UNL     1      -5.908  12.544  69.152  1.00  0.00    -0.071 OA 
HETATM    6  C   UNL     1      -8.240  12.984  68.508  1.00  0.00    -0.067 C  
HETATM    7  N   UNL     1      -8.574  11.655  68.608  1.00  0.00    -0.127 N  
HETATM    8  C   UNL     1      -9.420   9.716  68.835  1.00  0.00    -0.157 C  
HETATM    9  C   UNL     1      -6.832  13.465  68.832  1.00  0.00    -0.111 C  
HETATM   10  O   UNL     1      -6.941  10.314  69.550  1.00  0.00    -0.069 OA 
HETATM   11  C   UNL     1      -8.048  10.513  69.101  1.00  0.00    -0.152 C  
HETATM   12  O   UNL     1      -6.482  14.636  68.753  1.00  0.00    -0.083 OA 
ENDROOT
BRANCH   4  13
HETATM   13  C   UNL     1      -9.005  15.410  68.099  1.00  0.00    -0.176 C  
BRANCH  13  14
HETATM   14  S   UNL     1      -8.238  15.941  66.541  1.00  0.00    -0.223 SA 
BRANCH  14  15
HETATM   15  C   UNL     1      -9.622  16.558  65.707  1.00  0.00    -0.156 A  
HETATM   16  N   UNL     1     -10.417  15.869  64.920  1.00  0.00    -0.549 NA 
HETATM   17  N   UNL     1     -11.100  17.992  64.897  1.00  0.00    -0.484 NA 
HETATM   18  N   UNL     1     -11.324  16.775  64.417  1.00  0.00    -1.077 NA 
HETATM   19  C   UNL     1      -9.527  18.996  66.426  1.00  0.00    -0.347 C  
HETATM   20  N   UNL     1     -10.033  17.860  65.710  1.00  0.00    -0.556 NA 
ENDBRANCH  14  15
ENDBRANCH  13  14
ENDBRANCH   4  13
BRANCH   8  21
HETATM   21  O   UNL     1      -9.259   8.517  68.026  1.00  0.00    -0.137 OA 
HETATM   22  C   UNL     1     -10.199   8.348  66.967  1.00  0.00    -0.307 C  
ENDBRANCH   8  21
BRANCH   8  23
HETATM   23  N   UNL     1     -10.337   9.490  69.995  1.00  0.00    -0.228 N  
HETATM   24  C   UNL     1     -10.023   8.713  71.081  1.00  0.00    -0.225 C  
HETATM   25  H   UNL     1     -11.251   9.943  69.978  1.00  0.00     0.000 HD 
HETATM   26  O   UNL     1      -8.962   8.108  71.183  1.00  0.00    -0.134 OA 
BRANCH  24  27
HETATM   27  C   UNL     1     -11.117   8.579  72.123  1.00  0.00    -0.366 C  
BRANCH  27  28
HETATM   28  S   UNL     1     -12.551   7.691  71.427  1.00  0.00    -0.312 SA 
BRANCH  28  29
HETATM   29  C   UNL     1     -13.901   8.866  71.838  1.00  0.00    -0.440 C  
HETATM   30  C   UNL     1     -13.485  10.275  71.861  1.00  0.00    -0.302 C  
HETATM   31  N   UNL     1     -13.155  11.388  71.872  1.00  0.00    -0.473 NA 
ENDBRANCH  28  29
ENDBRANCH  27  28
ENDBRANCH  24  27
ENDBRANCH   8  23
TORSDOF 8
ENDMDL
MODEL       44
REMARK 921   NORMALIZED FREE ENERGY PREDICTED BY IDOCK:   -5.37 KCAL/MOL
REMARK 922        TOTAL FREE ENERGY PREDICTED BY IDOCK:   -8.97 KCAL/MOL
REMARK 923 INTER-LIGAND FREE ENERGY PREDICTED BY IDOCK:   -7.83 KCAL/MOL
REMARK 924 INTRA-LIGAND FREE ENERGY PREDICTED BY IDOCK:   -1.15 KCAL/MOL
REMARK 927      BINDING AFFINITY PREDICTED BY RF-SCORE:    0.00 PKD
ROOT
HETATM    1  C   UNL     1      -8.888  11.842  68.827  1.00  0.00     0.054 C  
HETATM    2  S   UNL     1      -7.409  12.509  68.023  1.00  0.00    -0.125 SA 
HETATM    3  C   UNL     1      -7.610  14.148  68.761  1.00  0.00    -0.125 C  
HETATM    4  C   UNL     1      -9.009  14.736  68.627  1.00  0.00    -0.185 C  
HETATM    5  O   UNL     1     -12.591  13.909  68.245  1.00  0.00     0.096 OA 
HETATM    6  C   UNL     1     -10.143  13.986  68.467  1.00  0.00    -0.236 C  
HETATM    7  N   UNL     1     -10.040  12.618  68.391  1.00  0.00    -0.231 N  
HETATM    8  C   UNL     1      -9.556  10.562  68.140  1.00  0.00    -0.154 C  
HETATM    9  C   UNL     1     -11.495  14.679  68.352  1.00  0.00    -0.311 C  
HETATM   10  O   UNL     1     -11.998  11.530  67.812  1.00  0.00    -0.623 OA 
HETATM   11  C   UNL     1     -10.813  11.561  68.059  1.00  0.00    -0.213 C  
HETATM   12  O   UNL     1     -11.641  15.892  68.421  1.00  0.00    -0.371 OA 
ENDROOT
BRANCH   4  13
HETATM   13  C   UNL     1      -8.954  16.268  68.601  1.00  0.00    -0.232 C  
BRANCH  13  14
HETATM   14  S   UNL     1      -8.165  16.869  67.081  1.00  0.00    -0.202 SA 
BRANCH  14  15
HETATM   15  C   UNL     1      -9.473  16.698  65.962  1.00  0.00    -0.251 A  
HETATM   16  N   UNL     1      -9.776  15.610  65.292  1.00  0.00    -0.323 NA 
HETATM   17  N   UNL     1     -11.173  17.224  64.647  1.00  0.00    -0.909 NA 
HETATM   18  N   UNL     1     -10.827  15.954  64.473  1.00  0.00    -0.496 NA 
HETATM   19  C   UNL     1     -10.435  19.052  66.038  1.00  0.00    -0.458 C  
HETATM   20  N   UNL     1     -10.326  17.694  65.584  1.00  0.00    -0.635 NA 
ENDBRANCH  14  15
ENDBRANCH  13  14
ENDBRANCH   4  13
BRANCH   8  21
HETATM   21  O   UNL     1      -9.758   9.430  69.033  1.00  0.00    -0.159 OA 
HETATM   22  C   UNL     1     -10.178   9.749  70.358  1.00  0.00    -0.281 C  
ENDBRANCH   8  21
BRANCH   8  23
HETATM   23  N   UNL     1      -8.899  10.154  66.859  1.00  0.00    -0.132 N  
HETATM   24  C   UNL     1      -9.338   9.126  66.065  1.00  0.00    -0.238 C  
HETATM   25  H   UNL     1      -8.075  10.673  66.558  1.00  0.00     0.000 HD 
HETATM   26  O   UNL     1     -10.303   8.426  66.354  1.00  0.00    -0.235 OA 
BRANCH  24  27
HETATM   27  C   UNL     1      -8.497   8.849  64.834  1.00  0.00    -0.178 C  
BRANCH  27  28
HETATM   28  S   UNL     1      -8.853  10.078  63.534  1.00  0.00    -0.257 SA 
BRANCH  28  29
HETATM   29  C   UNL     1      -7.285  10.017  62.581  1.00  0.00    -0.130 C  
HETATM   30  C   UNL     1      -6.088  10.328  63.374  1.00  0.00    -0.140 C  
HETATM   31  N   UNL     1      -5.143  10.568  64.004  1.00  0.00    -0.144 NA 
ENDBRANCH  28  29
ENDBRANCH  27  28
ENDBRANCH  24  27
ENDBRANCH   8  23
TORSDOF 8
ENDMDL
MODEL       45
REMARK 921   NORMALIZED FREE ENERGY PREDICTED BY IDOCK:   -5.36 KCAL/MOL
REMARK 922        TOTAL FREE ENERGY PREDICTED BY IDOCK:   -8.96 KCAL/MOL
REMARK 923 INTER-LIGAND FREE ENERGY PREDICTED BY IDOCK:   -8.33 KCAL/MOL
REMARK 924 INTRA-LIGAND FREE ENERGY PREDICTED BY IDOCK:   -0.63 KCAL/MOL
REMARK 927      BINDING AFFINITY PREDICTED BY RF-SCORE:    0.00 PKD
ROOT
HETATM    1  C   UNL     1     -11.179  12.005  68.398  1.00  0.00    -0.262 C  
HETATM    2  S   UNL     1      -9.587  11.157  68.232  1.00  0.00    -0.192 SA 
HETATM    3  C   UNL     1     -10.289   9.530  68.596  1.00  0.00    -0.205 C  
HETATM    4  C   UNL     1     -11.170   9.484  69.838  1.00  0.00    -0.209 C  
HETATM    5  O   UNL     1     -13.357  11.485  72.046  1.00  0.00    -0.476 OA 
HETATM    6  C   UNL     1     -11.825  10.570  70.354  1.00  0.00    -0.340 C  
HETATM    7  N   UNL     1     -11.675  11.796  69.751  1.00  0.00    -0.324 N  
HETATM    8  C   UNL     1     -11.122  13.571  68.717  1.00  0.00    -0.264 C  
HETATM    9  C   UNL     1     -12.690  10.408  71.597  1.00  0.00    -0.455 C  
HETATM   10  O   UNL     1     -12.592  13.569  70.920  1.00  0.00    -0.348 OA 
HETATM   11  C   UNL     1     -11.951  13.092  70.010  1.00  0.00    -0.321 C  
HETATM   12  O   UNL     1     -12.863   9.338  72.167  1.00  0.00    -0.379 OA 
ENDROOT
BRANCH   4  13
HETATM   13  C   UNL     1     -11.141   8.089  70.473  1.00  0.00    -0.251 C  
BRANCH  13  14
HETATM   14  S   UNL     1     -11.005   6.796  69.205  1.00  0.00    -0.223 SA 
BRANCH  14  15
HETATM   15  C   UNL     1     -10.409   5.484  70.161  1.00  0.00    -0.284 A  
HETATM   16  N   UNL     1     -10.559   5.345  71.458  1.00  0.00    -0.233 NA 
HETATM   17  N   UNL     1      -9.305   3.652  70.729  1.00  0.00    -0.140 NA 
HETATM   18  N   UNL     1      -9.860   4.209  71.798  1.00  0.00    -0.175 NA 
HETATM   19  C   UNL     1      -9.229   4.123  68.364  1.00  0.00    -0.144 C  
HETATM   20  N   UNL     1      -9.649   4.448  69.697  1.00  0.00    -0.189 NA 
ENDBRANCH  14  15
ENDBRANCH  13  14
ENDBRANCH   4  13
BRANCH   8  21
HETATM   21  O   UNL     1     -11.886  14.405  67.802  1.00  0.00    -0.362 OA 
HETATM   22  C   UNL     1     -11.583  14.250  66.416  1.00  0.00    -0.372 C  
ENDBRANCH   8  21
BRANCH   8  23
HETATM   23  N   UNL     1      -9.736  14.093  68.927  1.00  0.00    -0.391 N  
HETATM   24  C   UNL     1      -9.452  15.345  69.408  1.00  0.00    -0.267 C  
HETATM   25  H   UNL     1      -8.954  13.479  68.697  1.00  0.00     0.000 HD 
HETATM   26  O   UNL     1     -10.320  16.164  69.687  1.00  0.00    -0.263 OA 
BRANCH  24  27
HETATM   27  C   UNL     1      -7.977  15.689  69.497  1.00  0.00    -0.174 C  
BRANCH  27  28
HETATM   28  S   UNL     1      -7.612  17.175  68.504  1.00  0.00    -0.254 SA 
BRANCH  28  29
HETATM   29  C   UNL     1      -6.054  17.732  69.300  1.00  0.00    -0.233 C  
HETATM   30  C   UNL     1      -6.088  19.118  69.785  1.00  0.00    -0.257 C  
HETATM   31  N   UNL     1      -6.121  20.212  70.172  1.00  0.00    -0.346 NA 
ENDBRANCH  28  29
ENDBRANCH  27  28
ENDBRANCH  24  27
ENDBRANCH   8  23
TORSDOF 8
ENDMDL
MODEL       46
REMARK 921   NORMALIZED FREE ENERGY PREDICTED BY IDOCK:   -5.36 KCAL/MOL
REMARK 922        TOTAL FREE ENERGY PREDICTED BY IDOCK:   -8.96 KCAL/MOL
REMARK 923 INTER-LIGAND FREE ENERGY PREDICTED BY IDOCK:   -8.14 KCAL/MOL
REMARK 924 INTRA-LIGAND FREE ENERGY PREDICTED BY IDOCK:   -0.82 KCAL/MOL
REMARK 927      BINDING AFFINITY PREDICTED BY RF-SCORE:    0.00 PKD
ROOT
HETATM    1  C   UNL     1      -8.804   9.786  69.211  1.00  0.00    -0.169 C  
HETATM    2  S   UNL     1      -8.752   9.259  67.479  1.00  0.00    -0.114 SA 
HETATM    3  C   UNL     1      -8.958  10.940  66.845  1.00  0.00    -0.151 C  
HETATM    4  C   UNL     1     -10.103  11.721  67.479  1.00  0.00    -0.207 C  
HETATM    5  O   UNL     1     -12.186  12.065  70.512  1.00  0.00    -0.364 OA 
HETATM    6  C   UNL     1     -10.607  11.463  68.725  1.00  0.00    -0.204 C  
HETATM    7  N   UNL     1     -10.089  10.425  69.460  1.00  0.00    -0.233 N  
HETATM    8  C   UNL     1      -9.210   8.671  70.283  1.00  0.00    -0.166 C  
HETATM    9  C   UNL     1     -11.749  12.314  69.266  1.00  0.00    -0.330 C  
HETATM   10  O   UNL     1     -11.254   9.933  71.397  1.00  0.00    -0.348 OA 
HETATM   11  C   UNL     1     -10.387   9.726  70.577  1.00  0.00    -0.283 C  
HETATM   12  O   UNL     1     -12.241  13.254  68.655  1.00  0.00    -0.277 OA 
ENDROOT
BRANCH   4  13
HETATM   13  C   UNL     1     -10.662  12.757  66.497  1.00  0.00    -0.258 C  
BRANCH  13  14
HETATM   14  S   UNL     1      -9.656  14.269  66.498  1.00  0.00    -0.298 SA 
BRANCH  14  15
HETATM   15  C   UNL     1     -10.590  15.265  65.436  1.00  0.00    -0.394 A  
HETATM   16  N   UNL     1     -11.370  14.840  64.469  1.00  0.00    -0.341 NA 
HETATM   17  N   UNL     1     -11.374  17.069  64.423  1.00  0.00    -1.052 NA 
HETATM   18  N   UNL     1     -11.842  15.971  63.843  1.00  0.00    -0.788 NA 
HETATM   19  C   UNL     1      -9.930  17.569  66.290  1.00  0.00    -0.308 C  
HETATM   20  N   UNL     1     -10.589  16.630  65.427  1.00  0.00    -0.580 NA 
ENDBRANCH  14  15
ENDBRANCH  13  14
ENDBRANCH   4  13
BRANCH   8  21
HETATM   21  O   UNL     1      -8.269   8.514  71.382  1.00  0.00    -0.121 OA 
HETATM   22  C   UNL     1      -6.890   8.465  71.020  1.00  0.00    -0.050 C  
ENDBRANCH   8  21
BRANCH   8  23
HETATM   23  N   UNL     1      -9.583   7.357  69.673  1.00  0.00    -0.156 N  
HETATM   24  C   UNL     1     -10.291   6.381  70.326  1.00  0.00    -0.205 C  
HETATM   25  H   UNL     1      -9.292   7.176  68.712  1.00  0.00     0.000 HD 
HETATM   26  O   UNL     1     -10.661   6.492  71.489  1.00  0.00    -0.225 OA 
BRANCH  24  27
HETATM   27  C   UNL     1     -10.519   5.105  69.539  1.00  0.00    -0.163 C  
BRANCH  27  28
HETATM   28  S   UNL     1      -8.926   4.295  69.168  1.00  0.00    -0.118 SA 
BRANCH  28  29
HETATM   29  C   UNL     1      -9.297   2.576  69.697  1.00  0.00    -0.101 C  
HETATM   30  C   UNL     1      -9.812   2.467  71.069  1.00  0.00     0.015 C  
HETATM   31  N   UNL     1     -10.224   2.385  72.150  1.00  0.00    -0.147 NA 
ENDBRANCH  28  29
ENDBRANCH  27  28
ENDBRANCH  24  27
ENDBRANCH   8  23
TORSDOF 8
ENDMDL
MODEL       47
REMARK 921   NORMALIZED FREE ENERGY PREDICTED BY IDOCK:   -5.34 KCAL/MOL
REMARK 922        TOTAL FREE ENERGY PREDICTED BY IDOCK:   -8.93 KCAL/MOL
REMARK 923 INTER-LIGAND FREE ENERGY PREDICTED BY IDOCK:   -8.02 KCAL/MOL
REMARK 924 INTRA-LIGAND FREE ENERGY PREDICTED BY IDOCK:   -0.91 KCAL/MOL
REMARK 927      BINDING AFFINITY PREDICTED BY RF-SCORE:    0.00 PKD
ROOT
HETATM    1  C   UNL     1     -10.217  10.671  68.740  1.00  0.00    -0.190 C  
HETATM    2  S   UNL     1      -8.485  11.173  68.903  1.00  0.00    -0.037 SA 
HETATM    3  C   UNL     1      -7.961   9.560  69.534  1.00  0.00    -0.110 C  
HETATM    4  C   UNL     1      -8.817   9.017  70.672  1.00  0.00    -0.259 C  
HETATM    5  O   UNL     1     -12.182   9.092  72.200  1.00  0.00    -0.367 OA 
HETATM    6  C   UNL     1     -10.122   9.372  70.885  1.00  0.00    -0.296 C  
HETATM    7  N   UNL     1     -10.714  10.293  70.055  1.00  0.00    -0.289 N  
HETATM    8  C   UNL     1     -11.300  11.847  68.727  1.00  0.00    -0.274 C  
HETATM    9  C   UNL     1     -10.889   8.759  72.050  1.00  0.00    -0.358 C  
HETATM   10  O   UNL     1     -12.807  11.006  70.736  1.00  0.00    -0.322 OA 
HETATM   11  C   UNL     1     -11.839  11.040  70.009  1.00  0.00    -0.355 C  
HETATM   12  O   UNL     1     -10.410   7.929  72.814  1.00  0.00    -0.280 OA 
ENDROOT
BRANCH   4  13
HETATM   13  C   UNL     1      -7.990   8.105  71.586  1.00  0.00    -0.121 C  
BRANCH  13  14
HETATM   14  S   UNL     1      -7.376   6.656  70.681  1.00  0.00    -0.076 SA 
BRANCH  14  15
HETATM   15  C   UNL     1      -8.835   6.123  69.918  1.00  0.00    -0.140 A  
HETATM   16  N   UNL     1      -9.197   6.382  68.683  1.00  0.00    -0.126 NA 
HETATM   17  N   UNL     1     -10.845   5.236  69.655  1.00  0.00    -0.101 NA 
HETATM   18  N   UNL     1     -10.451   5.833  68.537  1.00  0.00    -0.217 NA 
HETATM   19  C   UNL     1      -9.913   4.864  71.849  1.00  0.00    -0.190 C  
HETATM   20  N   UNL     1      -9.831   5.413  70.525  1.00  0.00    -0.189 NA 
ENDBRANCH  14  15
ENDBRANCH  13  14
ENDBRANCH   4  13
BRANCH   8  21
HETATM   21  O   UNL     1     -12.209  11.823  67.590  1.00  0.00    -0.534 OA 
HETATM   22  C   UNL     1     -11.693  12.348  66.368  1.00  0.00    -0.391 C  
ENDBRANCH   8  21
BRANCH   8  23
HETATM   23  N   UNL     1     -10.716  13.207  68.948  1.00  0.00    -0.367 N  
HETATM   24  C   UNL     1     -11.402  14.255  69.508  1.00  0.00    -0.269 C  
HETATM   25  H   UNL     1      -9.749  13.363  68.666  1.00  0.00     0.000 HD 
HETATM   26  O   UNL     1     -12.575  14.173  69.855  1.00  0.00    -0.311 OA 
BRANCH  24  27
HETATM   27  C   UNL     1     -10.635  15.560  69.596  1.00  0.00    -0.282 C  
BRANCH  27  28
HETATM   28  S   UNL     1     -10.503  16.330  67.947  1.00  0.00    -0.303 SA 
BRANCH  28  29
HETATM   29  C   UNL     1     -10.260  18.088  68.420  1.00  0.00    -0.391 C  
HETATM   30  C   UNL     1     -10.579  19.047  67.354  1.00  0.00    -0.474 C  
HETATM   31  N   UNL     1     -10.838  19.802  66.511  1.00  0.00    -0.397 NA 
ENDBRANCH  28  29
ENDBRANCH  27  28
ENDBRANCH  24  27
ENDBRANCH   8  23
TORSDOF 8
ENDMDL
MODEL       48
REMARK 921   NORMALIZED FREE ENERGY PREDICTED BY IDOCK:   -5.34 KCAL/MOL
REMARK 922        TOTAL FREE ENERGY PREDICTED BY IDOCK:   -8.92 KCAL/MOL
REMARK 923 INTER-LIGAND FREE ENERGY PREDICTED BY IDOCK:   -8.26 KCAL/MOL
REMARK 924 INTRA-LIGAND FREE ENERGY PREDICTED BY IDOCK:   -0.66 KCAL/MOL
REMARK 927      BINDING AFFINITY PREDICTED BY RF-SCORE:    0.00 PKD
ROOT
HETATM    1  C   UNL     1     -10.038  12.558  67.306  1.00  0.00    -0.213 C  
HETATM    2  S   UNL     1      -8.240  12.431  67.134  1.00  0.00    -0.151 SA 
HETATM    3  C   UNL     1      -7.986  14.214  67.309  1.00  0.00    -0.150 C  
HETATM    4  C   UNL     1      -8.883  15.072  66.425  1.00  0.00    -0.238 C  
HETATM    5  O   UNL     1     -12.126  15.193  64.657  1.00  0.00    -0.357 OA 
HETATM    6  C   UNL     1     -10.096  14.664  65.942  1.00  0.00    -0.320 C  
HETATM    7  N   UNL     1     -10.547  13.399  66.232  1.00  0.00    -0.287 N  
HETATM    8  C   UNL     1     -10.897  11.353  66.701  1.00  0.00    -0.289 C  
HETATM    9  C   UNL     1     -10.918  15.608  65.073  1.00  0.00    -0.431 C  
HETATM   10  O   UNL     1     -12.456  12.764  65.090  1.00  0.00    -0.491 OA 
HETATM   11  C   UNL     1     -11.523  12.555  65.834  1.00  0.00    -0.373 C  
HETATM   12  O   UNL     1     -10.565  16.747  64.791  1.00  0.00    -0.674 OA 
ENDROOT
BRANCH   4  13
HETATM   13  C   UNL     1      -8.197  16.399  66.082  1.00  0.00    -0.215 C  
BRANCH  13  14
HETATM   14  S   UNL     1      -7.667  17.269  67.585  1.00  0.00    -0.187 SA 
BRANCH  14  15
HETATM   15  C   UNL     1      -8.764  18.606  67.575  1.00  0.00    -0.270 A  
HETATM   16  N   UNL     1      -8.472  19.840  67.231  1.00  0.00    -0.305 NA 
HETATM   17  N   UNL     1     -10.597  19.800  67.906  1.00  0.00    -0.389 NA 
HETATM   18  N   UNL     1      -9.618  20.571  67.451  1.00  0.00    -0.444 NA 
HETATM   19  C   UNL     1     -10.871  17.459  68.422  1.00  0.00    -0.234 C  
HETATM   20  N   UNL     1     -10.066  18.564  67.982  1.00  0.00    -0.353 NA 
ENDBRANCH  14  15
ENDBRANCH  13  14
ENDBRANCH   4  13
BRANCH   8  21
HETATM   21  O   UNL     1     -11.836  10.747  67.634  1.00  0.00    -0.505 OA 
HETATM   22  C   UNL     1     -11.942  11.378  68.909  1.00  0.00    -0.304 C  
ENDBRANCH   8  21
BRANCH   8  23
HETATM   23  N   UNL     1     -10.076  10.327  65.987  1.00  0.00    -0.246 N  
HETATM   24  C   UNL     1      -9.669   9.144  66.548  1.00  0.00    -0.241 C  
HETATM   25  H   UNL     1      -9.803  10.519  65.023  1.00  0.00     0.000 HD 
HETATM   26  O   UNL     1      -9.924   8.834  67.707  1.00  0.00    -0.172 OA 
BRANCH  24  27
HETATM   27  C   UNL     1      -8.802   8.268  65.664  1.00  0.00    -0.132 C  
BRANCH  27  28
HETATM   28  S   UNL     1      -8.437   6.687  66.499  1.00  0.00    -0.126 SA 
BRANCH  28  29
HETATM   29  C   UNL     1      -6.770   7.047  67.177  1.00  0.00    -0.060 C  
HETATM   30  C   UNL     1      -6.282   8.402  66.885  1.00  0.00    -0.055 C  
HETATM   31  N   UNL     1      -5.902   9.475  66.659  1.00  0.00    -0.054 NA 
ENDBRANCH  28  29
ENDBRANCH  27  28
ENDBRANCH  24  27
ENDBRANCH   8  23
TORSDOF 8
ENDMDL
MODEL       49
REMARK 921   NORMALIZED FREE ENERGY PREDICTED BY IDOCK:   -5.33 KCAL/MOL
REMARK 922        TOTAL FREE ENERGY PREDICTED BY IDOCK:   -8.92 KCAL/MOL
REMARK 923 INTER-LIGAND FREE ENERGY PREDICTED BY IDOCK:   -8.38 KCAL/MOL
REMARK 924 INTRA-LIGAND FREE ENERGY PREDICTED BY IDOCK:   -0.54 KCAL/MOL
REMARK 927      BINDING AFFINITY PREDICTED BY RF-SCORE:    0.00 PKD
ROOT
HETATM    1  C   UNL     1      -9.768   8.984  70.375  1.00  0.00    -0.206 C  
HETATM    2  S   UNL     1      -9.524   9.031  68.582  1.00  0.00    -0.148 SA 
HETATM    3  C   UNL     1      -9.596  10.837  68.507  1.00  0.00    -0.183 C  
HETATM    4  C   UNL     1     -10.783  11.454  69.236  1.00  0.00    -0.195 C  
HETATM    5  O   UNL     1     -13.205  10.964  71.984  1.00  0.00    -0.492 OA 
HETATM    6  C   UNL     1     -11.443  10.851  70.273  1.00  0.00    -0.302 C  
HETATM    7  N   UNL     1     -11.051   9.600  70.683  1.00  0.00    -0.292 N  
HETATM    8  C   UNL     1     -10.337   7.618  70.981  1.00  0.00    -0.202 C  
HETATM    9  C   UNL     1     -12.612  11.565  70.939  1.00  0.00    -0.341 C  
HETATM   10  O   UNL     1     -12.457   8.602  72.226  1.00  0.00    -0.367 OA 
HETATM   11  C   UNL     1     -11.505   8.606  71.477  1.00  0.00    -0.295 C  
HETATM   12  O   UNL     1     -12.996  12.682  70.616  1.00  0.00    -0.002 OA 
ENDROOT
BRANCH   4  13
HETATM   13  C   UNL     1     -11.185  12.785  68.590  1.00  0.00    -0.282 C  
BRANCH  13  14
HETATM   14  S   UNL     1     -10.189  13.121  67.109  1.00  0.00    -0.246 SA 
BRANCH  14  15
HETATM   15  C   UNL     1     -11.424  13.135  65.899  1.00  0.00    -0.333 A  
HETATM   16  N   UNL     1     -12.243  12.146  65.623  1.00  0.00    -0.528 NA 
HETATM   17  N   UNL     1     -12.652  13.798  64.182  1.00  0.00    -0.685 NA 
HETATM   18  N   UNL     1     -12.993  12.569  64.548  1.00  0.00    -0.823 NA 
HETATM   19  C   UNL     1     -11.075  15.462  64.932  1.00  0.00    -0.423 C  
HETATM   20  N   UNL     1     -11.669  14.159  65.030  1.00  0.00    -0.357 NA 
ENDBRANCH  14  15
ENDBRANCH  13  14
ENDBRANCH   4  13
BRANCH   8  21
HETATM   21  O   UNL     1      -9.541   7.056  72.063  1.00  0.00    -0.141 OA 
HETATM   22  C   UNL     1      -8.649   7.958  72.715  1.00  0.00    -0.170 C  
ENDBRANCH   8  21
BRANCH   8  23
HETATM   23  N   UNL     1     -10.676   6.595  69.945  1.00  0.00    -0.230 N  
HETATM   24  C   UNL     1      -9.781   5.685  69.443  1.00  0.00    -0.157 C  
HETATM   25  H   UNL     1     -11.632   6.572  69.590  1.00  0.00     0.000 HD 
HETATM   26  O   UNL     1      -8.605   5.649  69.786  1.00  0.00    -0.118 OA 
BRANCH  24  27
HETATM   27  C   UNL     1     -10.322   4.768  68.363  1.00  0.00     0.104 C  
BRANCH  27  28
HETATM   28  S   UNL     1     -10.435   5.657  66.773  1.00  0.00    -0.298 SA 
BRANCH  28  29
HETATM   29  C   UNL     1      -9.563   4.478  65.670  1.00  0.00    -0.187 C  
HETATM   30  C   UNL     1     -10.401   3.929  64.594  1.00  0.00    -0.202 C  
HETATM   31  N   UNL     1     -11.063   3.502  63.742  1.00  0.00    -0.273 NA 
ENDBRANCH  28  29
ENDBRANCH  27  28
ENDBRANCH  24  27
ENDBRANCH   8  23
TORSDOF 8
ENDMDL
MODEL       50
REMARK 921   NORMALIZED FREE ENERGY PREDICTED BY IDOCK:   -5.33 KCAL/MOL
REMARK 922        TOTAL FREE ENERGY PREDICTED BY IDOCK:   -8.92 KCAL/MOL
REMARK 923 INTER-LIGAND FREE ENERGY PREDICTED BY IDOCK:   -7.49 KCAL/MOL
REMARK 924 INTRA-LIGAND FREE ENERGY PREDICTED BY IDOCK:   -1.43 KCAL/MOL
REMARK 927      BINDING AFFINITY PREDICTED BY RF-SCORE:    0.00 PKD
ROOT
HETATM    1  C   UNL     1     -10.991  10.064  67.387  1.00  0.00    -0.191 C  
HETATM    2  S   UNL     1     -10.656  11.015  68.891  1.00  0.00    -0.217 SA 
HETATM    3  C   UNL     1     -11.814  12.333  68.450  1.00  0.00    -0.304 C  
HETATM    4  C   UNL     1     -11.655  12.868  67.033  1.00  0.00    -0.419 C  
HETATM    5  O   UNL     1     -10.511  12.037  63.618  1.00  0.00    -0.373 OA 
HETATM    6  C   UNL     1     -11.109  12.154  66.001  1.00  0.00    -0.313 C  
HETATM    7  N   UNL     1     -10.641  10.883  66.235  1.00  0.00    -0.241 N  
HETATM    8  C   UNL     1      -9.860   9.031  66.930  1.00  0.00    -0.224 C  
HETATM    9  C   UNL     1     -11.008  12.785  64.618  1.00  0.00    -0.327 C  
HETATM   10  O   UNL     1      -9.477   9.940  64.473  1.00  0.00    -0.283 OA 
HETATM   11  C   UNL     1      -9.896   9.947  65.609  1.00  0.00    -0.298 C  
HETATM   12  O   UNL     1     -11.415  13.909  64.356  1.00  0.00    -0.378 OA 
ENDROOT
BRANCH   4  13
HETATM   13  C   UNL     1     -12.100  14.333  66.953  1.00  0.00    -0.409 C  
BRANCH  13  14
HETATM   14  S   UNL     1     -11.268  15.340  68.214  1.00  0.00    -0.326 SA 
BRANCH  14  15
HETATM   15  C   UNL     1     -10.203  16.270  67.218  1.00  0.00    -0.279 A  
HETATM   16  N   UNL     1     -10.410  17.500  66.808  1.00  0.00    -0.324 NA 
HETATM   17  N   UNL     1      -8.503  16.786  65.899  1.00  0.00    -0.476 NA 
HETATM   18  N   UNL     1      -9.350  17.803  65.983  1.00  0.00    -0.523 NA 
HETATM   19  C   UNL     1      -8.350  14.568  66.837  1.00  0.00    -0.101 C  
HETATM   20  N   UNL     1      -9.033  15.821  66.676  1.00  0.00    -0.253 NA 
ENDBRANCH  14  15
ENDBRANCH  13  14
ENDBRANCH   4  13
BRANCH   8  21
HETATM   21  O   UNL     1     -10.330   7.670  66.718  1.00  0.00    -0.297 OA 
HETATM   22  C   UNL     1     -10.698   6.947  67.891  1.00  0.00    -0.232 C  
ENDBRANCH   8  21
BRANCH   8  23
HETATM   23  N   UNL     1      -8.629   9.072  67.779  1.00  0.00    -0.121 N  
HETATM   24  C   UNL     1      -7.409   8.584  67.386  1.00  0.00    -0.089 C  
HETATM   25  H   UNL     1      -8.702   9.489  68.707  1.00  0.00     0.000 HD 
HETATM   26  O   UNL     1      -7.227   8.041  66.302  1.00  0.00    -0.069 OA 
BRANCH  24  27
HETATM   27  C   UNL     1      -6.305   8.682  68.421  1.00  0.00    -0.055 C  
BRANCH  27  28
HETATM   28  S   UNL     1      -6.745   9.903  69.704  1.00  0.00    -0.072 SA 
BRANCH  28  29
HETATM   29  C   UNL     1      -6.894   8.806  71.169  1.00  0.00    -0.078 C  
HETATM   30  C   UNL     1      -7.794   7.660  70.973  1.00  0.00    -0.090 C  
HETATM   31  N   UNL     1      -8.500   6.753  70.813  1.00  0.00    -0.132 NA 
ENDBRANCH  28  29
ENDBRANCH  27  28
ENDBRANCH  24  27
ENDBRANCH   8  23
TORSDOF 8
ENDMDL
MODEL       51
REMARK 921   NORMALIZED FREE ENERGY PREDICTED BY IDOCK:   -5.32 KCAL/MOL
REMARK 922        TOTAL FREE ENERGY PREDICTED BY IDOCK:   -8.91 KCAL/MOL
REMARK 923 INTER-LIGAND FREE ENERGY PREDICTED BY IDOCK:   -8.21 KCAL/MOL
REMARK 924 INTRA-LIGAND FREE ENERGY PREDICTED BY IDOCK:   -0.70 KCAL/MOL
REMARK 927      BINDING AFFINITY PREDICTED BY RF-SCORE:    0.00 PKD
ROOT
HETATM    1  C   UNL     1     -10.592  14.794  68.130  1.00  0.00    -0.241 C  
HETATM    2  S   UNL     1      -9.094  15.309  69.006  1.00  0.00    -0.235 SA 
HETATM    3  C   UNL     1      -9.513  17.067  68.917  1.00  0.00    -0.235 C  
HETATM    4  C   UNL     1      -9.916  17.553  67.531  1.00  0.00    -0.315 C  
HETATM    5  O   UNL     1     -11.366  16.522  64.291  1.00  0.00    -1.020 OA 
HETATM    6  C   UNL     1     -10.434  16.743  66.557  1.00  0.00    -0.258 C  
HETATM    7  N   UNL     1     -10.585  15.400  66.806  1.00  0.00    -0.305 N  
HETATM    8  C   UNL     1     -10.544  13.363  67.417  1.00  0.00    -0.251 C  
HETATM    9  C   UNL     1     -10.814  17.337  65.206  1.00  0.00     0.004 C  
HETATM   10  O   UNL     1     -11.178  14.133  64.964  1.00  0.00    -0.325 OA 
HETATM   11  C   UNL     1     -10.850  14.266  66.123  1.00  0.00    -0.310 C  
HETATM   12  O   UNL     1     -10.706  18.526  64.935  1.00  0.00    -0.334 OA 
ENDROOT
BRANCH   4  13
HETATM   13  C   UNL     1      -9.574  19.037  67.355  1.00  0.00    -0.306 C  
BRANCH  13  14
HETATM   14  S   UNL     1      -7.878  19.249  66.742  1.00  0.00    -0.275 SA 
BRANCH  14  15
HETATM   15  C   UNL     1      -7.096  19.810  68.179  1.00  0.00    -0.292 A  
HETATM   16  N   UNL     1      -7.437  19.506  69.410  1.00  0.00    -0.258 NA 
HETATM   17  N   UNL     1      -5.749  20.960  69.506  1.00  0.00    -0.367 NA 
HETATM   18  N   UNL     1      -6.598  20.234  70.223  1.00  0.00    -0.326 NA 
HETATM   19  C   UNL     1      -5.305  21.302  67.159  1.00  0.00    -0.278 C  
HETATM   20  N   UNL     1      -6.056  20.694  68.221  1.00  0.00    -0.310 NA 
ENDBRANCH  14  15
ENDBRANCH  13  14
ENDBRANCH   4  13
BRANCH   8  21
HETATM   21  O   UNL     1     -11.630  12.465  67.782  1.00  0.00    -0.311 OA 
HETATM   22  C   UNL     1     -11.728  12.135  69.166  1.00  0.00    -0.328 C  
ENDBRANCH   8  21
BRANCH   8  23
HETATM   23  N   UNL     1      -9.210  12.692  67.505  1.00  0.00    -0.183 N  
HETATM   24  C   UNL     1      -8.834  11.627  66.727  1.00  0.00    -0.184 C  
HETATM   25  H   UNL     1      -8.538  13.048  68.185  1.00  0.00     0.000 HD 
HETATM   26  O   UNL     1      -9.578  11.111  65.900  1.00  0.00    -0.201 OA 
BRANCH  24  27
HETATM   27  C   UNL     1      -7.454  11.067  67.012  1.00  0.00    -0.127 C  
BRANCH  27  28
HETATM   28  S   UNL     1      -7.582   9.375  67.683  1.00  0.00    -0.088 SA 
BRANCH  28  29
HETATM   29  C   UNL     1      -8.559   9.693  69.205  1.00  0.00    -0.146 C  
HETATM   30  C   UNL     1      -7.869   9.328  70.449  1.00  0.00    -0.148 C  
HETATM   31  N   UNL     1      -7.318   9.045  71.431  1.00  0.00    -0.258 NA 
ENDBRANCH  28  29
ENDBRANCH  27  28
ENDBRANCH  24  27
ENDBRANCH   8  23
TORSDOF 8
ENDMDL
MODEL       52
REMARK 921   NORMALIZED FREE ENERGY PREDICTED BY IDOCK:   -5.32 KCAL/MOL
REMARK 922        TOTAL FREE ENERGY PREDICTED BY IDOCK:   -8.90 KCAL/MOL
REMARK 923 INTER-LIGAND FREE ENERGY PREDICTED BY IDOCK:   -7.72 KCAL/MOL
REMARK 924 INTRA-LIGAND FREE ENERGY PREDICTED BY IDOCK:   -1.19 KCAL/MOL
REMARK 927      BINDING AFFINITY PREDICTED BY RF-SCORE:    0.00 PKD
ROOT
HETATM    1  C   UNL     1      -9.356  10.955  66.871  1.00  0.00    -0.168 C  
HETATM    2  S   UNL     1      -7.661  11.300  67.408  1.00  0.00    -0.135 SA 
HETATM    3  C   UNL     1      -7.632   9.918  68.576  1.00  0.00    -0.080 C  
HETATM    4  C   UNL     1      -8.838   9.848  69.504  1.00  0.00    -0.208 C  
HETATM    5  O   UNL     1     -12.405  10.742  69.868  1.00  0.00    -0.329 OA 
HETATM    6  C   UNL     1     -10.062  10.384  69.211  1.00  0.00    -0.230 C  
HETATM    7  N   UNL     1     -10.236  11.058  68.026  1.00  0.00    -0.174 N  
HETATM    8  C   UNL     1     -10.157  12.175  66.217  1.00  0.00    -0.224 C  
HETATM    9  C   UNL     1     -11.204  10.246  70.210  1.00  0.00    -0.323 C  
HETATM   10  O   UNL     1     -12.260  12.161  67.827  1.00  0.00    -0.451 OA 
HETATM   11  C   UNL     1     -11.150  11.865  67.445  1.00  0.00    -0.279 C  
HETATM   12  O   UNL     1     -11.103   9.651  71.275  1.00  0.00    -0.346 OA 
ENDROOT
BRANCH   4  13
HETATM   13  C   UNL     1      -8.461   9.184  70.834  1.00  0.00    -0.201 C  
BRANCH  13  14
HETATM   14  S   UNL     1      -7.950   7.460  70.583  1.00  0.00    -0.099 SA 
BRANCH  14  15
HETATM   15  C   UNL     1      -9.461   6.750  70.131  1.00  0.00    -0.158 A  
HETATM   16  N   UNL     1      -9.843   6.465  68.908  1.00  0.00    -0.135 NA 
HETATM   17  N   UNL     1     -11.529   5.978  70.283  1.00  0.00    -0.282 NA 
HETATM   18  N   UNL     1     -11.132   5.995  69.017  1.00  0.00    -0.351 NA 
HETATM   19  C   UNL     1     -10.557   6.543  72.418  1.00  0.00    -0.215 C  
HETATM   20  N   UNL     1     -10.481   6.448  70.988  1.00  0.00    -0.217 NA 
ENDBRANCH  14  15
ENDBRANCH  13  14
ENDBRANCH   4  13
BRANCH   8  21
HETATM   21  O   UNL     1     -10.731  11.893  64.909  1.00  0.00    -0.279 OA 
HETATM   22  C   UNL     1      -9.966  11.035  64.065  1.00  0.00    -0.335 C  
ENDBRANCH   8  21
BRANCH   8  23
HETATM   23  N   UNL     1      -9.405  13.467  66.232  1.00  0.00    -0.457 N  
HETATM   24  C   UNL     1      -9.988  14.697  66.065  1.00  0.00    -0.316 C  
HETATM   25  H   UNL     1      -8.395  13.431  66.375  1.00  0.00     0.000 HD 
HETATM   26  O   UNL     1     -11.188  14.843  65.861  1.00  0.00    -0.335 OA 
BRANCH  24  27
HETATM   27  C   UNL     1      -9.033  15.875  66.066  1.00  0.00    -0.302 C  
BRANCH  27  28
HETATM   28  S   UNL     1      -9.950  17.435  66.303  1.00  0.00    -0.275 SA 
BRANCH  28  29
HETATM   29  C   UNL     1      -9.826  17.620  68.125  1.00  0.00    -0.318 C  
HETATM   30  C   UNL     1      -8.808  16.762  68.748  1.00  0.00    -0.258 C  
HETATM   31  N   UNL     1      -7.999  16.088  69.236  1.00  0.00    -0.236 NA 
ENDBRANCH  28  29
ENDBRANCH  27  28
ENDBRANCH  24  27
ENDBRANCH   8  23
TORSDOF 8
ENDMDL
MODEL       53
REMARK 921   NORMALIZED FREE ENERGY PREDICTED BY IDOCK:   -5.30 KCAL/MOL
REMARK 922        TOTAL FREE ENERGY PREDICTED BY IDOCK:   -8.88 KCAL/MOL
REMARK 923 INTER-LIGAND FREE ENERGY PREDICTED BY IDOCK:   -8.06 KCAL/MOL
REMARK 924 INTRA-LIGAND FREE ENERGY PREDICTED BY IDOCK:   -0.82 KCAL/MOL
REMARK 927      BINDING AFFINITY PREDICTED BY RF-SCORE:    0.00 PKD
ROOT
HETATM    1  C   UNL     1      -9.802  12.915  67.766  1.00  0.00    -0.221 C  
HETATM    2  S   UNL     1      -9.356  11.238  68.285  1.00  0.00    -0.184 SA 
HETATM    3  C   UNL     1      -8.747  10.774  66.646  1.00  0.00    -0.147 C  
HETATM    4  C   UNL     1      -9.697  11.103  65.500  1.00  0.00    -0.271 C  
HETATM    5  O   UNL     1     -12.424  13.346  64.410  1.00  0.00    -0.568 OA 
HETATM    6  C   UNL     1     -10.646  12.088  65.552  1.00  0.00    -0.273 C  
HETATM    7  N   UNL     1     -10.793  12.822  66.704  1.00  0.00    -0.260 N  
HETATM    8  C   UNL     1     -10.900  13.666  68.653  1.00  0.00    -0.263 C  
HETATM    9  C   UNL     1     -11.537  12.339  64.342  1.00  0.00    -0.360 C  
HETATM   10  O   UNL     1     -12.634  14.223  66.731  1.00  0.00    -0.276 OA 
HETATM   11  C   UNL     1     -11.669  13.698  67.242  1.00  0.00    -0.380 C  
HETATM   12  O   UNL     1     -11.442  11.719  63.291  1.00  0.00    -0.359 OA 
ENDROOT
BRANCH   4  13
HETATM   13  C   UNL     1      -9.503  10.124  64.337  1.00  0.00    -0.308 C  
BRANCH  13  14
HETATM   14  S   UNL     1      -7.754   9.675  64.144  1.00  0.00    -0.136 SA 
BRANCH  14  15
HETATM   15  C   UNL     1      -7.899   7.975  63.856  1.00  0.00    -0.142 A  
HETATM   16  N   UNL     1      -7.806   7.381  62.690  1.00  0.00    -0.127 NA 
HETATM   17  N   UNL     1      -8.298   5.828  64.213  1.00  0.00    -0.102 NA 
HETATM   18  N   UNL     1      -8.065   6.049  62.925  1.00  0.00    -0.106 NA 
HETATM   19  C   UNL     1      -8.364   7.161  66.222  1.00  0.00    -0.129 C  
HETATM   20  N   UNL     1      -8.192   7.035  64.802  1.00  0.00    -0.092 NA 
ENDBRANCH  14  15
ENDBRANCH  13  14
ENDBRANCH   4  13
BRANCH   8  21
HETATM   21  O   UNL     1     -10.497  14.979  69.136  1.00  0.00    -0.231 OA 
HETATM   22  C   UNL     1      -9.097  15.251  69.107  1.00  0.00    -0.236 C  
ENDBRANCH   8  21
BRANCH   8  23
HETATM   23  N   UNL     1     -11.473  12.820  69.746  1.00  0.00    -0.492 N  
HETATM   24  C   UNL     1     -12.503  13.215  70.562  1.00  0.00    -0.248 C  
HETATM   25  H   UNL     1     -11.074  11.893  69.893  1.00  0.00     0.000 HD 
HETATM   26  O   UNL     1     -13.031  14.318  70.482  1.00  0.00    -0.331 OA 
BRANCH  24  27
HETATM   27  C   UNL     1     -12.898  12.221  71.637  1.00  0.00    -0.273 C  
BRANCH  27  28
HETATM   28  S   UNL     1     -12.413  10.531  71.149  1.00  0.00    -0.439 SA 
BRANCH  28  29
HETATM   29  C   UNL     1     -13.613   9.545  72.127  1.00  0.00    -0.424 C  
HETATM   30  C   UNL     1     -13.631   8.115  71.791  1.00  0.00    -0.359 C  
HETATM   31  N   UNL     1     -13.639   6.984  71.527  1.00  0.00    -0.318 NA 
ENDBRANCH  28  29
ENDBRANCH  27  28
ENDBRANCH  24  27
ENDBRANCH   8  23
TORSDOF 8
ENDMDL
MODEL       54
REMARK 921   NORMALIZED FREE ENERGY PREDICTED BY IDOCK:   -5.29 KCAL/MOL
REMARK 922        TOTAL FREE ENERGY PREDICTED BY IDOCK:   -8.86 KCAL/MOL
REMARK 923 INTER-LIGAND FREE ENERGY PREDICTED BY IDOCK:   -8.80 KCAL/MOL
REMARK 924 INTRA-LIGAND FREE ENERGY PREDICTED BY IDOCK:   -0.06 KCAL/MOL
REMARK 927      BINDING AFFINITY PREDICTED BY RF-SCORE:    0.00 PKD
ROOT
HETATM    1  C   UNL     1      -9.179  14.629  65.901  1.00  0.00    -0.000 C  
HETATM    2  S   UNL     1      -8.970  13.471  67.277  1.00  0.00    -0.230 SA 
HETATM    3  C   UNL     1      -8.939  12.020  66.197  1.00  0.00    -0.079 C  
HETATM    4  C   UNL     1     -10.073  11.962  65.181  1.00  0.00    -0.293 C  
HETATM    5  O   UNL     1     -12.463  13.996  63.229  1.00  0.00    -0.795 OA 
HETATM    6  C   UNL     1     -10.745  13.062  64.721  1.00  0.00    -0.352 C  
HETATM    7  N   UNL     1     -10.418  14.304  65.208  1.00  0.00    -0.364 N  
HETATM    8  C   UNL     1      -9.813  16.052  66.259  1.00  0.00    -0.308 C  
HETATM    9  C   UNL     1     -11.859  12.890  63.695  1.00  0.00    -0.532 C  
HETATM   10  O   UNL     1     -11.848  16.005  64.564  1.00  0.00    -0.248 OA 
HETATM   11  C   UNL     1     -10.913  15.561  65.193  1.00  0.00    -0.409 C  
HETATM   12  O   UNL     1     -12.184  11.808  63.224  1.00  0.00    -0.489 OA 
ENDROOT
BRANCH   4  13
HETATM   13  C   UNL     1     -10.411  10.509  64.826  1.00  0.00    -0.230 C  
BRANCH  13  14
HETATM   14  S   UNL     1      -8.977   9.424  65.075  1.00  0.00    -0.198 SA 
BRANCH  14  15
HETATM   15  C   UNL     1      -9.586   8.381  66.312  1.00  0.00    -0.216 A  
HETATM   16  N   UNL     1     -10.429   8.721  67.260  1.00  0.00    -0.288 NA 
HETATM   17  N   UNL     1      -9.837   6.597  67.598  1.00  0.00    -0.123 NA 
HETATM   18  N   UNL     1     -10.568   7.606  68.056  1.00  0.00    -0.186 NA 
HETATM   19  C   UNL     1      -8.355   6.232  65.730  1.00  0.00    -0.145 C  
HETATM   20  N   UNL     1      -9.220   7.079  66.501  1.00  0.00    -0.162 NA 
ENDBRANCH  14  15
ENDBRANCH  13  14
ENDBRANCH   4  13
BRANCH   8  21
HETATM   21  O   UNL     1      -9.030  17.196  65.814  1.00  0.00    -0.523 OA 
HETATM   22  C   UNL     1      -7.709  17.290  66.345  1.00  0.00    -0.311 C  
ENDBRANCH   8  21
BRANCH   8  23
HETATM   23  N   UNL     1     -10.232  16.183  67.689  1.00  0.00    -0.259 N  
HETATM   24  C   UNL     1     -11.366  15.615  68.212  1.00  0.00    -0.356 C  
HETATM   25  H   UNL     1      -9.638  16.728  68.314  1.00  0.00     0.000 HD 
HETATM   26  O   UNL     1     -12.157  14.965  67.537  1.00  0.00    -0.246 OA 
BRANCH  24  27
HETATM   27  C   UNL     1     -11.627  15.913  69.675  1.00  0.00    -0.336 C  
BRANCH  27  28
HETATM   28  S   UNL     1     -12.897  14.782  70.336  1.00  0.00    -0.210 SA 
BRANCH  28  29
HETATM   29  C   UNL     1     -11.895  13.263  70.579  1.00  0.00    -0.134 C  
HETATM   30  C   UNL     1     -11.999  12.292  69.480  1.00  0.00    -0.270 C  
HETATM   31  N   UNL     1     -12.078  11.530  68.608  1.00  0.00    -0.505 NA 
ENDBRANCH  28  29
ENDBRANCH  27  28
ENDBRANCH  24  27
ENDBRANCH   8  23
TORSDOF 8
ENDMDL
MODEL       55
REMARK 921   NORMALIZED FREE ENERGY PREDICTED BY IDOCK:   -5.29 KCAL/MOL
REMARK 922        TOTAL FREE ENERGY PREDICTED BY IDOCK:   -8.86 KCAL/MOL
REMARK 923 INTER-LIGAND FREE ENERGY PREDICTED BY IDOCK:   -7.47 KCAL/MOL
REMARK 924 INTRA-LIGAND FREE ENERGY PREDICTED BY IDOCK:   -1.39 KCAL/MOL
REMARK 927      BINDING AFFINITY PREDICTED BY RF-SCORE:    0.00 PKD
ROOT
HETATM    1  C   UNL     1     -10.618  13.086  68.496  1.00  0.00    -0.258 C  
HETATM    2  S   UNL     1     -11.705  11.696  68.086  1.00  0.00    -0.259 SA 
HETATM    3  C   UNL     1     -10.778  10.525  69.108  1.00  0.00    -0.231 C  
HETATM    4  C   UNL     1      -9.271  10.543  68.883  1.00  0.00    -0.188 C  
HETATM    5  O   UNL     1      -6.422  12.627  67.789  1.00  0.00    -0.095 OA 
HETATM    6  C   UNL     1      -8.582  11.622  68.398  1.00  0.00    -0.156 C  
HETATM    7  N   UNL     1      -9.268  12.762  68.057  1.00  0.00    -0.203 N  
HETATM    8  C   UNL     1     -10.605  14.307  67.464  1.00  0.00    -0.261 C  
HETATM    9  C   UNL     1      -7.071  11.534  68.221  1.00  0.00    -0.080 C  
HETATM   10  O   UNL     1      -8.004  14.366  66.970  1.00  0.00    -0.162 OA 
HETATM   11  C   UNL     1      -9.046  13.920  67.398  1.00  0.00    -0.217 C  
HETATM   12  O   UNL     1      -6.412  10.545  68.516  1.00  0.00    -0.054 OA 
ENDROOT
BRANCH   4  13
HETATM   13  C   UNL     1      -8.661   9.169  69.184  1.00  0.00    -0.138 C  
BRANCH  13  14
HETATM   14  S   UNL     1      -8.735   8.795  70.959  1.00  0.00    -0.219 SA 
BRANCH  14  15
HETATM   15  C   UNL     1      -9.691   7.354  70.934  1.00  0.00    -0.169 A  
HETATM   16  N   UNL     1      -9.325   6.195  70.435  1.00  0.00    -0.160 NA 
HETATM   17  N   UNL     1     -11.433   6.005  71.137  1.00  0.00    -0.243 NA 
HETATM   18  N   UNL     1     -10.420   5.370  70.560  1.00  0.00    -0.271 NA 
HETATM   19  C   UNL     1     -11.822   8.214  72.026  1.00  0.00    -0.338 C  
HETATM   20  N   UNL     1     -10.978   7.251  71.376  1.00  0.00    -0.231 NA 
ENDBRANCH  14  15
ENDBRANCH  13  14
ENDBRANCH   4  13
BRANCH   8  21
HETATM   21  O   UNL     1     -10.865  15.609  68.061  1.00  0.00    -0.287 OA 
HETATM   22  C   UNL     1     -11.668  15.605  69.240  1.00  0.00    -0.375 C  
ENDBRANCH   8  21
BRANCH   8  23
HETATM   23  N   UNL     1     -11.438  14.074  66.244  1.00  0.00    -0.339 N  
HETATM   24  C   UNL     1     -11.270  14.745  65.060  1.00  0.00    -0.395 C  
HETATM   25  H   UNL     1     -12.177  13.373  66.296  1.00  0.00     0.000 HD 
HETATM   26  O   UNL     1     -10.428  15.623  64.906  1.00  0.00    -0.444 OA 
BRANCH  24  27
HETATM   27  C   UNL     1     -12.255  14.388  63.964  1.00  0.00    -0.265 C  
BRANCH  27  28
HETATM   28  S   UNL     1     -12.531  12.585  63.920  1.00  0.00    -0.427 SA 
BRANCH  28  29
HETATM   29  C   UNL     1     -10.862  12.006  63.418  1.00  0.00    -0.405 C  
HETATM   30  C   UNL     1     -10.210  11.130  64.400  1.00  0.00    -0.330 C  
HETATM   31  N   UNL     1      -9.699  10.433  65.175  1.00  0.00    -0.267 NA 
ENDBRANCH  28  29
ENDBRANCH  27  28
ENDBRANCH  24  27
ENDBRANCH   8  23
TORSDOF 8
ENDMDL
MODEL       56
REMARK 921   NORMALIZED FREE ENERGY PREDICTED BY IDOCK:   -5.29 KCAL/MOL
REMARK 922        TOTAL FREE ENERGY PREDICTED BY IDOCK:   -8.85 KCAL/MOL
REMARK 923 INTER-LIGAND FREE ENERGY PREDICTED BY IDOCK:   -7.88 KCAL/MOL
REMARK 924 INTRA-LIGAND FREE ENERGY PREDICTED BY IDOCK:   -0.98 KCAL/MOL
REMARK 927      BINDING AFFINITY PREDICTED BY RF-SCORE:    0.00 PKD
ROOT
HETATM    1  C   UNL     1     -10.418  11.935  66.169  1.00  0.00    -0.237 C  
HETATM    2  S   UNL     1     -11.637  12.014  67.505  1.00  0.00    -0.304 SA 
HETATM    3  C   UNL     1     -11.235  13.728  67.921  1.00  0.00    -0.274 C  
HETATM    4  C   UNL     1      -9.746  14.007  68.088  1.00  0.00    -0.220 C  
HETATM    5  O   UNL     1      -6.356  12.917  67.098  1.00  0.00    -0.249 OA 
HETATM    6  C   UNL     1      -8.758  13.264  67.502  1.00  0.00    -0.202 C  
HETATM    7  N   UNL     1      -9.097  12.177  66.733  1.00  0.00    -0.202 N  
HETATM    8  C   UNL     1      -9.913  10.476  65.750  1.00  0.00    -0.258 C  
HETATM    9  C   UNL     1      -7.298  13.639  67.728  1.00  0.00    -0.166 C  
HETATM   10  O   UNL     1      -7.314  10.859  66.076  1.00  0.00    -0.142 OA 
HETATM   11  C   UNL     1      -8.495  11.112  66.162  1.00  0.00    -0.156 C  
HETATM   12  O   UNL     1      -6.943  14.600  68.398  1.00  0.00    -0.100 OA 
ENDROOT
BRANCH   4  13
HETATM   13  C   UNL     1      -9.518  15.162  69.069  1.00  0.00    -0.221 C  
BRANCH  13  14
HETATM   14  S   UNL     1     -10.893  16.347  69.018  1.00  0.00    -0.337 SA 
BRANCH  14  15
HETATM   15  C   UNL     1     -10.375  17.369  67.723  1.00  0.00    -0.358 A  
HETATM   16  N   UNL     1     -10.313  17.035  66.455  1.00  0.00    -0.312 NA 
HETATM   17  N   UNL     1      -9.526  19.112  66.655  1.00  0.00    -0.329 NA 
HETATM   18  N   UNL     1      -9.775  18.123  65.806  1.00  0.00    -0.464 NA 
HETATM   19  C   UNL     1      -9.794  19.477  69.025  1.00  0.00    -0.418 C  
HETATM   20  N   UNL     1      -9.905  18.644  67.861  1.00  0.00    -0.315 NA 
ENDBRANCH  14  15
ENDBRANCH  13  14
ENDBRANCH   4  13
BRANCH   8  21
HETATM   21  O   UNL     1     -10.036  10.175  64.331  1.00  0.00    -0.314 OA 
HETATM   22  C   UNL     1     -10.509  11.239  63.507  1.00  0.00    -0.395 C  
ENDBRANCH   8  21
BRANCH   8  23
HETATM   23  N   UNL     1     -10.466   9.380  66.604  1.00  0.00    -0.208 N  
HETATM   24  C   UNL     1      -9.911   8.129  66.703  1.00  0.00    -0.261 C  
HETATM   25  H   UNL     1     -11.308   9.574  67.147  1.00  0.00     0.000 HD 
HETATM   26  O   UNL     1      -8.917   7.791  66.071  1.00  0.00    -0.169 OA 
BRANCH  24  27
HETATM   27  C   UNL     1     -10.660   7.153  67.589  1.00  0.00    -0.248 C  
BRANCH  27  28
HETATM   28  S   UNL     1      -9.891   7.077  69.242  1.00  0.00    -0.161 SA 
BRANCH  28  29
HETATM   29  C   UNL     1     -10.926   8.294  70.146  1.00  0.00    -0.222 C  
HETATM   30  C   UNL     1     -10.931   8.114  71.604  1.00  0.00    -0.250 C  
HETATM   31  N   UNL     1     -10.927   7.972  72.756  1.00  0.00    -0.386 NA 
ENDBRANCH  28  29
ENDBRANCH  27  28
ENDBRANCH  24  27
ENDBRANCH   8  23
TORSDOF 8
ENDMDL
MODEL       57
REMARK 921   NORMALIZED FREE ENERGY PREDICTED BY IDOCK:   -5.28 KCAL/MOL
REMARK 922        TOTAL FREE ENERGY PREDICTED BY IDOCK:   -8.85 KCAL/MOL
REMARK 923 INTER-LIGAND FREE ENERGY PREDICTED BY IDOCK:   -7.32 KCAL/MOL
REMARK 924 INTRA-LIGAND FREE ENERGY PREDICTED BY IDOCK:   -1.53 KCAL/MOL
REMARK 927      BINDING AFFINITY PREDICTED BY RF-SCORE:    0.00 PKD
ROOT
HETATM    1  C   UNL     1      -7.826   9.099  68.231  1.00  0.00    -0.102 C  
HETATM    2  S   UNL     1      -7.910  10.003  69.797  1.00  0.00    -0.173 SA 
HETATM    3  C   UNL     1      -8.224   8.511  70.771  1.00  0.00    -0.130 C  
HETATM    4  C   UNL     1      -9.333   7.620  70.224  1.00  0.00    -0.157 C  
HETATM    5  O   UNL     1     -11.151   6.622  67.165  1.00  0.00    -0.392 OA 
HETATM    6  C   UNL     1      -9.717   7.595  68.911  1.00  0.00    -0.156 C  
HETATM    7  N   UNL     1      -9.103   8.434  68.012  1.00  0.00    -0.137 N  
HETATM    8  C   UNL     1      -8.100   9.947  66.903  1.00  0.00    -0.113 C  
HETATM    9  C   UNL     1     -10.833   6.656  68.470  1.00  0.00    -0.258 C  
HETATM   10  O   UNL     1     -10.076   8.488  65.914  1.00  0.00    -0.043 OA 
HETATM   11  C   UNL     1      -9.279   8.865  66.745  1.00  0.00    -0.159 C  
HETATM   12  O   UNL     1     -11.408   5.885  69.228  1.00  0.00    -0.325 OA 
ENDROOT
BRANCH   4  13
HETATM   13  C   UNL     1     -10.010   6.839  71.356  1.00  0.00    -0.179 C  
BRANCH  13  14
HETATM   14  S   UNL     1     -10.571   7.953  72.676  1.00  0.00    -0.355 SA 
BRANCH  14  15
HETATM   15  C   UNL     1     -11.710   8.919  71.804  1.00  0.00    -0.362 A  
HETATM   16  N   UNL     1     -11.530  10.161  71.417  1.00  0.00    -0.266 NA 
HETATM   17  N   UNL     1     -13.602   9.561  70.852  1.00  0.00    -0.126 NA 
HETATM   18  N   UNL     1     -12.716  10.549  70.836  1.00  0.00    -0.376 NA 
HETATM   19  C   UNL     1     -13.643   7.275  71.623  1.00  0.00    -0.349 C  
HETATM   20  N   UNL     1     -12.973   8.534  71.457  1.00  0.00    -0.320 NA 
ENDBRANCH  14  15
ENDBRANCH  13  14
ENDBRANCH   4  13
BRANCH   8  21
HETATM   21  O   UNL     1      -7.060   9.840  65.890  1.00  0.00    -0.094 OA 
HETATM   22  C   UNL     1      -5.786  10.373  66.245  1.00  0.00    -0.075 C  
ENDBRANCH   8  21
BRANCH   8  23
HETATM   23  N   UNL     1      -8.482  11.369  67.165  1.00  0.00    -0.147 N  
HETATM   24  C   UNL     1      -9.211  12.140  66.296  1.00  0.00    -0.183 C  
HETATM   25  H   UNL     1      -8.183  11.790  68.045  1.00  0.00     0.000 HD 
HETATM   26  O   UNL     1      -9.593  11.733  65.205  1.00  0.00    -0.228 OA 
BRANCH  24  27
HETATM   27  C   UNL     1      -9.446  13.572  66.738  1.00  0.00    -0.269 C  
BRANCH  27  28
HETATM   28  S   UNL     1     -10.934  13.675  67.788  1.00  0.00    -0.266 SA 
BRANCH  28  29
HETATM   29  C   UNL     1     -12.100  14.498  66.633  1.00  0.00    -0.296 C  
HETATM   30  C   UNL     1     -12.645  13.612  65.595  1.00  0.00    -0.484 C  
HETATM   31  N   UNL     1     -13.078  12.907  64.781  1.00  0.00    -0.796 NA 
ENDBRANCH  28  29
ENDBRANCH  27  28
ENDBRANCH  24  27
ENDBRANCH   8  23
TORSDOF 8
ENDMDL
MODEL       58
REMARK 921   NORMALIZED FREE ENERGY PREDICTED BY IDOCK:   -5.28 KCAL/MOL
REMARK 922        TOTAL FREE ENERGY PREDICTED BY IDOCK:   -8.84 KCAL/MOL
REMARK 923 INTER-LIGAND FREE ENERGY PREDICTED BY IDOCK:   -8.01 KCAL/MOL
REMARK 924 INTRA-LIGAND FREE ENERGY PREDICTED BY IDOCK:   -0.82 KCAL/MOL
REMARK 927      BINDING AFFINITY PREDICTED BY RF-SCORE:    0.00 PKD
ROOT
HETATM    1  C   UNL     1     -11.449  12.071  66.596  1.00  0.00    -0.346 C  
HETATM    2  S   UNL     1      -9.869  11.343  66.095  1.00  0.00    -0.232 SA 
HETATM    3  C   UNL     1     -10.248   9.735  66.832  1.00  0.00    -0.245 C  
HETATM    4  C   UNL     1     -10.756   9.800  68.267  1.00  0.00    -0.277 C  
HETATM    5  O   UNL     1     -12.502  11.917  70.743  1.00  0.00    -0.349 OA 
HETATM    6  C   UNL     1     -11.376  10.892  68.811  1.00  0.00    -0.292 C  
HETATM    7  N   UNL     1     -11.539  12.023  68.049  1.00  0.00    -0.328 N  
HETATM    8  C   UNL     1     -11.499  13.666  66.697  1.00  0.00    -0.343 C  
HETATM    9  C   UNL     1     -11.854  10.845  70.257  1.00  0.00    -0.361 C  
HETATM   10  O   UNL     1     -12.319  13.868  69.207  1.00  0.00    -0.323 OA 
HETATM   11  C   UNL     1     -11.891  13.317  68.217  1.00  0.00    -0.354 C  
HETATM   12  O   UNL     1     -11.739   9.860  70.976  1.00  0.00    -0.321 OA 
ENDROOT
BRANCH   4  13
HETATM   13  C   UNL     1     -10.392   8.521  69.030  1.00  0.00    -0.216 C  
BRANCH  13  14
HETATM   14  S   UNL     1      -8.682   8.017  68.684  1.00  0.00    -0.130 SA 
BRANCH  14  15
HETATM   15  C   UNL     1      -8.954   6.469  67.963  1.00  0.00    -0.116 A  
HETATM   16  N   UNL     1      -9.968   5.672  68.208  1.00  0.00    -0.145 NA 
HETATM   17  N   UNL     1      -8.603   4.626  66.788  1.00  0.00    -0.109 NA 
HETATM   18  N   UNL     1      -9.733   4.528  67.479  1.00  0.00    -0.176 NA 
HETATM   19  C   UNL     1      -6.890   6.297  66.484  1.00  0.00    -0.062 C  
HETATM   20  N   UNL     1      -8.112   5.845  67.087  1.00  0.00    -0.102 NA 
ENDBRANCH  14  15
ENDBRANCH  13  14
ENDBRANCH   4  13
BRANCH   8  21
HETATM   21  O   UNL     1     -12.573  14.290  65.939  1.00  0.00    -0.450 OA 
HETATM   22  C   UNL     1     -12.376  14.368  64.528  1.00  0.00    -0.418 C  
ENDBRANCH   8  21
BRANCH   8  23
HETATM   23  N   UNL     1     -10.180  14.326  66.447  1.00  0.00    -0.284 N  
HETATM   24  C   UNL     1      -9.879  15.609  66.827  1.00  0.00    -0.244 C  
HETATM   25  H   UNL     1      -9.460  13.789  65.963  1.00  0.00     0.000 HD 
HETATM   26  O   UNL     1     -10.685  16.343  67.389  1.00  0.00    -0.322 OA 
BRANCH  24  27
HETATM   27  C   UNL     1      -8.500  16.099  66.432  1.00  0.00    -0.334 C  
BRANCH  27  28
HETATM   28  S   UNL     1      -7.758  17.070  67.786  1.00  0.00    -0.175 SA 
BRANCH  28  29
HETATM   29  C   UNL     1      -7.630  18.716  66.984  1.00  0.00    -0.226 C  
HETATM   30  C   UNL     1      -6.839  18.721  65.745  1.00  0.00    -0.270 C  
HETATM   31  N   UNL     1      -6.219  18.720  64.764  1.00  0.00    -0.463 NA 
ENDBRANCH  28  29
ENDBRANCH  27  28
ENDBRANCH  24  27
ENDBRANCH   8  23
TORSDOF 8
ENDMDL
MODEL       59
REMARK 921   NORMALIZED FREE ENERGY PREDICTED BY IDOCK:   -5.27 KCAL/MOL
REMARK 922        TOTAL FREE ENERGY PREDICTED BY IDOCK:   -8.83 KCAL/MOL
REMARK 923 INTER-LIGAND FREE ENERGY PREDICTED BY IDOCK:   -8.07 KCAL/MOL
REMARK 924 INTRA-LIGAND FREE ENERGY PREDICTED BY IDOCK:   -0.76 KCAL/MOL
REMARK 927      BINDING AFFINITY PREDICTED BY RF-SCORE:    0.00 PKD
ROOT
HETATM    1  C   UNL     1     -10.598  11.098  67.304  1.00  0.00    -0.239 C  
HETATM    2  S   UNL     1     -11.503  10.886  68.858  1.00  0.00    -0.314 SA 
HETATM    3  C   UNL     1     -11.844  12.655  69.029  1.00  0.00    -0.294 C  
HETATM    4  C   UNL     1     -10.626  13.554  68.851  1.00  0.00    -0.188 C  
HETATM    5  O   UNL     1      -7.302  13.830  67.259  1.00  0.00    -0.145 OA 
HETATM    6  C   UNL     1      -9.515  13.205  68.134  1.00  0.00    -0.222 C  
HETATM    7  N   UNL     1      -9.452  11.962  67.551  1.00  0.00    -0.173 N  
HETATM    8  C   UNL     1      -9.571   9.936  66.915  1.00  0.00    -0.179 C  
HETATM    9  C   UNL     1      -8.357  14.187  68.012  1.00  0.00    -0.160 C  
HETATM   10  O   UNL     1      -7.394  11.419  66.646  1.00  0.00    -0.144 OA 
HETATM   11  C   UNL     1      -8.536  11.165  66.959  1.00  0.00    -0.146 C  
HETATM   12  O   UNL     1      -8.365  15.308  68.505  1.00  0.00    -0.140 OA 
ENDROOT
BRANCH   4  13
HETATM   13  C   UNL     1     -10.785  14.848  69.658  1.00  0.00    -0.229 C  
BRANCH  13  14
HETATM   14  S   UNL     1     -12.535  15.208  69.981  1.00  0.00    -0.235 SA 
BRANCH  14  15
HETATM   15  C   UNL     1     -12.510  15.360  71.703  1.00  0.00    -0.381 A  
HETATM   16  N   UNL     1     -11.978  16.350  72.382  1.00  0.00    -0.529 NA 
HETATM   17  N   UNL     1     -12.737  14.847  73.844  1.00  0.00    -0.491 NA 
HETATM   18  N   UNL     1     -12.119  16.014  73.709  1.00  0.00    -0.450 NA 
HETATM   19  C   UNL     1     -13.679  13.196  72.358  1.00  0.00    -0.540 C  
HETATM   20  N   UNL     1     -12.987  14.433  72.586  1.00  0.00    -0.433 NA 
ENDBRANCH  14  15
ENDBRANCH  13  14
ENDBRANCH   4  13
BRANCH   8  21
HETATM   21  O   UNL     1      -9.764   9.375  65.585  1.00  0.00    -0.278 OA 
HETATM   22  C   UNL     1     -10.000  10.316  64.540  1.00  0.00    -0.289 C  
ENDBRANCH   8  21
BRANCH   8  23
HETATM   23  N   UNL     1      -9.442   8.872  67.958  1.00  0.00    -0.142 N  
HETATM   24  C   UNL     1     -10.135   7.689  67.938  1.00  0.00    -0.185 C  
HETATM   25  H   UNL     1      -8.798   9.036  68.732  1.00  0.00     0.000 HD 
HETATM   26  O   UNL     1     -10.950   7.409  67.065  1.00  0.00    -0.332 OA 
BRANCH  24  27
HETATM   27  C   UNL     1      -9.891   6.771  69.120  1.00  0.00    -0.157 C  
BRANCH  27  28
HETATM   28  S   UNL     1     -11.278   6.874  70.301  1.00  0.00    -0.327 SA 
BRANCH  28  29
HETATM   29  C   UNL     1     -10.492   7.832  71.655  1.00  0.00    -0.202 C  
HETATM   30  C   UNL     1      -9.411   8.724  71.211  1.00  0.00    -0.250 C  
HETATM   31  N   UNL     1      -8.562   9.431  70.856  1.00  0.00    -0.277 NA 
ENDBRANCH  28  29
ENDBRANCH  27  28
ENDBRANCH  24  27
ENDBRANCH   8  23
TORSDOF 8
ENDMDL
MODEL       60
REMARK 921   NORMALIZED FREE ENERGY PREDICTED BY IDOCK:   -5.26 KCAL/MOL
REMARK 922        TOTAL FREE ENERGY PREDICTED BY IDOCK:   -8.81 KCAL/MOL
REMARK 923 INTER-LIGAND FREE ENERGY PREDICTED BY IDOCK:   -7.99 KCAL/MOL
REMARK 924 INTRA-LIGAND FREE ENERGY PREDICTED BY IDOCK:   -0.83 KCAL/MOL
REMARK 927      BINDING AFFINITY PREDICTED BY RF-SCORE:    0.00 PKD
ROOT
HETATM    1  C   UNL     1      -8.403  12.222  67.438  1.00  0.00    -0.177 C  
HETATM    2  S   UNL     1      -8.424  10.771  68.521  1.00  0.00    -0.150 SA 
HETATM    3  C   UNL     1      -7.711   9.683  67.263  1.00  0.00    -0.091 C  
HETATM    4  C   UNL     1      -8.392   9.759  65.901  1.00  0.00    -0.128 C  
HETATM    5  O   UNL     1     -10.362  11.922  63.644  1.00  0.00    -0.359 OA 
HETATM    6  C   UNL     1      -9.092  10.846  65.454  1.00  0.00    -0.198 C  
HETATM    7  N   UNL     1      -9.230  11.941  66.273  1.00  0.00    -0.222 N  
HETATM    8  C   UNL     1      -9.416  13.402  67.809  1.00  0.00    -0.210 C  
HETATM    9  C   UNL     1      -9.724  10.819  64.069  1.00  0.00    -0.313 C  
HETATM   10  O   UNL     1     -10.692  13.555  65.493  1.00  0.00    -0.278 OA 
HETATM   11  C   UNL     1      -9.952  13.081  66.327  1.00  0.00    -0.283 C  
HETATM   12  O   UNL     1      -9.625   9.872  63.298  1.00  0.00    -0.204 OA 
ENDROOT
BRANCH   4  13
HETATM   13  C   UNL     1      -8.262   8.426  65.155  1.00  0.00    -0.157 C  
BRANCH  13  14
HETATM   14  S   UNL     1      -7.794   7.085  66.286  1.00  0.00    -0.108 SA 
BRANCH  14  15
HETATM   15  C   UNL     1      -8.905   5.856  65.789  1.00  0.00    -0.139 A  
HETATM   16  N   UNL     1      -8.691   4.956  64.857  1.00  0.00    -0.148 NA 
HETATM   17  N   UNL     1     -10.777   4.691  65.601  1.00  0.00    -0.250 NA 
HETATM   18  N   UNL     1      -9.865   4.246  64.744  1.00  0.00    -0.176 NA 
HETATM   19  C   UNL     1     -10.880   6.404  67.296  1.00  0.00    -0.385 C  
HETATM   20  N   UNL     1     -10.177   5.701  66.261  1.00  0.00    -0.147 NA 
ENDBRANCH  14  15
ENDBRANCH  13  14
ENDBRANCH   4  13
BRANCH   8  21
HETATM   21  O   UNL     1      -8.799  14.713  67.942  1.00  0.00    -0.161 OA 
HETATM   22  C   UNL     1      -8.146  14.971  69.184  1.00  0.00    -0.192 C  
ENDBRANCH   8  21
BRANCH   8  23
HETATM   23  N   UNL     1     -10.313  13.084  68.963  1.00  0.00    -0.436 N  
HETATM   24  C   UNL     1     -11.532  13.677  69.174  1.00  0.00    -0.297 C  
HETATM   25  H   UNL     1      -9.999  12.384  69.635  1.00  0.00     0.000 HD 
HETATM   26  O   UNL     1     -11.985  14.548  68.439  1.00  0.00    -0.321 OA 
BRANCH  24  27
HETATM   27  C   UNL     1     -12.257  13.244  70.433  1.00  0.00    -0.332 C  
BRANCH  27  28
HETATM   28  S   UNL     1     -13.159  14.653  71.162  1.00  0.00    -0.382 SA 
BRANCH  28  29
HETATM   29  C   UNL     1     -11.798  15.483  72.073  1.00  0.00    -0.453 C  
HETATM   30  C   UNL     1     -12.186  15.999  73.393  1.00  0.00    -0.525 C  
HETATM   31  N   UNL     1     -12.495  16.401  74.438  1.00  0.00    -0.765 NA 
ENDBRANCH  28  29
ENDBRANCH  27  28
ENDBRANCH  24  27
ENDBRANCH   8  23
TORSDOF 8
ENDMDL
MODEL       61
REMARK 921   NORMALIZED FREE ENERGY PREDICTED BY IDOCK:   -5.25 KCAL/MOL
REMARK 922        TOTAL FREE ENERGY PREDICTED BY IDOCK:   -8.80 KCAL/MOL
REMARK 923 INTER-LIGAND FREE ENERGY PREDICTED BY IDOCK:   -7.73 KCAL/MOL
REMARK 924 INTRA-LIGAND FREE ENERGY PREDICTED BY IDOCK:   -1.06 KCAL/MOL
REMARK 927      BINDING AFFINITY PREDICTED BY RF-SCORE:    0.00 PKD
ROOT
HETATM    1  C   UNL     1     -11.786   8.769  70.073  1.00  0.00     0.268 C  
HETATM    2  S   UNL     1     -11.287  10.386  70.717  1.00  0.00    -0.185 SA 
HETATM    3  C   UNL     1     -11.477  11.206  69.116  1.00  0.00    -0.298 C  
HETATM    4  C   UNL     1     -10.800  10.490  67.953  1.00  0.00    -0.333 C  
HETATM    5  O   UNL     1      -9.651   7.206  66.708  1.00  0.00    -0.163 OA 
HETATM    6  C   UNL     1     -10.529   9.149  67.934  1.00  0.00    -0.237 C  
HETATM    7  N   UNL     1     -10.851   8.381  69.026  1.00  0.00    -0.070 N  
HETATM    8  C   UNL     1     -11.303   7.492  70.905  1.00  0.00    -0.277 C  
HETATM    9  C   UNL     1      -9.857   8.534  66.713  1.00  0.00    -0.257 C  
HETATM   10  O   UNL     1     -10.051   6.211  68.955  1.00  0.00    -0.153 OA 
HETATM   11  C   UNL     1     -10.607   7.139  69.499  1.00  0.00    -0.234 C  
HETATM   12  O   UNL     1      -9.556   9.172  65.712  1.00  0.00    -0.262 OA 
ENDROOT
BRANCH   4  13
HETATM   13  C   UNL     1     -10.386  11.490  66.868  1.00  0.00    -0.223 C  
BRANCH  13  14
HETATM   14  S   UNL     1     -11.344  13.027  66.993  1.00  0.00    -0.317 SA 
BRANCH  14  15
HETATM   15  C   UNL     1     -11.989  13.123  65.391  1.00  0.00    -0.406 A  
HETATM   16  N   UNL     1     -12.579  12.149  64.738  1.00  0.00    -0.460 NA 
HETATM   17  N   UNL     1     -12.454  13.909  63.375  1.00  0.00    -0.791 NA 
HETATM   18  N   UNL     1     -12.854  12.649  63.485  1.00  0.00    -0.701 NA 
HETATM   19  C   UNL     1     -11.393  15.529  64.814  1.00  0.00    -0.357 C  
HETATM   20  N   UNL     1     -11.913  14.213  64.571  1.00  0.00    -0.436 NA 
ENDBRANCH  14  15
ENDBRANCH  13  14
ENDBRANCH   4  13
BRANCH   8  21
HETATM   21  O   UNL     1     -12.369   6.574  71.283  1.00  0.00    -0.317 OA 
HETATM   22  C   UNL     1     -13.634   7.170  71.563  1.00  0.00    -0.319 C  
ENDBRANCH   8  21
BRANCH   8  23
HETATM   23  N   UNL     1     -10.417   7.827  72.063  1.00  0.00    -0.214 N  
HETATM   24  C   UNL     1      -9.570   6.932  72.666  1.00  0.00    -0.145 C  
HETATM   25  H   UNL     1     -10.444   8.780  72.426  1.00  0.00     0.000 HD 
HETATM   26  O   UNL     1      -9.485   5.759  72.320  1.00  0.00    -0.145 OA 
BRANCH  24  27
HETATM   27  C   UNL     1      -8.797   7.468  73.855  1.00  0.00    -0.243 C  
BRANCH  27  28
HETATM   28  S   UNL     1      -7.066   6.893  73.798  1.00  0.00    -0.073 SA 
BRANCH  28  29
HETATM   29  C   UNL     1      -6.248   8.371  73.080  1.00  0.00    -0.094 C  
HETATM   30  C   UNL     1      -6.967   8.963  71.943  1.00  0.00     0.016 C  
HETATM   31  N   UNL     1      -7.540   9.432  71.049  1.00  0.00    -0.311 NA 
ENDBRANCH  28  29
ENDBRANCH  27  28
ENDBRANCH  24  27
ENDBRANCH   8  23
TORSDOF 8
ENDMDL
MODEL       62
REMARK 921   NORMALIZED FREE ENERGY PREDICTED BY IDOCK:   -5.24 KCAL/MOL
REMARK 922        TOTAL FREE ENERGY PREDICTED BY IDOCK:   -8.79 KCAL/MOL
REMARK 923 INTER-LIGAND FREE ENERGY PREDICTED BY IDOCK:   -8.29 KCAL/MOL
REMARK 924 INTRA-LIGAND FREE ENERGY PREDICTED BY IDOCK:   -0.50 KCAL/MOL
REMARK 927      BINDING AFFINITY PREDICTED BY RF-SCORE:    0.00 PKD
ROOT
HETATM    1  C   UNL     1     -11.428  12.374  67.875  1.00  0.00    -0.328 C  
HETATM    2  S   UNL     1      -9.862  11.467  67.811  1.00  0.00    -0.180 SA 
HETATM    3  C   UNL     1     -10.572   9.969  68.534  1.00  0.00    -0.215 C  
HETATM    4  C   UNL     1     -11.388  10.201  69.800  1.00  0.00    -0.312 C  
HETATM    5  O   UNL     1     -13.423  12.670  71.650  1.00  0.00    -0.305 OA 
HETATM    6  C   UNL     1     -11.996  11.387  70.111  1.00  0.00    -0.377 C  
HETATM    7  N   UNL     1     -11.856  12.459  69.263  1.00  0.00    -0.313 N  
HETATM    8  C   UNL     1     -11.327  13.970  67.862  1.00  0.00    -0.291 C  
HETATM    9  C   UNL     1     -12.799  11.507  71.401  1.00  0.00    -0.384 C  
HETATM   10  O   UNL     1     -12.681  14.458  70.085  1.00  0.00    -0.334 OA 
HETATM   11  C   UNL     1     -12.096  13.789  69.263  1.00  0.00    -0.329 C  
HETATM   12  O   UNL     1     -12.960  10.581  72.186  1.00  0.00    -0.435 OA 
ENDROOT
BRANCH   4  13
HETATM   13  C   UNL     1     -11.350   8.965  70.705  1.00  0.00    -0.278 C  
BRANCH  13  14
HETATM   14  S   UNL     1      -9.700   8.732  71.427  1.00  0.00    -0.304 SA 
BRANCH  14  15
HETATM   15  C   UNL     1      -9.083   7.487  70.397  1.00  0.00    -0.153 A  
HETATM   16  N   UNL     1      -9.567   6.272  70.284  1.00  0.00    -0.163 NA 
HETATM   17  N   UNL     1      -7.745   6.407  69.004  1.00  0.00    -0.099 NA 
HETATM   18  N   UNL     1      -8.720   5.610  69.422  1.00  0.00    -0.108 NA 
HETATM   19  C   UNL     1      -7.104   8.705  69.362  1.00  0.00    -0.053 C  
HETATM   20  N   UNL     1      -7.970   7.588  69.612  1.00  0.00    -0.122 NA 
ENDBRANCH  14  15
ENDBRANCH  13  14
ENDBRANCH   4  13
BRANCH   8  21
HETATM   21  O   UNL     1     -12.123  14.620  66.831  1.00  0.00    -0.361 OA 
HETATM   22  C   UNL     1     -12.773  13.752  65.904  1.00  0.00    -0.401 C  
ENDBRANCH   8  21
BRANCH   8  23
HETATM   23  N   UNL     1      -9.924  14.485  67.894  1.00  0.00    -0.224 N  
HETATM   24  C   UNL     1      -9.244  14.930  66.789  1.00  0.00    -0.259 C  
HETATM   25  H   UNL     1      -9.442  14.508  68.793  1.00  0.00     0.000 HD 
HETATM   26  O   UNL     1      -9.726  14.918  65.661  1.00  0.00    -0.335 OA 
BRANCH  24  27
HETATM   27  C   UNL     1      -7.813  15.365  67.036  1.00  0.00    -0.209 C  
BRANCH  27  28
HETATM   28  S   UNL     1      -7.557  17.072  66.446  1.00  0.00    -0.314 SA 
BRANCH  28  29
HETATM   29  C   UNL     1      -8.992  17.911  67.223  1.00  0.00    -0.250 C  
HETATM   30  C   UNL     1      -9.904  18.553  66.266  1.00  0.00    -0.337 C  
HETATM   31  N   UNL     1     -10.625  19.054  65.507  1.00  0.00    -0.512 NA 
ENDBRANCH  28  29
ENDBRANCH  27  28
ENDBRANCH  24  27
ENDBRANCH   8  23
TORSDOF 8
ENDMDL
MODEL       63
REMARK 921   NORMALIZED FREE ENERGY PREDICTED BY IDOCK:   -5.19 KCAL/MOL
REMARK 922        TOTAL FREE ENERGY PREDICTED BY IDOCK:   -8.71 KCAL/MOL
REMARK 923 INTER-LIGAND FREE ENERGY PREDICTED BY IDOCK:   -7.75 KCAL/MOL
REMARK 924 INTRA-LIGAND FREE ENERGY PREDICTED BY IDOCK:   -0.96 KCAL/MOL
REMARK 927      BINDING AFFINITY PREDICTED BY RF-SCORE:    0.00 PKD
ROOT
HETATM    1  C   UNL     1      -8.341  15.674  69.245  1.00  0.00    -0.256 C  
HETATM    2  S   UNL     1     -10.073  16.013  68.839  1.00  0.00    -0.244 SA 
HETATM    3  C   UNL     1     -10.572  14.285  69.033  1.00  0.00    -0.232 C  
HETATM    4  C   UNL     1      -9.689  13.284  68.297  1.00  0.00    -0.225 C  
HETATM    5  O   UNL     1      -6.293  12.685  66.967  1.00  0.00    -0.212 OA 
HETATM    6  C   UNL     1      -8.382  13.517  67.963  1.00  0.00    -0.168 C  
HETATM    7  N   UNL     1      -7.814  14.730  68.271  1.00  0.00    -0.118 N  
HETATM    8  C   UNL     1      -7.266  16.735  68.720  1.00  0.00    -0.217 C  
HETATM    9  C   UNL     1      -7.587  12.441  67.236  1.00  0.00    -0.141 C  
HETATM   10  O   UNL     1      -5.712  15.072  67.367  1.00  0.00    -0.341 OA 
HETATM   11  C   UNL     1      -6.695  15.428  67.978  1.00  0.00    -0.144 C  
HETATM   12  O   UNL     1      -8.044  11.342  66.945  1.00  0.00    -0.146 OA 
ENDROOT
BRANCH   4  13
HETATM   13  C   UNL     1     -10.490  12.037  67.908  1.00  0.00    -0.202 C  
BRANCH  13  14
HETATM   14  S   UNL     1     -11.942  11.831  68.979  1.00  0.00    -0.223 SA 
BRANCH  14  15
HETATM   15  C   UNL     1     -11.339  10.657  70.098  1.00  0.00    -0.323 A  
HETATM   16  N   UNL     1     -10.285   9.895  69.921  1.00  0.00    -0.243 NA 
HETATM   17  N   UNL     1     -11.223   9.328  71.863  1.00  0.00    -0.344 NA 
HETATM   18  N   UNL     1     -10.231   9.068  71.021  1.00  0.00    -0.251 NA 
HETATM   19  C   UNL     1     -13.067  10.881  71.952  1.00  0.00    -0.432 C  
HETATM   20  N   UNL     1     -11.921  10.327  71.289  1.00  0.00    -0.373 NA 
ENDBRANCH  14  15
ENDBRANCH  13  14
ENDBRANCH   4  13
BRANCH   8  21
HETATM   21  O   UNL     1      -6.381  17.263  69.749  1.00  0.00    -0.235 OA 
HETATM   22  C   UNL     1      -5.598  16.300  70.452  1.00  0.00    -0.141 C  
ENDBRANCH   8  21
BRANCH   8  23
HETATM   23  N   UNL     1      -7.854  17.821  67.877  1.00  0.00    -0.226 N  
HETATM   24  C   UNL     1      -7.116  18.656  67.076  1.00  0.00    -0.201 C  
HETATM   25  H   UNL     1      -8.866  17.949  67.898  1.00  0.00     0.000 HD 
HETATM   26  O   UNL     1      -5.894  18.600  67.003  1.00  0.00    -0.151 OA 
BRANCH  24  27
HETATM   27  C   UNL     1      -7.908  19.720  66.342  1.00  0.00    -0.312 C  
BRANCH  27  28
HETATM   28  S   UNL     1      -9.252  20.355  67.400  1.00  0.00    -0.348 SA 
BRANCH  28  29
HETATM   29  C   UNL     1     -10.718  19.782  66.454  1.00  0.00    -0.391 C  
HETATM   30  C   UNL     1     -10.592  18.420  65.918  1.00  0.00    -0.285 C  
HETATM   31  N   UNL     1     -10.492  17.341  65.501  1.00  0.00    -0.629 NA 
ENDBRANCH  28  29
ENDBRANCH  27  28
ENDBRANCH  24  27
ENDBRANCH   8  23
TORSDOF 8
ENDMDL
MODEL       64
REMARK 921   NORMALIZED FREE ENERGY PREDICTED BY IDOCK:   -5.17 KCAL/MOL
REMARK 922        TOTAL FREE ENERGY PREDICTED BY IDOCK:   -8.68 KCAL/MOL
REMARK 923 INTER-LIGAND FREE ENERGY PREDICTED BY IDOCK:   -8.03 KCAL/MOL
REMARK 924 INTRA-LIGAND FREE ENERGY PREDICTED BY IDOCK:   -0.66 KCAL/MOL
REMARK 927      BINDING AFFINITY PREDICTED BY RF-SCORE:    0.00 PKD
ROOT
HETATM    1  C   UNL     1     -10.258  13.552  68.143  1.00  0.00    -0.249 C  
HETATM    2  S   UNL     1     -10.832  12.285  69.302  1.00  0.00     0.059 SA 
HETATM    3  C   UNL     1     -10.118  10.926  68.345  1.00  0.00    -0.183 C  
HETATM    4  C   UNL     1     -10.450  10.955  66.858  1.00  0.00    -0.299 C  
HETATM    5  O   UNL     1     -11.358  13.149  64.026  1.00  0.00    -0.380 OA 
HETATM    6  C   UNL     1     -10.781  12.091  66.170  1.00  0.00    -0.275 C  
HETATM    7  N   UNL     1     -10.852  13.288  66.840  1.00  0.00    -0.275 N  
HETATM    8  C   UNL     1     -11.045  14.943  68.162  1.00  0.00    -0.283 C  
HETATM    9  C   UNL     1     -11.086  12.007  64.679  1.00  0.00    -0.322 C  
HETATM   10  O   UNL     1     -11.719  15.041  65.603  1.00  0.00    -0.263 OA 
HETATM   11  C   UNL     1     -11.302  14.544  66.626  1.00  0.00    -0.356 C  
HETATM   12  O   UNL     1     -11.030  10.967  64.035  1.00  0.00    -0.313 OA 
ENDROOT
BRANCH   4  13
HETATM   13  C   UNL     1     -10.455   9.537  66.276  1.00  0.00    -0.067 C  
BRANCH  13  14
HETATM   14  S   UNL     1      -9.041   8.575  66.883  1.00  0.00    -0.154 SA 
BRANCH  14  15
HETATM   15  C   UNL     1      -7.760   9.295  65.972  1.00  0.00    -0.096 A  
HETATM   16  N   UNL     1      -6.879  10.155  66.428  1.00  0.00    -0.095 NA 
HETATM   17  N   UNL     1      -6.500   9.878  64.248  1.00  0.00    -0.120 NA 
HETATM   18  N   UNL     1      -6.109  10.515  65.345  1.00  0.00    -0.131 NA 
HETATM   19  C   UNL     1      -8.194   8.252  63.692  1.00  0.00    -0.082 C  
HETATM   20  N   UNL     1      -7.535   9.108  64.638  1.00  0.00    -0.101 NA 
ENDBRANCH  14  15
ENDBRANCH  13  14
ENDBRANCH   4  13
BRANCH   8  21
HETATM   21  O   UNL     1     -10.201  16.117  68.334  1.00  0.00    -0.228 OA 
HETATM   22  C   UNL     1      -8.798  15.900  68.197  1.00  0.00    -0.176 C  
ENDBRANCH   8  21
BRANCH   8  23
HETATM   23  N   UNL     1     -12.220  14.958  69.089  1.00  0.00    -0.559 N  
HETATM   24  C   UNL     1     -12.253  15.646  70.275  1.00  0.00    -0.386 C  
HETATM   25  H   UNL     1     -13.047  14.424  68.821  1.00  0.00     0.000 HD 
HETATM   26  O   UNL     1     -11.301  16.294  70.696  1.00  0.00    -0.386 OA 
BRANCH  24  27
HETATM   27  C   UNL     1     -13.525  15.485  71.084  1.00  0.00    -0.439 C  
BRANCH  27  28
HETATM   28  S   UNL     1     -13.443  13.974  72.104  1.00  0.00    -0.523 SA 
BRANCH  28  29
HETATM   29  C   UNL     1     -12.174  14.472  73.334  1.00  0.00    -0.091 C  
HETATM   30  C   UNL     1     -12.414  15.787  73.945  1.00  0.00    -0.628 C  
HETATM   31  N   UNL     1     -12.608  16.823  74.430  1.00  0.00    -0.626 NA 
ENDBRANCH  28  29
ENDBRANCH  27  28
ENDBRANCH  24  27
ENDBRANCH   8  23
TORSDOF 8
ENDMDL
MODEL       65
REMARK 921   NORMALIZED FREE ENERGY PREDICTED BY IDOCK:   -5.16 KCAL/MOL
REMARK 922        TOTAL FREE ENERGY PREDICTED BY IDOCK:   -8.67 KCAL/MOL
REMARK 923 INTER-LIGAND FREE ENERGY PREDICTED BY IDOCK:   -7.68 KCAL/MOL
REMARK 924 INTRA-LIGAND FREE ENERGY PREDICTED BY IDOCK:   -0.99 KCAL/MOL
REMARK 927      BINDING AFFINITY PREDICTED BY RF-SCORE:    0.00 PKD
ROOT
HETATM    1  C   UNL     1      -9.096  10.566  68.534  1.00  0.00    -0.154 C  
HETATM    2  S   UNL     1      -9.271  10.487  66.734  1.00  0.00    -0.157 SA 
HETATM    3  C   UNL     1      -9.490  12.274  66.564  1.00  0.00    -0.236 C  
HETATM    4  C   UNL     1     -10.522  12.878  67.509  1.00  0.00    -0.226 C  
HETATM    5  O   UNL     1     -12.213  12.466  70.769  1.00  0.00    -0.369 OA 
HETATM    6  C   UNL     1     -10.883  12.321  68.706  1.00  0.00    -0.229 C  
HETATM    7  N   UNL     1     -10.317  11.130  69.092  1.00  0.00    -0.195 N  
HETATM    8  C   UNL     1      -9.410   9.222  69.340  1.00  0.00    -0.164 C  
HETATM    9  C   UNL     1     -11.920  13.016  69.579  1.00  0.00    -0.289 C  
HETATM   10  O   UNL     1     -11.258  10.177  70.979  1.00  0.00    -0.339 OA 
HETATM   11  C   UNL     1     -10.504  10.177  70.031  1.00  0.00    -0.274 C  
HETATM   12  O   UNL     1     -12.448  14.081  69.285  1.00  0.00    -0.259 OA 
ENDROOT
BRANCH   4  13
HETATM   13  C   UNL     1     -11.157  14.129  66.891  1.00  0.00    -0.307 C  
BRANCH  13  14
HETATM   14  S   UNL     1     -10.351  14.568  65.325  1.00  0.00    -0.417 SA 
BRANCH  14  15
HETATM   15  C   UNL     1      -9.999  16.236  65.613  1.00  0.00    -0.274 A  
HETATM   16  N   UNL     1     -10.774  17.251  65.307  1.00  0.00    -0.617 NA 
HETATM   17  N   UNL     1      -8.880  18.067  66.154  1.00  0.00    -0.493 NA 
HETATM   18  N   UNL     1     -10.062  18.381  65.641  1.00  0.00    -0.478 NA 
HETATM   19  C   UNL     1      -7.688  16.031  66.658  1.00  0.00    -0.204 C  
HETATM   20  N   UNL     1      -8.836  16.720  66.141  1.00  0.00    -0.443 NA 
ENDBRANCH  14  15
ENDBRANCH  13  14
ENDBRANCH   4  13
BRANCH   8  21
HETATM   21  O   UNL     1      -8.350   8.791  70.240  1.00  0.00    -0.116 OA 
HETATM   22  C   UNL     1      -7.045   9.289  69.950  1.00  0.00    -0.064 C  
ENDBRANCH   8  21
BRANCH   8  23
HETATM   23  N   UNL     1      -9.900   8.103  68.477  1.00  0.00    -0.173 N  
HETATM   24  C   UNL     1     -10.606   7.025  68.945  1.00  0.00    -0.215 C  
HETATM   25  H   UNL     1      -9.696   8.144  67.478  1.00  0.00     0.000 HD 
HETATM   26  O   UNL     1     -10.878   6.871  70.131  1.00  0.00    -0.239 OA 
BRANCH  24  27
HETATM   27  C   UNL     1     -10.964   5.980  67.906  1.00  0.00    -0.237 C  
BRANCH  27  28
HETATM   28  S   UNL     1      -9.568   5.720  66.760  1.00  0.00    -0.155 SA 
BRANCH  28  29
HETATM   29  C   UNL     1      -8.387   4.852  67.866  1.00  0.00    -0.103 C  
HETATM   30  C   UNL     1      -8.987   3.763  68.649  1.00  0.00    -0.124 C  
HETATM   31  N   UNL     1      -9.462   2.899  69.262  1.00  0.00    -0.135 NA 
ENDBRANCH  28  29
ENDBRANCH  27  28
ENDBRANCH  24  27
ENDBRANCH   8  23
TORSDOF 8
ENDMDL
MODEL       66
REMARK 921   NORMALIZED FREE ENERGY PREDICTED BY IDOCK:   -5.15 KCAL/MOL
REMARK 922        TOTAL FREE ENERGY PREDICTED BY IDOCK:   -8.64 KCAL/MOL
REMARK 923 INTER-LIGAND FREE ENERGY PREDICTED BY IDOCK:   -7.65 KCAL/MOL
REMARK 924 INTRA-LIGAND FREE ENERGY PREDICTED BY IDOCK:   -0.99 KCAL/MOL
REMARK 927      BINDING AFFINITY PREDICTED BY RF-SCORE:    0.00 PKD
ROOT
HETATM    1  C   UNL     1      -8.978   8.816  71.299  1.00  0.00    -0.231 C  
HETATM    2  S   UNL     1      -8.185   8.394  69.726  1.00  0.00    -0.121 SA 
HETATM    3  C   UNL     1      -8.429  10.047  69.033  1.00  0.00    -0.147 C  
HETATM    4  C   UNL     1      -9.846  10.590  69.171  1.00  0.00    -0.233 C  
HETATM    5  O   UNL     1     -12.944  10.422  71.180  1.00  0.00    -0.367 OA 
HETATM    6  C   UNL     1     -10.729  10.187  70.136  1.00  0.00    -0.300 C  
HETATM    7  N   UNL     1     -10.352   9.215  71.031  1.00  0.00    -0.267 N  
HETATM    8  C   UNL     1      -9.554   7.595  72.155  1.00  0.00    -0.160 C  
HETATM    9  C   UNL     1     -12.121  10.805  70.189  1.00  0.00    -0.346 C  
HETATM   10  O   UNL     1     -12.055   8.436  72.390  1.00  0.00    -0.371 OA 
HETATM   11  C   UNL     1     -10.921   8.420  71.963  1.00  0.00    -0.323 C  
HETATM   12  O   UNL     1     -12.503  11.678  69.421  1.00  0.00    -0.125 OA 
ENDROOT
BRANCH   4  13
HETATM   13  C   UNL     1     -10.167  11.566  68.033  1.00  0.00    -0.191 C  
BRANCH  13  14
HETATM   14  S   UNL     1     -10.150  10.724  66.425  1.00  0.00    -0.233 SA 
BRANCH  14  15
HETATM   15  C   UNL     1     -11.183  11.772  65.515  1.00  0.00    -0.258 A  
HETATM   16  N   UNL     1     -12.243  12.397  65.972  1.00  0.00    -0.624 NA 
HETATM   17  N   UNL     1     -12.078  12.834  63.792  1.00  0.00    -0.481 NA 
HETATM   18  N   UNL     1     -12.794  13.044  64.890  1.00  0.00    -0.747 NA 
HETATM   19  C   UNL     1     -10.066  11.625  63.233  1.00  0.00    -0.423 C  
HETATM   20  N   UNL     1     -11.063  12.037  64.180  1.00  0.00    -0.339 NA 
ENDBRANCH  14  15
ENDBRANCH  13  14
ENDBRANCH   4  13
BRANCH   8  21
HETATM   21  O   UNL     1      -9.085   7.543  73.532  1.00  0.00    -0.187 OA 
HETATM   22  C   UNL     1      -7.845   8.199  73.793  1.00  0.00    -0.191 C  
ENDBRANCH   8  21
BRANCH   8  23
HETATM   23  N   UNL     1      -9.433   6.270  71.472  1.00  0.00    -0.152 N  
HETATM   24  C   UNL     1     -10.200   5.175  71.779  1.00  0.00    -0.209 C  
HETATM   25  H   UNL     1      -8.737   6.175  70.733  1.00  0.00     0.000 HD 
HETATM   26  O   UNL     1     -11.044   5.181  72.669  1.00  0.00    -0.247 OA 
BRANCH  24  27
HETATM   27  C   UNL     1      -9.879   3.916  70.997  1.00  0.00    -0.149 C  
BRANCH  27  28
HETATM   28  S   UNL     1      -9.451   2.555  72.134  1.00  0.00    -0.120 SA 
BRANCH  28  29
HETATM   29  C   UNL     1      -7.758   3.060  72.634  1.00  0.00    -0.058 C  
HETATM   30  C   UNL     1      -6.897   3.469  71.516  1.00  0.00    -0.031 C  
HETATM   31  N   UNL     1      -6.222   3.796  70.631  1.00  0.00    -0.018 NA 
ENDBRANCH  28  29
ENDBRANCH  27  28
ENDBRANCH  24  27
ENDBRANCH   8  23
TORSDOF 8
ENDMDL
MODEL       67
REMARK 921   NORMALIZED FREE ENERGY PREDICTED BY IDOCK:   -5.14 KCAL/MOL
REMARK 922        TOTAL FREE ENERGY PREDICTED BY IDOCK:   -8.64 KCAL/MOL
REMARK 923 INTER-LIGAND FREE ENERGY PREDICTED BY IDOCK:   -7.72 KCAL/MOL
REMARK 924 INTRA-LIGAND FREE ENERGY PREDICTED BY IDOCK:   -0.92 KCAL/MOL
REMARK 927      BINDING AFFINITY PREDICTED BY RF-SCORE:    0.00 PKD
ROOT
HETATM    1  C   UNL     1      -8.403   9.987  69.409  1.00  0.00    -0.165 C  
HETATM    2  S   UNL     1      -8.532  10.157  67.611  1.00  0.00    -0.117 SA 
HETATM    3  C   UNL     1      -9.547  11.651  67.714  1.00  0.00    -0.178 C  
HETATM    4  C   UNL     1     -10.735  11.546  68.662  1.00  0.00    -0.242 C  
HETATM    5  O   UNL     1     -12.031   9.844  71.676  1.00  0.00    -0.393 OA 
HETATM    6  C   UNL     1     -10.794  10.684  69.723  1.00  0.00    -0.261 C  
HETATM    7  N   UNL     1      -9.743   9.829  69.956  1.00  0.00    -0.243 N  
HETATM    8  C   UNL     1      -8.062   8.526  69.963  1.00  0.00    -0.111 C  
HETATM    9  C   UNL     1     -12.029  10.668  70.615  1.00  0.00    -0.367 C  
HETATM   10  O   UNL     1     -10.132   8.236  71.588  1.00  0.00    -0.186 OA 
HETATM   11  C   UNL     1      -9.467   8.745  70.712  1.00  0.00    -0.206 C  
HETATM   12  O   UNL     1     -12.988  11.413  70.456  1.00  0.00    -0.112 OA 
ENDROOT
BRANCH   4  13
HETATM   13  C   UNL     1     -11.877  12.462  68.206  1.00  0.00    -0.309 C  
BRANCH  13  14
HETATM   14  S   UNL     1     -11.241  13.885  67.275  1.00  0.00    -0.326 SA 
BRANCH  14  15
HETATM   15  C   UNL     1     -11.946  13.583  65.724  1.00  0.00    -0.403 A  
HETATM   16  N   UNL     1     -12.559  12.481  65.359  1.00  0.00    -0.615 NA 
HETATM   17  N   UNL     1     -12.486  13.842  63.594  1.00  0.00    -0.805 NA 
HETATM   18  N   UNL     1     -12.881  12.653  64.032  1.00  0.00    -0.733 NA 
HETATM   19  C   UNL     1     -11.372  15.761  64.541  1.00  0.00    -0.316 C  
HETATM   20  N   UNL     1     -11.900  14.431  64.655  1.00  0.00    -0.429 NA 
ENDBRANCH  14  15
ENDBRANCH  13  14
ENDBRANCH   4  13
BRANCH   8  21
HETATM   21  O   UNL     1      -6.917   8.469  70.860  1.00  0.00    -0.047 OA 
HETATM   22  C   UNL     1      -5.645   8.723  70.266  1.00  0.00    -0.027 C  
ENDBRANCH   8  21
BRANCH   8  23
HETATM   23  N   UNL     1      -7.990   7.479  68.897  1.00  0.00    -0.123 N  
HETATM   24  C   UNL     1      -8.069   6.132  69.138  1.00  0.00    -0.109 C  
HETATM   25  H   UNL     1      -7.875   7.787  67.931  1.00  0.00     0.000 HD 
HETATM   26  O   UNL     1      -8.180   5.662  70.265  1.00  0.00    -0.101 OA 
BRANCH  24  27
HETATM   27  C   UNL     1      -7.925   5.243  67.918  1.00  0.00    -0.095 C  
BRANCH  27  28
HETATM   28  S   UNL     1      -9.272   4.014  67.865  1.00  0.00    -0.171 SA 
BRANCH  28  29
HETATM   29  C   UNL     1     -10.156   4.554  66.349  1.00  0.00    -0.244 C  
HETATM   30  C   UNL     1      -9.277   4.802  65.198  1.00  0.00    -0.145 C  
HETATM   31  N   UNL     1      -8.581   4.992  64.289  1.00  0.00    -0.141 NA 
ENDBRANCH  28  29
ENDBRANCH  27  28
ENDBRANCH  24  27
ENDBRANCH   8  23
TORSDOF 8
ENDMDL
MODEL       68
REMARK 921   NORMALIZED FREE ENERGY PREDICTED BY IDOCK:   -5.11 KCAL/MOL
REMARK 922        TOTAL FREE ENERGY PREDICTED BY IDOCK:   -8.60 KCAL/MOL
REMARK 923 INTER-LIGAND FREE ENERGY PREDICTED BY IDOCK:   -7.09 KCAL/MOL
REMARK 924 INTRA-LIGAND FREE ENERGY PREDICTED BY IDOCK:   -1.51 KCAL/MOL
REMARK 927      BINDING AFFINITY PREDICTED BY RF-SCORE:    0.00 PKD
ROOT
HETATM    1  C   UNL     1      -8.913   9.928  67.661  1.00  0.00    -0.128 C  
HETATM    2  S   UNL     1     -10.718  10.009  67.541  1.00  0.00    -0.261 SA 
HETATM    3  C   UNL     1     -10.686  11.281  66.255  1.00  0.00    -0.257 C  
HETATM    4  C   UNL     1      -9.783  12.470  66.562  1.00  0.00    -0.249 C  
HETATM    5  O   UNL     1      -6.787  13.563  68.430  1.00  0.00    -0.084 OA 
HETATM    6  C   UNL     1      -8.707  12.416  67.406  1.00  0.00    -0.183 C  
HETATM    7  N   UNL     1      -8.416  11.239  68.052  1.00  0.00    -0.132 N  
HETATM    8  C   UNL     1      -8.316   9.351  69.028  1.00  0.00    -0.124 C  
HETATM    9  C   UNL     1      -7.864  13.665  67.633  1.00  0.00    -0.174 C  
HETATM   10  O   UNL     1      -6.767  11.402  69.667  1.00  0.00    -0.127 OA 
HETATM   11  C   UNL     1      -7.627  10.804  69.058  1.00  0.00    -0.126 C  
HETATM   12  O   UNL     1      -8.077  14.735  67.077  1.00  0.00    -0.205 OA 
ENDROOT
BRANCH   4  13
HETATM   13  C   UNL     1     -10.303  13.738  65.874  1.00  0.00    -0.309 C  
BRANCH  13  14
HETATM   14  S   UNL     1     -11.935  14.209  66.516  1.00  0.00    -0.444 SA 
BRANCH  14  15
HETATM   15  C   UNL     1     -11.477  14.991  67.988  1.00  0.00    -0.342 A  
HETATM   16  N   UNL     1     -11.026  16.219  68.100  1.00  0.00    -0.343 NA 
HETATM   17  N   UNL     1     -10.986  15.288  70.126  1.00  0.00    -0.278 NA 
HETATM   18  N   UNL     1     -10.717  16.386  69.431  1.00  0.00    -0.305 NA 
HETATM   19  C   UNL     1     -11.888  13.103  69.643  1.00  0.00    -0.324 C  
HETATM   20  N   UNL     1     -11.467  14.409  69.224  1.00  0.00    -0.268 NA 
ENDBRANCH  14  15
ENDBRANCH  13  14
ENDBRANCH   4  13
BRANCH   8  21
HETATM   21  O   UNL     1      -7.373   8.254  68.864  1.00  0.00    -0.085 OA 
HETATM   22  C   UNL     1      -7.890   7.075  68.250  1.00  0.00    -0.118 C  
ENDBRANCH   8  21
BRANCH   8  23
HETATM   23  N   UNL     1      -9.356   9.046  70.058  1.00  0.00    -0.172 N  
HETATM   24  C   UNL     1      -9.097   8.934  71.401  1.00  0.00    -0.248 C  
HETATM   25  H   UNL     1     -10.317   8.914  69.743  1.00  0.00     0.000 HD 
HETATM   26  O   UNL     1      -7.972   9.049  71.873  1.00  0.00    -0.348 OA 
BRANCH  24  27
HETATM   27  C   UNL     1     -10.289   8.571  72.265  1.00  0.00    -0.332 C  
BRANCH  27  28
HETATM   28  S   UNL     1     -11.782   8.369  71.236  1.00  0.00    -0.290 SA 
BRANCH  28  29
HETATM   29  C   UNL     1     -12.461   6.815  71.937  1.00  0.00    -0.312 C  
HETATM   30  C   UNL     1     -11.440   5.885  72.438  1.00  0.00    -0.306 C  
HETATM   31  N   UNL     1     -10.631   5.155  72.839  1.00  0.00    -0.216 NA 
ENDBRANCH  28  29
ENDBRANCH  27  28
ENDBRANCH  24  27
ENDBRANCH   8  23
TORSDOF 8
ENDMDL
MODEL       69
REMARK 921   NORMALIZED FREE ENERGY PREDICTED BY IDOCK:   -5.06 KCAL/MOL
REMARK 922        TOTAL FREE ENERGY PREDICTED BY IDOCK:   -8.51 KCAL/MOL
REMARK 923 INTER-LIGAND FREE ENERGY PREDICTED BY IDOCK:   -7.68 KCAL/MOL
REMARK 924 INTRA-LIGAND FREE ENERGY PREDICTED BY IDOCK:   -0.84 KCAL/MOL
REMARK 927      BINDING AFFINITY PREDICTED BY RF-SCORE:    0.00 PKD
ROOT
HETATM    1  C   UNL     1      -7.917  11.058  68.835  1.00  0.00    -0.138 C  
HETATM    2  S   UNL     1      -7.221  11.794  67.334  1.00  0.00    -0.143 SA 
HETATM    3  C   UNL     1      -7.796  13.458  67.751  1.00  0.00    -0.158 C  
HETATM    4  C   UNL     1      -9.263  13.539  68.156  1.00  0.00    -0.208 C  
HETATM    5  O   UNL     1     -12.085  11.649  69.611  1.00  0.00    -0.304 OA 
HETATM    6  C   UNL     1      -9.972  12.491  68.677  1.00  0.00    -0.103 C  
HETATM    7  N   UNL     1      -9.357  11.271  68.829  1.00  0.00    -0.164 N  
HETATM    8  C   UNL     1      -8.202   9.485  68.790  1.00  0.00    -0.112 C  
HETATM    9  C   UNL     1     -11.434  12.685  69.057  1.00  0.00    -0.303 C  
HETATM   10  O   UNL     1     -10.772   9.541  69.427  1.00  0.00    -0.221 OA 
HETATM   11  C   UNL     1      -9.697   9.992  69.097  1.00  0.00    -0.209 C  
HETATM   12  O   UNL     1     -12.025  13.752  68.948  1.00  0.00    -0.337 OA 
ENDROOT
BRANCH   4  13
HETATM   13  C   UNL     1      -9.846  14.914  67.811  1.00  0.00    -0.217 C  
BRANCH  13  14
HETATM   14  S   UNL     1      -9.120  15.569  66.281  1.00  0.00    -0.328 SA 
BRANCH  14  15
HETATM   15  C   UNL     1     -10.530  15.662  65.283  1.00  0.00    -0.412 A  
HETATM   16  N   UNL     1     -10.973  16.738  64.675  1.00  0.00    -0.897 NA 
HETATM   17  N   UNL     1     -12.420  15.086  64.287  1.00  0.00    -0.693 NA 
HETATM   18  N   UNL     1     -12.152  16.368  64.068  1.00  0.00    -0.774 NA 
HETATM   19  C   UNL     1     -11.358  13.263  65.456  1.00  0.00    -0.294 C  
HETATM   20  N   UNL     1     -11.402  14.638  65.048  1.00  0.00    -0.372 NA 
ENDBRANCH  14  15
ENDBRANCH  13  14
ENDBRANCH   4  13
BRANCH   8  21
HETATM   21  O   UNL     1      -7.601   8.727  69.877  1.00  0.00    -0.060 OA 
HETATM   22  C   UNL     1      -6.230   8.371  69.705  1.00  0.00    -0.032 C  
ENDBRANCH   8  21
BRANCH   8  23
HETATM   23  N   UNL     1      -7.932   8.862  67.457  1.00  0.00    -0.101 N  
HETATM   24  C   UNL     1      -8.472   7.671  67.043  1.00  0.00    -0.125 C  
HETATM   25  H   UNL     1      -7.309   9.354  66.816  1.00  0.00     0.000 HD 
HETATM   26  O   UNL     1      -9.210   6.993  67.749  1.00  0.00    -0.126 OA 
BRANCH  24  27
HETATM   27  C   UNL     1      -8.027   7.197  65.673  1.00  0.00    -0.126 C  
BRANCH  27  28
HETATM   28  S   UNL     1      -7.007   8.472  64.860  1.00  0.00    -0.073 SA 
BRANCH  28  29
HETATM   29  C   UNL     1      -7.971   8.737  63.320  1.00  0.00    -0.160 C  
HETATM   30  C   UNL     1      -8.647  10.040  63.250  1.00  0.00    -0.202 C  
HETATM   31  N   UNL     1      -9.175  11.072  63.196  1.00  0.00    -0.283 NA 
ENDBRANCH  28  29
ENDBRANCH  27  28
ENDBRANCH  24  27
ENDBRANCH   8  23
TORSDOF 8
ENDMDL
MODEL       70
REMARK 921   NORMALIZED FREE ENERGY PREDICTED BY IDOCK:   -5.05 KCAL/MOL
REMARK 922        TOTAL FREE ENERGY PREDICTED BY IDOCK:   -8.50 KCAL/MOL
REMARK 923 INTER-LIGAND FREE ENERGY PREDICTED BY IDOCK:   -7.75 KCAL/MOL
REMARK 924 INTRA-LIGAND FREE ENERGY PREDICTED BY IDOCK:   -0.75 KCAL/MOL
REMARK 927      BINDING AFFINITY PREDICTED BY RF-SCORE:    0.00 PKD
ROOT
HETATM    1  C   UNL     1      -8.597  12.535  67.155  1.00  0.00    -0.200 C  
HETATM    2  S   UNL     1      -8.333  11.028  68.123  1.00  0.00    -0.136 SA 
HETATM    3  C   UNL     1      -7.633  10.119  66.724  1.00  0.00    -0.105 C  
HETATM    4  C   UNL     1      -8.456  10.194  65.444  1.00  0.00    -0.162 C  
HETATM    5  O   UNL     1     -10.893  12.231  63.555  1.00  0.00    -0.425 OA 
HETATM    6  C   UNL     1      -9.322  11.211  65.149  1.00  0.00    -0.213 C  
HETATM    7  N   UNL     1      -9.503  12.227  66.057  1.00  0.00    -0.223 N  
HETATM    8  C   UNL     1      -9.698  13.554  67.708  1.00  0.00    -0.226 C  
HETATM    9  C   UNL     1     -10.089  11.191  63.833  1.00  0.00    -0.348 C  
HETATM   10  O   UNL     1     -11.218  13.692  65.545  1.00  0.00    -0.292 OA 
HETATM   11  C   UNL     1     -10.345  13.262  66.265  1.00  0.00    -0.290 C  
HETATM   12  O   UNL     1      -9.959  10.314  62.988  1.00  0.00    -0.165 OA 
ENDROOT
BRANCH   4  13
HETATM   13  C   UNL     1      -8.249   8.937  64.591  1.00  0.00    -0.163 C  
BRANCH  13  14
HETATM   14  S   UNL     1      -7.624   7.559  65.596  1.00  0.00    -0.096 SA 
BRANCH  14  15
HETATM   15  C   UNL     1      -9.115   6.837  66.095  1.00  0.00    -0.109 A  
HETATM   16  N   UNL     1     -10.054   7.420  66.803  1.00  0.00    -0.243 NA 
HETATM   17  N   UNL     1     -10.669   5.304  66.457  1.00  0.00    -0.285 NA 
HETATM   18  N   UNL     1     -11.009   6.454  67.028  1.00  0.00    -0.394 NA 
HETATM   19  C   UNL     1      -8.825   4.502  65.125  1.00  0.00    -0.143 C  
HETATM   20  N   UNL     1      -9.481   5.541  65.867  1.00  0.00    -0.135 NA 
ENDBRANCH  14  15
ENDBRANCH  13  14
ENDBRANCH   4  13
BRANCH   8  21
HETATM   21  O   UNL     1      -9.229  14.921  67.880  1.00  0.00    -0.179 OA 
HETATM   22  C   UNL     1      -8.960  15.643  66.680  1.00  0.00    -0.284 C  
ENDBRANCH   8  21
BRANCH   8  23
HETATM   23  N   UNL     1     -10.425  13.055  68.917  1.00  0.00    -0.415 N  
HETATM   24  C   UNL     1     -11.724  13.378  69.218  1.00  0.00    -0.330 C  
HETATM   25  H   UNL     1      -9.925  12.438  69.556  1.00  0.00     0.000 HD 
HETATM   26  O   UNL     1     -12.400  14.132  68.528  1.00  0.00    -0.244 OA 
BRANCH  24  27
HETATM   27  C   UNL     1     -12.252  12.803  70.518  1.00  0.00    -0.307 C  
BRANCH  27  28
HETATM   28  S   UNL     1     -12.056  10.989  70.535  1.00  0.00    -0.399 SA 
BRANCH  28  29
HETATM   29  C   UNL     1     -13.227  10.541  71.877  1.00  0.00    -0.420 C  
HETATM   30  C   UNL     1     -13.701   9.151  71.822  1.00  0.00    -0.404 C  
HETATM   31  N   UNL     1     -14.069   8.051  71.779  1.00  0.00    -0.415 NA 
ENDBRANCH  28  29
ENDBRANCH  27  28
ENDBRANCH  24  27
ENDBRANCH   8  23
TORSDOF 8
ENDMDL
MODEL       71
REMARK 921   NORMALIZED FREE ENERGY PREDICTED BY IDOCK:   -5.04 KCAL/MOL
REMARK 922        TOTAL FREE ENERGY PREDICTED BY IDOCK:   -8.49 KCAL/MOL
REMARK 923 INTER-LIGAND FREE ENERGY PREDICTED BY IDOCK:   -7.78 KCAL/MOL
REMARK 924 INTRA-LIGAND FREE ENERGY PREDICTED BY IDOCK:   -0.71 KCAL/MOL
REMARK 927      BINDING AFFINITY PREDICTED BY RF-SCORE:    0.00 PKD
ROOT
HETATM    1  C   UNL     1      -9.164   8.971  70.779  1.00  0.00    -0.245 C  
HETATM    2  S   UNL     1      -8.938   8.884  68.985  1.00  0.00    -0.137 SA 
HETATM    3  C   UNL     1      -9.448  10.600  68.726  1.00  0.00    -0.183 C  
HETATM    4  C   UNL     1     -10.750  10.986  69.418  1.00  0.00    -0.247 C  
HETATM    5  O   UNL     1     -12.981  10.218  72.263  1.00  0.00    -0.378 OA 
HETATM    6  C   UNL     1     -11.243  10.354  70.527  1.00  0.00    -0.314 C  
HETATM    7  N   UNL     1     -10.558   9.286  71.055  1.00  0.00    -0.289 N  
HETATM    8  C   UNL     1      -9.383   7.580  71.537  1.00  0.00    -0.139 C  
HETATM    9  C   UNL     1     -12.552  10.829  71.146  1.00  0.00    -0.428 C  
HETATM   10  O   UNL     1     -11.679   8.147  72.727  1.00  0.00    -0.403 OA 
HETATM   11  C   UNL     1     -10.757   8.302  71.958  1.00  0.00    -0.297 C  
HETATM   12  O   UNL     1     -13.196  11.779  70.719  1.00  0.00     0.081 OA 
ENDROOT
BRANCH   4  13
HETATM   13  C   UNL     1     -11.464  12.103  68.648  1.00  0.00    -0.296 C  
BRANCH  13  14
HETATM   14  S   UNL     1     -10.332  12.930  67.494  1.00  0.00    -0.225 SA 
BRANCH  14  15
HETATM   15  C   UNL     1     -11.429  13.339  66.221  1.00  0.00    -0.325 A  
HETATM   16  N   UNL     1     -12.403  12.583  65.771  1.00  0.00    -0.626 NA 
HETATM   17  N   UNL     1     -12.342  14.434  64.529  1.00  0.00    -0.611 NA 
HETATM   18  N   UNL     1     -12.956  13.271  64.715  1.00  0.00    -0.718 NA 
HETATM   19  C   UNL     1     -10.532  15.632  65.580  1.00  0.00    -0.382 C  
HETATM   20  N   UNL     1     -11.384  14.482  65.475  1.00  0.00    -0.328 NA 
ENDBRANCH  14  15
ENDBRANCH  13  14
ENDBRANCH   4  13
BRANCH   8  21
HETATM   21  O   UNL     1      -8.474   7.345  72.650  1.00  0.00    -0.108 OA 
HETATM   22  C   UNL     1      -8.677   8.160  73.803  1.00  0.00    -0.224 C  
ENDBRANCH   8  21
BRANCH   8  23
HETATM   23  N   UNL     1      -9.462   6.401  70.621  1.00  0.00    -0.165 N  
HETATM   24  C   UNL     1      -9.969   5.179  70.984  1.00  0.00    -0.206 C  
HETATM   25  H   UNL     1      -9.118   6.512  69.667  1.00  0.00     0.000 HD 
HETATM   26  O   UNL     1     -10.382   4.939  72.113  1.00  0.00    -0.194 OA 
BRANCH  24  27
HETATM   27  C   UNL     1      -9.910   4.106  69.914  1.00  0.00    -0.162 C  
BRANCH  27  28
HETATM   28  S   UNL     1      -8.753   2.784  70.404  1.00  0.00    -0.078 SA 
BRANCH  28  29
HETATM   29  C   UNL     1      -7.658   2.738  68.931  1.00  0.00    -0.047 C  
HETATM   30  C   UNL     1      -7.077   4.039  68.573  1.00  0.00    -0.055 C  
HETATM   31  N   UNL     1      -6.616   5.067  68.296  1.00  0.00    -0.048 NA 
ENDBRANCH  28  29
ENDBRANCH  27  28
ENDBRANCH  24  27
ENDBRANCH   8  23
TORSDOF 8
ENDMDL
MODEL       72
REMARK 921   NORMALIZED FREE ENERGY PREDICTED BY IDOCK:   -5.01 KCAL/MOL
REMARK 922        TOTAL FREE ENERGY PREDICTED BY IDOCK:   -8.44 KCAL/MOL
REMARK 923 INTER-LIGAND FREE ENERGY PREDICTED BY IDOCK:   -7.40 KCAL/MOL
REMARK 924 INTRA-LIGAND FREE ENERGY PREDICTED BY IDOCK:   -1.04 KCAL/MOL
REMARK 927      BINDING AFFINITY PREDICTED BY RF-SCORE:    0.00 PKD
ROOT
HETATM    1  C   UNL     1      -8.792  11.985  68.251  1.00  0.00    -0.182 C  
HETATM    2  S   UNL     1      -7.198  12.404  67.502  1.00  0.00    -0.153 SA 
HETATM    3  C   UNL     1      -7.383  14.174  67.829  1.00  0.00    -0.167 C  
HETATM    4  C   UNL     1      -8.723  14.760  67.402  1.00  0.00    -0.210 C  
HETATM    5  O   UNL     1     -12.283  13.982  66.788  1.00  0.00    -0.439 OA 
HETATM    6  C   UNL     1      -9.874  14.030  67.277  1.00  0.00    -0.242 C  
HETATM    7  N   UNL     1      -9.843  12.677  67.519  1.00  0.00    -0.200 N  
HETATM    8  C   UNL     1      -9.454  10.604  67.791  1.00  0.00    -0.153 C  
HETATM    9  C   UNL     1     -11.163  14.721  66.852  1.00  0.00    -0.347 C  
HETATM   10  O   UNL     1     -11.786  11.550  66.967  1.00  0.00    -0.556 OA 
HETATM   11  C   UNL     1     -10.635  11.598  67.341  1.00  0.00    -0.220 C  
HETATM   12  O   UNL     1     -11.245  15.923  66.632  1.00  0.00    -0.129 OA 
ENDROOT
BRANCH   4  13
HETATM   13  C   UNL     1      -8.577  16.244  67.044  1.00  0.00    -0.200 C  
BRANCH  13  14
HETATM   14  S   UNL     1      -7.863  17.183  68.424  1.00  0.00    -0.253 SA 
BRANCH  14  15
HETATM   15  C   UNL     1      -7.703  18.741  67.691  1.00  0.00    -0.235 A  
HETATM   16  N   UNL     1      -6.661  19.173  67.019  1.00  0.00    -0.197 NA 
HETATM   17  N   UNL     1      -8.136  20.841  67.145  1.00  0.00    -0.255 NA 
HETATM   18  N   UNL     1      -6.940  20.481  66.694  1.00  0.00    -0.254 NA 
HETATM   19  C   UNL     1      -9.927  19.779  68.363  1.00  0.00    -0.439 C  
HETATM   20  N   UNL     1      -8.620  19.750  67.769  1.00  0.00    -0.320 NA 
ENDBRANCH  14  15
ENDBRANCH  13  14
ENDBRANCH   4  13
BRANCH   8  21
HETATM   21  O   UNL     1      -9.817   9.711  68.882  1.00  0.00    -0.165 OA 
HETATM   22  C   UNL     1      -8.802   9.469  69.854  1.00  0.00    -0.211 C  
ENDBRANCH   8  21
BRANCH   8  23
HETATM   23  N   UNL     1      -8.686   9.896  66.720  1.00  0.00    -0.128 N  
HETATM   24  C   UNL     1      -9.144   8.790  66.050  1.00  0.00    -0.213 C  
HETATM   25  H   UNL     1      -7.765  10.258  66.472  1.00  0.00     0.000 HD 
HETATM   26  O   UNL     1     -10.225   8.265  66.294  1.00  0.00    -0.189 OA 
BRANCH  24  27
HETATM   27  C   UNL     1      -8.185   8.199  65.036  1.00  0.00    -0.154 C  
BRANCH  27  28
HETATM   28  S   UNL     1      -7.511   9.511  63.961  1.00  0.00    -0.128 SA 
BRANCH  28  29
HETATM   29  C   UNL     1      -8.968   9.847  62.895  1.00  0.00    -0.261 C  
HETATM   30  C   UNL     1      -9.707  11.066  63.253  1.00  0.00    -0.364 C  
HETATM   31  N   UNL     1     -10.285  12.032  63.535  1.00  0.00    -0.438 NA 
ENDBRANCH  28  29
ENDBRANCH  27  28
ENDBRANCH  24  27
ENDBRANCH   8  23
TORSDOF 8
ENDMDL
MODEL       73
REMARK 921   NORMALIZED FREE ENERGY PREDICTED BY IDOCK:   -4.99 KCAL/MOL
REMARK 922        TOTAL FREE ENERGY PREDICTED BY IDOCK:   -8.42 KCAL/MOL
REMARK 923 INTER-LIGAND FREE ENERGY PREDICTED BY IDOCK:   -7.89 KCAL/MOL
REMARK 924 INTRA-LIGAND FREE ENERGY PREDICTED BY IDOCK:   -0.53 KCAL/MOL
REMARK 927      BINDING AFFINITY PREDICTED BY RF-SCORE:    0.00 PKD
ROOT
HETATM    1  C   UNL     1      -9.393  13.082  67.516  1.00  0.00    -0.200 C  
HETATM    2  S   UNL     1      -8.433  11.939  68.541  1.00  0.00    -0.064 SA 
HETATM    3  C   UNL     1      -7.423  11.366  67.154  1.00  0.00    -0.138 C  
HETATM    4  C   UNL     1      -8.217  10.963  65.917  1.00  0.00    -0.133 C  
HETATM    5  O   UNL     1     -11.368  11.501  64.062  1.00  0.00    -0.368 OA 
HETATM    6  C   UNL     1      -9.465  11.439  65.619  1.00  0.00    -0.230 C  
HETATM    7  N   UNL     1     -10.077  12.314  66.484  1.00  0.00    -0.212 N  
HETATM    8  C   UNL     1     -10.829  13.507  68.076  1.00  0.00    -0.250 C  
HETATM    9  C   UNL     1     -10.165  10.975  64.348  1.00  0.00    -0.346 C  
HETATM   10  O   UNL     1     -12.289  12.775  65.992  1.00  0.00    -0.547 OA 
HETATM   11  C   UNL     1     -11.299  12.851  66.686  1.00  0.00    -0.317 C  
HETATM   12  O   UNL     1      -9.661  10.204  63.541  1.00  0.00    -0.293 OA 
ENDROOT
BRANCH   4  13
HETATM   13  C   UNL     1      -7.467   9.891  65.117  1.00  0.00    -0.133 C  
BRANCH  13  14
HETATM   14  S   UNL     1      -7.034   8.474  66.167  1.00  0.00    -0.077 SA 
BRANCH  14  15
HETATM   15  C   UNL     1      -8.599   8.034  66.757  1.00  0.00    -0.130 A  
HETATM   16  N   UNL     1      -9.647   7.746  66.020  1.00  0.00    -0.021 NA 
HETATM   17  N   UNL     1     -10.274   7.680  68.159  1.00  0.00    -0.190 NA 
HETATM   18  N   UNL     1     -10.682   7.537  66.904  1.00  0.00    -0.328 NA 
HETATM   19  C   UNL     1      -8.191   8.194  69.263  1.00  0.00    -0.119 C  
HETATM   20  N   UNL     1      -8.965   7.990  68.072  1.00  0.00    -0.131 NA 
ENDBRANCH  14  15
ENDBRANCH  13  14
ENDBRANCH   4  13
BRANCH   8  21
HETATM   21  O   UNL     1     -11.049  14.944  68.156  1.00  0.00    -0.262 OA 
HETATM   22  C   UNL     1     -11.909  15.386  69.204  1.00  0.00    -0.335 C  
ENDBRANCH   8  21
BRANCH   8  23
HETATM   23  N   UNL     1     -11.210  12.812  69.345  1.00  0.00    -0.430 N  
HETATM   24  C   UNL     1     -11.846  11.597  69.393  1.00  0.00    -0.342 C  
HETATM   25  H   UNL     1     -10.983  13.269  70.228  1.00  0.00     0.000 HD 
HETATM   26  O   UNL     1     -12.184  10.982  68.388  1.00  0.00    -0.586 OA 
BRANCH  24  27
HETATM   27  C   UNL     1     -12.184  11.095  70.783  1.00  0.00    -0.385 C  
BRANCH  27  28
HETATM   28  S   UNL     1     -11.169   9.635  71.195  1.00  0.00    -0.384 SA 
BRANCH  28  29
HETATM   29  C   UNL     1     -12.444   8.543  71.939  1.00  0.00    -0.352 C  
HETATM   30  C   UNL     1     -12.076   7.121  71.965  1.00  0.00    -0.292 C  
HETATM   31  N   UNL     1     -11.780   5.999  71.990  1.00  0.00    -0.292 NA 
ENDBRANCH  28  29
ENDBRANCH  27  28
ENDBRANCH  24  27
ENDBRANCH   8  23
TORSDOF 8
ENDMDL
MODEL       74
REMARK 921   NORMALIZED FREE ENERGY PREDICTED BY IDOCK:   -4.99 KCAL/MOL
REMARK 922        TOTAL FREE ENERGY PREDICTED BY IDOCK:   -8.42 KCAL/MOL
REMARK 923 INTER-LIGAND FREE ENERGY PREDICTED BY IDOCK:   -7.21 KCAL/MOL
REMARK 924 INTRA-LIGAND FREE ENERGY PREDICTED BY IDOCK:   -1.20 KCAL/MOL
REMARK 927      BINDING AFFINITY PREDICTED BY RF-SCORE:    0.00 PKD
ROOT
HETATM    1  C   UNL     1     -10.247  11.397  67.226  1.00  0.00    -0.199 C  
HETATM    2  S   UNL     1     -11.193  11.315  68.768  1.00  0.00    -0.279 SA 
HETATM    3  C   UNL     1     -11.379  13.111  68.879  1.00  0.00    -0.289 C  
HETATM    4  C   UNL     1     -10.085  13.894  68.696  1.00  0.00    -0.203 C  
HETATM    5  O   UNL     1      -6.725  13.828  67.160  1.00  0.00    -0.163 OA 
HETATM    6  C   UNL     1      -8.997  13.426  68.011  1.00  0.00    -0.190 C  
HETATM    7  N   UNL     1      -9.034  12.165  67.468  1.00  0.00    -0.170 N  
HETATM    8  C   UNL     1      -9.321  10.137  66.891  1.00  0.00    -0.158 C  
HETATM    9  C   UNL     1      -7.755  14.300  67.881  1.00  0.00    -0.152 C  
HETATM   10  O   UNL     1      -7.017  11.415  66.618  1.00  0.00    -0.138 OA 
HETATM   11  C   UNL     1      -8.182  11.273  66.918  1.00  0.00    -0.153 C  
HETATM   12  O   UNL     1      -7.673  15.432  68.340  1.00  0.00    -0.115 OA 
ENDROOT
BRANCH   4  13
HETATM   13  C   UNL     1     -10.142  15.222  69.460  1.00  0.00    -0.256 C  
BRANCH  13  14
HETATM   14  S   UNL     1     -11.398  16.329  68.757  1.00  0.00    -0.274 SA 
BRANCH  14  15
HETATM   15  C   UNL     1     -10.398  17.365  67.798  1.00  0.00    -0.358 A  
HETATM   16  N   UNL     1      -9.864  18.498  68.191  1.00  0.00    -0.328 NA 
HETATM   17  N   UNL     1      -9.349  18.206  66.041  1.00  0.00    -0.519 NA 
HETATM   18  N   UNL     1      -9.223  19.014  67.087  1.00  0.00    -0.288 NA 
HETATM   19  C   UNL     1     -10.395  16.077  65.604  1.00  0.00    -0.392 C  
HETATM   20  N   UNL     1     -10.084  17.167  66.484  1.00  0.00    -0.299 NA 
ENDBRANCH  14  15
ENDBRANCH  13  14
ENDBRANCH   4  13
BRANCH   8  21
HETATM   21  O   UNL     1      -9.541   9.553  65.576  1.00  0.00    -0.260 OA 
HETATM   22  C   UNL     1     -10.030  10.441  64.573  1.00  0.00    -0.331 C  
ENDBRANCH   8  21
BRANCH   8  23
HETATM   23  N   UNL     1      -9.302   9.100  67.969  1.00  0.00    -0.137 N  
HETATM   24  C   UNL     1      -8.269   8.221  68.170  1.00  0.00    -0.128 C  
HETATM   25  H   UNL     1     -10.108   9.044  68.592  1.00  0.00     0.000 HD 
HETATM   26  O   UNL     1      -7.271   8.192  67.459  1.00  0.00    -0.087 OA 
BRANCH  24  27
HETATM   27  C   UNL     1      -8.477   7.219  69.289  1.00  0.00    -0.133 C  
BRANCH  27  28
HETATM   28  S   UNL     1      -9.965   7.644  70.254  1.00  0.00    -0.190 SA 
BRANCH  28  29
HETATM   29  C   UNL     1     -11.165   6.438  69.563  1.00  0.00    -0.412 C  
HETATM   30  C   UNL     1     -11.090   6.285  68.104  1.00  0.00    -0.266 C  
HETATM   31  N   UNL     1     -11.023   6.161  66.952  1.00  0.00    -0.345 NA 
ENDBRANCH  28  29
ENDBRANCH  27  28
ENDBRANCH  24  27
ENDBRANCH   8  23
TORSDOF 8
ENDMDL
MODEL       75
REMARK 921   NORMALIZED FREE ENERGY PREDICTED BY IDOCK:   -4.97 KCAL/MOL
REMARK 922        TOTAL FREE ENERGY PREDICTED BY IDOCK:   -8.39 KCAL/MOL
REMARK 923 INTER-LIGAND FREE ENERGY PREDICTED BY IDOCK:   -8.42 KCAL/MOL
REMARK 924 INTRA-LIGAND FREE ENERGY PREDICTED BY IDOCK:    0.03 KCAL/MOL
REMARK 927      BINDING AFFINITY PREDICTED BY RF-SCORE:    0.00 PKD
ROOT
HETATM    1  C   UNL     1     -12.030   8.215  70.831  1.00  0.00    -0.183 C  
HETATM    2  S   UNL     1     -12.440   8.916  72.450  1.00  0.00    -0.278 SA 
HETATM    3  C   UNL     1     -13.108  10.442  71.743  1.00  0.00    -0.462 C  
HETATM    4  C   UNL     1     -12.208  11.110  70.711  1.00  0.00    -0.484 C  
HETATM    5  O   UNL     1      -9.545  10.520  68.217  1.00  0.00    -0.150 OA 
HETATM    6  C   UNL     1     -11.266  10.446  69.972  1.00  0.00    -0.316 C  
HETATM    7  N   UNL     1     -11.080   9.099  70.171  1.00  0.00    -0.240 N  
HETATM    8  C   UNL     1     -10.905   7.079  70.813  1.00  0.00    -0.246 C  
HETATM    9  C   UNL     1     -10.425  11.213  68.959  1.00  0.00    -0.206 C  
HETATM   10  O   UNL     1      -9.253   8.201  69.074  1.00  0.00    -0.148 OA 
HETATM   11  C   UNL     1     -10.192   8.139  69.836  1.00  0.00    -0.204 C  
HETATM   12  O   UNL     1     -10.556  12.410  68.739  1.00  0.00    -0.227 OA 
ENDROOT
BRANCH   4  13
HETATM   13  C   UNL     1     -12.439  12.625  70.690  1.00  0.00    -0.239 C  
BRANCH  13  14
HETATM   14  S   UNL     1     -13.577  13.133  72.011  1.00  0.00    -0.405 SA 
BRANCH  14  15
HETATM   15  C   UNL     1     -12.808  14.588  72.542  1.00  0.00    -0.386 A  
HETATM   16  N   UNL     1     -12.670  14.976  73.789  1.00  0.00    -0.522 NA 
HETATM   17  N   UNL     1     -11.843  16.579  72.477  1.00  0.00    -0.494 NA 
HETATM   18  N   UNL     1     -12.078  16.217  73.733  1.00  0.00    -0.446 NA 
HETATM   19  C   UNL     1     -12.179  15.605  70.296  1.00  0.00    -0.386 C  
HETATM   20  N   UNL     1     -12.298  15.557  71.726  1.00  0.00    -0.364 NA 
ENDBRANCH  14  15
ENDBRANCH  13  14
ENDBRANCH   4  13
BRANCH   8  21
HETATM   21  O   UNL     1     -11.300   5.843  70.154  1.00  0.00    -0.338 OA 
HETATM   22  C   UNL     1     -10.240   5.058  69.612  1.00  0.00    -0.236 C  
ENDBRANCH   8  21
BRANCH   8  23
HETATM   23  N   UNL     1     -10.281   6.826  72.149  1.00  0.00    -0.193 N  
HETATM   24  C   UNL     1     -10.810   5.987  73.096  1.00  0.00    -0.259 C  
HETATM   25  H   UNL     1      -9.409   7.307  72.368  1.00  0.00     0.000 HD 
HETATM   26  O   UNL     1     -11.866   5.385  72.937  1.00  0.00    -0.263 OA 
BRANCH  24  27
HETATM   27  C   UNL     1     -10.042   5.913  74.401  1.00  0.00    -0.292 C  
BRANCH  27  28
HETATM   28  S   UNL     1      -8.472   5.015  74.164  1.00  0.00    -0.108 SA 
BRANCH  28  29
HETATM   29  C   UNL     1      -9.065   3.280  74.251  1.00  0.00    -0.085 C  
HETATM   30  C   UNL     1      -9.554   2.747  72.972  1.00  0.00    -0.097 C  
HETATM   31  N   UNL     1      -9.934   2.326  71.959  1.00  0.00    -0.159 NA 
ENDBRANCH  28  29
ENDBRANCH  27  28
ENDBRANCH  24  27
ENDBRANCH   8  23
TORSDOF 8
ENDMDL
MODEL       76
REMARK 921   NORMALIZED FREE ENERGY PREDICTED BY IDOCK:   -4.95 KCAL/MOL
REMARK 922        TOTAL FREE ENERGY PREDICTED BY IDOCK:   -8.36 KCAL/MOL
REMARK 923 INTER-LIGAND FREE ENERGY PREDICTED BY IDOCK:   -7.82 KCAL/MOL
REMARK 924 INTRA-LIGAND FREE ENERGY PREDICTED BY IDOCK:   -0.53 KCAL/MOL
REMARK 927      BINDING AFFINITY PREDICTED BY RF-SCORE:    0.00 PKD
ROOT
HETATM    1  C   UNL     1     -10.782   9.503  68.520  1.00  0.00    -0.182 C  
HETATM    2  S   UNL     1     -11.483  10.717  69.666  1.00  0.00    -0.332 SA 
HETATM    3  C   UNL     1     -11.221  12.103  68.534  1.00  0.00    -0.260 C  
HETATM    4  C   UNL     1      -9.819  12.180  67.941  1.00  0.00    -0.199 C  
HETATM    5  O   UNL     1      -6.832  10.205  67.026  1.00  0.00    -0.080 OA 
HETATM    6  C   UNL     1      -8.985  11.104  67.805  1.00  0.00    -0.139 C  
HETATM    7  N   UNL     1      -9.399   9.871  68.248  1.00  0.00    -0.132 N  
HETATM    8  C   UNL     1     -10.239   8.145  69.166  1.00  0.00    -0.214 C  
HETATM    9  C   UNL     1      -7.605  11.292  67.188  1.00  0.00    -0.137 C  
HETATM   10  O   UNL     1      -7.764   8.234  68.228  1.00  0.00    -0.102 OA 
HETATM   11  C   UNL     1      -8.873   8.649  68.484  1.00  0.00    -0.142 C  
HETATM   12  O   UNL     1      -7.191  12.367  66.773  1.00  0.00     0.022 OA 
ENDROOT
BRANCH   4  13
HETATM   13  C   UNL     1      -9.448  13.631  67.613  1.00  0.00    -0.221 C  
BRANCH  13  14
HETATM   14  S   UNL     1     -10.876  14.734  67.814  1.00  0.00    -0.287 SA 
BRANCH  14  15
HETATM   15  C   UNL     1     -11.085  15.273  66.184  1.00  0.00    -0.280 A  
HETATM   16  N   UNL     1     -10.637  16.400  65.681  1.00  0.00    -0.379 NA 
HETATM   17  N   UNL     1     -11.811  15.361  64.095  1.00  0.00    -0.430 NA 
HETATM   18  N   UNL     1     -11.103  16.445  64.387  1.00  0.00    -0.834 NA 
HETATM   19  C   UNL     1     -12.462  13.347  65.252  1.00  0.00    -0.483 C  
HETATM   20  N   UNL     1     -11.800  14.620  65.221  1.00  0.00    -0.347 NA 
ENDBRANCH  14  15
ENDBRANCH  13  14
ENDBRANCH   4  13
BRANCH   8  21
HETATM   21  O   UNL     1     -10.782   6.931  68.573  1.00  0.00    -0.211 OA 
HETATM   22  C   UNL     1     -10.969   6.957  67.159  1.00  0.00    -0.357 C  
ENDBRANCH   8  21
BRANCH   8  23
HETATM   23  N   UNL     1     -10.309   8.119  70.660  1.00  0.00    -0.197 N  
HETATM   24  C   UNL     1     -11.388   7.657  71.369  1.00  0.00    -0.258 C  
HETATM   25  H   UNL     1      -9.505   8.465  71.183  1.00  0.00     0.000 HD 
HETATM   26  O   UNL     1     -12.411   7.245  70.833  1.00  0.00    -0.314 OA 
BRANCH  24  27
HETATM   27  C   UNL     1     -11.270   7.765  72.877  1.00  0.00    -0.376 C  
BRANCH  27  28
HETATM   28  S   UNL     1     -10.303   6.367  73.540  1.00  0.00    -0.290 SA 
BRANCH  28  29
HETATM   29  C   UNL     1     -11.456   4.978  73.206  1.00  0.00    -0.259 C  
HETATM   30  C   UNL     1     -10.984   3.674  73.695  1.00  0.00    -0.243 C  
HETATM   31  N   UNL     1     -10.612   2.647  74.087  1.00  0.00    -0.159 NA 
ENDBRANCH  28  29
ENDBRANCH  27  28
ENDBRANCH  24  27
ENDBRANCH   8  23
TORSDOF 8
ENDMDL
MODEL       77
REMARK 921   NORMALIZED FREE ENERGY PREDICTED BY IDOCK:   -4.94 KCAL/MOL
REMARK 922        TOTAL FREE ENERGY PREDICTED BY IDOCK:   -8.35 KCAL/MOL
REMARK 923 INTER-LIGAND FREE ENERGY PREDICTED BY IDOCK:   -7.51 KCAL/MOL
REMARK 924 INTRA-LIGAND FREE ENERGY PREDICTED BY IDOCK:   -0.84 KCAL/MOL
REMARK 927      BINDING AFFINITY PREDICTED BY RF-SCORE:    0.00 PKD
ROOT
HETATM    1  C   UNL     1      -8.977  11.558  68.518  1.00  0.00    -0.146 C  
HETATM    2  S   UNL     1      -7.325  11.767  67.805  1.00  0.00    -0.115 SA 
HETATM    3  C   UNL     1      -7.432  13.573  67.805  1.00  0.00    -0.166 C  
HETATM    4  C   UNL     1      -8.714  14.132  67.200  1.00  0.00    -0.239 C  
HETATM    5  O   UNL     1     -12.274  13.413  66.515  1.00  0.00    -0.399 OA 
HETATM    6  C   UNL     1      -9.894  13.442  67.135  1.00  0.00    -0.237 C  
HETATM    7  N   UNL     1      -9.949  12.154  67.613  1.00  0.00    -0.194 N  
HETATM    8  C   UNL     1      -9.687  10.147  68.268  1.00  0.00    -0.141 C  
HETATM    9  C   UNL     1     -11.120  14.102  66.517  1.00  0.00    -0.318 C  
HETATM   10  O   UNL     1     -11.918  11.032  67.149  1.00  0.00    -0.243 OA 
HETATM   11  C   UNL     1     -10.788  11.096  67.578  1.00  0.00    -0.254 C  
HETATM   12  O   UNL     1     -11.126  15.247  66.084  1.00  0.00    -0.336 OA 
ENDROOT
BRANCH   4  13
HETATM   13  C   UNL     1      -8.469  15.520  66.597  1.00  0.00    -0.279 C  
BRANCH  13  14
HETATM   14  S   UNL     1      -8.457  16.800  67.884  1.00  0.00    -0.204 SA 
BRANCH  14  15
HETATM   15  C   UNL     1      -9.371  18.040  67.099  1.00  0.00    -0.259 A  
HETATM   16  N   UNL     1      -9.698  18.068  65.827  1.00  0.00    -0.491 NA 
HETATM   17  N   UNL     1     -10.431  19.954  66.765  1.00  0.00    -0.463 NA 
HETATM   18  N   UNL     1     -10.348  19.267  65.633  1.00  0.00    -0.498 NA 
HETATM   19  C   UNL     1      -9.751  19.621  69.056  1.00  0.00    -0.354 C  
HETATM   20  N   UNL     1      -9.822  19.186  67.690  1.00  0.00    -0.321 NA 
ENDBRANCH  14  15
ENDBRANCH  13  14
ENDBRANCH   4  13
BRANCH   8  21
HETATM   21  O   UNL     1     -10.155   9.480  69.474  1.00  0.00    -0.185 OA 
HETATM   22  C   UNL     1     -10.815  10.310  70.428  1.00  0.00    -0.253 C  
ENDBRANCH   8  21
BRANCH   8  23
HETATM   23  N   UNL     1      -8.903   9.227  67.387  1.00  0.00    -0.118 N  
HETATM   24  C   UNL     1      -9.437   8.136  66.749  1.00  0.00    -0.198 C  
HETATM   25  H   UNL     1      -7.911   9.423  67.252  1.00  0.00     0.000 HD 
HETATM   26  O   UNL     1     -10.611   7.803  66.869  1.00  0.00    -0.343 OA 
BRANCH  24  27
HETATM   27  C   UNL     1      -8.454   7.309  65.943  1.00  0.00    -0.144 C  
BRANCH  27  28
HETATM   28  S   UNL     1      -7.721   6.002  66.984  1.00  0.00    -0.101 SA 
BRANCH  28  29
HETATM   29  C   UNL     1      -8.218   4.507  66.040  1.00  0.00    -0.110 C  
HETATM   30  C   UNL     1      -9.647   4.457  65.702  1.00  0.00    -0.187 C  
HETATM   31  N   UNL     1     -10.776   4.423  65.432  1.00  0.00    -0.212 NA 
ENDBRANCH  28  29
ENDBRANCH  27  28
ENDBRANCH  24  27
ENDBRANCH   8  23
TORSDOF 8
ENDMDL
MODEL       78
REMARK 921   NORMALIZED FREE ENERGY PREDICTED BY IDOCK:   -4.93 KCAL/MOL
REMARK 922        TOTAL FREE ENERGY PREDICTED BY IDOCK:   -8.33 KCAL/MOL
REMARK 923 INTER-LIGAND FREE ENERGY PREDICTED BY IDOCK:   -7.72 KCAL/MOL
REMARK 924 INTRA-LIGAND FREE ENERGY PREDICTED BY IDOCK:   -0.61 KCAL/MOL
REMARK 927      BINDING AFFINITY PREDICTED BY RF-SCORE:    0.00 PKD
ROOT
HETATM    1  C   UNL     1      -7.930  11.116  68.827  1.00  0.00    -0.144 C  
HETATM    2  S   UNL     1      -7.178  11.896  67.376  1.00  0.00    -0.153 SA 
HETATM    3  C   UNL     1      -7.908  13.513  67.728  1.00  0.00    -0.167 C  
HETATM    4  C   UNL     1      -9.403  13.483  68.019  1.00  0.00    -0.213 C  
HETATM    5  O   UNL     1     -12.178  11.390  69.276  1.00  0.00    -0.305 OA 
HETATM    6  C   UNL     1     -10.069  12.387  68.496  1.00  0.00    -0.185 C  
HETATM    7  N   UNL     1      -9.377  11.219  68.709  1.00  0.00    -0.164 N  
HETATM    8  C   UNL     1      -8.090   9.526  68.778  1.00  0.00    -0.096 C  
HETATM    9  C   UNL     1     -11.566  12.470  68.762  1.00  0.00    -0.322 C  
HETATM   10  O   UNL     1     -10.698   9.389  69.216  1.00  0.00    -0.227 OA 
HETATM   11  C   UNL     1      -9.639   9.918  68.964  1.00  0.00    -0.186 C  
HETATM   12  O   UNL     1     -12.227  13.488  68.595  1.00  0.00    -0.323 OA 
ENDROOT
BRANCH   4  13
HETATM   13  C   UNL     1     -10.061  14.808  67.615  1.00  0.00    -0.227 C  
BRANCH  13  14
HETATM   14  S   UNL     1      -9.316  15.473  66.099  1.00  0.00    -0.349 SA 
BRANCH  14  15
HETATM   15  C   UNL     1     -10.703  15.522  65.067  1.00  0.00    -0.441 A  
HETATM   16  N   UNL     1     -11.239  16.603  64.548  1.00  0.00    -0.982 NA 
HETATM   17  N   UNL     1     -12.499  14.860  63.956  1.00  0.00    -0.801 NA 
HETATM   18  N   UNL     1     -12.359  16.177  63.869  1.00  0.00    -0.712 NA 
HETATM   19  C   UNL     1     -11.284  13.047  64.984  1.00  0.00    -0.297 C  
HETATM   20  N   UNL     1     -11.459  14.444  64.706  1.00  0.00    -0.386 NA 
ENDBRANCH  14  15
ENDBRANCH  13  14
ENDBRANCH   4  13
BRANCH   8  21
HETATM   21  O   UNL     1      -7.519   8.822  69.917  1.00  0.00    -0.050 OA 
HETATM   22  C   UNL     1      -8.302   8.826  71.109  1.00  0.00    -0.176 C  
ENDBRANCH   8  21
BRANCH   8  23
HETATM   23  N   UNL     1      -7.672   8.918  67.477  1.00  0.00    -0.100 N  
HETATM   24  C   UNL     1      -7.913   7.615  67.126  1.00  0.00    -0.117 C  
HETATM   25  H   UNL     1      -7.177   9.510  66.810  1.00  0.00     0.000 HD 
HETATM   26  O   UNL     1      -8.476   6.818  67.869  1.00  0.00    -0.119 OA 
BRANCH  24  27
HETATM   27  C   UNL     1      -7.360   7.190  65.779  1.00  0.00    -0.075 C  
BRANCH  27  28
HETATM   28  S   UNL     1      -8.530   6.072  64.936  1.00  0.00     0.004 SA 
BRANCH  28  29
HETATM   29  C   UNL     1      -7.875   4.442  65.471  1.00  0.00    -0.094 C  
HETATM   30  C   UNL     1      -8.691   3.773  66.493  1.00  0.00    -0.118 C  
HETATM   31  N   UNL     1      -9.341   3.244  67.297  1.00  0.00    -0.200 NA 
ENDBRANCH  28  29
ENDBRANCH  27  28
ENDBRANCH  24  27
ENDBRANCH   8  23
TORSDOF 8
ENDMDL
MODEL       79
REMARK 921   NORMALIZED FREE ENERGY PREDICTED BY IDOCK:   -4.93 KCAL/MOL
REMARK 922        TOTAL FREE ENERGY PREDICTED BY IDOCK:   -8.33 KCAL/MOL
REMARK 923 INTER-LIGAND FREE ENERGY PREDICTED BY IDOCK:   -7.66 KCAL/MOL
REMARK 924 INTRA-LIGAND FREE ENERGY PREDICTED BY IDOCK:   -0.67 KCAL/MOL
REMARK 927      BINDING AFFINITY PREDICTED BY RF-SCORE:    0.00 PKD
ROOT
HETATM    1  C   UNL     1      -7.135  14.460  67.512  1.00  0.00    -0.175 C  
HETATM    2  S   UNL     1      -8.449  15.437  66.739  1.00  0.00    -0.255 SA 
HETATM    3  C   UNL     1      -7.395  16.892  66.526  1.00  0.00    -0.281 C  
HETATM    4  C   UNL     1      -6.627  17.306  67.775  1.00  0.00    -0.168 C  
HETATM    5  O   UNL     1      -5.181  16.092  70.953  1.00  0.00    -0.177 OA 
HETATM    6  C   UNL     1      -6.304  16.451  68.794  1.00  0.00    -0.135 C  
HETATM    7  N   UNL     1      -6.708  15.139  68.726  1.00  0.00    -0.096 N  
HETATM    8  C   UNL     1      -7.604  13.234  68.425  1.00  0.00    -0.137 C  
HETATM    9  C   UNL     1      -5.523  16.970  69.995  1.00  0.00    -0.216 C  
HETATM   10  O   UNL     1      -6.352  13.915  70.657  1.00  0.00    -0.109 OA 
HETATM   11  C   UNL     1      -6.783  14.059  69.534  1.00  0.00    -0.091 C  
HETATM   12  O   UNL     1      -5.134  18.126  70.100  1.00  0.00    -0.191 OA 
ENDROOT
BRANCH   4  13
HETATM   13  C   UNL     1      -6.357  18.815  67.771  1.00  0.00    -0.206 C  
BRANCH  13  14
HETATM   14  S   UNL     1      -7.606  19.707  68.740  1.00  0.00    -0.273 SA 
BRANCH  14  15
HETATM   15  C   UNL     1      -8.971  19.575  67.685  1.00  0.00    -0.313 A  
HETATM   16  N   UNL     1      -9.166  20.268  66.587  1.00  0.00    -0.331 NA 
HETATM   17  N   UNL     1     -10.956  18.978  66.910  1.00  0.00    -0.283 NA 
HETATM   18  N   UNL     1     -10.406  19.894  66.122  1.00  0.00    -0.489 NA 
HETATM   19  C   UNL     1     -10.321  17.808  68.922  1.00  0.00    -0.300 C  
HETATM   20  N   UNL     1     -10.056  18.772  67.892  1.00  0.00    -0.348 NA 
ENDBRANCH  14  15
ENDBRANCH  13  14
ENDBRANCH   4  13
BRANCH   8  21
HETATM   21  O   UNL     1      -7.004  11.954  68.078  1.00  0.00    -0.069 OA 
HETATM   22  C   UNL     1      -5.869  12.010  67.216  1.00  0.00    -0.142 C  
ENDBRANCH   8  21
BRANCH   8  23
HETATM   23  N   UNL     1      -9.088  13.132  68.582  1.00  0.00    -0.387 N  
HETATM   24  C   UNL     1      -9.907  12.458  67.712  1.00  0.00    -0.203 C  
HETATM   25  H   UNL     1      -9.517  13.592  69.385  1.00  0.00     0.000 HD 
HETATM   26  O   UNL     1      -9.491  11.896  66.705  1.00  0.00    -0.191 OA 
BRANCH  24  27
HETATM   27  C   UNL     1     -11.388  12.521  68.032  1.00  0.00    -0.289 C  
BRANCH  27  28
HETATM   28  S   UNL     1     -12.077  14.136  67.533  1.00  0.00    -0.239 SA 
BRANCH  28  29
HETATM   29  C   UNL     1     -11.736  14.098  65.729  1.00  0.00    -0.359 C  
HETATM   30  C   UNL     1     -12.530  13.109  64.988  1.00  0.00    -0.460 C  
HETATM   31  N   UNL     1     -13.164  12.331  64.404  1.00  0.00    -0.749 NA 
ENDBRANCH  28  29
ENDBRANCH  27  28
ENDBRANCH  24  27
ENDBRANCH   8  23
TORSDOF 8
ENDMDL
MODEL       80
REMARK 921   NORMALIZED FREE ENERGY PREDICTED BY IDOCK:   -4.91 KCAL/MOL
REMARK 922        TOTAL FREE ENERGY PREDICTED BY IDOCK:   -8.31 KCAL/MOL
REMARK 923 INTER-LIGAND FREE ENERGY PREDICTED BY IDOCK:   -7.09 KCAL/MOL
REMARK 924 INTRA-LIGAND FREE ENERGY PREDICTED BY IDOCK:   -1.21 KCAL/MOL
REMARK 927      BINDING AFFINITY PREDICTED BY RF-SCORE:    0.00 PKD
ROOT
HETATM    1  C   UNL     1     -10.658  11.040  65.251  1.00  0.00    -0.214 C  
HETATM    2  S   UNL     1      -8.937  11.083  64.690  1.00  0.00    -0.001 SA 
HETATM    3  C   UNL     1      -8.642   9.346  65.104  1.00  0.00    -0.167 C  
HETATM    4  C   UNL     1      -9.087   8.945  66.505  1.00  0.00    -0.206 C  
HETATM    5  O   UNL     1     -11.431   9.729  69.252  1.00  0.00    -0.085 OA 
HETATM    6  C   UNL     1     -10.062   9.593  67.214  1.00  0.00    -0.211 C  
HETATM    7  N   UNL     1     -10.675  10.694  66.665  1.00  0.00    -0.217 N  
HETATM    8  C   UNL     1     -11.315  12.444  65.641  1.00  0.00    -0.347 C  
HETATM    9  C   UNL     1     -10.437   9.099  68.605  1.00  0.00    -0.207 C  
HETATM   10  O   UNL     1     -12.067  11.847  68.109  1.00  0.00    -0.516 OA 
HETATM   11  C   UNL     1     -11.492  11.697  67.053  1.00  0.00    -0.262 C  
HETATM   12  O   UNL     1      -9.927   8.120  69.136  1.00  0.00    -0.182 OA 
ENDROOT
BRANCH   4  13
HETATM   13  C   UNL     1      -8.233   7.787  67.035  1.00  0.00    -0.117 C  
BRANCH  13  14
HETATM   14  S   UNL     1      -6.524   8.321  67.338  1.00  0.00    -0.058 SA 
BRANCH  14  15
HETATM   15  C   UNL     1      -6.754   9.325  68.728  1.00  0.00    -0.053 A  
HETATM   16  N   UNL     1      -7.028   8.908  69.942  1.00  0.00    -0.048 NA 
HETATM   17  N   UNL     1      -7.024  11.138  69.967  1.00  0.00    -0.096 NA 
HETATM   18  N   UNL     1      -7.203  10.045  70.699  1.00  0.00    -0.320 NA 
HETATM   19  C   UNL     1      -6.460  11.621  67.671  1.00  0.00    -0.075 C  
HETATM   20  N   UNL     1      -6.739  10.690  68.728  1.00  0.00    -0.053 NA 
ENDBRANCH  14  15
ENDBRANCH  13  14
ENDBRANCH   4  13
BRANCH   8  21
HETATM   21  O   UNL     1     -12.572  12.735  64.966  1.00  0.00    -0.503 OA 
HETATM   22  C   UNL     1     -12.677  12.277  63.619  1.00  0.00    -0.411 C  
ENDBRANCH   8  21
BRANCH   8  23
HETATM   23  N   UNL     1     -10.363  13.595  65.570  1.00  0.00    -0.299 N  
HETATM   24  C   UNL     1     -10.505  14.755  66.288  1.00  0.00    -0.296 C  
HETATM   25  H   UNL     1      -9.557  13.512  64.950  1.00  0.00     0.000 HD 
HETATM   26  O   UNL     1     -11.452  14.961  67.039  1.00  0.00    -0.353 OA 
BRANCH  24  27
HETATM   27  C   UNL     1      -9.451  15.814  66.030  1.00  0.00    -0.357 C  
BRANCH  27  28
HETATM   28  S   UNL     1      -9.309  16.931  67.465  1.00  0.00    -0.233 SA 
BRANCH  28  29
HETATM   29  C   UNL     1     -10.514  18.233  66.994  1.00  0.00    -0.385 C  
HETATM   30  C   UNL     1      -9.991  19.603  67.101  1.00  0.00    -0.387 C  
HETATM   31  N   UNL     1      -9.574  20.683  67.180  1.00  0.00    -0.430 NA 
ENDBRANCH  28  29
ENDBRANCH  27  28
ENDBRANCH  24  27
ENDBRANCH   8  23
TORSDOF 8
ENDMDL
MODEL       81
REMARK 921   NORMALIZED FREE ENERGY PREDICTED BY IDOCK:   -4.91 KCAL/MOL
REMARK 922        TOTAL FREE ENERGY PREDICTED BY IDOCK:   -8.30 KCAL/MOL
REMARK 923 INTER-LIGAND FREE ENERGY PREDICTED BY IDOCK:   -7.23 KCAL/MOL
REMARK 924 INTRA-LIGAND FREE ENERGY PREDICTED BY IDOCK:   -1.06 KCAL/MOL
REMARK 927      BINDING AFFINITY PREDICTED BY RF-SCORE:    0.00 PKD
ROOT
HETATM    1  C   UNL     1      -9.552  10.139  68.282  1.00  0.00    -0.141 C  
HETATM    2  S   UNL     1      -7.947  10.722  68.885  1.00  0.00    -0.144 SA 
HETATM    3  C   UNL     1      -7.802   9.400  70.111  1.00  0.00    -0.142 C  
HETATM    4  C   UNL     1      -9.037   9.207  70.983  1.00  0.00    -0.305 C  
HETATM    5  O   UNL     1     -12.705   9.639  71.134  1.00  0.00    -0.321 OA 
HETATM    6  C   UNL     1     -10.303   9.567  70.607  1.00  0.00    -0.302 C  
HETATM    7  N   UNL     1     -10.499  10.168  69.387  1.00  0.00    -0.217 N  
HETATM    8  C   UNL     1     -10.467  11.219  67.538  1.00  0.00    -0.201 C  
HETATM    9  C   UNL     1     -11.470   9.318  71.555  1.00  0.00    -0.384 C  
HETATM   10  O   UNL     1     -12.634  10.989  69.043  1.00  0.00    -0.378 OA 
HETATM   11  C   UNL     1     -11.476  10.828  68.728  1.00  0.00    -0.295 C  
HETATM   12  O   UNL     1     -11.350   8.780  72.648  1.00  0.00    -0.206 OA 
ENDROOT
BRANCH   4  13
HETATM   13  C   UNL     1      -8.650   8.647  72.356  1.00  0.00    -0.075 C  
BRANCH  13  14
HETATM   14  S   UNL     1      -8.063   6.934  72.223  1.00  0.00    -0.093 SA 
BRANCH  14  15
HETATM   15  C   UNL     1      -9.385   6.094  72.955  1.00  0.00    -0.139 A  
HETATM   16  N   UNL     1      -9.508   5.814  74.232  1.00  0.00    -0.141 NA 
HETATM   17  N   UNL     1     -11.247   4.915  73.164  1.00  0.00    -0.317 NA 
HETATM   18  N   UNL     1     -10.664   5.074  74.345  1.00  0.00    -0.346 NA 
HETATM   19  C   UNL     1     -10.798   5.606  70.896  1.00  0.00    -0.224 C  
HETATM   20  N   UNL     1     -10.448   5.556  72.287  1.00  0.00    -0.209 NA 
ENDBRANCH  14  15
ENDBRANCH  13  14
ENDBRANCH   4  13
BRANCH   8  21
HETATM   21  O   UNL     1     -10.929  10.817  66.217  1.00  0.00    -0.142 OA 
HETATM   22  C   UNL     1      -9.913  10.611  65.237  1.00  0.00    -0.294 C  
ENDBRANCH   8  21
BRANCH   8  23
HETATM   23  N   UNL     1      -9.889  12.598  67.533  1.00  0.00    -0.200 N  
HETATM   24  C   UNL     1     -10.636  13.743  67.422  1.00  0.00    -0.260 C  
HETATM   25  H   UNL     1      -8.877  12.693  67.617  1.00  0.00     0.000 HD 
HETATM   26  O   UNL     1     -11.855  13.733  67.290  1.00  0.00    -0.360 OA 
BRANCH  24  27
HETATM   27  C   UNL     1      -9.844  15.036  67.390  1.00  0.00    -0.224 C  
BRANCH  27  28
HETATM   28  S   UNL     1      -9.846  15.739  65.706  1.00  0.00    -0.335 SA 
BRANCH  28  29
HETATM   29  C   UNL     1     -10.435  17.442  66.058  1.00  0.00    -0.276 C  
HETATM   30  C   UNL     1      -9.502  18.247  66.858  1.00  0.00    -0.290 C  
HETATM   31  N   UNL     1      -8.761  18.883  67.485  1.00  0.00    -0.273 NA 
ENDBRANCH  28  29
ENDBRANCH  27  28
ENDBRANCH  24  27
ENDBRANCH   8  23
TORSDOF 8
ENDMDL
MODEL       82
REMARK 921   NORMALIZED FREE ENERGY PREDICTED BY IDOCK:   -4.90 KCAL/MOL
REMARK 922        TOTAL FREE ENERGY PREDICTED BY IDOCK:   -8.28 KCAL/MOL
REMARK 923 INTER-LIGAND FREE ENERGY PREDICTED BY IDOCK:   -8.61 KCAL/MOL
REMARK 924 INTRA-LIGAND FREE ENERGY PREDICTED BY IDOCK:    0.33 KCAL/MOL
REMARK 927      BINDING AFFINITY PREDICTED BY RF-SCORE:    0.00 PKD
ROOT
HETATM    1  C   UNL     1     -10.256  14.385  66.111  1.00  0.00    -0.306 C  
HETATM    2  S   UNL     1     -10.783  16.024  66.671  1.00  0.00    -0.189 SA 
HETATM    3  C   UNL     1      -9.211  16.803  66.230  1.00  0.00    -0.279 C  
HETATM    4  C   UNL     1      -7.976  16.070  66.738  1.00  0.00    -0.302 C  
HETATM    5  O   UNL     1      -6.643  12.773  67.747  1.00  0.00    -0.100 OA 
HETATM    6  C   UNL     1      -7.945  14.732  67.027  1.00  0.00    -0.104 C  
HETATM    7  N   UNL     1      -9.090  13.985  66.886  1.00  0.00    -0.248 N  
HETATM    8  C   UNL     1     -11.034  13.135  66.736  1.00  0.00    -0.279 C  
HETATM    9  C   UNL     1      -6.651  14.098  67.520  1.00  0.00    -0.076 C  
HETATM   10  O   UNL     1      -8.945  11.827  67.705  1.00  0.00    -0.161 OA 
HETATM   11  C   UNL     1      -9.547  12.759  67.221  1.00  0.00    -0.208 C  
HETATM   12  O   UNL     1      -5.603  14.716  67.656  1.00  0.00    -0.308 OA 
ENDROOT
BRANCH   4  13
HETATM   13  C   UNL     1      -6.819  17.049  66.967  1.00  0.00    -0.196 C  
BRANCH  13  14
HETATM   14  S   UNL     1      -6.916  17.802  68.616  1.00  0.00    -0.254 SA 
BRANCH  14  15
HETATM   15  C   UNL     1      -8.229  18.902  68.380  1.00  0.00    -0.342 A  
HETATM   16  N   UNL     1      -9.433  18.785  68.889  1.00  0.00    -0.319 NA 
HETATM   17  N   UNL     1      -9.417  20.588  67.577  1.00  0.00    -0.401 NA 
HETATM   18  N   UNL     1     -10.163  19.833  68.375  1.00  0.00    -0.452 NA 
HETATM   19  C   UNL     1      -7.124  20.587  66.826  1.00  0.00    -0.275 C  
HETATM   20  N   UNL     1      -8.200  20.008  67.579  1.00  0.00    -0.321 NA 
ENDBRANCH  14  15
ENDBRANCH  13  14
ENDBRANCH   4  13
BRANCH   8  21
HETATM   21  O   UNL     1     -11.586  12.212  65.755  1.00  0.00    -0.366 OA 
HETATM   22  C   UNL     1     -11.391  12.565  64.387  1.00  0.00    -0.343 C  
ENDBRANCH   8  21
BRANCH   8  23
HETATM   23  N   UNL     1     -12.038  13.511  67.779  1.00  0.00    -0.327 N  
HETATM   24  C   UNL     1     -11.723  13.778  69.087  1.00  0.00    -0.334 C  
HETATM   25  H   UNL     1     -13.017  13.572  67.500  1.00  0.00     0.000 HD 
HETATM   26  O   UNL     1     -10.580  13.705  69.525  1.00  0.00     0.038 OA 
BRANCH  24  27
HETATM   27  C   UNL     1     -12.901  14.092  69.989  1.00  0.00     0.059 C  
BRANCH  27  28
HETATM   28  S   UNL     1     -12.640  15.683  70.843  1.00  0.00    -0.404 SA 
BRANCH  28  29
HETATM   29  C   UNL     1     -13.731  15.459  72.302  1.00  0.00    -0.526 C  
HETATM   30  C   UNL     1     -13.152  15.938  73.565  1.00  0.00    -0.565 C  
HETATM   31  N   UNL     1     -12.694  16.323  74.560  1.00  0.00    -0.718 NA 
ENDBRANCH  28  29
ENDBRANCH  27  28
ENDBRANCH  24  27
ENDBRANCH   8  23
TORSDOF 8
ENDMDL
MODEL       83
REMARK 921   NORMALIZED FREE ENERGY PREDICTED BY IDOCK:   -4.89 KCAL/MOL
REMARK 922        TOTAL FREE ENERGY PREDICTED BY IDOCK:   -8.26 KCAL/MOL
REMARK 923 INTER-LIGAND FREE ENERGY PREDICTED BY IDOCK:   -8.11 KCAL/MOL
REMARK 924 INTRA-LIGAND FREE ENERGY PREDICTED BY IDOCK:   -0.15 KCAL/MOL
REMARK 927      BINDING AFFINITY PREDICTED BY RF-SCORE:    0.00 PKD
ROOT
HETATM    1  C   UNL     1     -10.503  11.464  67.072  1.00  0.00    -0.236 C  
HETATM    2  S   UNL     1     -11.778  11.941  68.266  1.00  0.00    -0.293 SA 
HETATM    3  C   UNL     1     -11.297  13.685  68.252  1.00  0.00    -0.289 C  
HETATM    4  C   UNL     1      -9.804  13.932  68.433  1.00  0.00    -0.229 C  
HETATM    5  O   UNL     1      -6.440  12.474  67.966  1.00  0.00    -0.068 OA 
HETATM    6  C   UNL     1      -8.834  13.019  68.119  1.00  0.00    -0.194 C  
HETATM    7  N   UNL     1      -9.199  11.786  67.635  1.00  0.00    -0.176 N  
HETATM    8  C   UNL     1     -10.065   9.926  67.073  1.00  0.00    -0.218 C  
HETATM    9  C   UNL     1      -7.368  13.375  68.331  1.00  0.00    -0.112 C  
HETATM   10  O   UNL     1      -7.466  10.265  67.450  1.00  0.00    -0.093 OA 
HETATM   11  C   UNL     1      -8.633  10.584  67.395  1.00  0.00    -0.122 C  
HETATM   12  O   UNL     1      -6.989  14.461  68.753  1.00  0.00    -0.088 OA 
ENDROOT
BRANCH   4  13
HETATM   13  C   UNL     1      -9.556  15.291  69.097  1.00  0.00    -0.243 C  
BRANCH  13  14
HETATM   14  S   UNL     1     -10.992  16.385  68.906  1.00  0.00    -0.323 SA 
BRANCH  14  15
HETATM   15  C   UNL     1     -10.391  17.481  67.710  1.00  0.00    -0.367 A  
HETATM   16  N   UNL     1     -10.003  18.717  67.924  1.00  0.00    -0.337 NA 
HETATM   17  N   UNL     1      -9.858  18.323  65.734  1.00  0.00    -0.483 NA 
HETATM   18  N   UNL     1      -9.684  19.230  66.687  1.00  0.00    -0.332 NA 
HETATM   19  C   UNL     1     -10.571  16.020  65.635  1.00  0.00    -0.377 C  
HETATM   20  N   UNL     1     -10.300  17.221  66.373  1.00  0.00    -0.333 NA 
ENDBRANCH  14  15
ENDBRANCH  13  14
ENDBRANCH   4  13
BRANCH   8  21
HETATM   21  O   UNL     1     -10.136   9.273  65.774  1.00  0.00    -0.268 OA 
HETATM   22  C   UNL     1     -10.018  10.129  64.639  1.00  0.00    -0.234 C  
ENDBRANCH   8  21
BRANCH   8  23
HETATM   23  N   UNL     1     -10.721   9.115  68.145  1.00  0.00    -0.415 N  
HETATM   24  C   UNL     1     -10.216   8.962  69.410  1.00  0.00    -0.209 C  
HETATM   25  H   UNL     1     -11.599   8.646  67.920  1.00  0.00     0.000 HD 
HETATM   26  O   UNL     1      -9.156   9.463  69.769  1.00  0.00    -0.163 OA 
BRANCH  24  27
HETATM   27  C   UNL     1     -11.016   8.056  70.326  1.00  0.00    -0.242 C  
BRANCH  27  28
HETATM   28  S   UNL     1     -11.463   8.938  71.859  1.00  0.00    -0.368 SA 
BRANCH  28  29
HETATM   29  C   UNL     1     -13.022   9.753  71.332  1.00  0.00    -0.395 C  
HETATM   30  C   UNL     1     -13.131  11.161  71.737  1.00  0.00    -0.431 C  
HETATM   31  N   UNL     1     -13.211  12.275  72.053  1.00  0.00    -0.474 NA 
ENDBRANCH  28  29
ENDBRANCH  27  28
ENDBRANCH  24  27
ENDBRANCH   8  23
TORSDOF 8
ENDMDL
MODEL       84
REMARK 921   NORMALIZED FREE ENERGY PREDICTED BY IDOCK:   -4.89 KCAL/MOL
REMARK 922        TOTAL FREE ENERGY PREDICTED BY IDOCK:   -8.26 KCAL/MOL
REMARK 923 INTER-LIGAND FREE ENERGY PREDICTED BY IDOCK:   -7.26 KCAL/MOL
REMARK 924 INTRA-LIGAND FREE ENERGY PREDICTED BY IDOCK:   -1.00 KCAL/MOL
REMARK 927      BINDING AFFINITY PREDICTED BY RF-SCORE:    0.00 PKD
ROOT
HETATM    1  C   UNL     1      -8.653   7.873  70.357  1.00  0.00    -0.132 C  
HETATM    2  S   UNL     1      -8.747   8.901  68.869  1.00  0.00    -0.137 SA 
HETATM    3  C   UNL     1      -9.896  10.079  69.622  1.00  0.00    -0.235 C  
HETATM    4  C   UNL     1     -11.095   9.442  70.312  1.00  0.00    -0.299 C  
HETATM    5  O   UNL     1     -12.315   6.392  72.007  1.00  0.00    -0.337 OA 
HETATM    6  C   UNL     1     -11.105   8.166  70.807  1.00  0.00    -0.259 C  
HETATM    7  N   UNL     1      -9.988   7.379  70.662  1.00  0.00    -0.186 N  
HETATM    8  C   UNL     1      -8.196   6.355  70.145  1.00  0.00    -0.129 C  
HETATM    9  C   UNL     1     -12.358   7.631  71.489  1.00  0.00    -0.330 C  
HETATM   10  O   UNL     1     -10.277   5.166  71.272  1.00  0.00    -0.209 OA 
HETATM   11  C   UNL     1      -9.637   6.082  70.806  1.00  0.00    -0.169 C  
HETATM   12  O   UNL     1     -13.375   8.294  71.650  1.00  0.00    -0.333 OA 
ENDROOT
BRANCH   4  13
HETATM   13  C   UNL     1     -12.302  10.388  70.287  1.00  0.00    -0.250 C  
BRANCH  13  14
HETATM   14  S   UNL     1     -11.797  12.081  69.871  1.00  0.00    -0.288 SA 
BRANCH  14  15
HETATM   15  C   UNL     1     -12.707  12.973  71.041  1.00  0.00    -0.262 A  
HETATM   16  N   UNL     1     -13.449  12.460  71.995  1.00  0.00    -0.454 NA 
HETATM   17  N   UNL     1     -13.661  14.678  72.080  1.00  0.00    -0.401 NA 
HETATM   18  N   UNL     1     -14.042  13.530  72.626  1.00  0.00    -0.729 NA 
HETATM   19  C   UNL     1     -12.191  15.349  70.289  1.00  0.00    -0.380 C  
HETATM   20  N   UNL     1     -12.819  14.334  71.086  1.00  0.00    -0.341 NA 
ENDBRANCH  14  15
ENDBRANCH  13  14
ENDBRANCH   4  13
BRANCH   8  21
HETATM   21  O   UNL     1      -7.077   5.936  70.975  1.00  0.00    -0.065 OA 
HETATM   22  C   UNL     1      -6.266   6.984  71.504  1.00  0.00    -0.037 C  
ENDBRANCH   8  21
BRANCH   8  23
HETATM   23  N   UNL     1      -8.001   5.980  68.710  1.00  0.00    -0.103 N  
HETATM   24  C   UNL     1      -7.954   4.687  68.254  1.00  0.00    -0.084 C  
HETATM   25  H   UNL     1      -7.896   6.732  68.029  1.00  0.00     0.000 HD 
HETATM   26  O   UNL     1      -8.044   3.716  68.997  1.00  0.00    -0.058 OA 
BRANCH  24  27
HETATM   27  C   UNL     1      -7.699   4.530  66.768  1.00  0.00    -0.090 C  
BRANCH  27  28
HETATM   28  S   UNL     1      -8.747   3.204  66.080  1.00  0.00    -0.137 SA 
BRANCH  28  29
HETATM   29  C   UNL     1     -10.149   4.193  65.428  1.00  0.00    -0.197 C  
HETATM   30  C   UNL     1     -10.607   5.256  66.333  1.00  0.00    -0.276 C  
HETATM   31  N   UNL     1     -10.962   6.099  67.047  1.00  0.00    -0.351 NA 
ENDBRANCH  28  29
ENDBRANCH  27  28
ENDBRANCH  24  27
ENDBRANCH   8  23
TORSDOF 8
ENDMDL
MODEL       85
REMARK 921   NORMALIZED FREE ENERGY PREDICTED BY IDOCK:   -4.89 KCAL/MOL
REMARK 922        TOTAL FREE ENERGY PREDICTED BY IDOCK:   -8.26 KCAL/MOL
REMARK 923 INTER-LIGAND FREE ENERGY PREDICTED BY IDOCK:   -7.53 KCAL/MOL
REMARK 924 INTRA-LIGAND FREE ENERGY PREDICTED BY IDOCK:   -0.73 KCAL/MOL
REMARK 927      BINDING AFFINITY PREDICTED BY RF-SCORE:    0.00 PKD
ROOT
HETATM    1  C   UNL     1     -10.631  12.561  67.188  1.00  0.00    -0.228 C  
HETATM    2  S   UNL     1      -8.881  12.136  67.004  1.00  0.00    -0.207 SA 
HETATM    3  C   UNL     1      -9.130  10.418  67.516  1.00  0.00    -0.134 C  
HETATM    4  C   UNL     1      -9.933  10.250  68.800  1.00  0.00    -0.187 C  
HETATM    5  O   UNL     1     -12.495  11.799  70.965  1.00  0.00    -0.372 OA 
HETATM    6  C   UNL     1     -10.829  11.171  69.268  1.00  0.00    -0.229 C  
HETATM    7  N   UNL     1     -11.017  12.342  68.574  1.00  0.00    -0.232 N  
HETATM    8  C   UNL     1     -10.970  14.110  67.392  1.00  0.00    -0.299 C  
HETATM    9  C   UNL     1     -11.587  10.896  70.561  1.00  0.00    -0.300 C  
HETATM   10  O   UNL     1     -12.325  13.912  69.659  1.00  0.00    -0.328 OA 
HETATM   11  C   UNL     1     -11.610  13.542  68.754  1.00  0.00    -0.325 C  
HETATM   12  O   UNL     1     -11.462   9.866  71.212  1.00  0.00    -0.365 OA 
ENDROOT
BRANCH   4  13
HETATM   13  C   UNL     1      -9.527   8.963  69.528  1.00  0.00    -0.159 C  
BRANCH  13  14
HETATM   14  S   UNL     1      -8.178   8.116  68.658  1.00  0.00    -0.126 SA 
BRANCH  14  15
HETATM   15  C   UNL     1      -8.974   6.650  68.200  1.00  0.00    -0.121 A  
HETATM   16  N   UNL     1      -9.577   6.427  67.055  1.00  0.00    -0.136 NA 
HETATM   17  N   UNL     1      -9.863   4.629  68.343  1.00  0.00    -0.132 NA 
HETATM   18  N   UNL     1     -10.132   5.171  67.162  1.00  0.00    -0.194 NA 
HETATM   19  C   UNL     1      -8.644   5.282  70.320  1.00  0.00    -0.121 C  
HETATM   20  N   UNL     1      -9.134   5.554  68.998  1.00  0.00    -0.113 NA 
ENDBRANCH  14  15
ENDBRANCH  13  14
ENDBRANCH   4  13
BRANCH   8  21
HETATM   21  O   UNL     1     -11.949  14.646  66.458  1.00  0.00    -0.362 OA 
HETATM   22  C   UNL     1     -12.774  13.687  65.801  1.00  0.00    -0.416 C  
ENDBRANCH   8  21
BRANCH   8  23
HETATM   23  N   UNL     1      -9.759  14.982  67.496  1.00  0.00    -0.214 N  
HETATM   24  C   UNL     1      -9.788  16.289  67.913  1.00  0.00    -0.237 C  
HETATM   25  H   UNL     1      -8.857  14.581  67.242  1.00  0.00     0.000 HD 
HETATM   26  O   UNL     1     -10.825  16.869  68.215  1.00  0.00    -0.362 OA 
BRANCH  24  27
HETATM   27  C   UNL     1      -8.452  17.006  67.898  1.00  0.00    -0.209 C  
BRANCH  27  28
HETATM   28  S   UNL     1      -8.653  18.734  68.450  1.00  0.00    -0.348 SA 
BRANCH  28  29
HETATM   29  C   UNL     1      -6.897  19.212  68.692  1.00  0.00    -0.287 C  
HETATM   30  C   UNL     1      -6.623  19.859  69.982  1.00  0.00    -0.266 C  
HETATM   31  N   UNL     1      -6.409  20.365  71.005  1.00  0.00    -0.521 NA 
ENDBRANCH  28  29
ENDBRANCH  27  28
ENDBRANCH  24  27
ENDBRANCH   8  23
TORSDOF 8
ENDMDL
MODEL       86
REMARK 921   NORMALIZED FREE ENERGY PREDICTED BY IDOCK:   -4.88 KCAL/MOL
REMARK 922        TOTAL FREE ENERGY PREDICTED BY IDOCK:   -8.25 KCAL/MOL
REMARK 923 INTER-LIGAND FREE ENERGY PREDICTED BY IDOCK:   -8.00 KCAL/MOL
REMARK 924 INTRA-LIGAND FREE ENERGY PREDICTED BY IDOCK:   -0.25 KCAL/MOL
REMARK 927      BINDING AFFINITY PREDICTED BY RF-SCORE:    0.00 PKD
ROOT
HETATM    1  C   UNL     1     -11.721   8.250  70.519  1.00  0.00    -0.066 C  
HETATM    2  S   UNL     1     -12.105   8.808  72.199  1.00  0.00    -0.357 SA 
HETATM    3  C   UNL     1     -12.909  10.325  71.631  1.00  0.00    -0.463 C  
HETATM    4  C   UNL     1     -12.105  11.126  70.614  1.00  0.00    -0.477 C  
HETATM    5  O   UNL     1      -9.524  10.904  67.979  1.00  0.00    -0.156 OA 
HETATM    6  C   UNL     1     -11.154  10.585  69.792  1.00  0.00    -0.295 C  
HETATM    7  N   UNL     1     -10.866   9.245  69.887  1.00  0.00    -0.233 N  
HETATM    8  C   UNL     1     -10.521   7.203  70.374  1.00  0.00    -0.218 C  
HETATM    9  C   UNL     1     -10.415  11.478  68.804  1.00  0.00    -0.204 C  
HETATM   10  O   UNL     1      -9.032   8.559  68.654  1.00  0.00    -0.139 OA 
HETATM   11  C   UNL     1      -9.929   8.377  69.448  1.00  0.00    -0.191 C  
HETATM   12  O   UNL     1     -10.639  12.675  68.676  1.00  0.00    -0.235 OA 
ENDROOT
BRANCH   4  13
HETATM   13  C   UNL     1     -12.441  12.619  70.711  1.00  0.00    -0.270 C  
BRANCH  13  14
HETATM   14  S   UNL     1     -13.585  12.945  72.083  1.00  0.00    -0.382 SA 
BRANCH  14  15
HETATM   15  C   UNL     1     -12.925  14.422  72.694  1.00  0.00    -0.445 A  
HETATM   16  N   UNL     1     -12.765  14.729  73.961  1.00  0.00    -0.453 NA 
HETATM   17  N   UNL     1     -12.145  16.493  72.745  1.00  0.00    -0.466 NA 
HETATM   18  N   UNL     1     -12.288  16.020  73.977  1.00  0.00    -0.563 NA 
HETATM   19  C   UNL     1     -12.493  15.654  70.510  1.00  0.00    -0.398 C  
HETATM   20  N   UNL     1     -12.542  15.491  71.935  1.00  0.00    -0.372 NA 
ENDBRANCH  14  15
ENDBRANCH  13  14
ENDBRANCH   4  13
BRANCH   8  21
HETATM   21  O   UNL     1     -10.860   5.990  69.644  1.00  0.00    -0.298 OA 
HETATM   22  C   UNL     1     -11.032   6.136  68.236  1.00  0.00    -0.308 C  
ENDBRANCH   8  21
BRANCH   8  23
HETATM   23  N   UNL     1      -9.822   6.905  71.662  1.00  0.00    -0.169 N  
HETATM   24  C   UNL     1      -8.633   6.228  71.751  1.00  0.00    -0.133 C  
HETATM   25  H   UNL     1     -10.257   7.225  72.527  1.00  0.00     0.000 HD 
HETATM   26  O   UNL     1      -8.046   5.781  70.772  1.00  0.00    -0.113 OA 
BRANCH  24  27
HETATM   27  C   UNL     1      -8.123   5.992  73.159  1.00  0.00    -0.115 C  
BRANCH  27  28
HETATM   28  S   UNL     1      -6.326   5.671  73.138  1.00  0.00    -0.063 SA 
BRANCH  28  29
HETATM   29  C   UNL     1      -5.706   7.204  73.935  1.00  0.00    -0.054 C  
HETATM   30  C   UNL     1      -6.039   8.437  73.208  1.00  0.00    -0.101 C  
HETATM   31  N   UNL     1      -6.309   9.409  72.635  1.00  0.00    -0.266 NA 
ENDBRANCH  28  29
ENDBRANCH  27  28
ENDBRANCH  24  27
ENDBRANCH   8  23
TORSDOF 8
ENDMDL
MODEL       87
REMARK 921   NORMALIZED FREE ENERGY PREDICTED BY IDOCK:   -4.87 KCAL/MOL
REMARK 922        TOTAL FREE ENERGY PREDICTED BY IDOCK:   -8.24 KCAL/MOL
REMARK 923 INTER-LIGAND FREE ENERGY PREDICTED BY IDOCK:   -7.20 KCAL/MOL
REMARK 924 INTRA-LIGAND FREE ENERGY PREDICTED BY IDOCK:   -1.04 KCAL/MOL
REMARK 927      BINDING AFFINITY PREDICTED BY RF-SCORE:    0.00 PKD
ROOT
HETATM    1  C   UNL     1      -8.856   9.027  67.755  1.00  0.00    -0.124 C  
HETATM    2  S   UNL     1      -8.933  10.225  69.111  1.00  0.00    -0.178 SA 
HETATM    3  C   UNL     1      -8.142   9.106  70.293  1.00  0.00    -0.148 C  
HETATM    4  C   UNL     1      -8.741   7.706  70.338  1.00  0.00    -0.143 C  
HETATM    5  O   UNL     1     -10.585   5.164  68.390  1.00  0.00    -0.076 OA 
HETATM    6  C   UNL     1      -9.419   7.129  69.298  1.00  0.00    -0.152 C  
HETATM    7  N   UNL     1      -9.611   7.844  68.140  1.00  0.00    -0.150 N  
HETATM    8  C   UNL     1      -9.895   9.238  66.559  1.00  0.00    -0.263 C  
HETATM    9  C   UNL     1      -9.968   5.716  69.447  1.00  0.00    -0.197 C  
HETATM   10  O   UNL     1     -11.033   6.847  66.611  1.00  0.00    -0.234 OA 
HETATM   11  C   UNL     1     -10.341   7.759  67.007  1.00  0.00    -0.334 C  
HETATM   12  O   UNL     1      -9.818   5.035  70.454  1.00  0.00    -0.192 OA 
ENDROOT
BRANCH   4  13
HETATM   13  C   UNL     1      -8.560   7.083  71.727  1.00  0.00    -0.114 C  
BRANCH  13  14
HETATM   14  S   UNL     1      -9.512   7.989  72.979  1.00  0.00    -0.268 SA 
BRANCH  14  15
HETATM   15  C   UNL     1     -11.124   7.648  72.453  1.00  0.00    -0.310 A  
HETATM   16  N   UNL     1     -11.739   6.493  72.554  1.00  0.00    -0.216 NA 
HETATM   17  N   UNL     1     -13.096   7.901  71.482  1.00  0.00    -0.330 NA 
HETATM   18  N   UNL     1     -12.959   6.662  71.939  1.00  0.00    -0.230 NA 
HETATM   19  C   UNL     1     -11.761   9.910  71.477  1.00  0.00    -0.337 C  
HETATM   20  N   UNL     1     -11.947   8.525  71.806  1.00  0.00    -0.309 NA 
ENDBRANCH  14  15
ENDBRANCH  13  14
ENDBRANCH   4  13
BRANCH   8  21
HETATM   21  O   UNL     1      -9.294   9.298  65.235  1.00  0.00    -0.241 OA 
HETATM   22  C   UNL     1      -7.918   8.928  65.157  1.00  0.00    -0.122 C  
ENDBRANCH   8  21
BRANCH   8  23
HETATM   23  N   UNL     1     -10.857  10.361  66.788  1.00  0.00    -0.169 N  
HETATM   24  C   UNL     1     -10.591  11.673  66.490  1.00  0.00    -0.253 C  
HETATM   25  H   UNL     1     -11.768  10.136  67.189  1.00  0.00     0.000 HD 
HETATM   26  O   UNL     1      -9.517  12.046  66.030  1.00  0.00    -0.234 OA 
BRANCH  24  27
HETATM   27  C   UNL     1     -11.688  12.657  66.848  1.00  0.00    -0.383 C  
BRANCH  27  28
HETATM   28  S   UNL     1     -12.535  13.237  65.340  1.00  0.00    -0.469 SA 
BRANCH  28  29
HETATM   29  C   UNL     1     -11.467  14.659  64.885  1.00  0.00    -0.401 C  
HETATM   30  C   UNL     1     -10.887  15.367  66.035  1.00  0.00    -0.314 C  
HETATM   31  N   UNL     1     -10.425  15.920  66.945  1.00  0.00    -0.306 NA 
ENDBRANCH  28  29
ENDBRANCH  27  28
ENDBRANCH  24  27
ENDBRANCH   8  23
TORSDOF 8
ENDMDL
MODEL       88
REMARK 921   NORMALIZED FREE ENERGY PREDICTED BY IDOCK:   -4.85 KCAL/MOL
REMARK 922        TOTAL FREE ENERGY PREDICTED BY IDOCK:   -8.21 KCAL/MOL
REMARK 923 INTER-LIGAND FREE ENERGY PREDICTED BY IDOCK:   -7.31 KCAL/MOL
REMARK 924 INTRA-LIGAND FREE ENERGY PREDICTED BY IDOCK:   -0.91 KCAL/MOL
REMARK 927      BINDING AFFINITY PREDICTED BY RF-SCORE:    0.00 PKD
ROOT
HETATM    1  C   UNL     1     -10.381  12.240  66.298  1.00  0.00    -0.232 C  
HETATM    2  S   UNL     1     -11.741  11.905  67.446  1.00  0.00    -0.181 SA 
HETATM    3  C   UNL     1     -11.675  13.556  68.181  1.00  0.00    -0.361 C  
HETATM    4  C   UNL     1     -10.281  14.009  68.598  1.00  0.00    -0.233 C  
HETATM    5  O   UNL     1      -6.668  13.607  67.932  1.00  0.00    -0.118 OA 
HETATM    6  C   UNL     1      -9.124  13.531  68.045  1.00  0.00    -0.201 C  
HETATM    7  N   UNL     1      -9.192  12.563  67.073  1.00  0.00    -0.207 N  
HETATM    8  C   UNL     1      -9.601  10.967  65.727  1.00  0.00    -0.216 C  
HETATM    9  C   UNL     1      -7.781  14.063  68.531  1.00  0.00    -0.139 C  
HETATM   10  O   UNL     1      -7.153  11.650  66.471  1.00  0.00    -0.075 OA 
HETATM   11  C   UNL     1      -8.362  11.713  66.430  1.00  0.00    -0.084 C  
HETATM   12  O   UNL     1      -7.667  14.929  69.388  1.00  0.00    -0.175 OA 
ENDROOT
BRANCH   4  13
HETATM   13  C   UNL     1     -10.358  14.991  69.772  1.00  0.00    -0.155 C  
BRANCH  13  14
HETATM   14  S   UNL     1     -12.034  15.666  69.953  1.00  0.00    -0.332 SA 
BRANCH  14  15
HETATM   15  C   UNL     1     -12.236  15.544  71.666  1.00  0.00    -0.399 A  
HETATM   16  N   UNL     1     -11.920  16.466  72.547  1.00  0.00    -0.540 NA 
HETATM   17  N   UNL     1     -12.652  14.678  73.659  1.00  0.00    -0.399 NA 
HETATM   18  N   UNL     1     -12.176  15.911  73.780  1.00  0.00    -0.500 NA 
HETATM   19  C   UNL     1     -13.191  13.192  71.836  1.00  0.00    -0.431 C  
HETATM   20  N   UNL     1     -12.695  14.444  72.333  1.00  0.00    -0.332 NA 
ENDBRANCH  14  15
ENDBRANCH  13  14
ENDBRANCH   4  13
BRANCH   8  21
HETATM   21  O   UNL     1      -9.510  10.911  64.275  1.00  0.00    -0.220 OA 
HETATM   22  C   UNL     1     -10.342  11.824  63.563  1.00  0.00    -0.448 C  
ENDBRANCH   8  21
BRANCH   8  23
HETATM   23  N   UNL     1     -10.060   9.668  66.310  1.00  0.00    -0.263 N  
HETATM   24  C   UNL     1      -9.302   8.525  66.330  1.00  0.00    -0.224 C  
HETATM   25  H   UNL     1     -10.994   9.631  66.718  1.00  0.00     0.000 HD 
HETATM   26  O   UNL     1      -8.180   8.462  65.841  1.00  0.00    -0.110 OA 
BRANCH  24  27
HETATM   27  C   UNL     1      -9.979   7.306  66.925  1.00  0.00    -0.232 C  
BRANCH  27  28
HETATM   28  S   UNL     1      -9.980   7.407  68.747  1.00  0.00    -0.174 SA 
BRANCH  28  29
HETATM   29  C   UNL     1      -9.653   5.653  69.178  1.00  0.00    -0.135 C  
HETATM   30  C   UNL     1      -8.695   4.984  68.287  1.00  0.00    -0.102 C  
HETATM   31  N   UNL     1      -7.933   4.461  67.585  1.00  0.00    -0.092 NA 
ENDBRANCH  28  29
ENDBRANCH  27  28
ENDBRANCH  24  27
ENDBRANCH   8  23
TORSDOF 8
ENDMDL
MODEL       89
REMARK 921   NORMALIZED FREE ENERGY PREDICTED BY IDOCK:   -4.84 KCAL/MOL
REMARK 922        TOTAL FREE ENERGY PREDICTED BY IDOCK:   -8.19 KCAL/MOL
REMARK 923 INTER-LIGAND FREE ENERGY PREDICTED BY IDOCK:   -7.64 KCAL/MOL
REMARK 924 INTRA-LIGAND FREE ENERGY PREDICTED BY IDOCK:   -0.55 KCAL/MOL
REMARK 927      BINDING AFFINITY PREDICTED BY RF-SCORE:    0.00 PKD
ROOT
HETATM    1  C   UNL     1      -9.630  11.236  68.851  1.00  0.00    -0.105 C  
HETATM    2  S   UNL     1      -9.369  11.005  67.074  1.00  0.00    -0.174 SA 
HETATM    3  C   UNL     1      -9.064  12.764  66.777  1.00  0.00    -0.209 C  
HETATM    4  C   UNL     1     -10.102  13.698  67.387  1.00  0.00    -0.241 C  
HETATM    5  O   UNL     1     -12.593  14.064  70.092  1.00  0.00    -0.334 OA 
HETATM    6  C   UNL     1     -10.880  13.378  68.466  1.00  0.00    -0.265 C  
HETATM    7  N   UNL     1     -10.760  12.135  69.039  1.00  0.00    -0.169 N  
HETATM    8  C   UNL     1     -10.474  10.103  69.599  1.00  0.00    -0.252 C  
HETATM    9  C   UNL     1     -11.881  14.394  69.001  1.00  0.00    -0.323 C  
HETATM   10  O   UNL     1     -12.353  11.649  70.644  1.00  0.00    -0.359 OA 
HETATM   11  C   UNL     1     -11.416  11.363  69.932  1.00  0.00    -0.273 C  
HETATM   12  O   UNL     1     -12.022  15.516  68.532  1.00  0.00    -0.319 OA 
ENDROOT
BRANCH   4  13
HETATM   13  C   UNL     1     -10.214  14.991  66.570  1.00  0.00    -0.275 C  
BRANCH  13  14
HETATM   14  S   UNL     1      -8.734  16.023  66.771  1.00  0.00    -0.282 SA 
BRANCH  14  15
HETATM   15  C   UNL     1      -9.461  17.525  67.227  1.00  0.00    -0.253 A  
HETATM   16  N   UNL     1     -10.571  18.024  66.734  1.00  0.00    -0.316 NA 
HETATM   17  N   UNL     1      -9.733  19.506  68.175  1.00  0.00    -0.364 NA 
HETATM   18  N   UNL     1     -10.722  19.259  67.325  1.00  0.00    -0.478 NA 
HETATM   19  C   UNL     1      -7.768  18.336  68.945  1.00  0.00    -0.205 C  
HETATM   20  N   UNL     1      -8.940  18.418  68.119  1.00  0.00    -0.301 NA 
ENDBRANCH  14  15
ENDBRANCH  13  14
ENDBRANCH   4  13
BRANCH   8  21
HETATM   21  O   UNL     1      -9.820   9.529  70.766  1.00  0.00    -0.272 OA 
HETATM   22  C   UNL     1     -10.686   8.978  71.757  1.00  0.00    -0.367 C  
ENDBRANCH   8  21
BRANCH   8  23
HETATM   23  N   UNL     1     -11.011   9.048  68.683  1.00  0.00    -0.448 N  
HETATM   24  C   UNL     1     -10.296   7.953  68.272  1.00  0.00    -0.197 C  
HETATM   25  H   UNL     1     -11.968   9.151  68.345  1.00  0.00     0.000 HD 
HETATM   26  O   UNL     1      -9.132   7.755  68.602  1.00  0.00    -0.137 OA 
BRANCH  24  27
HETATM   27  C   UNL     1     -11.015   7.033  67.304  1.00  0.00    -0.302 C  
BRANCH  27  28
HETATM   28  S   UNL     1      -9.817   5.967  66.434  1.00  0.00    -0.082 SA 
BRANCH  28  29
HETATM   29  C   UNL     1     -10.092   4.376  67.307  1.00  0.00    -0.049 C  
HETATM   30  C   UNL     1      -9.767   4.413  68.740  1.00  0.00    -0.129 C  
HETATM   31  N   UNL     1      -9.516   4.448  69.873  1.00  0.00    -0.163 NA 
ENDBRANCH  28  29
ENDBRANCH  27  28
ENDBRANCH  24  27
ENDBRANCH   8  23
TORSDOF 8
ENDMDL
MODEL       90
REMARK 921   NORMALIZED FREE ENERGY PREDICTED BY IDOCK:   -4.83 KCAL/MOL
REMARK 922        TOTAL FREE ENERGY PREDICTED BY IDOCK:   -8.19 KCAL/MOL
REMARK 923 INTER-LIGAND FREE ENERGY PREDICTED BY IDOCK:   -7.07 KCAL/MOL
REMARK 924 INTRA-LIGAND FREE ENERGY PREDICTED BY IDOCK:   -1.12 KCAL/MOL
REMARK 927      BINDING AFFINITY PREDICTED BY RF-SCORE:    0.00 PKD
ROOT
HETATM    1  C   UNL     1      -8.643   7.474  68.394  1.00  0.00    -0.124 C  
HETATM    2  S   UNL     1     -10.275   7.626  67.624  1.00  0.00    -0.234 SA 
HETATM    3  C   UNL     1      -9.745   8.941  66.501  1.00  0.00    -0.254 C  
HETATM    4  C   UNL     1      -8.994  10.084  67.173  1.00  0.00    -0.146 C  
HETATM    5  O   UNL     1      -6.874  10.998  70.059  1.00  0.00    -0.145 OA 
HETATM    6  C   UNL     1      -8.306   9.961  68.349  1.00  0.00    -0.107 C  
HETATM    7  N   UNL     1      -8.298   8.751  69.001  1.00  0.00    -0.127 N  
HETATM    8  C   UNL     1      -8.604   6.827  69.856  1.00  0.00    -0.141 C  
HETATM    9  C   UNL     1      -7.579  11.168  68.928  1.00  0.00    -0.133 C  
HETATM   10  O   UNL     1      -7.357   8.796  71.114  1.00  0.00    -0.079 OA 
HETATM   11  C   UNL     1      -7.944   8.252  70.205  1.00  0.00    -0.102 C  
HETATM   12  O   UNL     1      -7.549  12.265  68.384  1.00  0.00    -0.116 OA 
ENDROOT
BRANCH   4  13
HETATM   13  C   UNL     1      -9.196  11.394  66.402  1.00  0.00    -0.197 C  
BRANCH  13  14
HETATM   14  S   UNL     1     -10.797  12.150  66.806  1.00  0.00    -0.261 SA 
BRANCH  14  15
HETATM   15  C   UNL     1     -11.447  12.369  65.219  1.00  0.00    -0.344 A  
HETATM   16  N   UNL     1     -11.173  11.634  64.166  1.00  0.00    -0.357 NA 
HETATM   17  N   UNL     1     -12.532  13.280  63.519  1.00  0.00    -0.756 NA 
HETATM   18  N   UNL     1     -11.847  12.217  63.116  1.00  0.00    -0.316 NA 
HETATM   19  C   UNL     1     -12.900  14.421  65.612  1.00  0.00    -0.204 C  
HETATM   20  N   UNL     1     -12.287  13.378  64.840  1.00  0.00    -0.461 NA 
ENDBRANCH  14  15
ENDBRANCH  13  14
ENDBRANCH   4  13
BRANCH   8  21
HETATM   21  O   UNL     1      -7.691   5.703  69.999  1.00  0.00    -0.079 OA 
HETATM   22  C   UNL     1      -8.023   4.532  69.255  1.00  0.00    -0.069 C  
ENDBRANCH   8  21
BRANCH   8  23
HETATM   23  N   UNL     1      -9.957   6.524  70.418  1.00  0.00    -0.178 N  
HETATM   24  C   UNL     1     -10.215   6.367  71.755  1.00  0.00    -0.197 C  
HETATM   25  H   UNL     1     -10.735   6.430  69.765  1.00  0.00     0.000 HD 
HETATM   26  O   UNL     1      -9.343   6.436  72.614  1.00  0.00    -0.143 OA 
BRANCH  24  27
HETATM   27  C   UNL     1     -11.648   6.015  72.104  1.00  0.00    -0.293 C  
BRANCH  27  28
HETATM   28  S   UNL     1     -12.793   7.254  71.408  1.00  0.00    -0.349 SA 
BRANCH  28  29
HETATM   29  C   UNL     1     -12.143   8.783  72.189  1.00  0.00    -0.371 C  
HETATM   30  C   UNL     1     -12.477  10.017  71.465  1.00  0.00    -0.419 C  
HETATM   31  N   UNL     1     -12.748  10.990  70.893  1.00  0.00    -0.363 NA 
ENDBRANCH  28  29
ENDBRANCH  27  28
ENDBRANCH  24  27
ENDBRANCH   8  23
TORSDOF 8
ENDMDL
MODEL       91
REMARK 921   NORMALIZED FREE ENERGY PREDICTED BY IDOCK:   -4.80 KCAL/MOL
REMARK 922        TOTAL FREE ENERGY PREDICTED BY IDOCK:   -8.14 KCAL/MOL
REMARK 923 INTER-LIGAND FREE ENERGY PREDICTED BY IDOCK:   -7.42 KCAL/MOL
REMARK 924 INTRA-LIGAND FREE ENERGY PREDICTED BY IDOCK:   -0.72 KCAL/MOL
REMARK 927      BINDING AFFINITY PREDICTED BY RF-SCORE:    0.00 PKD
ROOT
HETATM    1  C   UNL     1      -8.799   8.670  69.484  1.00  0.00    -0.144 C  
HETATM    2  S   UNL     1      -8.962   7.561  68.062  1.00  0.00    -0.127 SA 
HETATM    3  C   UNL     1      -9.238   8.916  66.896  1.00  0.00    -0.147 C  
HETATM    4  C   UNL     1     -10.293   9.924  67.333  1.00  0.00    -0.301 C  
HETATM    5  O   UNL     1     -11.988  11.420  70.257  1.00  0.00    -0.327 OA 
HETATM    6  C   UNL     1     -10.642  10.149  68.637  1.00  0.00    -0.210 C  
HETATM    7  N   UNL     1     -10.041   9.416  69.632  1.00  0.00    -0.194 N  
HETATM    8  C   UNL     1      -9.075   8.029  70.923  1.00  0.00    -0.148 C  
HETATM    9  C   UNL     1     -11.706  11.190  68.964  1.00  0.00    -0.339 C  
HETATM   10  O   UNL     1     -10.961   9.700  71.736  1.00  0.00    -0.259 OA 
HETATM   11  C   UNL     1     -10.203   9.175  70.951  1.00  0.00    -0.282 C  
HETATM   12  O   UNL     1     -12.266  11.874  68.116  1.00  0.00    -0.470 OA 
ENDROOT
BRANCH   4  13
HETATM   13  C   UNL     1     -10.965  10.570  66.116  1.00  0.00     0.138 C  
BRANCH  13  14
HETATM   14  S   UNL     1      -9.947  11.915  65.444  1.00  0.00    -0.247 SA 
BRANCH  14  15
HETATM   15  C   UNL     1     -11.172  12.903  64.727  1.00  0.00    -0.306 A  
HETATM   16  N   UNL     1     -11.852  12.620  63.640  1.00  0.00    -0.488 NA 
HETATM   17  N   UNL     1     -12.475  14.647  64.329  1.00  0.00    -0.738 NA 
HETATM   18  N   UNL     1     -12.650  13.716  63.400  1.00  0.00    -0.781 NA 
HETATM   19  C   UNL     1     -11.133  14.887  66.320  1.00  0.00    -0.340 C  
HETATM   20  N   UNL     1     -11.549  14.140  65.167  1.00  0.00    -0.330 NA 
ENDBRANCH  14  15
ENDBRANCH  13  14
ENDBRANCH   4  13
BRANCH   8  21
HETATM   21  O   UNL     1      -8.006   8.228  71.891  1.00  0.00    -0.107 OA 
HETATM   22  C   UNL     1      -6.851   8.914  71.413  1.00  0.00    -0.083 C  
ENDBRANCH   8  21
BRANCH   8  23
HETATM   23  N   UNL     1      -9.524   6.603  70.870  1.00  0.00    -0.165 N  
HETATM   24  C   UNL     1      -8.672   5.529  70.878  1.00  0.00    -0.135 C  
HETATM   25  H   UNL     1     -10.526   6.419  70.826  1.00  0.00     0.000 HD 
HETATM   26  O   UNL     1      -7.451   5.647  70.902  1.00  0.00    -0.084 OA 
BRANCH  24  27
HETATM   27  C   UNL     1      -9.336   4.170  70.769  1.00  0.00    -0.153 C  
BRANCH  27  28
HETATM   28  S   UNL     1      -8.955   3.158  72.239  1.00  0.00    -0.097 SA 
BRANCH  28  29
HETATM   29  C   UNL     1     -10.529   3.320  73.170  1.00  0.00    -0.165 C  
HETATM   30  C   UNL     1     -11.065   4.688  73.212  1.00  0.00    -0.321 C  
HETATM   31  N   UNL     1     -11.488   5.768  73.238  1.00  0.00    -0.065 NA 
ENDBRANCH  28  29
ENDBRANCH  27  28
ENDBRANCH  24  27
ENDBRANCH   8  23
TORSDOF 8
ENDMDL
MODEL       92
REMARK 921   NORMALIZED FREE ENERGY PREDICTED BY IDOCK:   -4.76 KCAL/MOL
REMARK 922        TOTAL FREE ENERGY PREDICTED BY IDOCK:   -8.08 KCAL/MOL
REMARK 923 INTER-LIGAND FREE ENERGY PREDICTED BY IDOCK:   -7.47 KCAL/MOL
REMARK 924 INTRA-LIGAND FREE ENERGY PREDICTED BY IDOCK:   -0.60 KCAL/MOL
REMARK 927      BINDING AFFINITY PREDICTED BY RF-SCORE:    0.00 PKD
ROOT
HETATM    1  C   UNL     1     -10.072  10.766  68.630  1.00  0.00    -0.183 C  
HETATM    2  S   UNL     1      -9.828   9.078  69.238  1.00  0.00    -0.184 SA 
HETATM    3  C   UNL     1      -8.480   8.737  68.082  1.00  0.00    -0.130 C  
HETATM    4  C   UNL     1      -8.781   9.101  66.633  1.00  0.00    -0.140 C  
HETATM    5  O   UNL     1     -10.781  11.305  64.443  1.00  0.00    -0.338 OA 
HETATM    6  C   UNL     1      -9.696  10.045  66.255  1.00  0.00    -0.214 C  
HETATM    7  N   UNL     1     -10.423  10.702  67.218  1.00  0.00    -0.231 N  
HETATM    8  C   UNL     1     -11.504  11.422  68.903  1.00  0.00    -0.298 C  
HETATM    9  C   UNL     1      -9.911  10.337  64.775  1.00  0.00    -0.334 C  
HETATM   10  O   UNL     1     -12.133  12.031  66.404  1.00  0.00    -0.610 OA 
HETATM   11  C   UNL     1     -11.502  11.511  67.298  1.00  0.00    -0.263 C  
HETATM   12  O   UNL     1      -9.285   9.786  63.879  1.00  0.00    -0.256 OA 
ENDROOT
BRANCH   4  13
HETATM   13  C   UNL     1      -7.992   8.202  65.673  1.00  0.00    -0.108 C  
BRANCH  13  14
HETATM   14  S   UNL     1      -7.516   6.645  66.475  1.00  0.00    -0.079 SA 
BRANCH  14  15
HETATM   15  C   UNL     1      -8.617   5.552  65.710  1.00  0.00    -0.145 A  
HETATM   16  N   UNL     1      -8.363   4.818  64.651  1.00  0.00    -0.123 NA 
HETATM   17  N   UNL     1     -10.495   4.491  65.217  1.00  0.00    -0.203 NA 
HETATM   18  N   UNL     1      -9.542   4.172  64.351  1.00  0.00    -0.162 NA 
HETATM   19  C   UNL     1     -10.671   5.892  67.173  1.00  0.00    -0.306 C  
HETATM   20  N   UNL     1      -9.918   5.355  66.075  1.00  0.00    -0.124 NA 
ENDBRANCH  14  15
ENDBRANCH  13  14
ENDBRANCH   4  13
BRANCH   8  21
HETATM   21  O   UNL     1     -11.463  12.716  69.567  1.00  0.00    -0.266 OA 
HETATM   22  C   UNL     1     -10.702  13.729  68.911  1.00  0.00    -0.227 C  
ENDBRANCH   8  21
BRANCH   8  23
HETATM   23  N   UNL     1     -12.478  10.490  69.552  1.00  0.00    -0.537 N  
HETATM   24  C   UNL     1     -12.866  10.578  70.865  1.00  0.00    -0.394 C  
HETATM   25  H   UNL     1     -12.879   9.745  68.983  1.00  0.00     0.000 HD 
HETATM   26  O   UNL     1     -12.422  11.422  71.635  1.00  0.00    -0.247 OA 
BRANCH  24  27
HETATM   27  C   UNL     1     -13.827   9.502  71.333  1.00  0.00    -0.160 C  
BRANCH  27  28
HETATM   28  S   UNL     1     -12.968   7.898  71.467  1.00  0.00    -0.279 SA 
BRANCH  28  29
HETATM   29  C   UNL     1     -11.574   8.359  72.570  1.00  0.00    -0.356 C  
HETATM   30  C   UNL     1     -11.006   7.233  73.323  1.00  0.00    -0.311 C  
HETATM   31  N   UNL     1     -10.555   6.340  73.911  1.00  0.00    -0.266 NA 
ENDBRANCH  28  29
ENDBRANCH  27  28
ENDBRANCH  24  27
ENDBRANCH   8  23
TORSDOF 8
ENDMDL
MODEL       93
REMARK 921   NORMALIZED FREE ENERGY PREDICTED BY IDOCK:   -4.71 KCAL/MOL
REMARK 922        TOTAL FREE ENERGY PREDICTED BY IDOCK:   -8.01 KCAL/MOL
REMARK 923 INTER-LIGAND FREE ENERGY PREDICTED BY IDOCK:   -7.88 KCAL/MOL
REMARK 924 INTRA-LIGAND FREE ENERGY PREDICTED BY IDOCK:   -0.13 KCAL/MOL
REMARK 927      BINDING AFFINITY PREDICTED BY RF-SCORE:    0.00 PKD
ROOT
HETATM    1  C   UNL     1     -10.559   8.303  67.264  1.00  0.00    -0.265 C  
HETATM    2  S   UNL     1     -10.473   9.565  68.560  1.00  0.00    -0.212 SA 
HETATM    3  C   UNL     1     -10.976  10.900  67.448  1.00  0.00    -0.293 C  
HETATM    4  C   UNL     1     -10.206  10.953  66.133  1.00  0.00    -0.304 C  
HETATM    5  O   UNL     1      -8.300   8.945  63.686  1.00  0.00    -0.174 OA 
HETATM    6  C   UNL     1      -9.588   9.873  65.564  1.00  0.00    -0.277 C  
HETATM    7  N   UNL     1      -9.622   8.660  66.208  1.00  0.00    -0.245 N  
HETATM    8  C   UNL     1      -9.700   6.976  67.505  1.00  0.00    -0.136 C  
HETATM    9  C   UNL     1      -8.853  10.037  64.239  1.00  0.00    -0.220 C  
HETATM   10  O   UNL     1      -8.276   7.028  65.273  1.00  0.00    -0.133 OA 
HETATM   11  C   UNL     1      -9.025   7.452  66.126  1.00  0.00    -0.149 C  
HETATM   12  O   UNL     1      -8.799  11.093  63.622  1.00  0.00    -0.079 OA 
ENDROOT
BRANCH   4  13
HETATM   13  C   UNL     1     -10.145  12.389  65.598  1.00  0.00    -0.257 C  
BRANCH  13  14
HETATM   14  S   UNL     1     -11.116  13.517  66.637  1.00  0.00    -0.304 SA 
BRANCH  14  15
HETATM   15  C   UNL     1     -11.249  14.878  65.579  1.00  0.00    -0.348 A  
HETATM   16  N   UNL     1     -10.862  16.104  65.847  1.00  0.00    -0.234 NA 
HETATM   17  N   UNL     1     -11.824  16.114  63.835  1.00  0.00    -0.860 NA 
HETATM   18  N   UNL     1     -11.233  16.862  64.759  1.00  0.00    -0.807 NA 
HETATM   19  C   UNL     1     -12.387  13.781  63.584  1.00  0.00    -0.198 C  
HETATM   20  N   UNL     1     -11.834  14.866  64.344  1.00  0.00    -0.398 NA 
ENDBRANCH  14  15
ENDBRANCH  13  14
ENDBRANCH   4  13
BRANCH   8  21
HETATM   21  O   UNL     1     -10.455   5.736  67.396  1.00  0.00    -0.205 OA 
HETATM   22  C   UNL     1     -10.776   5.317  66.071  1.00  0.00    -0.079 C  
ENDBRANCH   8  21
BRANCH   8  23
HETATM   23  N   UNL     1      -8.865   7.016  68.746  1.00  0.00    -0.130 N  
HETATM   24  C   UNL     1      -9.180   6.353  69.905  1.00  0.00    -0.152 C  
HETATM   25  H   UNL     1      -8.009   7.570  68.729  1.00  0.00     0.000 HD 
HETATM   26  O   UNL     1     -10.199   5.684  70.033  1.00  0.00    -0.208 OA 
BRANCH  24  27
HETATM   27  C   UNL     1      -8.221   6.569  71.059  1.00  0.00    -0.121 C  
BRANCH  27  28
HETATM   28  S   UNL     1      -8.245   8.315  71.586  1.00  0.00    -0.149 SA 
BRANCH  28  29
HETATM   29  C   UNL     1      -9.959   8.444  72.231  1.00  0.00    -0.313 C  
HETATM   30  C   UNL     1     -10.301   7.428  73.237  1.00  0.00    -0.355 C  
HETATM   31  N   UNL     1     -10.565   6.628  74.035  1.00  0.00    -0.274 NA 
ENDBRANCH  28  29
ENDBRANCH  27  28
ENDBRANCH  24  27
ENDBRANCH   8  23
TORSDOF 8
ENDMDL
MODEL       94
REMARK 921   NORMALIZED FREE ENERGY PREDICTED BY IDOCK:   -4.71 KCAL/MOL
REMARK 922        TOTAL FREE ENERGY PREDICTED BY IDOCK:   -8.01 KCAL/MOL
REMARK 923 INTER-LIGAND FREE ENERGY PREDICTED BY IDOCK:   -7.17 KCAL/MOL
REMARK 924 INTRA-LIGAND FREE ENERGY PREDICTED BY IDOCK:   -0.84 KCAL/MOL
REMARK 927      BINDING AFFINITY PREDICTED BY RF-SCORE:    0.00 PKD
ROOT
HETATM    1  C   UNL     1     -10.744  11.121  68.441  1.00  0.00    -0.198 C  
HETATM    2  S   UNL     1      -8.935  11.058  68.414  1.00  0.00    -0.162 SA 
HETATM    3  C   UNL     1      -8.876   9.327  68.938  1.00  0.00    -0.135 C  
HETATM    4  C   UNL     1      -9.737   9.004  70.153  1.00  0.00    -0.213 C  
HETATM    5  O   UNL     1     -12.737  10.010  72.063  1.00  0.00    -0.391 OA 
HETATM    6  C   UNL     1     -10.838   9.726  70.526  1.00  0.00    -0.323 C  
HETATM    7  N   UNL     1     -11.197  10.833  69.794  1.00  0.00    -0.277 N  
HETATM    8  C   UNL     1     -11.404  12.570  68.585  1.00  0.00    -0.288 C  
HETATM    9  C   UNL     1     -11.634   9.307  71.755  1.00  0.00    -0.388 C  
HETATM   10  O   UNL     1     -12.883  12.109  70.732  1.00  0.00    -0.168 OA 
HETATM   11  C   UNL     1     -12.032  11.889  69.899  1.00  0.00    -0.325 C  
HETATM   12  O   UNL     1     -11.361   8.327  72.436  1.00  0.00    -0.347 OA 
ENDROOT
BRANCH   4  13
HETATM   13  C   UNL     1      -9.145   7.828  70.939  1.00  0.00    -0.148 C  
BRANCH  13  14
HETATM   14  S   UNL     1      -9.678   6.239  70.241  1.00  0.00    -0.165 SA 
BRANCH  14  15
HETATM   15  C   UNL     1      -8.164   5.627  69.672  1.00  0.00    -0.107 A  
HETATM   16  N   UNL     1      -7.223   5.088  70.413  1.00  0.00    -0.053 NA 
HETATM   17  N   UNL     1      -6.476   5.177  68.314  1.00  0.00    -0.039 NA 
HETATM   18  N   UNL     1      -6.177   4.822  69.558  1.00  0.00    -0.026 NA 
HETATM   19  C   UNL     1      -8.378   6.144  67.190  1.00  0.00    -0.105 C  
HETATM   20  N   UNL     1      -7.724   5.680  68.380  1.00  0.00    -0.091 NA 
ENDBRANCH  14  15
ENDBRANCH  13  14
ENDBRANCH   4  13
BRANCH   8  21
HETATM   21  O   UNL     1     -12.387  12.895  67.561  1.00  0.00    -0.249 OA 
HETATM   22  C   UNL     1     -11.871  13.118  66.250  1.00  0.00    -0.401 C  
ENDBRANCH   8  21
BRANCH   8  23
HETATM   23  N   UNL     1     -10.407  13.670  68.772  1.00  0.00    -0.346 N  
HETATM   24  C   UNL     1     -10.705  14.890  69.324  1.00  0.00    -0.249 C  
HETATM   25  H   UNL     1      -9.447  13.502  68.472  1.00  0.00     0.000 HD 
HETATM   26  O   UNL     1     -11.834  15.197  69.691  1.00  0.00    -0.297 OA 
BRANCH  24  27
HETATM   27  C   UNL     1      -9.556  15.878  69.376  1.00  0.00    -0.265 C  
BRANCH  27  28
HETATM   28  S   UNL     1     -10.053  17.469  68.633  1.00  0.00    -0.374 SA 
BRANCH  28  29
HETATM   29  C   UNL     1      -8.410  18.256  68.404  1.00  0.00    -0.307 C  
HETATM   30  C   UNL     1      -8.082  18.566  67.006  1.00  0.00    -0.248 C  
HETATM   31  N   UNL     1      -7.829  18.816  65.901  1.00  0.00    -0.482 NA 
ENDBRANCH  28  29
ENDBRANCH  27  28
ENDBRANCH  24  27
ENDBRANCH   8  23
TORSDOF 8
ENDMDL
MODEL       95
REMARK 921   NORMALIZED FREE ENERGY PREDICTED BY IDOCK:   -4.71 KCAL/MOL
REMARK 922        TOTAL FREE ENERGY PREDICTED BY IDOCK:   -8.00 KCAL/MOL
REMARK 923 INTER-LIGAND FREE ENERGY PREDICTED BY IDOCK:   -7.01 KCAL/MOL
REMARK 924 INTRA-LIGAND FREE ENERGY PREDICTED BY IDOCK:   -0.99 KCAL/MOL
REMARK 927      BINDING AFFINITY PREDICTED BY RF-SCORE:    0.00 PKD
ROOT
HETATM    1  C   UNL     1      -9.783  10.021  69.558  1.00  0.00    -0.233 C  
HETATM    2  S   UNL     1      -9.885  10.669  67.870  1.00  0.00    -0.164 SA 
HETATM    3  C   UNL     1     -10.293  12.344  68.419  1.00  0.00    -0.229 C  
HETATM    4  C   UNL     1     -11.417  12.418  69.445  1.00  0.00    -0.336 C  
HETATM    5  O   UNL     1     -13.165  10.567  72.123  1.00  0.00    -0.458 OA 
HETATM    6  C   UNL     1     -11.756  11.392  70.285  1.00  0.00    -0.306 C  
HETATM    7  N   UNL     1     -11.077  10.200  70.200  1.00  0.00    -0.293 N  
HETATM    8  C   UNL     1      -9.976   8.443  69.727  1.00  0.00    -0.191 C  
HETATM    9  C   UNL     1     -12.892  11.578  71.282  1.00  0.00    -0.360 C  
HETATM   10  O   UNL     1     -11.974   8.483  71.465  1.00  0.00    -0.279 OA 
HETATM   11  C   UNL     1     -11.191   8.934  70.658  1.00  0.00    -0.266 C  
HETATM   12  O   UNL     1     -13.523  12.621  71.402  1.00  0.00    -0.127 OA 
ENDROOT
BRANCH   4  13
HETATM   13  C   UNL     1     -12.163  13.753  69.337  1.00  0.00    -0.278 C  
BRANCH  13  14
HETATM   14  S   UNL     1     -11.111  15.136  69.863  1.00  0.00    -0.297 SA 
BRANCH  14  15
HETATM   15  C   UNL     1     -10.558  15.708  68.327  1.00  0.00    -0.262 A  
HETATM   16  N   UNL     1     -11.241  15.687  67.206  1.00  0.00    -0.244 NA 
HETATM   17  N   UNL     1      -9.207  16.482  66.755  1.00  0.00    -0.222 NA 
HETATM   18  N   UNL     1     -10.386  16.162  66.237  1.00  0.00    -0.315 NA 
HETATM   19  C   UNL     1      -8.206  16.453  68.950  1.00  0.00    -0.235 C  
HETATM   20  N   UNL     1      -9.311  16.201  68.068  1.00  0.00    -0.202 NA 
ENDBRANCH  14  15
ENDBRANCH  13  14
ENDBRANCH   4  13
BRANCH   8  21
HETATM   21  O   UNL     1      -8.907   7.775  70.456  1.00  0.00    -0.142 OA 
HETATM   22  C   UNL     1      -7.579   8.141  70.088  1.00  0.00    -0.077 C  
ENDBRANCH   8  21
BRANCH   8  23
HETATM   23  N   UNL     1     -10.310   7.736  68.451  1.00  0.00    -0.201 N  
HETATM   24  C   UNL     1     -10.865   6.484  68.390  1.00  0.00    -0.289 C  
HETATM   25  H   UNL     1     -10.114   8.217  67.573  1.00  0.00     0.000 HD 
HETATM   26  O   UNL     1     -11.114   5.816  69.388  1.00  0.00    -0.346 OA 
BRANCH  24  27
HETATM   27  C   UNL     1     -11.078   5.934  66.993  1.00  0.00    -0.069 C  
BRANCH  27  28
HETATM   28  S   UNL     1      -9.882   4.600  66.646  1.00  0.00    -0.237 SA 
BRANCH  28  29
HETATM   29  C   UNL     1      -8.784   5.444  65.441  1.00  0.00    -0.154 C  
HETATM   30  C   UNL     1      -7.998   6.546  66.014  1.00  0.00    -0.112 C  
HETATM   31  N   UNL     1      -7.374   7.412  66.470  1.00  0.00    -0.082 NA 
ENDBRANCH  28  29
ENDBRANCH  27  28
ENDBRANCH  24  27
ENDBRANCH   8  23
TORSDOF 8
ENDMDL
MODEL       96
REMARK 921   NORMALIZED FREE ENERGY PREDICTED BY IDOCK:   -4.66 KCAL/MOL
REMARK 922        TOTAL FREE ENERGY PREDICTED BY IDOCK:   -7.93 KCAL/MOL
REMARK 923 INTER-LIGAND FREE ENERGY PREDICTED BY IDOCK:   -7.44 KCAL/MOL
REMARK 924 INTRA-LIGAND FREE ENERGY PREDICTED BY IDOCK:   -0.49 KCAL/MOL
REMARK 927      BINDING AFFINITY PREDICTED BY RF-SCORE:    0.00 PKD
ROOT
HETATM    1  C   UNL     1     -10.086  12.666  68.211  1.00  0.00    -0.233 C  
HETATM    2  S   UNL     1     -11.464  11.606  67.703  1.00  0.00    -0.284 SA 
HETATM    3  C   UNL     1     -11.342  10.554  69.170  1.00  0.00    -0.257 C  
HETATM    4  C   UNL     1      -9.934  10.058  69.479  1.00  0.00    -0.249 C  
HETATM    5  O   UNL     1      -6.335  10.799  69.085  1.00  0.00    -0.048 OA 
HETATM    6  C   UNL     1      -8.792  10.698  69.079  1.00  0.00    -0.148 C  
HETATM    7  N   UNL     1      -8.890  11.845  68.328  1.00  0.00    -0.173 N  
HETATM    8  C   UNL     1      -9.350  13.482  67.050  1.00  0.00    -0.247 C  
HETATM    9  C   UNL     1      -7.434  10.119  69.452  1.00  0.00    -0.119 C  
HETATM   10  O   UNL     1      -6.883  12.621  67.479  1.00  0.00    -0.126 OA 
HETATM   11  C   UNL     1      -8.088  12.646  67.594  1.00  0.00    -0.173 C  
HETATM   12  O   UNL     1      -7.292   9.105  70.125  1.00  0.00    -0.058 OA 
ENDROOT
BRANCH   4  13
HETATM   13  C   UNL     1      -9.982   8.711  70.208  1.00  0.00    -0.186 C  
BRANCH  13  14
HETATM   14  S   UNL     1     -10.482   8.920  71.940  1.00  0.00    -0.301 SA 
BRANCH  14  15
HETATM   15  C   UNL     1     -12.087   8.279  71.881  1.00  0.00    -0.332 A  
HETATM   16  N   UNL     1     -12.406   7.008  71.798  1.00  0.00    -0.343 NA 
HETATM   17  N   UNL     1     -14.293   8.194  71.732  1.00  0.00    -0.456 NA 
HETATM   18  N   UNL     1     -13.779   6.971  71.697  1.00  0.00    -0.313 NA 
HETATM   19  C   UNL     1     -13.432  10.438  71.942  1.00  0.00    -0.282 C  
HETATM   20  N   UNL     1     -13.234   9.019  71.850  1.00  0.00    -0.375 NA 
ENDBRANCH  14  15
ENDBRANCH  13  14
ENDBRANCH   4  13
BRANCH   8  21
HETATM   21  O   UNL     1      -9.253  14.915  67.282  1.00  0.00    -0.191 OA 
HETATM   22  C   UNL     1      -8.245  15.600  66.540  1.00  0.00    -0.192 C  
ENDBRANCH   8  21
BRANCH   8  23
HETATM   23  N   UNL     1      -9.859  13.170  65.678  1.00  0.00    -0.433 N  
HETATM   24  C   UNL     1     -10.899  13.832  65.077  1.00  0.00    -0.371 C  
HETATM   25  H   UNL     1      -9.405  12.418  65.158  1.00  0.00     0.000 HD 
HETATM   26  O   UNL     1     -11.525  14.730  65.629  1.00  0.00    -0.348 OA 
BRANCH  24  27
HETATM   27  C   UNL     1     -11.286  13.323  63.702  1.00  0.00    -0.166 C  
BRANCH  27  28
HETATM   28  S   UNL     1     -11.271  11.498  63.673  1.00  0.00    -0.258 SA 
BRANCH  28  29
HETATM   29  C   UNL     1      -9.636  11.192  62.898  1.00  0.00    -0.348 C  
HETATM   30  C   UNL     1      -8.994   9.940  63.323  1.00  0.00    -0.257 C  
HETATM   31  N   UNL     1      -8.493   8.947  63.656  1.00  0.00    -0.172 NA 
ENDBRANCH  28  29
ENDBRANCH  27  28
ENDBRANCH  24  27
ENDBRANCH   8  23
TORSDOF 8
ENDMDL
MODEL       97
REMARK 921   NORMALIZED FREE ENERGY PREDICTED BY IDOCK:   -4.65 KCAL/MOL
REMARK 922        TOTAL FREE ENERGY PREDICTED BY IDOCK:   -7.92 KCAL/MOL
REMARK 923 INTER-LIGAND FREE ENERGY PREDICTED BY IDOCK:   -7.52 KCAL/MOL
REMARK 924 INTRA-LIGAND FREE ENERGY PREDICTED BY IDOCK:   -0.40 KCAL/MOL
REMARK 927      BINDING AFFINITY PREDICTED BY RF-SCORE:    0.00 PKD
ROOT
HETATM    1  C   UNL     1     -10.063  13.300  67.785  1.00  0.00    -0.229 C  
HETATM    2  S   UNL     1     -10.551  11.942  68.880  1.00  0.00    -0.125 SA 
HETATM    3  C   UNL     1      -9.722  10.687  67.875  1.00  0.00    -0.161 C  
HETATM    4  C   UNL     1     -10.039  10.756  66.386  1.00  0.00    -0.278 C  
HETATM    5  O   UNL     1     -11.081  12.997  63.638  1.00  0.00    -0.383 OA 
HETATM    6  C   UNL     1     -10.448  11.893  65.743  1.00  0.00    -0.256 C  
HETATM    7  N   UNL     1     -10.620  13.050  66.463  1.00  0.00    -0.279 N  
HETATM    8  C   UNL     1     -10.956  14.625  67.853  1.00  0.00    -0.277 C  
HETATM    9  C   UNL     1     -10.728  11.852  64.246  1.00  0.00    -0.338 C  
HETATM   10  O   UNL     1     -11.606  14.784  65.291  1.00  0.00    -0.349 OA 
HETATM   11  C   UNL     1     -11.163  14.276  66.297  1.00  0.00    -0.337 C  
HETATM   12  O   UNL     1     -10.584  10.849  63.557  1.00  0.00    -0.302 OA 
ENDROOT
BRANCH   4  13
HETATM   13  C   UNL     1      -9.927   9.369  65.742  1.00  0.00    -0.208 C  
BRANCH  13  14
HETATM   14  S   UNL     1      -8.360   8.566  66.186  1.00  0.00    -0.126 SA 
BRANCH  14  15
HETATM   15  C   UNL     1      -7.288   9.337  65.069  1.00  0.00    -0.102 A  
HETATM   16  N   UNL     1      -6.480  10.336  65.342  1.00  0.00    -0.117 NA 
HETATM   17  N   UNL     1      -6.307   9.889  63.164  1.00  0.00    -0.116 NA 
HETATM   18  N   UNL     1      -5.885  10.674  64.147  1.00  0.00    -0.061 NA 
HETATM   19  C   UNL     1      -7.828   8.028  62.955  1.00  0.00    -0.148 C  
HETATM   20  N   UNL     1      -7.186   9.046  63.739  1.00  0.00    -0.095 NA 
ENDBRANCH  14  15
ENDBRANCH  13  14
ENDBRANCH   4  13
BRANCH   8  21
HETATM   21  O   UNL     1     -10.207  15.851  68.089  1.00  0.00    -0.226 OA 
HETATM   22  C   UNL     1     -10.706  17.020  67.442  1.00  0.00    -0.240 C  
ENDBRANCH   8  21
BRANCH   8  23
HETATM   23  N   UNL     1     -12.139  14.508  68.761  1.00  0.00    -0.533 N  
HETATM   24  C   UNL     1     -12.096  14.744  70.112  1.00  0.00    -0.327 C  
HETATM   25  H   UNL     1     -13.032  14.236  68.351  1.00  0.00     0.000 HD 
HETATM   26  O   UNL     1     -11.066  15.050  70.702  1.00  0.00    -0.260 OA 
BRANCH  24  27
HETATM   27  C   UNL     1     -13.399  14.521  70.853  1.00  0.00    -0.265 C  
BRANCH  27  28
HETATM   28  S   UNL     1     -13.210  13.186  72.082  1.00  0.00    -0.434 SA 
BRANCH  28  29
HETATM   29  C   UNL     1     -13.034  11.734  70.972  1.00  0.00    -0.108 C  
HETATM   30  C   UNL     1     -12.875  10.454  71.676  1.00  0.00    -0.474 C  
HETATM   31  N   UNL     1     -12.756   9.444  72.235  1.00  0.00    -0.366 NA 
ENDBRANCH  28  29
ENDBRANCH  27  28
ENDBRANCH  24  27
ENDBRANCH   8  23
TORSDOF 8
ENDMDL
MODEL       98
REMARK 921   NORMALIZED FREE ENERGY PREDICTED BY IDOCK:   -4.64 KCAL/MOL
REMARK 922        TOTAL FREE ENERGY PREDICTED BY IDOCK:   -7.90 KCAL/MOL
REMARK 923 INTER-LIGAND FREE ENERGY PREDICTED BY IDOCK:   -7.10 KCAL/MOL
REMARK 924 INTRA-LIGAND FREE ENERGY PREDICTED BY IDOCK:   -0.80 KCAL/MOL
REMARK 927      BINDING AFFINITY PREDICTED BY RF-SCORE:    0.00 PKD
ROOT
HETATM    1  C   UNL     1     -10.189  12.013  66.013  1.00  0.00    -0.226 C  
HETATM    2  S   UNL     1     -11.651  12.115  67.076  1.00  0.00    -0.305 SA 
HETATM    3  C   UNL     1     -11.430  13.881  67.401  1.00  0.00    -0.348 C  
HETATM    4  C   UNL     1     -10.021  14.275  67.825  1.00  0.00    -0.227 C  
HETATM    5  O   UNL     1      -6.450  13.347  67.613  1.00  0.00    -0.153 OA 
HETATM    6  C   UNL     1      -8.898  13.558  67.512  1.00  0.00    -0.209 C  
HETATM    7  N   UNL     1      -9.021  12.392  66.796  1.00  0.00    -0.211 N  
HETATM    8  C   UNL     1      -9.537  10.564  65.836  1.00  0.00    -0.204 C  
HETATM    9  C   UNL     1      -7.534  14.050  67.980  1.00  0.00    -0.141 C  
HETATM   10  O   UNL     1      -7.076  11.152  66.621  1.00  0.00    -0.133 OA 
HETATM   11  C   UNL     1      -8.263  11.328  66.453  1.00  0.00    -0.150 C  
HETATM   12  O   UNL     1      -7.369  15.084  68.614  1.00  0.00    -0.108 OA 
ENDROOT
BRANCH   4  13
HETATM   13  C   UNL     1     -10.052  15.519  68.721  1.00  0.00    -0.211 C  
BRANCH  13  14
HETATM   14  S   UNL     1     -10.762  16.940  67.843  1.00  0.00    -0.313 SA 
BRANCH  14  15
HETATM   15  C   UNL     1      -9.357  17.540  67.033  1.00  0.00    -0.259 A  
HETATM   16  N   UNL     1      -8.872  17.093  65.897  1.00  0.00    -0.534 NA 
HETATM   17  N   UNL     1      -7.499  18.681  66.650  1.00  0.00    -0.225 NA 
HETATM   18  N   UNL     1      -7.714  17.804  65.677  1.00  0.00    -0.499 NA 
HETATM   19  C   UNL     1      -8.630  19.341  68.677  1.00  0.00    -0.366 C  
HETATM   20  N   UNL     1      -8.530  18.520  67.503  1.00  0.00    -0.259 NA 
ENDBRANCH  14  15
ENDBRANCH  13  14
ENDBRANCH   4  13
BRANCH   8  21
HETATM   21  O   UNL     1      -9.359  10.142  64.454  1.00  0.00    -0.249 OA 
HETATM   22  C   UNL     1      -9.768  11.079  63.459  1.00  0.00    -0.337 C  
ENDBRANCH   8  21
BRANCH   8  23
HETATM   23  N   UNL     1     -10.189   9.505  66.666  1.00  0.00    -0.247 N  
HETATM   24  C   UNL     1      -9.520   8.447  67.226  1.00  0.00    -0.154 C  
HETATM   25  H   UNL     1     -11.195   9.573  66.824  1.00  0.00     0.000 HD 
HETATM   26  O   UNL     1      -8.317   8.263  67.071  1.00  0.00    -0.119 OA 
BRANCH  24  27
HETATM   27  C   UNL     1     -10.383   7.461  67.989  1.00  0.00    -0.199 C  
BRANCH  27  28
HETATM   28  S   UNL     1     -10.748   6.003  66.955  1.00  0.00    -0.310 SA 
BRANCH  28  29
HETATM   29  C   UNL     1      -9.089   5.219  66.889  1.00  0.00    -0.113 C  
HETATM   30  C   UNL     1      -9.067   3.917  66.207  1.00  0.00    -0.148 C  
HETATM   31  N   UNL     1      -9.051   2.893  65.662  1.00  0.00    -0.146 NA 
ENDBRANCH  28  29
ENDBRANCH  27  28
ENDBRANCH  24  27
ENDBRANCH   8  23
TORSDOF 8
ENDMDL
MODEL       99
REMARK 921   NORMALIZED FREE ENERGY PREDICTED BY IDOCK:   -4.61 KCAL/MOL
REMARK 922        TOTAL FREE ENERGY PREDICTED BY IDOCK:   -7.86 KCAL/MOL
REMARK 923 INTER-LIGAND FREE ENERGY PREDICTED BY IDOCK:   -7.12 KCAL/MOL
REMARK 924 INTRA-LIGAND FREE ENERGY PREDICTED BY IDOCK:   -0.74 KCAL/MOL
REMARK 927      BINDING AFFINITY PREDICTED BY RF-SCORE:    0.00 PKD
ROOT
HETATM    1  C   UNL     1      -9.970  12.245  67.675  1.00  0.00    -0.198 C  
HETATM    2  S   UNL     1     -11.024  10.804  67.373  1.00  0.00    -0.282 SA 
HETATM    3  C   UNL     1     -10.967  10.261  69.098  1.00  0.00    -0.238 C  
HETATM    4  C   UNL     1      -9.567  10.202  69.698  1.00  0.00    -0.237 C  
HETATM    5  O   UNL     1      -6.149  11.591  69.491  1.00  0.00    -0.076 OA 
HETATM    6  C   UNL     1      -8.509  10.943  69.247  1.00  0.00     0.007 C  
HETATM    7  N   UNL     1      -8.683  11.780  68.171  1.00  0.00    -0.163 N  
HETATM    8  C   UNL     1      -9.206  12.846  66.406  1.00  0.00    -0.137 C  
HETATM    9  C   UNL     1      -7.153  10.812  69.928  1.00  0.00    -0.093 C  
HETATM   10  O   UNL     1      -6.734  12.718  67.349  1.00  0.00    -0.153 OA 
HETATM   11  C   UNL     1      -7.926  12.503  67.317  1.00  0.00    -0.173 C  
HETATM   12  O   UNL     1      -6.947  10.087  70.893  1.00  0.00    -0.337 OA 
ENDROOT
BRANCH   4  13
HETATM   13  C   UNL     1      -9.494   9.138  70.799  1.00  0.00    -0.272 C  
BRANCH  13  14
HETATM   14  S   UNL     1     -11.065   9.019  71.701  1.00  0.00    -0.379 SA 
BRANCH  14  15
HETATM   15  C   UNL     1     -10.975   7.389  72.272  1.00  0.00    -0.254 A  
HETATM   16  N   UNL     1     -10.721   7.018  73.505  1.00  0.00    -0.360 NA 
HETATM   17  N   UNL     1     -10.899   5.178  72.258  1.00  0.00    -0.205 NA 
HETATM   18  N   UNL     1     -10.668   5.642  73.480  1.00  0.00    -0.266 NA 
HETATM   19  C   UNL     1     -11.399   6.133  70.100  1.00  0.00    -0.363 C  
HETATM   20  N   UNL     1     -11.095   6.272  71.496  1.00  0.00    -0.270 NA 
ENDBRANCH  14  15
ENDBRANCH  13  14
ENDBRANCH   4  13
BRANCH   8  21
HETATM   21  O   UNL     1      -9.412  14.271  66.191  1.00  0.00    -0.281 OA 
HETATM   22  C   UNL     1     -10.098  14.965  67.231  1.00  0.00    -0.235 C  
ENDBRANCH   8  21
BRANCH   8  23
HETATM   23  N   UNL     1      -9.406  12.056  65.152  1.00  0.00    -0.431 N  
HETATM   24  C   UNL     1     -10.334  12.366  64.190  1.00  0.00    -0.382 C  
HETATM   25  H   UNL     1      -8.817  11.237  65.003  1.00  0.00     0.000 HD 
HETATM   26  O   UNL     1     -11.105  13.314  64.289  1.00  0.00    -0.367 OA 
BRANCH  24  27
HETATM   27  C   UNL     1     -10.404  11.403  63.020  1.00  0.00    -0.219 C  
BRANCH  27  28
HETATM   28  S   UNL     1      -8.725  10.973  62.451  1.00  0.00    -0.256 SA 
BRANCH  28  29
HETATM   29  C   UNL     1      -8.621   9.228  63.009  1.00  0.00    -0.214 C  
HETATM   30  C   UNL     1      -8.315   9.071  64.438  1.00  0.00    -0.176 C  
HETATM   31  N   UNL     1      -8.080   8.951  65.568  1.00  0.00    -0.107 NA 
ENDBRANCH  28  29
ENDBRANCH  27  28
ENDBRANCH  24  27
ENDBRANCH   8  23
TORSDOF 8
ENDMDL
MODEL      100
REMARK 921   NORMALIZED FREE ENERGY PREDICTED BY IDOCK:   -4.59 KCAL/MOL
REMARK 922        TOTAL FREE ENERGY PREDICTED BY IDOCK:   -7.83 KCAL/MOL
REMARK 923 INTER-LIGAND FREE ENERGY PREDICTED BY IDOCK:   -6.79 KCAL/MOL
REMARK 924 INTRA-LIGAND FREE ENERGY PREDICTED BY IDOCK:   -1.04 KCAL/MOL
REMARK 927      BINDING AFFINITY PREDICTED BY RF-SCORE:    0.00 PKD
ROOT
HETATM    1  C   UNL     1      -7.862  11.010  69.353  1.00  0.00     0.010 C  
HETATM    2  S   UNL     1      -6.740  11.455  68.003  1.00  0.00    -0.061 SA 
HETATM    3  C   UNL     1      -7.533  13.056  67.723  1.00  0.00    -0.146 C  
HETATM    4  C   UNL     1      -9.051  13.000  67.606  1.00  0.00    -0.198 C  
HETATM    5  O   UNL     1     -12.070  11.102  68.577  1.00  0.00    -0.586 OA 
HETATM    6  C   UNL     1      -9.825  12.013  68.154  1.00  0.00    -0.201 C  
HETATM    7  N   UNL     1      -9.222  10.983  68.834  1.00  0.00    -0.163 N  
HETATM    8  C   UNL     1      -8.008   9.450  69.671  1.00  0.00    -0.109 C  
HETATM    9  C   UNL     1     -11.338  12.060  67.984  1.00  0.00    -0.296 C  
HETATM   10  O   UNL     1     -10.637   9.251  69.424  1.00  0.00    -0.218 OA 
HETATM   11  C   UNL     1      -9.547   9.771  69.335  1.00  0.00    -0.207 C  
HETATM   12  O   UNL     1     -11.925  12.958  67.394  1.00  0.00    -0.363 OA 
ENDROOT
BRANCH   4  13
HETATM   13  C   UNL     1      -9.570  14.137  66.717  1.00  0.00    -0.282 C  
BRANCH  13  14
HETATM   14  S   UNL     1      -9.101  15.757  67.388  1.00  0.00    -0.200 SA 
BRANCH  14  15
HETATM   15  C   UNL     1      -9.974  16.801  66.320  1.00  0.00    -0.320 A  
HETATM   16  N   UNL     1     -10.411  16.486  65.123  1.00  0.00    -0.667 NA 
HETATM   17  N   UNL     1     -10.892  18.633  65.486  1.00  0.00    -0.460 NA 
HETATM   18  N   UNL     1     -10.971  17.636  64.614  1.00  0.00    -0.492 NA 
HETATM   19  C   UNL     1     -10.036  18.922  67.723  1.00  0.00    -0.369 C  
HETATM   20  N   UNL     1     -10.269  18.112  66.562  1.00  0.00    -0.373 NA 
ENDBRANCH  14  15
ENDBRANCH  13  14
ENDBRANCH   4  13
BRANCH   8  21
HETATM   21  O   UNL     1      -7.771   9.089  71.062  1.00  0.00    -0.118 OA 
HETATM   22  C   UNL     1      -6.421   9.191  71.511  1.00  0.00    -0.045 C  
ENDBRANCH   8  21
BRANCH   8  23
HETATM   23  N   UNL     1      -7.253   8.569  68.728  1.00  0.00    -0.077 N  
HETATM   24  C   UNL     1      -7.490   7.226  68.574  1.00  0.00    -0.105 C  
HETATM   25  H   UNL     1      -6.516   8.992  68.163  1.00  0.00     0.000 HD 
HETATM   26  O   UNL     1      -8.334   6.621  69.225  1.00  0.00    -0.122 OA 
BRANCH  24  27
HETATM   27  C   UNL     1      -6.576   6.512  67.598  1.00  0.00    -0.061 C  
BRANCH  27  28
HETATM   28  S   UNL     1      -6.737   7.236  65.931  1.00  0.00    -0.053 SA 
BRANCH  28  29
HETATM   29  C   UNL     1      -8.533   7.611  65.904  1.00  0.00    -0.143 C  
HETATM   30  C   UNL     1      -8.849   9.022  65.641  1.00  0.00    -0.185 C  
HETATM   31  N   UNL     1      -9.095  10.136  65.428  1.00  0.00    -0.174 NA 
ENDBRANCH  28  29
ENDBRANCH  27  28
ENDBRANCH  24  27
ENDBRANCH   8  23
TORSDOF 8
ENDMDL
MODEL      101
REMARK 921   NORMALIZED FREE ENERGY PREDICTED BY IDOCK:   -4.58 KCAL/MOL
REMARK 922        TOTAL FREE ENERGY PREDICTED BY IDOCK:   -7.81 KCAL/MOL
REMARK 923 INTER-LIGAND FREE ENERGY PREDICTED BY IDOCK:   -6.37 KCAL/MOL
REMARK 924 INTRA-LIGAND FREE ENERGY PREDICTED BY IDOCK:   -1.44 KCAL/MOL
REMARK 927      BINDING AFFINITY PREDICTED BY RF-SCORE:    0.00 PKD
ROOT
HETATM    1  C   UNL     1     -11.009  12.984  68.423  1.00  0.00    -0.262 C  
HETATM    2  S   UNL     1     -11.902  11.465  68.006  1.00  0.00    -0.112 SA 
HETATM    3  C   UNL     1     -10.943  10.453  69.160  1.00  0.00    -0.241 C  
HETATM    4  C   UNL     1      -9.433  10.629  69.054  1.00  0.00    -0.202 C  
HETATM    5  O   UNL     1      -6.743  12.965  68.072  1.00  0.00    -0.082 OA 
HETATM    6  C   UNL     1      -8.826  11.753  68.565  1.00  0.00    -0.122 C  
HETATM    7  N   UNL     1      -9.600  12.793  68.109  1.00  0.00    -0.220 N  
HETATM    8  C   UNL     1     -11.041  14.151  67.330  1.00  0.00    -0.305 C  
HETATM    9  C   UNL     1      -7.305  11.826  68.512  1.00  0.00    -0.103 C  
HETATM   10  O   UNL     1      -8.429  14.476  67.038  1.00  0.00    -0.214 OA 
HETATM   11  C   UNL     1      -9.449  13.937  67.407  1.00  0.00    -0.226 C  
HETATM   12  O   UNL     1      -6.571  10.932  68.911  1.00  0.00    -0.049 OA 
ENDROOT
BRANCH   4  13
HETATM   13  C   UNL     1      -8.707   9.347  69.476  1.00  0.00    -0.161 C  
BRANCH  13  14
HETATM   14  S   UNL     1      -9.357   7.902  68.588  1.00  0.00    -0.145 SA 
BRANCH  14  15
HETATM   15  C   UNL     1      -7.927   6.936  68.476  1.00  0.00    -0.120 A  
HETATM   16  N   UNL     1      -7.574   5.983  69.306  1.00  0.00    -0.092 NA 
HETATM   17  N   UNL     1      -5.950   6.211  67.796  1.00  0.00    -0.016 NA 
HETATM   18  N   UNL     1      -6.341   5.548  68.877  1.00  0.00    -0.036 NA 
HETATM   19  C   UNL     1      -6.862   7.958  66.403  1.00  0.00    -0.062 C  
HETATM   20  N   UNL     1      -6.945   7.083  67.538  1.00  0.00    -0.076 NA 
ENDBRANCH  14  15
ENDBRANCH  13  14
ENDBRANCH   4  13
BRANCH   8  21
HETATM   21  O   UNL     1     -11.488  15.442  67.832  1.00  0.00    -0.335 OA 
HETATM   22  C   UNL     1     -11.470  15.600  69.250  1.00  0.00    -0.362 C  
ENDBRANCH   8  21
BRANCH   8  23
HETATM   23  N   UNL     1     -11.739  13.770  66.063  1.00  0.00    -0.347 N  
HETATM   24  C   UNL     1     -11.542  14.398  64.860  1.00  0.00    -0.395 C  
HETATM   25  H   UNL     1     -12.403  12.996  66.096  1.00  0.00     0.000 HD 
HETATM   26  O   UNL     1     -10.786  15.354  64.723  1.00  0.00    -0.422 OA 
BRANCH  24  27
HETATM   27  C   UNL     1     -12.389  13.884  63.711  1.00  0.00    -0.207 C  
BRANCH  27  28
HETATM   28  S   UNL     1     -12.385  12.060  63.687  1.00  0.00    -0.487 SA 
BRANCH  28  29
HETATM   29  C   UNL     1     -10.593  11.734  63.459  1.00  0.00    -0.440 C  
HETATM   30  C   UNL     1      -9.990  10.918  64.522  1.00  0.00    -0.317 C  
HETATM   31  N   UNL     1      -9.519  10.268  65.359  1.00  0.00    -0.211 NA 
ENDBRANCH  28  29
ENDBRANCH  27  28
ENDBRANCH  24  27
ENDBRANCH   8  23
TORSDOF 8
ENDMDL
MODEL      102
REMARK 921   NORMALIZED FREE ENERGY PREDICTED BY IDOCK:   -4.56 KCAL/MOL
REMARK 922        TOTAL FREE ENERGY PREDICTED BY IDOCK:   -7.79 KCAL/MOL
REMARK 923 INTER-LIGAND FREE ENERGY PREDICTED BY IDOCK:   -7.29 KCAL/MOL
REMARK 924 INTRA-LIGAND FREE ENERGY PREDICTED BY IDOCK:   -0.50 KCAL/MOL
REMARK 927      BINDING AFFINITY PREDICTED BY RF-SCORE:    0.00 PKD
ROOT
HETATM    1  C   UNL     1     -11.077  10.326  68.457  1.00  0.00    -0.242 C  
HETATM    2  S   UNL     1      -9.534   9.409  68.698  1.00  0.00    -0.147 SA 
HETATM    3  C   UNL     1     -10.352   8.041  69.554  1.00  0.00    -0.221 C  
HETATM    4  C   UNL     1     -11.292   8.466  70.675  1.00  0.00    -0.262 C  
HETATM    5  O   UNL     1     -13.453  11.199  71.909  1.00  0.00    -0.345 OA 
HETATM    6  C   UNL     1     -11.902   9.690  70.740  1.00  0.00    -0.300 C  
HETATM    7  N   UNL     1     -11.648  10.622  69.763  1.00  0.00    -0.284 N  
HETATM    8  C   UNL     1     -10.939  11.902  68.219  1.00  0.00    -0.230 C  
HETATM    9  C   UNL     1     -12.833  10.007  71.903  1.00  0.00    -0.426 C  
HETATM   10  O   UNL     1     -12.508  12.727  70.186  1.00  0.00    -0.185 OA 
HETATM   11  C   UNL     1     -11.856  11.938  69.540  1.00  0.00    -0.331 C  
HETATM   12  O   UNL     1     -13.097   9.210  72.795  1.00  0.00    -0.370 OA 
ENDROOT
BRANCH   4  13
HETATM   13  C   UNL     1     -11.378   7.379  71.753  1.00  0.00    -0.255 C  
BRANCH  13  14
HETATM   14  S   UNL     1     -10.064   7.577  72.990  1.00  0.00    -0.319 SA 
BRANCH  14  15
HETATM   15  C   UNL     1      -9.815   5.927  73.446  1.00  0.00    -0.163 A  
HETATM   16  N   UNL     1     -10.413   5.303  74.434  1.00  0.00    -0.273 NA 
HETATM   17  N   UNL     1      -8.941   3.896  73.526  1.00  0.00    -0.099 NA 
HETATM   18  N   UNL     1      -9.854   4.045  74.477  1.00  0.00    -0.130 NA 
HETATM   19  C   UNL     1      -8.041   5.258  71.749  1.00  0.00    -0.117 C  
HETATM   20  N   UNL     1      -8.916   5.074  72.873  1.00  0.00    -0.117 NA 
ENDBRANCH  14  15
ENDBRANCH  13  14
ENDBRANCH   4  13
BRANCH   8  21
HETATM   21  O   UNL     1     -11.606  12.396  67.023  1.00  0.00    -0.335 OA 
HETATM   22  C   UNL     1     -12.001  13.767  67.052  1.00  0.00    -0.413 C  
ENDBRANCH   8  21
BRANCH   8  23
HETATM   23  N   UNL     1      -9.534  12.406  68.326  1.00  0.00    -0.219 N  
HETATM   24  C   UNL     1      -8.640  12.410  67.286  1.00  0.00    -0.185 C  
HETATM   25  H   UNL     1      -9.224  12.769  69.227  1.00  0.00     0.000 HD 
HETATM   26  O   UNL     1      -8.909  11.971  66.174  1.00  0.00    -0.141 OA 
BRANCH  24  27
HETATM   27  C   UNL     1      -7.252  12.921  67.624  1.00  0.00    -0.147 C  
BRANCH  27  28
HETATM   28  S   UNL     1      -7.360  14.514  68.508  1.00  0.00    -0.129 SA 
BRANCH  28  29
HETATM   29  C   UNL     1      -7.183  15.685  67.104  1.00  0.00    -0.195 C  
HETATM   30  C   UNL     1      -8.418  15.892  66.335  1.00  0.00    -0.313 C  
HETATM   31  N   UNL     1      -9.396  16.058  65.733  1.00  0.00    -0.399 NA 
ENDBRANCH  28  29
ENDBRANCH  27  28
ENDBRANCH  24  27
ENDBRANCH   8  23
TORSDOF 8
ENDMDL
MODEL      103
REMARK 921   NORMALIZED FREE ENERGY PREDICTED BY IDOCK:   -4.54 KCAL/MOL
REMARK 922        TOTAL FREE ENERGY PREDICTED BY IDOCK:   -7.76 KCAL/MOL
REMARK 923 INTER-LIGAND FREE ENERGY PREDICTED BY IDOCK:   -6.47 KCAL/MOL
REMARK 924 INTRA-LIGAND FREE ENERGY PREDICTED BY IDOCK:   -1.29 KCAL/MOL
REMARK 927      BINDING AFFINITY PREDICTED BY RF-SCORE:    0.00 PKD
ROOT
HETATM    1  C   UNL     1      -8.299   8.704  66.881  1.00  0.00    -0.108 C  
HETATM    2  S   UNL     1      -9.975   8.532  66.218  1.00  0.00    -0.067 SA 
HETATM    3  C   UNL     1      -9.873  10.063  65.259  1.00  0.00    -0.318 C  
HETATM    4  C   UNL     1      -9.370  11.269  66.043  1.00  0.00    -0.234 C  
HETATM    5  O   UNL     1      -7.312  12.335  68.922  1.00  0.00    -0.104 OA 
HETATM    6  C   UNL     1      -8.581  11.183  67.158  1.00  0.00    -0.139 C  
HETATM    7  N   UNL     1      -8.227   9.945  67.639  1.00  0.00    -0.114 N  
HETATM    8  C   UNL     1      -7.987   7.918  68.238  1.00  0.00    -0.122 C  
HETATM    9  C   UNL     1      -8.126  12.456  67.860  1.00  0.00    -0.161 C  
HETATM   10  O   UNL     1      -7.159   9.972  69.691  1.00  0.00    -0.075 OA 
HETATM   11  C   UNL     1      -7.667   9.410  68.745  1.00  0.00    -0.080 C  
HETATM   12  O   UNL     1      -8.408  13.582  67.468  1.00  0.00    -0.161 OA 
ENDROOT
BRANCH   4  13
HETATM   13  C   UNL     1      -9.946  12.568  65.468  1.00  0.00    -0.234 C  
BRANCH  13  14
HETATM   14  S   UNL     1     -11.743  12.653  65.714  1.00  0.00    -0.436 SA 
BRANCH  14  15
HETATM   15  C   UNL     1     -11.834  12.434  67.427  1.00  0.00    -0.289 A  
HETATM   16  N   UNL     1     -12.017  11.292  68.049  1.00  0.00    -0.641 NA 
HETATM   17  N   UNL     1     -11.959  12.908  69.585  1.00  0.00    -0.312 NA 
HETATM   18  N   UNL     1     -12.102  11.603  69.387  1.00  0.00    -0.293 NA 
HETATM   19  C   UNL     1     -11.576  14.845  68.198  1.00  0.00    -0.334 C  
HETATM   20  N   UNL     1     -11.788  13.433  68.356  1.00  0.00    -0.356 NA 
ENDBRANCH  14  15
ENDBRANCH  13  14
ENDBRANCH   4  13
BRANCH   8  21
HETATM   21  O   UNL     1      -6.819   7.051  68.183  1.00  0.00    -0.068 OA 
HETATM   22  C   UNL     1      -6.975   5.842  67.441  1.00  0.00    -0.069 C  
ENDBRANCH   8  21
BRANCH   8  23
HETATM   23  N   UNL     1      -9.176   7.220  68.817  1.00  0.00    -0.138 N  
HETATM   24  C   UNL     1      -9.258   6.795  70.119  1.00  0.00    -0.155 C  
HETATM   25  H   UNL     1      -9.975   7.049  68.206  1.00  0.00     0.000 HD 
HETATM   26  O   UNL     1      -8.342   6.929  70.922  1.00  0.00    -0.127 OA 
BRANCH  24  27
HETATM   27  C   UNL     1     -10.536   6.065  70.485  1.00  0.00    -0.266 C  
BRANCH  27  28
HETATM   28  S   UNL     1     -11.488   7.028  71.708  1.00  0.00    -0.281 SA 
BRANCH  28  29
HETATM   29  C   UNL     1     -10.895   6.263  73.268  1.00  0.00    -0.244 C  
HETATM   30  C   UNL     1     -11.077   4.806  73.331  1.00  0.00    -0.344 C  
HETATM   31  N   UNL     1     -11.217   3.655  73.374  1.00  0.00    -0.205 NA 
ENDBRANCH  28  29
ENDBRANCH  27  28
ENDBRANCH  24  27
ENDBRANCH   8  23
TORSDOF 8
ENDMDL
MODEL      104
REMARK 921   NORMALIZED FREE ENERGY PREDICTED BY IDOCK:   -4.53 KCAL/MOL
REMARK 922        TOTAL FREE ENERGY PREDICTED BY IDOCK:   -7.74 KCAL/MOL
REMARK 923 INTER-LIGAND FREE ENERGY PREDICTED BY IDOCK:   -7.24 KCAL/MOL
REMARK 924 INTRA-LIGAND FREE ENERGY PREDICTED BY IDOCK:   -0.50 KCAL/MOL
REMARK 927      BINDING AFFINITY PREDICTED BY RF-SCORE:    0.00 PKD
ROOT
HETATM    1  C   UNL     1      -7.329  14.554  67.372  1.00  0.00    -0.157 C  
HETATM    2  S   UNL     1      -8.594  15.584  66.586  1.00  0.00    -0.282 SA 
HETATM    3  C   UNL     1      -7.467  16.979  66.347  1.00  0.00    -0.301 C  
HETATM    4  C   UNL     1      -6.675  17.374  67.587  1.00  0.00    -0.168 C  
HETATM    5  O   UNL     1      -5.282  16.140  70.780  1.00  0.00    -0.176 OA 
HETATM    6  C   UNL     1      -6.393  16.520  68.619  1.00  0.00    -0.139 C  
HETATM    7  N   UNL     1      -6.863  15.230  68.574  1.00  0.00    -0.109 N  
HETATM    8  C   UNL     1      -7.856  13.368  68.306  1.00  0.00    -0.143 C  
HETATM    9  C   UNL     1      -5.582  17.018  69.809  1.00  0.00    -0.204 C  
HETATM   10  O   UNL     1      -6.563  14.021  70.523  1.00  0.00    -0.030 OA 
HETATM   11  C   UNL     1      -6.991  14.169  69.399  1.00  0.00    -0.078 C  
HETATM   12  O   UNL     1      -5.134  18.155  69.894  1.00  0.00    -0.178 OA 
ENDROOT
BRANCH   4  13
HETATM   13  C   UNL     1      -6.328  18.867  67.557  1.00  0.00    -0.193 C  
BRANCH  13  14
HETATM   14  S   UNL     1      -7.516  19.835  68.532  1.00  0.00    -0.279 SA 
BRANCH  14  15
HETATM   15  C   UNL     1      -8.935  19.658  67.559  1.00  0.00    -0.317 A  
HETATM   16  N   UNL     1      -9.191  20.305  66.446  1.00  0.00    -0.281 NA 
HETATM   17  N   UNL     1     -10.957  19.028  66.918  1.00  0.00    -0.283 NA 
HETATM   18  N   UNL     1     -10.453  19.910  66.064  1.00  0.00    -0.495 NA 
HETATM   19  C   UNL     1     -10.211  17.944  68.940  1.00  0.00    -0.330 C  
HETATM   20  N   UNL     1     -10.005  18.864  67.858  1.00  0.00    -0.335 NA 
ENDBRANCH  14  15
ENDBRANCH  13  14
ENDBRANCH   4  13
BRANCH   8  21
HETATM   21  O   UNL     1      -7.323  12.054  67.979  1.00  0.00    -0.088 OA 
HETATM   22  C   UNL     1      -7.417  11.069  69.006  1.00  0.00    -0.129 C  
ENDBRANCH   8  21
BRANCH   8  23
HETATM   23  N   UNL     1      -9.343  13.345  68.468  1.00  0.00    -0.348 N  
HETATM   24  C   UNL     1     -10.194  12.652  67.646  1.00  0.00    -0.217 C  
HETATM   25  H   UNL     1      -9.749  13.877  69.239  1.00  0.00     0.000 HD 
HETATM   26  O   UNL     1      -9.807  12.005  66.679  1.00  0.00    -0.198 OA 
BRANCH  24  27
HETATM   27  C   UNL     1     -11.670  12.804  67.960  1.00  0.00    -0.356 C  
BRANCH  27  28
HETATM   28  S   UNL     1     -11.918  13.020  69.754  1.00  0.00    -0.261 SA 
BRANCH  28  29
HETATM   29  C   UNL     1     -12.286  14.817  69.826  1.00  0.00    -0.294 C  
HETATM   30  C   UNL     1     -13.387  15.170  70.732  1.00  0.00    -0.341 C  
HETATM   31  N   UNL     1     -14.253  15.446  71.454  1.00  0.00    -0.531 NA 
ENDBRANCH  28  29
ENDBRANCH  27  28
ENDBRANCH  24  27
ENDBRANCH   8  23
TORSDOF 8
ENDMDL
MODEL      105
REMARK 921   NORMALIZED FREE ENERGY PREDICTED BY IDOCK:   -4.52 KCAL/MOL
REMARK 922        TOTAL FREE ENERGY PREDICTED BY IDOCK:   -7.73 KCAL/MOL
REMARK 923 INTER-LIGAND FREE ENERGY PREDICTED BY IDOCK:   -7.57 KCAL/MOL
REMARK 924 INTRA-LIGAND FREE ENERGY PREDICTED BY IDOCK:   -0.16 KCAL/MOL
REMARK 927      BINDING AFFINITY PREDICTED BY RF-SCORE:    0.00 PKD
ROOT
HETATM    1  C   UNL     1      -8.674  14.213  67.013  1.00  0.00    -0.204 C  
HETATM    2  S   UNL     1      -8.619  12.767  68.102  1.00  0.00    -0.177 SA 
HETATM    3  C   UNL     1      -8.672  11.591  66.728  1.00  0.00    -0.178 C  
HETATM    4  C   UNL     1      -9.767  11.864  65.704  1.00  0.00    -0.248 C  
HETATM    5  O   UNL     1     -11.895  14.489  64.208  1.00  0.00    -0.408 OA 
HETATM    6  C   UNL     1     -10.323  13.095  65.487  1.00  0.00    -0.290 C  
HETATM    7  N   UNL     1      -9.909  14.164  66.244  1.00  0.00    -0.296 N  
HETATM    8  C   UNL     1      -9.196  15.576  67.666  1.00  0.00    -0.190 C  
HETATM    9  C   UNL     1     -11.407  13.257  64.428  1.00  0.00    -0.383 C  
HETATM   10  O   UNL     1     -11.160  16.091  65.966  1.00  0.00    -0.157 OA 
HETATM   11  C   UNL     1     -10.291  15.435  66.498  1.00  0.00    -0.289 C  
HETATM   12  O   UNL     1     -11.806  12.339  63.723  1.00  0.00    -0.413 OA 
ENDROOT
BRANCH   4  13
HETATM   13  C   UNL     1     -10.216  10.562  65.030  1.00  0.00    -0.295 C  
BRANCH  13  14
HETATM   14  S   UNL     1      -9.828   9.121  66.065  1.00  0.00    -0.205 SA 
BRANCH  14  15
HETATM   15  C   UNL     1      -8.566   8.397  65.130  1.00  0.00    -0.132 A  
HETATM   16  N   UNL     1      -7.759   9.026  64.307  1.00  0.00    -0.117 NA 
HETATM   17  N   UNL     1      -7.289   6.849  64.198  1.00  0.00    -0.079 NA 
HETATM   18  N   UNL     1      -6.978   8.050  63.729  1.00  0.00    -0.074 NA 
HETATM   19  C   UNL     1      -8.853   5.961  65.807  1.00  0.00    -0.139 C  
HETATM   20  N   UNL     1      -8.284   7.062  65.081  1.00  0.00    -0.133 NA 
ENDBRANCH  14  15
ENDBRANCH  13  14
ENDBRANCH   4  13
BRANCH   8  21
HETATM   21  O   UNL     1      -8.299  16.711  67.501  1.00  0.00    -0.172 OA 
HETATM   22  C   UNL     1      -8.182  17.582  68.625  1.00  0.00    -0.265 C  
ENDBRANCH   8  21
BRANCH   8  23
HETATM   23  N   UNL     1      -9.656  15.428  69.082  1.00  0.00    -0.237 N  
HETATM   24  C   UNL     1     -10.960  15.568  69.483  1.00  0.00    -0.273 C  
HETATM   25  H   UNL     1      -8.957  15.210  69.792  1.00  0.00     0.000 HD 
HETATM   26  O   UNL     1     -11.868  15.855  68.710  1.00  0.00    -0.393 OA 
BRANCH  24  27
HETATM   27  C   UNL     1     -11.201  15.425  70.973  1.00  0.00    -0.364 C  
BRANCH  27  28
HETATM   28  S   UNL     1     -12.709  14.444  71.281  1.00  0.00    -0.367 SA 
BRANCH  28  29
HETATM   29  C   UNL     1     -12.181  12.811  70.631  1.00  0.00    -0.288 C  
HETATM   30  C   UNL     1     -12.727  11.664  71.371  1.00  0.00    -0.339 C  
HETATM   31  N   UNL     1     -13.164  10.761  71.954  1.00  0.00    -0.466 NA 
ENDBRANCH  28  29
ENDBRANCH  27  28
ENDBRANCH  24  27
ENDBRANCH   8  23
TORSDOF 8
ENDMDL
MODEL      106
REMARK 921   NORMALIZED FREE ENERGY PREDICTED BY IDOCK:   -4.52 KCAL/MOL
REMARK 922        TOTAL FREE ENERGY PREDICTED BY IDOCK:   -7.73 KCAL/MOL
REMARK 923 INTER-LIGAND FREE ENERGY PREDICTED BY IDOCK:   -6.76 KCAL/MOL
REMARK 924 INTRA-LIGAND FREE ENERGY PREDICTED BY IDOCK:   -0.97 KCAL/MOL
REMARK 927      BINDING AFFINITY PREDICTED BY RF-SCORE:    0.00 PKD
ROOT
HETATM    1  C   UNL     1      -8.844   8.607  71.644  1.00  0.00    -0.223 C  
HETATM    2  S   UNL     1      -8.423   8.481  69.887  1.00  0.00    -0.128 SA 
HETATM    3  C   UNL     1      -9.266  10.024  69.460  1.00  0.00    -0.221 C  
HETATM    4  C   UNL     1     -10.684  10.142  70.005  1.00  0.00    -0.356 C  
HETATM    5  O   UNL     1     -12.972   9.041  72.690  1.00  0.00    -0.405 OA 
HETATM    6  C   UNL     1     -11.138   9.474  71.110  1.00  0.00    -0.379 C  
HETATM    7  N   UNL     1     -10.295   8.615  71.772  1.00  0.00    -0.287 N  
HETATM    8  C   UNL     1      -8.831   7.243  72.478  1.00  0.00    -0.123 C  
HETATM    9  C   UNL     1     -12.575   9.675  71.574  1.00  0.00    -0.391 C  
HETATM   10  O   UNL     1     -11.305   7.341  73.417  1.00  0.00    -0.173 OA 
HETATM   11  C   UNL     1     -10.365   7.659  72.723  1.00  0.00    -0.295 C  
HETATM   12  O   UNL     1     -13.364  10.433  71.025  1.00  0.00    -0.342 OA 
ENDROOT
BRANCH   4  13
HETATM   13  C   UNL     1     -11.542  11.030  69.096  1.00  0.00    -0.319 C  
BRANCH  13  14
HETATM   14  S   UNL     1     -10.570  12.405  68.416  1.00  0.00    -0.241 SA 
BRANCH  14  15
HETATM   15  C   UNL     1     -11.264  13.733  69.278  1.00  0.00    -0.242 A  
HETATM   16  N   UNL     1     -12.454  13.754  69.833  1.00  0.00    -0.262 NA 
HETATM   17  N   UNL     1     -11.539  15.770  70.099  1.00  0.00    -0.332 NA 
HETATM   18  N   UNL     1     -12.614  15.028  70.331  1.00  0.00    -0.355 NA 
HETATM   19  C   UNL     1      -9.392  15.441  69.049  1.00  0.00    -0.232 C  
HETATM   20  N   UNL     1     -10.687  14.960  69.440  1.00  0.00    -0.252 NA 
ENDBRANCH  14  15
ENDBRANCH  13  14
ENDBRANCH   4  13
BRANCH   8  21
HETATM   21  O   UNL     1      -8.011   7.275  73.681  1.00  0.00    -0.102 OA 
HETATM   22  C   UNL     1      -6.610   7.090  73.486  1.00  0.00    -0.066 C  
ENDBRANCH   8  21
BRANCH   8  23
HETATM   23  N   UNL     1      -8.557   6.030  71.646  1.00  0.00    -0.131 N  
HETATM   24  C   UNL     1      -8.953   4.762  71.985  1.00  0.00    -0.127 C  
HETATM   25  H   UNL     1      -8.044   6.155  70.774  1.00  0.00     0.000 HD 
HETATM   26  O   UNL     1      -9.551   4.506  73.024  1.00  0.00    -0.127 OA 
BRANCH  24  27
HETATM   27  C   UNL     1      -8.529   3.669  71.023  1.00  0.00    -0.071 C  
BRANCH  27  28
HETATM   28  S   UNL     1      -8.165   4.376  69.381  1.00  0.00    -0.063 SA 
BRANCH  28  29
HETATM   29  C   UNL     1      -9.867   4.617  68.737  1.00  0.00    -0.131 C  
HETATM   30  C   UNL     1      -9.957   4.642  67.271  1.00  0.00    -0.159 C  
HETATM   31  N   UNL     1     -10.026   4.656  66.112  1.00  0.00    -0.223 NA 
ENDBRANCH  28  29
ENDBRANCH  27  28
ENDBRANCH  24  27
ENDBRANCH   8  23
TORSDOF 8
ENDMDL
MODEL      107
REMARK 921   NORMALIZED FREE ENERGY PREDICTED BY IDOCK:   -4.51 KCAL/MOL
REMARK 922        TOTAL FREE ENERGY PREDICTED BY IDOCK:   -7.71 KCAL/MOL
REMARK 923 INTER-LIGAND FREE ENERGY PREDICTED BY IDOCK:   -7.97 KCAL/MOL
REMARK 924 INTRA-LIGAND FREE ENERGY PREDICTED BY IDOCK:    0.26 KCAL/MOL
REMARK 927      BINDING AFFINITY PREDICTED BY RF-SCORE:    0.00 PKD
ROOT
HETATM    1  C   UNL     1     -10.950   9.321  69.285  1.00  0.00    -0.085 C  
HETATM    2  S   UNL     1     -11.423   9.468  71.027  1.00  0.00    -0.380 SA 
HETATM    3  C   UNL     1     -12.462  10.920  70.738  1.00  0.00    -0.394 C  
HETATM    4  C   UNL     1     -11.798  12.023  69.924  1.00  0.00    -0.405 C  
HETATM    5  O   UNL     1      -9.211  12.739  67.384  1.00  0.00    -0.179 OA 
HETATM    6  C   UNL     1     -10.770  11.813  69.045  1.00  0.00    -0.169 C  
HETATM    7  N   UNL     1     -10.268  10.544  68.887  1.00  0.00    -0.197 N  
HETATM    8  C   UNL     1      -9.596   8.527  68.980  1.00  0.00    -0.167 C  
HETATM    9  C   UNL     1     -10.185  12.989  68.274  1.00  0.00    -0.246 C  
HETATM   10  O   UNL     1      -8.345  10.415  67.608  1.00  0.00    -0.114 OA 
HETATM   11  C   UNL     1      -9.201   9.940  68.320  1.00  0.00    -0.129 C  
HETATM   12  O   UNL     1     -10.600  14.137  68.373  1.00  0.00    -0.244 OA 
ENDROOT
BRANCH   4  13
HETATM   13  C   UNL     1     -12.373  13.394  70.298  1.00  0.00    -0.284 C  
BRANCH  13  14
HETATM   14  S   UNL     1     -13.417  13.285  71.779  1.00  0.00    -0.295 SA 
BRANCH  14  15
HETATM   15  C   UNL     1     -12.813  14.629  72.686  1.00  0.00    -0.409 A  
HETATM   16  N   UNL     1     -12.889  14.776  73.988  1.00  0.00    -0.356 NA 
HETATM   17  N   UNL     1     -11.948  16.613  73.145  1.00  0.00    -0.423 NA 
HETATM   18  N   UNL     1     -12.357  16.017  74.257  1.00  0.00    -0.587 NA 
HETATM   19  C   UNL     1     -11.892  16.063  70.796  1.00  0.00    -0.340 C  
HETATM   20  N   UNL     1     -12.230  15.744  72.154  1.00  0.00    -0.416 NA 
ENDBRANCH  14  15
ENDBRANCH  13  14
ENDBRANCH   4  13
BRANCH   8  21
HETATM   21  O   UNL     1      -9.731   7.443  68.017  1.00  0.00    -0.140 OA 
HETATM   22  C   UNL     1     -10.786   7.582  67.067  1.00  0.00    -0.297 C  
ENDBRANCH   8  21
BRANCH   8  23
HETATM   23  N   UNL     1      -8.860   8.097  70.208  1.00  0.00    -0.140 N  
HETATM   24  C   UNL     1      -9.059   6.896  70.841  1.00  0.00    -0.153 C  
HETATM   25  H   UNL     1      -8.167   8.735  70.599  1.00  0.00     0.000 HD 
HETATM   26  O   UNL     1      -9.887   6.074  70.465  1.00  0.00    -0.173 OA 
BRANCH  24  27
HETATM   27  C   UNL     1      -8.241   6.681  72.100  1.00  0.00    -0.105 C  
BRANCH  27  28
HETATM   28  S   UNL     1      -8.837   7.769  73.438  1.00  0.00    -0.270 SA 
BRANCH  28  29
HETATM   29  C   UNL     1     -10.496   7.043  73.742  1.00  0.00    -0.354 C  
HETATM   30  C   UNL     1     -10.470   5.624  74.122  1.00  0.00    -0.258 C  
HETATM   31  N   UNL     1     -10.447   4.505  74.428  1.00  0.00    -0.263 NA 
ENDBRANCH  28  29
ENDBRANCH  27  28
ENDBRANCH  24  27
ENDBRANCH   8  23
TORSDOF 8
ENDMDL
MODEL      108
REMARK 921   NORMALIZED FREE ENERGY PREDICTED BY IDOCK:   -4.50 KCAL/MOL
REMARK 922        TOTAL FREE ENERGY PREDICTED BY IDOCK:   -7.69 KCAL/MOL
REMARK 923 INTER-LIGAND FREE ENERGY PREDICTED BY IDOCK:   -6.37 KCAL/MOL
REMARK 924 INTRA-LIGAND FREE ENERGY PREDICTED BY IDOCK:   -1.33 KCAL/MOL
REMARK 927      BINDING AFFINITY PREDICTED BY RF-SCORE:    0.00 PKD
ROOT
HETATM    1  C   UNL     1      -8.523   9.037  67.452  1.00  0.00    -0.115 C  
HETATM    2  S   UNL     1     -10.162   9.640  66.974  1.00  0.00    -0.246 SA 
HETATM    3  C   UNL     1      -9.513  11.168  66.255  1.00  0.00    -0.196 C  
HETATM    4  C   UNL     1      -8.538  11.925  67.149  1.00  0.00    -0.172 C  
HETATM    5  O   UNL     1      -6.086  11.573  69.892  1.00  0.00    -0.110 OA 
HETATM    6  C   UNL     1      -7.792  11.339  68.136  1.00  0.00    -0.127 C  
HETATM    7  N   UNL     1      -7.931   9.993  68.377  1.00  0.00    -0.096 N  
HETATM    8  C   UNL     1      -8.478   7.953  68.626  1.00  0.00    -0.128 C  
HETATM    9  C   UNL     1      -6.839  12.190  68.966  1.00  0.00    -0.098 C  
HETATM   10  O   UNL     1      -6.838   9.229  70.267  1.00  0.00    -0.053 OA 
HETATM   11  C   UNL     1      -7.572   9.089  69.314  1.00  0.00    -0.079 C  
HETATM   12  O   UNL     1      -6.673  13.390  68.787  1.00  0.00    -0.094 OA 
ENDROOT
BRANCH   4  13
HETATM   13  C   UNL     1      -8.584  13.428  66.853  1.00  0.00    -0.100 C  
BRANCH  13  14
HETATM   14  S   UNL     1     -10.171  13.900  66.107  1.00  0.00    -0.309 SA 
BRANCH  14  15
HETATM   15  C   UNL     1     -10.897  14.745  67.429  1.00  0.00    -0.300 A  
HETATM   16  N   UNL     1     -10.877  16.044  67.617  1.00  0.00    -0.323 NA 
HETATM   17  N   UNL     1     -11.912  15.115  69.361  1.00  0.00    -0.317 NA 
HETATM   18  N   UNL     1     -11.503  16.259  68.825  1.00  0.00    -0.337 NA 
HETATM   19  C   UNL     1     -11.847  12.784  68.743  1.00  0.00    -0.307 C  
HETATM   20  N   UNL     1     -11.536  14.162  68.486  1.00  0.00    -0.296 NA 
ENDBRANCH  14  15
ENDBRANCH  13  14
ENDBRANCH   4  13
BRANCH   8  21
HETATM   21  O   UNL     1      -7.750   6.735  68.300  1.00  0.00    -0.102 OA 
HETATM   22  C   UNL     1      -8.274   5.966  67.218  1.00  0.00    -0.105 C  
ENDBRANCH   8  21
BRANCH   8  23
HETATM   23  N   UNL     1      -9.816   7.662  69.228  1.00  0.00    -0.165 N  
HETATM   24  C   UNL     1      -9.995   7.147  70.487  1.00  0.00    -0.187 C  
HETATM   25  H   UNL     1     -10.646   7.858  68.669  1.00  0.00     0.000 HD 
HETATM   26  O   UNL     1      -9.062   6.852  71.225  1.00  0.00    -0.148 OA 
BRANCH  24  27
HETATM   27  C   UNL     1     -11.435   6.882  70.882  1.00  0.00    -0.323 C  
BRANCH  27  28
HETATM   28  S   UNL     1     -11.947   8.020  72.213  1.00  0.00    -0.352 SA 
BRANCH  28  29
HETATM   29  C   UNL     1     -11.578   9.638  71.428  1.00  0.00    -0.400 C  
HETATM   30  C   UNL     1     -12.602  10.666  71.661  1.00  0.00    -0.377 C  
HETATM   31  N   UNL     1     -13.409  11.478  71.853  1.00  0.00    -0.404 NA 
ENDBRANCH  28  29
ENDBRANCH  27  28
ENDBRANCH  24  27
ENDBRANCH   8  23
TORSDOF 8
ENDMDL
MODEL      109
REMARK 921   NORMALIZED FREE ENERGY PREDICTED BY IDOCK:   -4.50 KCAL/MOL
REMARK 922        TOTAL FREE ENERGY PREDICTED BY IDOCK:   -7.69 KCAL/MOL
REMARK 923 INTER-LIGAND FREE ENERGY PREDICTED BY IDOCK:   -6.81 KCAL/MOL
REMARK 924 INTRA-LIGAND FREE ENERGY PREDICTED BY IDOCK:   -0.88 KCAL/MOL
REMARK 927      BINDING AFFINITY PREDICTED BY RF-SCORE:    0.00 PKD
ROOT
HETATM    1  C   UNL     1     -11.165   7.954  70.393  1.00  0.00    -0.234 C  
HETATM    2  S   UNL     1     -10.998   7.653  68.616  1.00  0.00     0.243 SA 
HETATM    3  C   UNL     1     -10.872   5.860  68.818  1.00  0.00    -0.283 C  
HETATM    4  C   UNL     1      -9.867   5.410  69.871  1.00  0.00    -0.268 C  
HETATM    5  O   UNL     1      -8.135   6.395  72.984  1.00  0.00    -0.106 OA 
HETATM    6  C   UNL     1      -9.470   6.182  70.929  1.00  0.00    -0.172 C  
HETATM    7  N   UNL     1      -9.971   7.455  71.060  1.00  0.00    -0.184 N  
HETATM    8  C   UNL     1     -10.776   9.418  70.907  1.00  0.00    -0.323 C  
HETATM    9  C   UNL     1      -8.464   5.628  71.931  1.00  0.00    -0.127 C  
HETATM   10  O   UNL     1      -8.969   8.725  72.714  1.00  0.00    -0.361 OA 
HETATM   11  C   UNL     1      -9.728   8.570  71.784  1.00  0.00    -0.267 C  
HETATM   12  O   UNL     1      -7.994   4.500  71.864  1.00  0.00    -0.093 OA 
ENDROOT
BRANCH   4  13
HETATM   13  C   UNL     1      -9.301   4.028  69.526  1.00  0.00    -0.173 C  
BRANCH  13  14
HETATM   14  S   UNL     1      -8.920   3.900  67.756  1.00  0.00    -0.142 SA 
BRANCH  14  15
HETATM   15  C   UNL     1      -7.698   5.115  67.612  1.00  0.00    -0.088 A  
HETATM   16  N   UNL     1      -6.625   5.221  68.362  1.00  0.00    -0.047 NA 
HETATM   17  N   UNL     1      -6.648   6.947  66.950  1.00  0.00    -0.046 NA 
HETATM   18  N   UNL     1      -5.988   6.369  67.945  1.00  0.00    -0.019 NA 
HETATM   19  C   UNL     1      -8.655   6.484  65.693  1.00  0.00    -0.126 C  
HETATM   20  N   UNL     1      -7.722   6.161  66.735  1.00  0.00    -0.102 NA 
ENDBRANCH  14  15
ENDBRANCH  13  14
ENDBRANCH   4  13
BRANCH   8  21
HETATM   21  O   UNL     1     -11.807  10.078  71.695  1.00  0.00    -0.365 OA 
HETATM   22  C   UNL     1     -12.978   9.309  71.960  1.00  0.00    -0.425 C  
ENDBRANCH   8  21
BRANCH   8  23
HETATM   23  N   UNL     1     -10.235  10.309  69.834  1.00  0.00    -0.371 N  
HETATM   24  C   UNL     1     -11.015  11.067  69.000  1.00  0.00    -0.233 C  
HETATM   25  H   UNL     1      -9.223  10.355  69.716  1.00  0.00     0.000 HD 
HETATM   26  O   UNL     1     -12.241  11.060  69.045  1.00  0.00    -0.483 OA 
BRANCH  24  27
HETATM   27  C   UNL     1     -10.264  11.862  67.950  1.00  0.00    -0.193 C  
BRANCH  27  28
HETATM   28  S   UNL     1     -11.433  12.781  66.892  1.00  0.00    -0.360 SA 
BRANCH  28  29
HETATM   29  C   UNL     1     -10.991  12.105  65.243  1.00  0.00    -0.304 C  
HETATM   30  C   UNL     1     -12.099  12.104  64.278  1.00  0.00    -0.375 C  
HETATM   31  N   UNL     1     -12.974  12.110  63.515  1.00  0.00    -0.784 NA 
ENDBRANCH  28  29
ENDBRANCH  27  28
ENDBRANCH  24  27
ENDBRANCH   8  23
TORSDOF 8
ENDMDL
MODEL      110
REMARK 921   NORMALIZED FREE ENERGY PREDICTED BY IDOCK:   -4.49 KCAL/MOL
REMARK 922        TOTAL FREE ENERGY PREDICTED BY IDOCK:   -7.68 KCAL/MOL
REMARK 923 INTER-LIGAND FREE ENERGY PREDICTED BY IDOCK:   -6.92 KCAL/MOL
REMARK 924 INTRA-LIGAND FREE ENERGY PREDICTED BY IDOCK:   -0.76 KCAL/MOL
REMARK 927      BINDING AFFINITY PREDICTED BY RF-SCORE:    0.00 PKD
ROOT
HETATM    1  C   UNL     1      -8.105  10.135  65.309  1.00  0.00    -0.151 C  
HETATM    2  S   UNL     1      -9.915  10.204  65.331  1.00  0.00    -0.277 SA 
HETATM    3  C   UNL     1      -9.954  11.996  65.578  1.00  0.00    -0.241 C  
HETATM    4  C   UNL     1      -9.054  12.501  66.700  1.00  0.00    -0.203 C  
HETATM    5  O   UNL     1      -5.996  11.787  68.647  1.00  0.00    -0.049 OA 
HETATM    6  C   UNL     1      -7.943  11.838  67.146  1.00  0.00    -0.166 C  
HETATM    7  N   UNL     1      -7.609  10.629  66.586  1.00  0.00    -0.122 N  
HETATM    8  C   UNL     1      -7.443   8.722  65.657  1.00  0.00    -0.085 C  
HETATM    9  C   UNL     1      -7.107  12.440  68.268  1.00  0.00    -0.098 C  
HETATM   10  O   UNL     1      -5.895   9.504  67.658  1.00  0.00    -0.044 OA 
HETATM   11  C   UNL     1      -6.772   9.597  66.828  1.00  0.00    -0.075 C  
HETATM   12  O   UNL     1      -7.357  13.517  68.795  1.00  0.00    -0.105 OA 
ENDROOT
BRANCH   4  13
HETATM   13  C   UNL     1      -9.619  13.788  67.310  1.00  0.00    -0.237 C  
BRANCH  13  14
HETATM   14  S   UNL     1      -8.809  15.255  66.610  1.00  0.00    -0.294 SA 
BRANCH  14  15
HETATM   15  C   UNL     1     -10.061  15.833  65.566  1.00  0.00    -0.351 A  
HETATM   16  N   UNL     1     -10.787  15.099  64.755  1.00  0.00    -0.397 NA 
HETATM   17  N   UNL     1     -11.375  17.230  64.463  1.00  0.00    -0.831 NA 
HETATM   18  N   UNL     1     -11.592  15.982  64.070  1.00  0.00    -0.723 NA 
HETATM   19  C   UNL     1      -9.949  18.324  66.073  1.00  0.00    -0.215 C  
HETATM   20  N   UNL     1     -10.416  17.142  65.405  1.00  0.00    -0.651 NA 
ENDBRANCH  14  15
ENDBRANCH  13  14
ENDBRANCH   4  13
BRANCH   8  21
HETATM   21  O   UNL     1      -6.494   8.235  64.666  1.00  0.00    -0.063 OA 
HETATM   22  C   UNL     1      -7.001   8.079  63.342  1.00  0.00    -0.084 C  
ENDBRANCH   8  21
BRANCH   8  23
HETATM   23  N   UNL     1      -8.434   7.672  66.046  1.00  0.00    -0.137 N  
HETATM   24  C   UNL     1      -8.093   6.448  66.564  1.00  0.00    -0.111 C  
HETATM   25  H   UNL     1      -9.425   7.879  65.919  1.00  0.00     0.000 HD 
HETATM   26  O   UNL     1      -6.931   6.096  66.729  1.00  0.00    -0.067 OA 
BRANCH  24  27
HETATM   27  C   UNL     1      -9.254   5.514  66.844  1.00  0.00    -0.119 C  
BRANCH  27  28
HETATM   28  S   UNL     1     -10.785   6.468  67.120  1.00  0.00    -0.402 SA 
BRANCH  28  29
HETATM   29  C   UNL     1     -10.505   7.055  68.837  1.00  0.00    -0.203 C  
HETATM   30  C   UNL     1     -10.520   8.518  68.982  1.00  0.00    -0.200 C  
HETATM   31  N   UNL     1     -10.538   9.673  69.094  1.00  0.00    -0.215 NA 
ENDBRANCH  28  29
ENDBRANCH  27  28
ENDBRANCH  24  27
ENDBRANCH   8  23
TORSDOF 8
ENDMDL
MODEL      111
REMARK 921   NORMALIZED FREE ENERGY PREDICTED BY IDOCK:   -4.48 KCAL/MOL
REMARK 922        TOTAL FREE ENERGY PREDICTED BY IDOCK:   -7.68 KCAL/MOL
REMARK 923 INTER-LIGAND FREE ENERGY PREDICTED BY IDOCK:   -6.74 KCAL/MOL
REMARK 924 INTRA-LIGAND FREE ENERGY PREDICTED BY IDOCK:   -0.94 KCAL/MOL
REMARK 927      BINDING AFFINITY PREDICTED BY RF-SCORE:    0.00 PKD
ROOT
HETATM    1  C   UNL     1      -7.417  10.142  68.583  1.00  0.00    -0.084 C  
HETATM    2  S   UNL     1      -8.459   9.806  70.025  1.00  0.00    -0.175 SA 
HETATM    3  C   UNL     1      -8.293   8.011  69.865  1.00  0.00    -0.121 C  
HETATM    4  C   UNL     1      -8.553   7.473  68.463  1.00  0.00    -0.129 C  
HETATM    5  O   UNL     1      -8.485   8.311  64.864  1.00  0.00    -0.157 OA 
HETATM    6  C   UNL     1      -8.408   8.212  67.321  1.00  0.00    -0.121 C  
HETATM    7  N   UNL     1      -8.034   9.531  67.414  1.00  0.00    -0.106 N  
HETATM    8  C   UNL     1      -7.614  11.564  67.878  1.00  0.00    -0.113 C  
HETATM    9  C   UNL     1      -8.685   7.570  65.967  1.00  0.00    -0.158 C  
HETATM   10  O   UNL     1      -8.136  10.711  65.427  1.00  0.00    -0.156 OA 
HETATM   11  C   UNL     1      -7.965  10.623  66.622  1.00  0.00    -0.134 C  
HETATM   12  O   UNL     1      -9.014   6.398  65.829  1.00  0.00    -0.138 OA 
ENDROOT
BRANCH   4  13
HETATM   13  C   UNL     1      -9.083   6.036  68.523  1.00  0.00    -0.112 C  
BRANCH  13  14
HETATM   14  S   UNL     1     -10.864   6.010  68.877  1.00  0.00    -0.315 SA 
BRANCH  14  15
HETATM   15  C   UNL     1     -10.838   5.757  70.588  1.00  0.00    -0.267 A  
HETATM   16  N   UNL     1     -10.222   4.781  71.213  1.00  0.00    -0.186 NA 
HETATM   17  N   UNL     1     -11.320   5.984  72.736  1.00  0.00    -0.266 NA 
HETATM   18  N   UNL     1     -10.538   4.929  72.545  1.00  0.00    -0.211 NA 
HETATM   19  C   UNL     1     -12.300   7.696  71.347  1.00  0.00    -0.333 C  
HETATM   20  N   UNL     1     -11.509   6.510  71.509  1.00  0.00    -0.288 NA 
ENDBRANCH  14  15
ENDBRANCH  13  14
ENDBRANCH   4  13
BRANCH   8  21
HETATM   21  O   UNL     1      -6.390  12.336  67.714  1.00  0.00    -0.075 OA 
HETATM   22  C   UNL     1      -5.718  12.701  68.918  1.00  0.00    -0.068 C  
ENDBRANCH   8  21
BRANCH   8  23
HETATM   23  N   UNL     1      -8.716  12.383  68.472  1.00  0.00    -0.345 N  
HETATM   24  C   UNL     1      -9.258  13.491  67.872  1.00  0.00    -0.211 C  
HETATM   25  H   UNL     1      -9.089  12.098  69.378  1.00  0.00     0.000 HD 
HETATM   26  O   UNL     1      -8.861  13.927  66.797  1.00  0.00    -0.224 OA 
BRANCH  24  27
HETATM   27  C   UNL     1     -10.334  14.202  68.670  1.00  0.00    -0.243 C  
BRANCH  27  28
HETATM   28  S   UNL     1     -11.984  13.579  68.205  1.00  0.00    -0.283 SA 
BRANCH  28  29
HETATM   29  C   UNL     1     -12.129  14.259  66.505  1.00  0.00    -0.429 C  
HETATM   30  C   UNL     1     -12.575  13.282  65.503  1.00  0.00    -0.446 C  
HETATM   31  N   UNL     1     -12.933  12.509  64.714  1.00  0.00    -0.842 NA 
ENDBRANCH  28  29
ENDBRANCH  27  28
ENDBRANCH  24  27
ENDBRANCH   8  23
TORSDOF 8
ENDMDL
MODEL      112
REMARK 921   NORMALIZED FREE ENERGY PREDICTED BY IDOCK:   -4.48 KCAL/MOL
REMARK 922        TOTAL FREE ENERGY PREDICTED BY IDOCK:   -7.67 KCAL/MOL
REMARK 923 INTER-LIGAND FREE ENERGY PREDICTED BY IDOCK:   -6.40 KCAL/MOL
REMARK 924 INTRA-LIGAND FREE ENERGY PREDICTED BY IDOCK:   -1.27 KCAL/MOL
REMARK 927      BINDING AFFINITY PREDICTED BY RF-SCORE:    0.00 PKD
ROOT
HETATM    1  C   UNL     1      -8.158   9.122  68.403  1.00  0.00    -0.104 C  
HETATM    2  S   UNL     1      -7.774   9.789  70.042  1.00  0.00    -0.180 SA 
HETATM    3  C   UNL     1      -7.194   8.197  70.677  1.00  0.00    -0.052 C  
HETATM    4  C   UNL     1      -8.137   7.029  70.416  1.00  0.00    -0.119 C  
HETATM    5  O   UNL     1     -10.782   5.748  68.176  1.00  0.00    -0.240 OA 
HETATM    6  C   UNL     1      -9.047   6.994  69.394  1.00  0.00    -0.145 C  
HETATM    7  N   UNL     1      -9.159   8.075  68.553  1.00  0.00    -0.137 N  
HETATM    8  C   UNL     1      -9.220   9.940  67.532  1.00  0.00    -0.134 C  
HETATM    9  C   UNL     1      -9.935   5.769  69.218  1.00  0.00    -0.182 C  
HETATM   10  O   UNL     1     -10.943   7.980  67.084  1.00  0.00    -0.191 OA 
HETATM   11  C   UNL     1      -9.996   8.534  67.598  1.00  0.00    -0.198 C  
HETATM   12  O   UNL     1      -9.871   4.778  69.935  1.00  0.00    -0.185 OA 
ENDROOT
BRANCH   4  13
HETATM   13  C   UNL     1      -7.988   5.958  71.502  1.00  0.00    -0.113 C  
BRANCH  13  14
HETATM   14  S   UNL     1      -8.471   6.605  73.129  1.00  0.00    -0.116 SA 
BRANCH  14  15
HETATM   15  C   UNL     1     -10.080   7.139  72.786  1.00  0.00    -0.196 A  
HETATM   16  N   UNL     1     -10.440   8.371  72.508  1.00  0.00    -0.329 NA 
HETATM   17  N   UNL     1     -12.283   7.116  72.573  1.00  0.00    -0.031 NA 
HETATM   18  N   UNL     1     -11.811   8.343  72.387  1.00  0.00    -0.388 NA 
HETATM   19  C   UNL     1     -11.343   4.946  73.048  1.00  0.00    -0.273 C  
HETATM   20  N   UNL     1     -11.198   6.356  72.821  1.00  0.00    -0.249 NA 
ENDBRANCH  14  15
ENDBRANCH  13  14
ENDBRANCH   4  13
BRANCH   8  21
HETATM   21  O   UNL     1      -8.763  10.300  66.198  1.00  0.00    -0.145 OA 
HETATM   22  C   UNL     1      -7.462  10.879  66.120  1.00  0.00    -0.107 C  
ENDBRANCH   8  21
BRANCH   8  23
HETATM   23  N   UNL     1      -9.819  11.107  68.253  1.00  0.00    -0.182 N  
HETATM   24  C   UNL     1     -11.031  11.664  67.936  1.00  0.00    -0.225 C  
HETATM   25  H   UNL     1      -9.293  11.512  69.027  1.00  0.00     0.000 HD 
HETATM   26  O   UNL     1     -11.725  11.266  67.007  1.00  0.00    -0.503 OA 
BRANCH  24  27
HETATM   27  C   UNL     1     -11.427  12.872  68.763  1.00  0.00    -0.303 C  
BRANCH  27  28
HETATM   28  S   UNL     1     -10.333  14.283  68.392  1.00  0.00    -0.252 SA 
BRANCH  28  29
HETATM   29  C   UNL     1     -11.424  15.683  68.860  1.00  0.00    -0.361 C  
HETATM   30  C   UNL     1     -11.736  15.748  70.294  1.00  0.00    -0.358 C  
HETATM   31  N   UNL     1     -11.975  15.801  71.429  1.00  0.00    -0.400 NA 
ENDBRANCH  28  29
ENDBRANCH  27  28
ENDBRANCH  24  27
ENDBRANCH   8  23
TORSDOF 8
ENDMDL
MODEL      113
REMARK 921   NORMALIZED FREE ENERGY PREDICTED BY IDOCK:   -4.47 KCAL/MOL
REMARK 922        TOTAL FREE ENERGY PREDICTED BY IDOCK:   -7.65 KCAL/MOL
REMARK 923 INTER-LIGAND FREE ENERGY PREDICTED BY IDOCK:   -6.89 KCAL/MOL
REMARK 924 INTRA-LIGAND FREE ENERGY PREDICTED BY IDOCK:   -0.76 KCAL/MOL
REMARK 927      BINDING AFFINITY PREDICTED BY RF-SCORE:    0.00 PKD
ROOT
HETATM    1  C   UNL     1      -9.694  12.032  66.659  1.00  0.00    -0.208 C  
HETATM    2  S   UNL     1     -10.711  13.094  67.716  1.00  0.00    -0.245 SA 
HETATM    3  C   UNL     1      -9.759  14.582  67.326  1.00  0.00    -0.232 C  
HETATM    4  C   UNL     1      -8.250  14.421  67.456  1.00  0.00    -0.201 C  
HETATM    5  O   UNL     1      -5.466  11.993  67.330  1.00  0.00    -0.102 OA 
HETATM    6  C   UNL     1      -7.596  13.224  67.351  1.00  0.00    -0.129 C  
HETATM    7  N   UNL     1      -8.322  12.075  67.144  1.00  0.00    -0.175 N  
HETATM    8  C   UNL     1      -9.708  10.469  66.996  1.00  0.00    -0.177 C  
HETATM    9  C   UNL     1      -6.079  13.179  67.487  1.00  0.00    -0.105 C  
HETATM   10  O   UNL     1      -7.101  10.116  67.301  1.00  0.00    -0.086 OA 
HETATM   11  C   UNL     1      -8.133  10.738  67.174  1.00  0.00    -0.124 C  
HETATM   12  O   UNL     1      -5.386  14.172  67.664  1.00  0.00    -0.307 OA 
ENDROOT
BRANCH   4  13
HETATM   13  C   UNL     1      -7.590  15.759  67.810  1.00  0.00    -0.140 C  
BRANCH  13  14
HETATM   14  S   UNL     1      -7.872  16.993  66.508  1.00  0.00    -0.322 SA 
BRANCH  14  15
HETATM   15  C   UNL     1      -8.760  18.183  67.395  1.00  0.00    -0.245 A  
HETATM   16  N   UNL     1      -8.475  18.615  68.602  1.00  0.00    -0.325 NA 
HETATM   17  N   UNL     1     -10.365  19.602  67.949  1.00  0.00    -0.440 NA 
HETATM   18  N   UNL     1      -9.486  19.489  68.936  1.00  0.00    -0.390 NA 
HETATM   19  C   UNL     1     -10.621  18.681  65.734  1.00  0.00    -0.249 C  
HETATM   20  N   UNL     1      -9.912  18.786  66.977  1.00  0.00    -0.324 NA 
ENDBRANCH  14  15
ENDBRANCH  13  14
ENDBRANCH   4  13
BRANCH   8  21
HETATM   21  O   UNL     1     -10.036   9.608  65.869  1.00  0.00    -0.288 OA 
HETATM   22  C   UNL     1      -9.741  10.133  64.577  1.00  0.00    -0.293 C  
ENDBRANCH   8  21
BRANCH   8  23
HETATM   23  N   UNL     1     -10.503  10.123  68.215  1.00  0.00    -0.199 N  
HETATM   24  C   UNL     1     -10.422   8.919  68.868  1.00  0.00    -0.205 C  
HETATM   25  H   UNL     1     -11.143  10.826  68.584  1.00  0.00     0.000 HD 
HETATM   26  O   UNL     1      -9.702   8.002  68.488  1.00  0.00    -0.153 OA 
BRANCH  24  27
HETATM   27  C   UNL     1     -11.351   8.760  70.055  1.00  0.00    -0.032 C  
BRANCH  27  28
HETATM   28  S   UNL     1     -10.414   8.884  71.616  1.00  0.00    -0.354 SA 
BRANCH  28  29
HETATM   29  C   UNL     1     -11.410   7.777  72.690  1.00  0.00    -0.393 C  
HETATM   30  C   UNL     1     -11.161   6.345  72.473  1.00  0.00    -0.263 C  
HETATM   31  N   UNL     1     -10.957   5.215  72.304  1.00  0.00    -0.184 NA 
ENDBRANCH  28  29
ENDBRANCH  27  28
ENDBRANCH  24  27
ENDBRANCH   8  23
TORSDOF 8
ENDMDL
MODEL      114
REMARK 921   NORMALIZED FREE ENERGY PREDICTED BY IDOCK:   -4.43 KCAL/MOL
REMARK 922        TOTAL FREE ENERGY PREDICTED BY IDOCK:   -7.59 KCAL/MOL
REMARK 923 INTER-LIGAND FREE ENERGY PREDICTED BY IDOCK:   -6.76 KCAL/MOL
REMARK 924 INTRA-LIGAND FREE ENERGY PREDICTED BY IDOCK:   -0.84 KCAL/MOL
REMARK 927      BINDING AFFINITY PREDICTED BY RF-SCORE:    0.00 PKD
ROOT
HETATM    1  C   UNL     1      -8.897  11.670  68.786  1.00  0.00    -0.011 C  
HETATM    2  S   UNL     1      -7.302  12.016  68.003  1.00  0.00    -0.114 SA 
HETATM    3  C   UNL     1      -7.685  13.764  67.738  1.00  0.00    -0.168 C  
HETATM    4  C   UNL     1      -9.041  14.025  67.094  1.00  0.00    -0.239 C  
HETATM    5  O   UNL     1     -12.452  12.681  66.627  1.00  0.00    -0.368 OA 
HETATM    6  C   UNL     1     -10.102  13.163  67.167  1.00  0.00    -0.242 C  
HETATM    7  N   UNL     1      -9.955  11.969  67.831  1.00  0.00    -0.192 N  
HETATM    8  C   UNL     1      -9.383  10.147  68.769  1.00  0.00    -0.168 C  
HETATM    9  C   UNL     1     -11.418  13.528  66.493  1.00  0.00    -0.339 C  
HETATM   10  O   UNL     1     -11.730  10.505  67.596  1.00  0.00    -0.401 OA 
HETATM   11  C   UNL     1     -10.621  10.803  67.978  1.00  0.00    -0.207 C  
HETATM   12  O   UNL     1     -11.603  14.581  65.895  1.00  0.00    -0.350 OA 
ENDROOT
BRANCH   4  13
HETATM   13  C   UNL     1      -9.017  15.326  66.285  1.00  0.00    -0.279 C  
BRANCH  13  14
HETATM   14  S   UNL     1      -8.904  16.773  67.375  1.00  0.00    -0.201 SA 
BRANCH  14  15
HETATM   15  C   UNL     1      -9.910  17.889  66.518  1.00  0.00    -0.343 A  
HETATM   16  N   UNL     1     -10.548  17.645  65.397  1.00  0.00    -0.625 NA 
HETATM   17  N   UNL     1     -10.900  19.780  65.937  1.00  0.00    -0.380 NA 
HETATM   18  N   UNL     1     -11.151  18.832  65.043  1.00  0.00    -0.191 NA 
HETATM   19  C   UNL     1      -9.679  19.936  68.012  1.00  0.00    -0.393 C  
HETATM   20  N   UNL     1     -10.124  19.191  66.867  1.00  0.00    -0.347 NA 
ENDBRANCH  14  15
ENDBRANCH  13  14
ENDBRANCH   4  13
BRANCH   8  21
HETATM   21  O   UNL     1      -9.736   9.607  70.074  1.00  0.00    -0.213 OA 
HETATM   22  C   UNL     1     -10.961  10.077  70.633  1.00  0.00    -0.322 C  
ENDBRANCH   8  21
BRANCH   8  23
HETATM   23  N   UNL     1      -8.472   9.233  68.012  1.00  0.00    -0.120 N  
HETATM   24  C   UNL     1      -8.789   7.942  67.673  1.00  0.00    -0.128 C  
HETATM   25  H   UNL     1      -7.560   9.592  67.731  1.00  0.00     0.000 HD 
HETATM   26  O   UNL     1      -9.849   7.412  67.988  1.00  0.00    -0.141 OA 
BRANCH  24  27
HETATM   27  C   UNL     1      -7.701   7.174  66.948  1.00  0.00    -0.106 C  
BRANCH  27  28
HETATM   28  S   UNL     1      -6.929   8.223  65.669  1.00  0.00    -0.067 SA 
BRANCH  28  29
HETATM   29  C   UNL     1      -5.273   8.492  66.415  1.00  0.00    -0.031 C  
HETATM   30  C   UNL     1      -5.296   8.699  67.870  1.00  0.00    -0.035 C  
HETATM   31  N   UNL     1      -5.316   8.855  69.020  1.00  0.00    -0.036 NA 
ENDBRANCH  28  29
ENDBRANCH  27  28
ENDBRANCH  24  27
ENDBRANCH   8  23
TORSDOF 8
ENDMDL
MODEL      115
REMARK 921   NORMALIZED FREE ENERGY PREDICTED BY IDOCK:   -4.43 KCAL/MOL
REMARK 922        TOTAL FREE ENERGY PREDICTED BY IDOCK:   -7.59 KCAL/MOL
REMARK 923 INTER-LIGAND FREE ENERGY PREDICTED BY IDOCK:   -6.50 KCAL/MOL
REMARK 924 INTRA-LIGAND FREE ENERGY PREDICTED BY IDOCK:   -1.09 KCAL/MOL
REMARK 927      BINDING AFFINITY PREDICTED BY RF-SCORE:    0.00 PKD
ROOT
HETATM    1  C   UNL     1      -7.981  15.463  69.317  1.00  0.00    -0.229 C  
HETATM    2  S   UNL     1      -9.600  16.243  69.100  1.00  0.00    -0.228 SA 
HETATM    3  C   UNL     1     -10.504  14.698  69.367  1.00  0.00    -0.162 C  
HETATM    4  C   UNL     1      -9.994  13.517  68.550  1.00  0.00    -0.202 C  
HETATM    5  O   UNL     1      -7.035  12.088  66.860  1.00  0.00    -0.122 OA 
HETATM    6  C   UNL     1      -8.717  13.412  68.071  1.00  0.00    -0.178 C  
HETATM    7  N   UNL     1      -7.824  14.431  68.301  1.00  0.00    -0.129 N  
HETATM    8  C   UNL     1      -6.732  16.220  68.666  1.00  0.00    -0.138 C  
HETATM    9  C   UNL     1      -8.310  12.180  67.272  1.00  0.00    -0.179 C  
HETATM   10  O   UNL     1      -5.817  14.237  67.168  1.00  0.00    -0.185 OA 
HETATM   11  C   UNL     1      -6.603  14.824  67.879  1.00  0.00    -0.161 C  
HETATM   12  O   UNL     1      -9.063  11.242  67.045  1.00  0.00    -0.158 OA 
ENDROOT
BRANCH   4  13
HETATM   13  C   UNL     1     -11.128  12.525  68.265  1.00  0.00    -0.257 C  
BRANCH  13  14
HETATM   14  S   UNL     1     -12.393  13.267  67.194  1.00  0.00     0.077 SA 
BRANCH  14  15
HETATM   15  C   UNL     1     -11.799  12.798  65.639  1.00  0.00    -0.425 A  
HETATM   16  N   UNL     1     -11.985  11.633  65.063  1.00  0.00    -0.093 NA 
HETATM   17  N   UNL     1     -10.674  12.854  63.734  1.00  0.00    -0.359 NA 
HETATM   18  N   UNL     1     -11.273  11.679  63.885  1.00  0.00    -0.396 NA 
HETATM   19  C   UNL     1     -10.538  14.910  64.989  1.00  0.00    -0.422 C  
HETATM   20  N   UNL     1     -11.004  13.561  64.833  1.00  0.00    -0.332 NA 
ENDBRANCH  14  15
ENDBRANCH  13  14
ENDBRANCH   4  13
BRANCH   8  21
HETATM   21  O   UNL     1      -5.635  16.484  69.585  1.00  0.00    -0.145 OA 
HETATM   22  C   UNL     1      -5.685  17.732  70.273  1.00  0.00    -0.200 C  
ENDBRANCH   8  21
BRANCH   8  23
HETATM   23  N   UNL     1      -7.109  17.436  67.880  1.00  0.00    -0.170 N  
HETATM   24  C   UNL     1      -6.532  17.787  66.686  1.00  0.00    -0.195 C  
HETATM   25  H   UNL     1      -7.840  18.040  68.255  1.00  0.00     0.000 HD 
HETATM   26  O   UNL     1      -5.628  17.141  66.167  1.00  0.00    -0.321 OA 
BRANCH  24  27
HETATM   27  C   UNL     1      -7.029  19.086  66.081  1.00  0.00    -0.246 C  
BRANCH  27  28
HETATM   28  S   UNL     1      -5.986  19.565  64.663  1.00  0.00    -0.267 SA 
BRANCH  28  29
HETATM   29  C   UNL     1      -5.245  21.118  65.305  1.00  0.00    -0.190 C  
HETATM   30  C   UNL     1      -5.212  21.206  66.772  1.00  0.00    -0.225 C  
HETATM   31  N   UNL     1      -5.182  21.270  67.930  1.00  0.00    -0.261 NA 
ENDBRANCH  28  29
ENDBRANCH  27  28
ENDBRANCH  24  27
ENDBRANCH   8  23
TORSDOF 8
ENDMDL
MODEL      116
REMARK 921   NORMALIZED FREE ENERGY PREDICTED BY IDOCK:   -4.42 KCAL/MOL
REMARK 922        TOTAL FREE ENERGY PREDICTED BY IDOCK:   -7.58 KCAL/MOL
REMARK 923 INTER-LIGAND FREE ENERGY PREDICTED BY IDOCK:   -7.01 KCAL/MOL
REMARK 924 INTRA-LIGAND FREE ENERGY PREDICTED BY IDOCK:   -0.58 KCAL/MOL
REMARK 927      BINDING AFFINITY PREDICTED BY RF-SCORE:    0.00 PKD
ROOT
HETATM    1  C   UNL     1     -10.982   8.637  69.426  1.00  0.00    -0.019 C  
HETATM    2  S   UNL     1     -10.762   8.716  67.630  1.00  0.00    -0.026 SA 
HETATM    3  C   UNL     1     -10.633   6.920  67.455  1.00  0.00    -0.303 C  
HETATM    4  C   UNL     1      -9.656   6.258  68.419  1.00  0.00    -0.121 C  
HETATM    5  O   UNL     1      -8.020   6.563  71.718  1.00  0.00    -0.103 OA 
HETATM    6  C   UNL     1      -9.294   6.789  69.627  1.00  0.00    -0.144 C  
HETATM    7  N   UNL     1      -9.805   8.007  70.008  1.00  0.00    -0.184 N  
HETATM    8  C   UNL     1     -10.616   9.959  70.247  1.00  0.00    -0.301 C  
HETATM    9  C   UNL     1      -8.315   6.036  70.519  1.00  0.00    -0.128 C  
HETATM   10  O   UNL     1      -8.858   8.899  71.921  1.00  0.00    -0.342 OA 
HETATM   11  C   UNL     1      -9.589   8.944  70.956  1.00  0.00    -0.255 C  
HETATM   12  O   UNL     1      -7.837   4.946  70.229  1.00  0.00    -0.061 OA 
ENDROOT
BRANCH   4  13
HETATM   13  C   UNL     1      -9.074   4.978  67.807  1.00  0.00    -0.114 C  
BRANCH  13  14
HETATM   14  S   UNL     1      -8.067   5.352  66.343  1.00  0.00    -0.106 SA 
BRANCH  14  15
HETATM   15  C   UNL     1      -9.084   4.719  65.096  1.00  0.00    -0.155 A  
HETATM   16  N   UNL     1     -10.234   4.111  65.274  1.00  0.00    -0.215 NA 
HETATM   17  N   UNL     1      -9.773   4.080  63.093  1.00  0.00    -0.150 NA 
HETATM   18  N   UNL     1     -10.645   3.712  64.022  1.00  0.00    -0.270 NA 
HETATM   19  C   UNL     1      -7.678   5.275  63.050  1.00  0.00    -0.076 C  
HETATM   20  N   UNL     1      -8.791   4.716  63.762  1.00  0.00    -0.140 NA 
ENDBRANCH  14  15
ENDBRANCH  13  14
ENDBRANCH   4  13
BRANCH   8  21
HETATM   21  O   UNL     1     -11.672  10.440  71.126  1.00  0.00    -0.352 OA 
HETATM   22  C   UNL     1     -12.640   9.471  71.525  1.00  0.00    -0.373 C  
ENDBRANCH   8  21
BRANCH   8  23
HETATM   23  N   UNL     1     -10.048  11.055  69.402  1.00  0.00    -0.427 N  
HETATM   24  C   UNL     1     -10.808  11.975  68.726  1.00  0.00    -0.230 C  
HETATM   25  H   UNL     1      -9.033  11.122  69.325  1.00  0.00     0.000 HD 
HETATM   26  O   UNL     1     -12.034  11.961  68.735  1.00  0.00    -0.309 OA 
BRANCH  24  27
HETATM   27  C   UNL     1     -10.030  12.971  67.889  1.00  0.00    -0.230 C  
BRANCH  27  28
HETATM   28  S   UNL     1     -10.995  14.505  67.669  1.00  0.00    -0.297 SA 
BRANCH  28  29
HETATM   29  C   UNL     1     -11.173  14.526  65.842  1.00  0.00    -0.331 C  
HETATM   30  C   UNL     1     -12.215  13.627  65.329  1.00  0.00    -0.439 C  
HETATM   31  N   UNL     1     -13.043  12.920  64.927  1.00  0.00    -0.808 NA 
ENDBRANCH  28  29
ENDBRANCH  27  28
ENDBRANCH  24  27
ENDBRANCH   8  23
TORSDOF 8
ENDMDL
MODEL      117
REMARK 921   NORMALIZED FREE ENERGY PREDICTED BY IDOCK:   -4.42 KCAL/MOL
REMARK 922        TOTAL FREE ENERGY PREDICTED BY IDOCK:   -7.58 KCAL/MOL
REMARK 923 INTER-LIGAND FREE ENERGY PREDICTED BY IDOCK:   -6.37 KCAL/MOL
REMARK 924 INTRA-LIGAND FREE ENERGY PREDICTED BY IDOCK:   -1.20 KCAL/MOL
REMARK 927      BINDING AFFINITY PREDICTED BY RF-SCORE:    0.00 PKD
ROOT
HETATM    1  C   UNL     1     -10.288   8.470  69.249  1.00  0.00    -0.221 C  
HETATM    2  S   UNL     1     -10.653   8.805  67.507  1.00  0.00    -0.161 SA 
HETATM    3  C   UNL     1      -9.847   7.292  66.931  1.00  0.00    -0.214 C  
HETATM    4  C   UNL     1      -8.449   7.065  67.495  1.00  0.00    -0.122 C  
HETATM    5  O   UNL     1      -6.208   7.781  70.345  1.00  0.00    -0.036 OA 
HETATM    6  C   UNL     1      -8.007   7.590  68.679  1.00  0.00    -0.123 C  
HETATM    7  N   UNL     1      -8.843   8.398  69.412  1.00  0.00    -0.141 N  
HETATM    8  C   UNL     1     -10.284   9.731  70.231  1.00  0.00    -0.289 C  
HETATM    9  C   UNL     1      -6.591   7.290  69.155  1.00  0.00    -0.041 C  
HETATM   10  O   UNL     1      -7.842   9.445  71.216  1.00  0.00    -0.335 OA 
HETATM   11  C   UNL     1      -8.771   9.239  70.467  1.00  0.00    -0.236 C  
HETATM   12  O   UNL     1      -5.811   6.571  68.544  1.00  0.00    -0.019 OA 
ENDROOT
BRANCH   4  13
HETATM   13  C   UNL     1      -7.593   6.256  66.515  1.00  0.00    -0.094 C  
BRANCH  13  14
HETATM   14  S   UNL     1      -7.507   7.070  64.894  1.00  0.00    -0.102 SA 
BRANCH  14  15
HETATM   15  C   UNL     1      -6.801   8.584  65.344  1.00  0.00    -0.070 A  
HETATM   16  N   UNL     1      -5.649   8.746  65.952  1.00  0.00    -0.045 NA 
HETATM   17  N   UNL     1      -6.583  10.756  65.707  1.00  0.00    -0.099 NA 
HETATM   18  N   UNL     1      -5.531  10.099  66.179  1.00  0.00    -0.049 NA 
HETATM   19  C   UNL     1      -8.619  10.177  64.548  1.00  0.00    -0.189 C  
HETATM   20  N   UNL     1      -7.383   9.809  65.179  1.00  0.00    -0.116 NA 
ENDBRANCH  14  15
ENDBRANCH  13  14
ENDBRANCH   4  13
BRANCH   8  21
HETATM   21  O   UNL     1     -11.139   9.593  71.401  1.00  0.00    -0.365 OA 
HETATM   22  C   UNL     1     -11.756   8.319  71.575  1.00  0.00    -0.292 C  
ENDBRANCH   8  21
BRANCH   8  23
HETATM   23  N   UNL     1     -10.495  11.038  69.534  1.00  0.00    -0.425 N  
HETATM   24  C   UNL     1     -11.729  11.573  69.265  1.00  0.00    -0.330 C  
HETATM   25  H   UNL     1      -9.671  11.563  69.241  1.00  0.00     0.000 HD 
HETATM   26  O   UNL     1     -12.778  11.007  69.554  1.00  0.00    -0.253 OA 
BRANCH  24  27
HETATM   27  C   UNL     1     -11.717  12.886  68.506  1.00  0.00    -0.339 C  
BRANCH  27  28
HETATM   28  S   UNL     1     -10.160  13.065  67.573  1.00  0.00    -0.221 SA 
BRANCH  28  29
HETATM   29  C   UNL     1     -10.625  14.402  66.404  1.00  0.00    -0.297 C  
HETATM   30  C   UNL     1     -11.906  14.183  65.720  1.00  0.00    -0.380 C  
HETATM   31  N   UNL     1     -12.922  14.010  65.185  1.00  0.00    -0.771 NA 
ENDBRANCH  28  29
ENDBRANCH  27  28
ENDBRANCH  24  27
ENDBRANCH   8  23
TORSDOF 8
ENDMDL
MODEL      118
REMARK 921   NORMALIZED FREE ENERGY PREDICTED BY IDOCK:   -4.39 KCAL/MOL
REMARK 922        TOTAL FREE ENERGY PREDICTED BY IDOCK:   -7.54 KCAL/MOL
REMARK 923 INTER-LIGAND FREE ENERGY PREDICTED BY IDOCK:   -6.46 KCAL/MOL
REMARK 924 INTRA-LIGAND FREE ENERGY PREDICTED BY IDOCK:   -1.07 KCAL/MOL
REMARK 927      BINDING AFFINITY PREDICTED BY RF-SCORE:    0.00 PKD
ROOT
HETATM    1  C   UNL     1      -9.011   9.577  67.149  1.00  0.00    -0.134 C  
HETATM    2  S   UNL     1     -10.648  10.347  67.234  1.00  0.00    -0.268 SA 
HETATM    3  C   UNL     1     -10.002  12.012  66.948  1.00  0.00    -0.202 C  
HETATM    4  C   UNL     1      -8.818  12.393  67.829  1.00  0.00    -0.176 C  
HETATM    5  O   UNL     1      -5.958  11.063  69.755  1.00  0.00    -0.062 OA 
HETATM    6  C   UNL     1      -7.964  11.486  68.397  1.00  0.00    -0.143 C  
HETATM    7  N   UNL     1      -8.179  10.143  68.201  1.00  0.00    -0.112 N  
HETATM    8  C   UNL     1      -8.856   8.155  67.865  1.00  0.00    -0.131 C  
HETATM    9  C   UNL     1      -6.804  11.978  69.254  1.00  0.00    -0.066 C  
HETATM   10  O   UNL     1      -6.839   8.752  69.474  1.00  0.00    -0.046 OA 
HETATM   11  C   UNL     1      -7.742   8.965  68.695  1.00  0.00    -0.097 C  
HETATM   12  O   UNL     1      -6.565  13.162  69.453  1.00  0.00    -0.108 OA 
ENDROOT
BRANCH   4  13
HETATM   13  C   UNL     1      -8.780  13.907  68.062  1.00  0.00    -0.183 C  
BRANCH  13  14
HETATM   14  S   UNL     1     -10.403  14.531  68.585  1.00  0.00    -0.245 SA 
BRANCH  14  15
HETATM   15  C   UNL     1     -10.416  16.068  67.794  1.00  0.00    -0.298 A  
HETATM   16  N   UNL     1     -10.300  17.237  68.380  1.00  0.00    -0.344 NA 
HETATM   17  N   UNL     1     -10.630  17.592  66.203  1.00  0.00    -0.281 NA 
HETATM   18  N   UNL     1     -10.445  18.174  67.382  1.00  0.00    -0.392 NA 
HETATM   19  C   UNL     1     -10.759  15.327  65.384  1.00  0.00    -0.391 C  
HETATM   20  N   UNL     1     -10.610  16.269  66.457  1.00  0.00    -0.291 NA 
ENDBRANCH  14  15
ENDBRANCH  13  14
ENDBRANCH   4  13
BRANCH   8  21
HETATM   21  O   UNL     1      -8.311   7.104  67.016  1.00  0.00    -0.115 OA 
HETATM   22  C   UNL     1      -8.411   7.324  65.610  1.00  0.00    -0.131 C  
ENDBRANCH   8  21
BRANCH   8  23
HETATM   23  N   UNL     1     -10.085   7.708  68.590  1.00  0.00    -0.185 N  
HETATM   24  C   UNL     1     -10.106   6.691  69.510  1.00  0.00    -0.177 C  
HETATM   25  H   UNL     1     -10.961   8.189  68.388  1.00  0.00     0.000 HD 
HETATM   26  O   UNL     1      -9.112   6.036  69.802  1.00  0.00    -0.137 OA 
BRANCH  24  27
HETATM   27  C   UNL     1     -11.469   6.368  70.092  1.00  0.00    -0.417 C  
BRANCH  27  28
HETATM   28  S   UNL     1     -11.458   6.600  71.901  1.00  0.00    -0.307 SA 
BRANCH  28  29
HETATM   29  C   UNL     1     -10.948   8.360  72.008  1.00  0.00    -0.323 C  
HETATM   30  C   UNL     1      -9.546   8.557  72.403  1.00  0.00    -0.286 C  
HETATM   31  N   UNL     1      -8.437   8.709  72.709  1.00  0.00    -0.418 NA 
ENDBRANCH  28  29
ENDBRANCH  27  28
ENDBRANCH  24  27
ENDBRANCH   8  23
TORSDOF 8
ENDMDL
MODEL      119
REMARK 921   NORMALIZED FREE ENERGY PREDICTED BY IDOCK:   -4.37 KCAL/MOL
REMARK 922        TOTAL FREE ENERGY PREDICTED BY IDOCK:   -7.50 KCAL/MOL
REMARK 923 INTER-LIGAND FREE ENERGY PREDICTED BY IDOCK:   -6.35 KCAL/MOL
REMARK 924 INTRA-LIGAND FREE ENERGY PREDICTED BY IDOCK:   -1.15 KCAL/MOL
REMARK 927      BINDING AFFINITY PREDICTED BY RF-SCORE:    0.00 PKD
ROOT
HETATM    1  C   UNL     1      -9.946   5.237  68.336  1.00  0.00    -0.159 C  
HETATM    2  S   UNL     1     -11.141   6.588  68.498  1.00  0.00    -0.205 SA 
HETATM    3  C   UNL     1     -10.612   7.388  66.964  1.00  0.00    -0.344 C  
HETATM    4  C   UNL     1      -9.105   7.574  66.833  1.00  0.00    -0.166 C  
HETATM    5  O   UNL     1      -5.814   6.257  67.878  1.00  0.00    -0.011 OA 
HETATM    6  C   UNL     1      -8.179   6.800  67.479  1.00  0.00    -0.122 C  
HETATM    7  N   UNL     1      -8.605   5.805  68.325  1.00  0.00    -0.112 N  
HETATM    8  C   UNL     1      -9.553   4.470  69.683  1.00  0.00    -0.199 C  
HETATM    9  C   UNL     1      -6.694   7.067  67.268  1.00  0.00    -0.067 C  
HETATM   10  O   UNL     1      -6.929   4.803  69.564  1.00  0.00    -0.051 OA 
HETATM   11  C   UNL     1      -8.088   4.980  69.261  1.00  0.00    -0.083 C  
HETATM   12  O   UNL     1      -6.263   7.936  66.520  1.00  0.00    -0.044 OA 
ENDROOT
BRANCH   4  13
HETATM   13  C   UNL     1      -8.783   8.795  65.964  1.00  0.00    -0.167 C  
BRANCH  13  14
HETATM   14  S   UNL     1      -8.922  10.334  66.918  1.00  0.00    -0.136 SA 
BRANCH  14  15
HETATM   15  C   UNL     1     -10.253  11.083  66.106  1.00  0.00    -0.247 A  
HETATM   16  N   UNL     1     -10.406  11.182  64.806  1.00  0.00    -0.306 NA 
HETATM   17  N   UNL     1     -12.104  12.251  65.778  1.00  0.00    -0.603 NA 
HETATM   18  N   UNL     1     -11.554  11.917  64.617  1.00  0.00    -0.286 NA 
HETATM   19  C   UNL     1     -11.605  11.879  68.109  1.00  0.00    -0.334 C  
HETATM   20  N   UNL     1     -11.292  11.726  66.717  1.00  0.00    -0.386 NA 
ENDBRANCH  14  15
ENDBRANCH  13  14
ENDBRANCH   4  13
BRANCH   8  21
HETATM   21  O   UNL     1      -9.713   3.024  69.627  1.00  0.00    -0.088 OA 
HETATM   22  C   UNL     1      -9.354   2.404  68.393  1.00  0.00    -0.204 C  
ENDBRANCH   8  21
BRANCH   8  23
HETATM   23  N   UNL     1     -10.173   5.054  70.912  1.00  0.00    -0.228 N  
HETATM   24  C   UNL     1      -9.679   4.877  72.179  1.00  0.00    -0.163 C  
HETATM   25  H   UNL     1     -11.014   5.620  70.801  1.00  0.00     0.000 HD 
HETATM   26  O   UNL     1      -8.689   4.194  72.419  1.00  0.00    -0.105 OA 
BRANCH  24  27
HETATM   27  C   UNL     1     -10.489   5.517  73.289  1.00  0.00    -0.225 C  
BRANCH  27  28
HETATM   28  S   UNL     1      -9.673   7.041  73.874  1.00  0.00    -0.306 SA 
BRANCH  28  29
HETATM   29  C   UNL     1     -10.233   8.231  72.593  1.00  0.00    -0.298 C  
HETATM   30  C   UNL     1     -11.678   8.195  72.331  1.00  0.00    -0.399 C  
HETATM   31  N   UNL     1     -12.821   8.169  72.131  1.00  0.00    -0.307 NA 
ENDBRANCH  28  29
ENDBRANCH  27  28
ENDBRANCH  24  27
ENDBRANCH   8  23
TORSDOF 8
ENDMDL
MODEL      120
REMARK 921   NORMALIZED FREE ENERGY PREDICTED BY IDOCK:   -4.37 KCAL/MOL
REMARK 922        TOTAL FREE ENERGY PREDICTED BY IDOCK:   -7.50 KCAL/MOL
REMARK 923 INTER-LIGAND FREE ENERGY PREDICTED BY IDOCK:   -6.50 KCAL/MOL
REMARK 924 INTRA-LIGAND FREE ENERGY PREDICTED BY IDOCK:   -1.00 KCAL/MOL
REMARK 927      BINDING AFFINITY PREDICTED BY RF-SCORE:    0.00 PKD
ROOT
HETATM    1  C   UNL     1     -10.545   8.690  69.588  1.00  0.00    -0.218 C  
HETATM    2  S   UNL     1     -10.863   9.731  68.142  1.00  0.00    -0.174 SA 
HETATM    3  C   UNL     1      -9.753   8.781  67.075  1.00  0.00    -0.198 C  
HETATM    4  C   UNL     1      -8.374   8.519  67.668  1.00  0.00    -0.129 C  
HETATM    5  O   UNL     1      -6.481   8.155  70.821  1.00  0.00    -0.036 OA 
HETATM    6  C   UNL     1      -8.110   8.499  69.011  1.00  0.00    -0.115 C  
HETATM    7  N   UNL     1      -9.125   8.754  69.901  1.00  0.00    -0.152 N  
HETATM    8  C   UNL     1     -10.837   9.347  71.017  1.00  0.00    -0.336 C  
HETATM    9  C   UNL     1      -6.694   8.216  69.496  1.00  0.00    -0.038 C  
HETATM   10  O   UNL     1      -8.448   8.986  72.101  1.00  0.00    -0.365 OA 
HETATM   11  C   UNL     1      -9.275   9.018  71.217  1.00  0.00    -0.244 C  
HETATM   12  O   UNL     1      -5.757   7.975  68.746  1.00  0.00    -0.030 OA 
ENDROOT
BRANCH   4  13
HETATM   13  C   UNL     1      -7.324   8.379  66.560  1.00  0.00    -0.081 C  
BRANCH  13  14
HETATM   14  S   UNL     1      -7.262   9.869  65.525  1.00  0.00    -0.129 SA 
BRANCH  14  15
HETATM   15  C   UNL     1      -6.887  11.063  66.719  1.00  0.00    -0.128 A  
HETATM   16  N   UNL     1      -5.801  11.100  67.455  1.00  0.00    -0.045 NA 
HETATM   17  N   UNL     1      -7.123  12.778  68.097  1.00  0.00    -0.093 NA 
HETATM   18  N   UNL     1      -5.965  12.165  68.313  1.00  0.00    -0.050 NA 
HETATM   19  C   UNL     1      -8.981  12.502  66.583  1.00  0.00    -0.174 C  
HETATM   20  N   UNL     1      -7.704  12.090  67.095  1.00  0.00    -0.165 NA 
ENDBRANCH  14  15
ENDBRANCH  13  14
ENDBRANCH   4  13
BRANCH   8  21
HETATM   21  O   UNL     1     -11.719   8.569  71.875  1.00  0.00    -0.296 OA 
HETATM   22  C   UNL     1     -12.022   7.250  71.425  1.00  0.00    -0.320 C  
ENDBRANCH   8  21
BRANCH   8  23
HETATM   23  N   UNL     1     -11.248  10.783  70.946  1.00  0.00    -0.234 N  
HETATM   24  C   UNL     1     -12.548  11.214  71.023  1.00  0.00    -0.403 C  
HETATM   25  H   UNL     1     -10.517  11.485  70.834  1.00  0.00     0.000 HD 
HETATM   26  O   UNL     1     -13.498  10.447  71.131  1.00  0.00    -0.287 OA 
BRANCH  24  27
HETATM   27  C   UNL     1     -12.747  12.710  70.880  1.00  0.00    -0.188 C  
BRANCH  27  28
HETATM   28  S   UNL     1     -13.700  13.361  72.294  1.00  0.00    -0.567 SA 
BRANCH  28  29
HETATM   29  C   UNL     1     -13.718  15.151  71.887  1.00  0.00    -0.474 C  
HETATM   30  C   UNL     1     -12.423  15.677  71.433  1.00  0.00    -0.439 C  
HETATM   31  N   UNL     1     -11.400  16.088  71.070  1.00  0.00    -0.393 NA 
ENDBRANCH  28  29
ENDBRANCH  27  28
ENDBRANCH  24  27
ENDBRANCH   8  23
TORSDOF 8
ENDMDL
MODEL      121
REMARK 921   NORMALIZED FREE ENERGY PREDICTED BY IDOCK:   -4.36 KCAL/MOL
REMARK 922        TOTAL FREE ENERGY PREDICTED BY IDOCK:   -7.50 KCAL/MOL
REMARK 923 INTER-LIGAND FREE ENERGY PREDICTED BY IDOCK:   -6.90 KCAL/MOL
REMARK 924 INTRA-LIGAND FREE ENERGY PREDICTED BY IDOCK:   -0.60 KCAL/MOL
REMARK 927      BINDING AFFINITY PREDICTED BY RF-SCORE:    0.00 PKD
ROOT
HETATM    1  C   UNL     1      -8.623   8.390  68.388  1.00  0.00    -0.139 C  
HETATM    2  S   UNL     1     -10.354   8.254  67.873  1.00  0.00    -0.202 SA 
HETATM    3  C   UNL     1     -10.167   9.460  66.537  1.00  0.00    -0.238 C  
HETATM    4  C   UNL     1      -9.484  10.759  66.948  1.00  0.00    -0.192 C  
HETATM    5  O   UNL     1      -7.114  12.281  69.340  1.00  0.00    -0.011 OA 
HETATM    6  C   UNL     1      -8.625  10.871  68.007  1.00  0.00    -0.131 C  
HETATM    7  N   UNL     1      -8.366   9.767  68.784  1.00  0.00    -0.109 N  
HETATM    8  C   UNL     1      -8.291   7.952  69.890  1.00  0.00    -0.122 C  
HETATM    9  C   UNL     1      -7.989  12.219  68.323  1.00  0.00    -0.163 C  
HETATM   10  O   UNL     1      -7.147  10.197  70.703  1.00  0.00    -0.312 OA 
HETATM   11  C   UNL     1      -7.781   9.475  69.966  1.00  0.00    -0.142 C  
HETATM   12  O   UNL     1      -8.182  13.230  67.659  1.00  0.00    -0.153 OA 
ENDROOT
BRANCH   4  13
HETATM   13  C   UNL     1      -9.965  11.924  66.075  1.00  0.00    -0.232 C  
BRANCH  13  14
HETATM   14  S   UNL     1     -11.647  12.433  66.531  1.00  0.00    -0.375 SA 
BRANCH  14  15
HETATM   15  C   UNL     1     -12.028  13.474  65.203  1.00  0.00    -0.368 A  
HETATM   16  N   UNL     1     -11.996  14.786  65.219  1.00  0.00    -0.288 NA 
HETATM   17  N   UNL     1     -12.738  14.143  63.217  1.00  0.00    -0.444 NA 
HETATM   18  N   UNL     1     -12.448  15.188  63.982  1.00  0.00    -0.738 NA 
HETATM   19  C   UNL     1     -12.654  11.743  63.446  1.00  0.00    -0.336 C  
HETATM   20  N   UNL     1     -12.472  13.064  63.979  1.00  0.00    -0.640 NA 
ENDBRANCH  14  15
ENDBRANCH  13  14
ENDBRANCH   4  13
BRANCH   8  21
HETATM   21  O   UNL     1      -7.227   6.966  70.014  1.00  0.00    -0.075 OA 
HETATM   22  C   UNL     1      -6.648   6.517  68.790  1.00  0.00    -0.051 C  
ENDBRANCH   8  21
BRANCH   8  23
HETATM   23  N   UNL     1      -9.499   7.575  70.688  1.00  0.00    -0.164 N  
HETATM   24  C   UNL     1     -10.045   6.317  70.707  1.00  0.00    -0.189 C  
HETATM   25  H   UNL     1      -9.943   8.299  71.254  1.00  0.00     0.000 HD 
HETATM   26  O   UNL     1      -9.600   5.388  70.041  1.00  0.00    -0.151 OA 
BRANCH  24  27
HETATM   27  C   UNL     1     -11.298   6.165  71.547  1.00  0.00    -0.280 C  
BRANCH  27  28
HETATM   28  S   UNL     1     -10.860   5.847  73.289  1.00  0.00    -0.238 SA 
BRANCH  28  29
HETATM   29  C   UNL     1     -11.332   4.078  73.433  1.00  0.00    -0.174 C  
HETATM   30  C   UNL     1     -10.486   3.165  72.651  1.00  0.00    -0.094 C  
HETATM   31  N   UNL     1      -9.813   2.446  72.038  1.00  0.00    -0.145 NA 
ENDBRANCH  28  29
ENDBRANCH  27  28
ENDBRANCH  24  27
ENDBRANCH   8  23
TORSDOF 8
ENDMDL
MODEL      122
REMARK 921   NORMALIZED FREE ENERGY PREDICTED BY IDOCK:   -4.36 KCAL/MOL
REMARK 922        TOTAL FREE ENERGY PREDICTED BY IDOCK:   -7.49 KCAL/MOL
REMARK 923 INTER-LIGAND FREE ENERGY PREDICTED BY IDOCK:   -6.81 KCAL/MOL
REMARK 924 INTRA-LIGAND FREE ENERGY PREDICTED BY IDOCK:   -0.68 KCAL/MOL
REMARK 927      BINDING AFFINITY PREDICTED BY RF-SCORE:    0.00 PKD
ROOT
HETATM    1  C   UNL     1      -9.988  11.899  68.876  1.00  0.00    -0.006 C  
HETATM    2  S   UNL     1     -11.710  11.401  69.131  1.00  0.00    -0.368 SA 
HETATM    3  C   UNL     1     -11.281  10.138  70.353  1.00  0.00    -0.330 C  
HETATM    4  C   UNL     1     -10.162   9.197  69.925  1.00  0.00    -0.222 C  
HETATM    5  O   UNL     1      -7.167   8.870  67.784  1.00  0.00    -0.082 OA 
HETATM    6  C   UNL     1      -9.202   9.518  69.003  1.00  0.00    -0.155 C  
HETATM    7  N   UNL     1      -9.242  10.747  68.389  1.00  0.00    -0.157 N  
HETATM    8  C   UNL     1      -9.656  12.631  67.494  1.00  0.00    -0.184 C  
HETATM    9  C   UNL     1      -8.121   8.503  68.656  1.00  0.00    -0.121 C  
HETATM   10  O   UNL     1      -7.743  11.008  66.646  1.00  0.00    -0.141 OA 
HETATM   11  C   UNL     1      -8.661  11.377  67.346  1.00  0.00    -0.142 C  
HETATM   12  O   UNL     1      -8.037   7.399  69.179  1.00  0.00    -0.117 OA 
ENDROOT
BRANCH   4  13
HETATM   13  C   UNL     1     -10.319   7.827  70.594  1.00  0.00    -0.202 C  
BRANCH  13  14
HETATM   14  S   UNL     1     -10.803   8.000  72.335  1.00  0.00    -0.354 SA 
BRANCH  14  15
HETATM   15  C   UNL     1      -9.286   7.704  73.111  1.00  0.00    -0.233 A  
HETATM   16  N   UNL     1      -8.346   8.594  73.329  1.00  0.00    -0.392 NA 
HETATM   17  N   UNL     1      -7.593   6.616  74.031  1.00  0.00    -0.093 NA 
HETATM   18  N   UNL     1      -7.297   7.902  73.893  1.00  0.00    -0.133 NA 
HETATM   19  C   UNL     1      -9.496   5.209  73.562  1.00  0.00    -0.133 C  
HETATM   20  N   UNL     1      -8.843   6.487  73.544  1.00  0.00    -0.123 NA 
ENDBRANCH  14  15
ENDBRANCH  13  14
ENDBRANCH   4  13
BRANCH   8  21
HETATM   21  O   UNL     1      -8.976  13.911  67.633  1.00  0.00    -0.174 OA 
HETATM   22  C   UNL     1      -7.869  13.935  68.532  1.00  0.00    -0.139 C  
ENDBRANCH   8  21
BRANCH   8  23
HETATM   23  N   UNL     1     -10.823  12.716  66.561  1.00  0.00    -0.253 N  
HETATM   24  C   UNL     1     -11.735  13.740  66.564  1.00  0.00    -0.385 C  
HETATM   25  H   UNL     1     -10.947  11.965  65.882  1.00  0.00     0.000 HD 
HETATM   26  O   UNL     1     -11.687  14.673  67.358  1.00  0.00    -0.379 OA 
BRANCH  24  27
HETATM   27  C   UNL     1     -12.869  13.603  65.566  1.00  0.00    -0.392 C  
BRANCH  27  28
HETATM   28  S   UNL     1     -12.236  13.751  63.862  1.00  0.00    -0.244 SA 
BRANCH  28  29
HETATM   29  C   UNL     1     -12.211  11.985  63.362  1.00  0.00    -0.519 C  
HETATM   30  C   UNL     1     -10.984  11.270  63.741  1.00  0.00    -0.301 C  
HETATM   31  N   UNL     1     -10.016  10.707  64.048  1.00  0.00    -0.332 NA 
ENDBRANCH  28  29
ENDBRANCH  27  28
ENDBRANCH  24  27
ENDBRANCH   8  23
TORSDOF 8
ENDMDL
MODEL      123
REMARK 921   NORMALIZED FREE ENERGY PREDICTED BY IDOCK:   -4.32 KCAL/MOL
REMARK 922        TOTAL FREE ENERGY PREDICTED BY IDOCK:   -7.44 KCAL/MOL
REMARK 923 INTER-LIGAND FREE ENERGY PREDICTED BY IDOCK:   -6.79 KCAL/MOL
REMARK 924 INTRA-LIGAND FREE ENERGY PREDICTED BY IDOCK:   -0.64 KCAL/MOL
REMARK 927      BINDING AFFINITY PREDICTED BY RF-SCORE:    0.00 PKD
ROOT
HETATM    1  C   UNL     1     -11.190   8.066  70.235  1.00  0.00    -0.190 C  
HETATM    2  S   UNL     1     -10.874   7.781  68.474  1.00  0.00     0.158 SA 
HETATM    3  C   UNL     1     -10.712   5.991  68.678  1.00  0.00    -0.297 C  
HETATM    4  C   UNL     1      -9.781   5.563  69.806  1.00  0.00    -0.236 C  
HETATM    5  O   UNL     1      -8.331   6.576  73.051  1.00  0.00    -0.118 OA 
HETATM    6  C   UNL     1      -9.492   6.339  70.896  1.00  0.00    -0.172 C  
HETATM    7  N   UNL     1     -10.038   7.596  70.992  1.00  0.00    -0.190 N  
HETATM    8  C   UNL     1     -10.885   9.536  70.784  1.00  0.00    -0.318 C  
HETATM    9  C   UNL     1      -8.554   5.807  71.972  1.00  0.00    -0.130 C  
HETATM   10  O   UNL     1      -9.208   8.883  72.726  1.00  0.00    -0.255 OA 
HETATM   11  C   UNL     1      -9.886   8.713  71.737  1.00  0.00    -0.295 C  
HETATM   12  O   UNL     1      -8.047   4.693  71.938  1.00  0.00    -0.097 OA 
ENDROOT
BRANCH   4  13
HETATM   13  C   UNL     1      -9.150   4.200  69.501  1.00  0.00    -0.121 C  
BRANCH  13  14
HETATM   14  S   UNL     1      -7.715   4.373  68.404  1.00  0.00    -0.075 SA 
BRANCH  14  15
HETATM   15  C   UNL     1      -8.394   3.819  66.913  1.00  0.00    -0.100 A  
HETATM   16  N   UNL     1      -8.623   2.568  66.589  1.00  0.00    -0.106 NA 
HETATM   17  N   UNL     1      -9.156   3.838  64.835  1.00  0.00    -0.132 NA 
HETATM   18  N   UNL     1      -9.088   2.594  65.293  1.00  0.00    -0.140 NA 
HETATM   19  C   UNL     1      -8.690   6.039  65.705  1.00  0.00    -0.151 C  
HETATM   20  N   UNL     1      -8.724   4.612  65.851  1.00  0.00    -0.119 NA 
ENDBRANCH  14  15
ENDBRANCH  13  14
ENDBRANCH   4  13
BRANCH   8  21
HETATM   21  O   UNL     1     -11.994  10.162  71.490  1.00  0.00    -0.374 OA 
HETATM   22  C   UNL     1     -13.137   9.338  71.712  1.00  0.00    -0.400 C  
ENDBRANCH   8  21
BRANCH   8  23
HETATM   23  N   UNL     1     -10.286  10.449  69.762  1.00  0.00    -0.348 N  
HETATM   24  C   UNL     1     -11.020  11.193  68.873  1.00  0.00    -0.225 C  
HETATM   25  H   UNL     1      -9.270  10.523  69.724  1.00  0.00     0.000 HD 
HETATM   26  O   UNL     1     -12.244  11.152  68.822  1.00  0.00    -0.555 OA 
BRANCH  24  27
HETATM   27  C   UNL     1     -10.211  12.015  67.889  1.00  0.00    -0.196 C  
BRANCH  27  28
HETATM   28  S   UNL     1     -10.479  13.796  68.179  1.00  0.00    -0.255 SA 
BRANCH  28  29
HETATM   29  C   UNL     1     -12.006  14.067  67.196  1.00  0.00    -0.430 C  
HETATM   30  C   UNL     1     -12.132  13.186  66.027  1.00  0.00    -0.436 C  
HETATM   31  N   UNL     1     -12.232  12.485  65.107  1.00  0.00    -0.494 NA 
ENDBRANCH  28  29
ENDBRANCH  27  28
ENDBRANCH  24  27
ENDBRANCH   8  23
TORSDOF 8
ENDMDL
MODEL      124
REMARK 921   NORMALIZED FREE ENERGY PREDICTED BY IDOCK:   -4.28 KCAL/MOL
REMARK 922        TOTAL FREE ENERGY PREDICTED BY IDOCK:   -7.37 KCAL/MOL
REMARK 923 INTER-LIGAND FREE ENERGY PREDICTED BY IDOCK:   -6.56 KCAL/MOL
REMARK 924 INTRA-LIGAND FREE ENERGY PREDICTED BY IDOCK:   -0.82 KCAL/MOL
REMARK 927      BINDING AFFINITY PREDICTED BY RF-SCORE:    0.00 PKD
ROOT
HETATM    1  C   UNL     1      -7.671  14.513  69.024  1.00  0.00    -0.113 C  
HETATM    2  S   UNL     1      -8.827  15.783  68.449  1.00  0.00    -0.193 SA 
HETATM    3  C   UNL     1     -10.281  14.741  68.720  1.00  0.00    -0.239 C  
HETATM    4  C   UNL     1     -10.173  13.338  68.134  1.00  0.00    -0.243 C  
HETATM    5  O   UNL     1      -7.816  10.671  67.141  1.00  0.00    -0.112 OA 
HETATM    6  C   UNL     1      -8.988  12.697  67.896  1.00  0.00    -0.189 C  
HETATM    7  N   UNL     1      -7.806  13.344  68.166  1.00  0.00    -0.133 N  
HETATM    8  C   UNL     1      -6.160  14.645  68.518  1.00  0.00    -0.091 C  
HETATM    9  C   UNL     1      -8.996  11.289  67.316  1.00  0.00    -0.149 C  
HETATM   10  O   UNL     1      -5.910  12.248  67.421  1.00  0.00    -0.117 OA 
HETATM   11  C   UNL     1      -6.487  13.188  67.920  1.00  0.00    -0.138 C  
HETATM   12  O   UNL     1     -10.021  10.667  67.064  1.00  0.00    -0.189 OA 
ENDROOT
BRANCH   4  13
HETATM   13  C   UNL     1     -11.559  12.796  67.767  1.00  0.00    -0.353 C  
BRANCH  13  14
HETATM   14  S   UNL     1     -12.508  14.016  66.813  1.00  0.00    -0.025 SA 
BRANCH  14  15
HETATM   15  C   UNL     1     -12.343  13.362  65.220  1.00  0.00    -0.469 A  
HETATM   16  N   UNL     1     -13.217  12.596  64.608  1.00  0.00    -0.775 NA 
HETATM   17  N   UNL     1     -11.439  12.807  63.278  1.00  0.00    -0.399 NA 
HETATM   18  N   UNL     1     -12.638  12.252  63.407  1.00  0.00    -0.735 NA 
HETATM   19  C   UNL     1     -10.046  14.265  64.603  1.00  0.00     0.045 C  
HETATM   20  N   UNL     1     -11.251  13.508  64.414  1.00  0.00    -0.377 NA 
ENDBRANCH  14  15
ENDBRANCH  13  14
ENDBRANCH   4  13
BRANCH   8  21
HETATM   21  O   UNL     1      -5.162  14.637  69.579  1.00  0.00    -0.088 OA 
HETATM   22  C   UNL     1      -5.502  13.894  70.748  1.00  0.00    -0.163 C  
ENDBRANCH   8  21
BRANCH   8  23
HETATM   23  N   UNL     1      -5.943  15.767  67.554  1.00  0.00    -0.141 N  
HETATM   24  C   UNL     1      -5.522  17.021  67.918  1.00  0.00    -0.122 C  
HETATM   25  H   UNL     1      -6.118  15.589  66.565  1.00  0.00     0.000 HD 
HETATM   26  O   UNL     1      -5.311  17.341  69.082  1.00  0.00    -0.149 OA 
BRANCH  24  27
HETATM   27  C   UNL     1      -5.414  18.024  66.786  1.00  0.00    -0.139 C  
BRANCH  27  28
HETATM   28  S   UNL     1      -6.887  17.933  65.714  1.00  0.00    -0.123 SA 
BRANCH  28  29
HETATM   29  C   UNL     1      -7.172  19.718  65.388  1.00  0.00    -0.174 C  
HETATM   30  C   UNL     1      -6.048  20.394  64.725  1.00  0.00    -0.271 C  
HETATM   31  N   UNL     1      -5.162  20.925  64.196  1.00  0.00    -0.190 NA 
ENDBRANCH  28  29
ENDBRANCH  27  28
ENDBRANCH  24  27
ENDBRANCH   8  23
TORSDOF 8
ENDMDL
MODEL      125
REMARK 921   NORMALIZED FREE ENERGY PREDICTED BY IDOCK:   -4.27 KCAL/MOL
REMARK 922        TOTAL FREE ENERGY PREDICTED BY IDOCK:   -7.35 KCAL/MOL
REMARK 923 INTER-LIGAND FREE ENERGY PREDICTED BY IDOCK:   -6.45 KCAL/MOL
REMARK 924 INTRA-LIGAND FREE ENERGY PREDICTED BY IDOCK:   -0.91 KCAL/MOL
REMARK 927      BINDING AFFINITY PREDICTED BY RF-SCORE:    0.00 PKD
ROOT
HETATM    1  C   UNL     1     -10.259  11.579  67.110  1.00  0.00    -0.204 C  
HETATM    2  S   UNL     1     -11.428  12.803  67.755  1.00  0.00    -0.347 SA 
HETATM    3  C   UNL     1     -10.678  14.168  66.835  1.00  0.00    -0.286 C  
HETATM    4  C   UNL     1      -9.163  14.263  66.966  1.00  0.00    -0.249 C  
HETATM    5  O   UNL     1      -6.077  12.337  67.618  1.00  0.00    -0.088 OA 
HETATM    6  C   UNL     1      -8.352  13.203  67.270  1.00  0.00    -0.179 C  
HETATM    7  N   UNL     1      -8.914  11.972  67.505  1.00  0.00    -0.168 N  
HETATM    8  C   UNL     1     -10.070  10.249  67.978  1.00  0.00    -0.162 C  
HETATM    9  C   UNL     1      -6.846  13.409  67.366  1.00  0.00    -0.066 C  
HETATM   10  O   UNL     1      -7.445  10.373  68.306  1.00  0.00    -0.086 OA 
HETATM   11  C   UNL     1      -8.548  10.769  67.999  1.00  0.00    -0.128 C  
HETATM   12  O   UNL     1      -6.295  14.483  67.159  1.00  0.00    -0.219 OA 
ENDROOT
BRANCH   4  13
HETATM   13  C   UNL     1      -8.694  15.714  66.804  1.00  0.00    -0.271 C  
BRANCH  13  14
HETATM   14  S   UNL     1      -9.180  16.722  68.234  1.00  0.00    -0.234 SA 
BRANCH  14  15
HETATM   15  C   UNL     1      -7.633  17.308  68.741  1.00  0.00    -0.256 A  
HETATM   16  N   UNL     1      -7.099  18.460  68.409  1.00  0.00    -0.255 NA 
HETATM   17  N   UNL     1      -5.614  17.347  69.645  1.00  0.00    -0.200 NA 
HETATM   18  N   UNL     1      -5.842  18.467  68.970  1.00  0.00    -0.215 NA 
HETATM   19  C   UNL     1      -6.847  15.334  70.141  1.00  0.00    -0.006 C  
HETATM   20  N   UNL     1      -6.738  16.617  69.506  1.00  0.00    -0.225 NA 
ENDBRANCH  14  15
ENDBRANCH  13  14
ENDBRANCH   4  13
BRANCH   8  21
HETATM   21  O   UNL     1     -10.261   9.010  67.239  1.00  0.00    -0.216 OA 
HETATM   22  C   UNL     1      -9.776   9.003  65.897  1.00  0.00    -0.236 C  
ENDBRANCH   8  21
BRANCH   8  23
HETATM   23  N   UNL     1     -10.832  10.256  69.265  1.00  0.00    -0.224 N  
HETATM   24  C   UNL     1     -10.463   9.548  70.379  1.00  0.00    -0.278 C  
HETATM   25  H   UNL     1     -11.679  10.823  69.316  1.00  0.00     0.000 HD 
HETATM   26  O   UNL     1      -9.478   8.819  70.409  1.00  0.00    -0.162 OA 
BRANCH  24  27
HETATM   27  C   UNL     1     -11.405   9.659  71.563  1.00  0.00    -0.350 C  
BRANCH  27  28
HETATM   28  S   UNL     1     -13.086  10.088  70.997  1.00  0.00    -0.301 SA 
BRANCH  28  29
HETATM   29  C   UNL     1     -13.413  11.574  72.026  1.00  0.00    -0.193 C  
HETATM   30  C   UNL     1     -12.833  12.814  71.492  1.00  0.00    -0.270 C  
HETATM   31  N   UNL     1     -12.379  13.793  71.064  1.00  0.00    -0.370 NA 
ENDBRANCH  28  29
ENDBRANCH  27  28
ENDBRANCH  24  27
ENDBRANCH   8  23
TORSDOF 8
ENDMDL
MODEL      126
REMARK 921   NORMALIZED FREE ENERGY PREDICTED BY IDOCK:   -4.22 KCAL/MOL
REMARK 922        TOTAL FREE ENERGY PREDICTED BY IDOCK:   -7.29 KCAL/MOL
REMARK 923 INTER-LIGAND FREE ENERGY PREDICTED BY IDOCK:   -6.14 KCAL/MOL
REMARK 924 INTRA-LIGAND FREE ENERGY PREDICTED BY IDOCK:   -1.15 KCAL/MOL
REMARK 927      BINDING AFFINITY PREDICTED BY RF-SCORE:    0.00 PKD
ROOT
HETATM    1  C   UNL     1      -8.584   9.631  70.306  1.00  0.00    -0.197 C  
HETATM    2  S   UNL     1      -7.471   9.559  68.880  1.00  0.00    -0.076 SA 
HETATM    3  C   UNL     1      -7.839  11.254  68.367  1.00  0.00    -0.136 C  
HETATM    4  C   UNL     1      -9.325  11.585  68.291  1.00  0.00    -0.190 C  
HETATM    5  O   UNL     1     -12.666  10.718  69.612  1.00  0.00    -0.234 OA 
HETATM    6  C   UNL     1     -10.292  10.930  69.004  1.00  0.00    -0.211 C  
HETATM    7  N   UNL     1      -9.934   9.889  69.826  1.00  0.00    -0.231 N  
HETATM    8  C   UNL     1      -9.109   8.230  70.871  1.00  0.00    -0.152 C  
HETATM    9  C   UNL     1     -11.749  11.350  68.860  1.00  0.00    -0.343 C  
HETATM   10  O   UNL     1     -11.710   8.700  70.712  1.00  0.00    -0.277 OA 
HETATM   11  C   UNL     1     -10.530   8.894  70.519  1.00  0.00    -0.215 C  
HETATM   12  O   UNL     1     -12.119  12.275  68.147  1.00  0.00    -0.407 OA 
ENDROOT
BRANCH   4  13
HETATM   13  C   UNL     1      -9.585  12.675  67.245  1.00  0.00    -0.203 C  
BRANCH  13  14
HETATM   14  S   UNL     1      -8.441  14.069  67.453  1.00  0.00    -0.205 SA 
BRANCH  14  15
HETATM   15  C   UNL     1      -9.507  15.246  68.140  1.00  0.00    -0.203 A  
HETATM   16  N   UNL     1      -9.818  15.355  69.411  1.00  0.00    -0.259 NA 
HETATM   17  N   UNL     1     -10.993  16.879  68.284  1.00  0.00    -0.349 NA 
HETATM   18  N   UNL     1     -10.749  16.367  69.484  1.00  0.00    -0.309 NA 
HETATM   19  C   UNL     1     -10.208  16.493  66.036  1.00  0.00    -0.356 C  
HETATM   20  N   UNL     1     -10.212  16.180  67.437  1.00  0.00    -0.267 NA 
ENDBRANCH  14  15
ENDBRANCH  13  14
ENDBRANCH   4  13
BRANCH   8  21
HETATM   21  O   UNL     1      -8.888   8.028  72.295  1.00  0.00    -0.133 OA 
HETATM   22  C   UNL     1      -7.535   8.127  72.737  1.00  0.00    -0.125 C  
ENDBRANCH   8  21
BRANCH   8  23
HETATM   23  N   UNL     1      -8.666   7.051  70.063  1.00  0.00    -0.141 N  
HETATM   24  C   UNL     1      -9.305   5.838  70.062  1.00  0.00    -0.146 C  
HETATM   25  H   UNL     1      -7.838   7.157  69.477  1.00  0.00     0.000 HD 
HETATM   26  O   UNL     1     -10.292   5.604  70.752  1.00  0.00    -0.215 OA 
BRANCH  24  27
HETATM   27  C   UNL     1      -8.661   4.763  69.208  1.00  0.00    -0.083 C  
BRANCH  27  28
HETATM   28  S   UNL     1      -9.762   4.304  67.827  1.00  0.00    -0.079 SA 
BRANCH  28  29
HETATM   29  C   UNL     1      -9.957   5.932  67.002  1.00  0.00    -0.166 C  
HETATM   30  C   UNL     1      -8.714   6.469  66.431  1.00  0.00    -0.140 C  
HETATM   31  N   UNL     1      -7.731   6.887  65.975  1.00  0.00    -0.093 NA 
ENDBRANCH  28  29
ENDBRANCH  27  28
ENDBRANCH  24  27
ENDBRANCH   8  23
TORSDOF 8
ENDMDL
MODEL      127
REMARK 921   NORMALIZED FREE ENERGY PREDICTED BY IDOCK:   -4.19 KCAL/MOL
REMARK 922        TOTAL FREE ENERGY PREDICTED BY IDOCK:   -7.25 KCAL/MOL
REMARK 923 INTER-LIGAND FREE ENERGY PREDICTED BY IDOCK:   -6.24 KCAL/MOL
REMARK 924 INTRA-LIGAND FREE ENERGY PREDICTED BY IDOCK:   -1.01 KCAL/MOL
REMARK 927      BINDING AFFINITY PREDICTED BY RF-SCORE:    0.00 PKD
ROOT
HETATM    1  C   UNL     1      -9.166   7.941  69.015  1.00  0.00    -0.147 C  
HETATM    2  S   UNL     1      -7.460   8.548  69.043  1.00  0.00    -0.091 SA 
HETATM    3  C   UNL     1      -7.001   7.524  70.462  1.00  0.00    -0.052 C  
HETATM    4  C   UNL     1      -7.968   7.601  71.638  1.00  0.00    -0.095 C  
HETATM    5  O   UNL     1     -11.470   8.272  72.607  1.00  0.00    -0.395 OA 
HETATM    6  C   UNL     1      -9.288   7.943  71.522  1.00  0.00    -0.143 C  
HETATM    7  N   UNL     1      -9.794   8.270  70.287  1.00  0.00    -0.182 N  
HETATM    8  C   UNL     1     -10.244   8.881  68.300  1.00  0.00    -0.201 C  
HETATM    9  C   UNL     1     -10.169   7.979  72.765  1.00  0.00    -0.319 C  
HETATM   10  O   UNL     1     -11.946   9.118  70.315  1.00  0.00    -0.050 OA 
HETATM   11  C   UNL     1     -10.909   8.823  69.763  1.00  0.00    -0.193 C  
HETATM   12  O   UNL     1      -9.769   7.691  73.886  1.00  0.00    -0.260 OA 
ENDROOT
BRANCH   4  13
HETATM   13  C   UNL     1      -7.237   7.338  72.959  1.00  0.00    -0.072 C  
BRANCH  13  14
HETATM   14  S   UNL     1      -6.088   5.940  72.805  1.00  0.00    -0.046 SA 
BRANCH  14  15
HETATM   15  C   UNL     1      -7.121   4.634  73.270  1.00  0.00    -0.079 A  
HETATM   16  N   UNL     1      -7.505   4.355  74.495  1.00  0.00    -0.076 NA 
HETATM   17  N   UNL     1      -8.327   2.783  73.143  1.00  0.00    -0.070 NA 
HETATM   18  N   UNL     1      -8.245   3.198  74.401  1.00  0.00    -0.069 NA 
HETATM   19  C   UNL     1      -7.523   3.553  71.003  1.00  0.00    -0.037 C  
HETATM   20  N   UNL     1      -7.624   3.684  72.428  1.00  0.00    -0.061 NA 
ENDBRANCH  14  15
ENDBRANCH  13  14
ENDBRANCH   4  13
BRANCH   8  21
HETATM   21  O   UNL     1     -11.032   8.224  67.267  1.00  0.00    -0.135 OA 
HETATM   22  C   UNL     1     -10.844   6.816  67.141  1.00  0.00    -0.392 C  
ENDBRANCH   8  21
BRANCH   8  23
HETATM   23  N   UNL     1      -9.687  10.188  67.833  1.00  0.00    -0.145 N  
HETATM   24  C   UNL     1     -10.456  11.239  67.399  1.00  0.00    -0.212 C  
HETATM   25  H   UNL     1      -8.674  10.306  67.837  1.00  0.00     0.000 HD 
HETATM   26  O   UNL     1     -11.679  11.186  67.331  1.00  0.00    -0.564 OA 
BRANCH  24  27
HETATM   27  C   UNL     1      -9.686  12.455  66.924  1.00  0.00    -0.215 C  
BRANCH  27  28
HETATM   28  S   UNL     1     -10.837  13.773  66.408  1.00  0.00    -0.288 SA 
BRANCH  28  29
HETATM   29  C   UNL     1     -10.800  13.552  64.586  1.00  0.00    -0.405 C  
HETATM   30  C   UNL     1     -11.955  12.820  64.046  1.00  0.00    -0.447 C  
HETATM   31  N   UNL     1     -12.870  12.247  63.621  1.00  0.00    -0.797 NA 
ENDBRANCH  28  29
ENDBRANCH  27  28
ENDBRANCH  24  27
ENDBRANCH   8  23
TORSDOF 8
ENDMDL
MODEL      128
REMARK 921   NORMALIZED FREE ENERGY PREDICTED BY IDOCK:   -4.19 KCAL/MOL
REMARK 922        TOTAL FREE ENERGY PREDICTED BY IDOCK:   -7.24 KCAL/MOL
REMARK 923 INTER-LIGAND FREE ENERGY PREDICTED BY IDOCK:   -6.58 KCAL/MOL
REMARK 924 INTRA-LIGAND FREE ENERGY PREDICTED BY IDOCK:   -0.65 KCAL/MOL
REMARK 927      BINDING AFFINITY PREDICTED BY RF-SCORE:    0.00 PKD
ROOT
HETATM    1  C   UNL     1     -10.532  10.173  68.428  1.00  0.00    -0.208 C  
HETATM    2  S   UNL     1     -11.588  11.207  69.474  1.00  0.00    -0.353 SA 
HETATM    3  C   UNL     1     -11.399  12.663  68.417  1.00  0.00    -0.290 C  
HETATM    4  C   UNL     1      -9.959  12.993  68.044  1.00  0.00    -0.233 C  
HETATM    5  O   UNL     1      -6.582  11.574  67.558  1.00  0.00    -0.071 OA 
HETATM    6  C   UNL     1      -8.945  12.074  68.018  1.00  0.00    -0.187 C  
HETATM    7  N   UNL     1      -9.206  10.773  68.373  1.00  0.00    -0.157 N  
HETATM    8  C   UNL     1      -9.868   8.897  69.128  1.00  0.00    -0.180 C  
HETATM    9  C   UNL     1      -7.541  12.512  67.620  1.00  0.00    -0.145 C  
HETATM   10  O   UNL     1      -7.334   9.429  68.575  1.00  0.00    -0.078 OA 
HETATM   11  C   UNL     1      -8.522   9.646  68.667  1.00  0.00    -0.119 C  
HETATM   12  O   UNL     1      -7.258  13.656  67.289  1.00  0.00    -0.138 OA 
ENDROOT
BRANCH   4  13
HETATM   13  C   UNL     1      -9.794  14.497  67.798  1.00  0.00    -0.220 C  
BRANCH  13  14
HETATM   14  S   UNL     1     -10.199  15.453  69.288  1.00  0.00    -0.265 SA 
BRANCH  14  15
HETATM   15  C   UNL     1      -9.775  17.045  68.761  1.00  0.00    -0.273 A  
HETATM   16  N   UNL     1     -10.617  17.989  68.410  1.00  0.00    -0.303 NA 
HETATM   17  N   UNL     1      -8.549  18.763  68.098  1.00  0.00    -0.300 NA 
HETATM   18  N   UNL     1      -9.841  19.047  67.991  1.00  0.00    -0.332 NA 
HETATM   19  C   UNL     1      -7.238  16.882  68.849  1.00  0.00    -0.231 C  
HETATM   20  N   UNL     1      -8.503  17.507  68.584  1.00  0.00    -0.276 NA 
ENDBRANCH  14  15
ENDBRANCH  13  14
ENDBRANCH   4  13
BRANCH   8  21
HETATM   21  O   UNL     1     -10.106   7.636  68.441  1.00  0.00    -0.175 OA 
HETATM   22  C   UNL     1     -10.452   7.733  67.060  1.00  0.00    -0.349 C  
ENDBRANCH   8  21
BRANCH   8  23
HETATM   23  N   UNL     1     -10.150   8.799  70.593  1.00  0.00    -0.193 N  
HETATM   24  C   UNL     1      -9.266   8.295  71.513  1.00  0.00    -0.177 C  
HETATM   25  H   UNL     1     -11.056   9.126  70.929  1.00  0.00     0.000 HD 
HETATM   26  O   UNL     1      -8.165   7.853  71.205  1.00  0.00    -0.095 OA 
BRANCH  24  27
HETATM   27  C   UNL     1      -9.773   8.242  72.941  1.00  0.00    -0.240 C  
BRANCH  27  28
HETATM   28  S   UNL     1      -9.148   6.747  73.781  1.00  0.00    -0.168 SA 
BRANCH  28  29
HETATM   29  C   UNL     1     -10.505   5.567  73.413  1.00  0.00    -0.237 C  
HETATM   30  C   UNL     1     -11.557   6.113  72.544  1.00  0.00    -0.250 C  
HETATM   31  N   UNL     1     -12.384   6.544  71.853  1.00  0.00    -0.341 NA 
ENDBRANCH  28  29
ENDBRANCH  27  28
ENDBRANCH  24  27
ENDBRANCH   8  23
TORSDOF 8
ENDMDL
MODEL      129
REMARK 921   NORMALIZED FREE ENERGY PREDICTED BY IDOCK:   -4.16 KCAL/MOL
REMARK 922        TOTAL FREE ENERGY PREDICTED BY IDOCK:   -7.20 KCAL/MOL
REMARK 923 INTER-LIGAND FREE ENERGY PREDICTED BY IDOCK:   -6.57 KCAL/MOL
REMARK 924 INTRA-LIGAND FREE ENERGY PREDICTED BY IDOCK:   -0.63 KCAL/MOL
REMARK 927      BINDING AFFINITY PREDICTED BY RF-SCORE:    0.00 PKD
ROOT
HETATM    1  C   UNL     1      -8.073   8.198  69.287  1.00  0.00    -0.117 C  
HETATM    2  S   UNL     1      -7.616   9.506  70.452  1.00  0.00    -0.156 SA 
HETATM    3  C   UNL     1      -8.057   8.521  71.904  1.00  0.00    -0.130 C  
HETATM    4  C   UNL     1      -9.431   7.865  71.831  1.00  0.00    -0.220 C  
HETATM    5  O   UNL     1     -12.028   6.580  69.538  1.00  0.00    -0.150 OA 
HETATM    6  C   UNL     1     -10.076   7.568  70.662  1.00  0.00    -0.187 C  
HETATM    7  N   UNL     1      -9.486   7.894  69.464  1.00  0.00    -0.160 N  
HETATM    8  C   UNL     1      -8.414   8.661  67.795  1.00  0.00    -0.125 C  
HETATM    9  C   UNL     1     -11.446   6.902  70.705  1.00  0.00    -0.336 C  
HETATM   10  O   UNL     1     -10.836   7.606  67.608  1.00  0.00    -0.197 OA 
HETATM   11  C   UNL     1      -9.818   7.966  68.157  1.00  0.00    -0.169 C  
HETATM   12  O   UNL     1     -12.011   6.585  71.743  1.00  0.00    -0.326 OA 
ENDROOT
BRANCH   4  13
HETATM   13  C   UNL     1     -10.018   7.679  73.235  1.00  0.00    -0.320 C  
BRANCH  13  14
HETATM   14  S   UNL     1      -9.028   6.507  74.208  1.00  0.00    -0.184 SA 
BRANCH  14  15
HETATM   15  C   UNL     1      -9.807   5.021  73.791  1.00  0.00    -0.150 A  
HETATM   16  N   UNL     1     -10.795   4.457  74.448  1.00  0.00    -0.281 NA 
HETATM   17  N   UNL     1     -10.227   3.102  72.771  1.00  0.00    -0.154 NA 
HETATM   18  N   UNL     1     -11.038   3.263  73.809  1.00  0.00    -0.221 NA 
HETATM   19  C   UNL     1      -8.463   4.376  71.729  1.00  0.00    -0.110 C  
HETATM   20  N   UNL     1      -9.453   4.206  72.754  1.00  0.00    -0.123 NA 
ENDBRANCH  14  15
ENDBRANCH  13  14
ENDBRANCH   4  13
BRANCH   8  21
HETATM   21  O   UNL     1      -7.663   7.969  66.757  1.00  0.00    -0.095 OA 
HETATM   22  C   UNL     1      -8.304   7.867  65.487  1.00  0.00    -0.147 C  
ENDBRANCH   8  21
BRANCH   8  23
HETATM   23  N   UNL     1      -8.394  10.145  67.605  1.00  0.00    -0.114 N  
HETATM   24  C   UNL     1      -9.369  10.847  66.944  1.00  0.00    -0.168 C  
HETATM   25  H   UNL     1      -7.607  10.666  67.992  1.00  0.00     0.000 HD 
HETATM   26  O   UNL     1     -10.340  10.309  66.423  1.00  0.00    -0.228 OA 
BRANCH  24  27
HETATM   27  C   UNL     1      -9.128  12.339  66.824  1.00  0.00    -0.211 C  
BRANCH  27  28
HETATM   28  S   UNL     1     -10.715  13.240  66.807  1.00  0.00    -0.277 SA 
BRANCH  28  29
HETATM   29  C   UNL     1     -10.620  14.050  65.162  1.00  0.00    -0.386 C  
HETATM   30  C   UNL     1     -11.617  13.567  64.197  1.00  0.00    -0.376 C  
HETATM   31  N   UNL     1     -12.409  13.188  63.438  1.00  0.00    -0.746 NA 
ENDBRANCH  28  29
ENDBRANCH  27  28
ENDBRANCH  24  27
ENDBRANCH   8  23
TORSDOF 8
ENDMDL
MODEL      130
REMARK 921   NORMALIZED FREE ENERGY PREDICTED BY IDOCK:   -4.15 KCAL/MOL
REMARK 922        TOTAL FREE ENERGY PREDICTED BY IDOCK:   -7.18 KCAL/MOL
REMARK 923 INTER-LIGAND FREE ENERGY PREDICTED BY IDOCK:   -6.31 KCAL/MOL
REMARK 924 INTRA-LIGAND FREE ENERGY PREDICTED BY IDOCK:   -0.88 KCAL/MOL
REMARK 927      BINDING AFFINITY PREDICTED BY RF-SCORE:    0.00 PKD
ROOT
HETATM    1  C   UNL     1      -9.812  11.370  68.322  1.00  0.00    -0.200 C  
HETATM    2  S   UNL     1      -8.379  12.421  68.672  1.00  0.00     0.086 SA 
HETATM    3  C   UNL     1      -9.127  13.883  67.913  1.00  0.00    -0.194 C  
HETATM    4  C   UNL     1      -9.711  13.648  66.525  1.00  0.00    -0.298 C  
HETATM    5  O   UNL     1     -11.166  11.107  64.270  1.00  0.00    -0.246 OA 
HETATM    6  C   UNL     1     -10.135  12.429  66.070  1.00  0.00    -0.251 C  
HETATM    7  N   UNL     1     -10.013  11.327  66.881  1.00  0.00    -0.203 N  
HETATM    8  C   UNL     1      -9.546   9.794  68.280  1.00  0.00    -0.143 C  
HETATM    9  C   UNL     1     -10.714  12.309  64.666  1.00  0.00    -0.308 C  
HETATM   10  O   UNL     1     -10.485   9.310  65.851  1.00  0.00    -0.029 OA 
HETATM   11  C   UNL     1     -10.107   9.983  66.785  1.00  0.00    -0.226 C  
HETATM   12  O   UNL     1     -10.852  13.261  63.907  1.00  0.00    -0.331 OA 
ENDROOT
BRANCH   4  13
HETATM   13  C   UNL     1      -9.668  14.935  65.693  1.00  0.00    -0.291 C  
BRANCH  13  14
HETATM   14  S   UNL     1     -10.402  16.326  66.600  1.00  0.00    -0.296 SA 
BRANCH  14  15
HETATM   15  C   UNL     1      -9.299  17.590  66.177  1.00  0.00    -0.143 A  
HETATM   16  N   UNL     1      -8.025  17.439  65.897  1.00  0.00    -0.542 NA 
HETATM   17  N   UNL     1      -8.485  19.620  65.845  1.00  0.00    -0.412 NA 
HETATM   18  N   UNL     1      -7.531  18.709  65.701  1.00  0.00    -0.507 NA 
HETATM   19  C   UNL     1     -10.846  19.604  66.340  1.00  0.00    -0.330 C  
HETATM   20  N   UNL     1      -9.598  18.922  66.141  1.00  0.00    -0.468 NA 
ENDBRANCH  14  15
ENDBRANCH  13  14
ENDBRANCH   4  13
BRANCH   8  21
HETATM   21  O   UNL     1     -10.416   9.007  69.142  1.00  0.00    -0.222 OA 
HETATM   22  C   UNL     1     -10.915   9.674  70.300  1.00  0.00    -0.285 C  
ENDBRANCH   8  21
BRANCH   8  23
HETATM   23  N   UNL     1      -8.107   9.422  68.447  1.00  0.00    -0.108 N  
HETATM   24  C   UNL     1      -7.563   8.242  68.007  1.00  0.00    -0.102 C  
HETATM   25  H   UNL     1      -7.492  10.087  68.917  1.00  0.00     0.000 HD 
HETATM   26  O   UNL     1      -8.224   7.369  67.455  1.00  0.00    -0.112 OA 
BRANCH  24  27
HETATM   27  C   UNL     1      -6.093   8.045  68.323  1.00  0.00    -0.042 C  
BRANCH  27  28
HETATM   28  S   UNL     1      -5.219   7.358  66.876  1.00  0.00    -0.023 SA 
BRANCH  28  29
HETATM   29  C   UNL     1      -5.138   5.586  67.347  1.00  0.00    -0.004 C  
HETATM   30  C   UNL     1      -6.021   4.714  66.561  1.00  0.00    -0.027 C  
HETATM   31  N   UNL     1      -6.715   4.026  65.933  1.00  0.00    -0.048 NA 
ENDBRANCH  28  29
ENDBRANCH  27  28
ENDBRANCH  24  27
ENDBRANCH   8  23
TORSDOF 8
ENDMDL
MODEL      131
REMARK 921   NORMALIZED FREE ENERGY PREDICTED BY IDOCK:   -4.14 KCAL/MOL
REMARK 922        TOTAL FREE ENERGY PREDICTED BY IDOCK:   -7.16 KCAL/MOL
REMARK 923 INTER-LIGAND FREE ENERGY PREDICTED BY IDOCK:   -6.05 KCAL/MOL
REMARK 924 INTRA-LIGAND FREE ENERGY PREDICTED BY IDOCK:   -1.12 KCAL/MOL
REMARK 927      BINDING AFFINITY PREDICTED BY RF-SCORE:    0.00 PKD
ROOT
HETATM    1  C   UNL     1      -9.119   6.464  67.289  1.00  0.00    -0.117 C  
HETATM    2  S   UNL     1     -10.311   7.668  67.927  1.00  0.00    -0.206 SA 
HETATM    3  C   UNL     1     -10.443   8.541  66.348  1.00  0.00     0.142 C  
HETATM    4  C   UNL     1      -9.107   8.899  65.708  1.00  0.00    -0.276 C  
HETATM    5  O   UNL     1      -5.542   7.952  65.468  1.00  0.00    -0.036 OA 
HETATM    6  C   UNL     1      -7.939   8.228  65.949  1.00  0.00    -0.097 C  
HETATM    7  N   UNL     1      -7.934   7.180  66.838  1.00  0.00    -0.113 N  
HETATM    8  C   UNL     1      -8.199   5.730  68.372  1.00  0.00    -0.108 C  
HETATM    9  C   UNL     1      -6.659   8.664  65.246  1.00  0.00    -0.064 C  
HETATM   10  O   UNL     1      -5.835   6.361  67.360  1.00  0.00    -0.015 OA 
HETATM   11  C   UNL     1      -7.038   6.409  67.491  1.00  0.00    -0.080 C  
HETATM   12  O   UNL     1      -6.611   9.585  64.440  1.00  0.00    -0.087 OA 
ENDROOT
BRANCH   4  13
HETATM   13  C   UNL     1      -9.239  10.158  64.844  1.00  0.00    -0.232 C  
BRANCH  13  14
HETATM   14  S   UNL     1      -9.481  11.635  65.873  1.00  0.00    -0.216 SA 
BRANCH  14  15
HETATM   15  C   UNL     1     -10.965  12.232  65.216  1.00  0.00    -0.307 A  
HETATM   16  N   UNL     1     -11.446  11.957  64.026  1.00  0.00    -0.389 NA 
HETATM   17  N   UNL     1     -12.821  13.418  65.000  1.00  0.00    -0.727 NA 
HETATM   18  N   UNL     1     -12.594  12.707  63.902  1.00  0.00    -0.697 NA 
HETATM   19  C   UNL     1     -11.743  13.706  67.138  1.00  0.00    -0.383 C  
HETATM   20  N   UNL     1     -11.801  13.121  65.829  1.00  0.00    -0.375 NA 
ENDBRANCH  14  15
ENDBRANCH  13  14
ENDBRANCH   4  13
BRANCH   8  21
HETATM   21  O   UNL     1      -8.220   4.276  68.302  1.00  0.00    -0.088 OA 
HETATM   22  C   UNL     1      -9.435   3.650  68.708  1.00  0.00    -0.144 C  
ENDBRANCH   8  21
BRANCH   8  23
HETATM   23  N   UNL     1      -8.401   6.226  69.769  1.00  0.00    -0.124 N  
HETATM   24  C   UNL     1      -7.491   6.061  70.781  1.00  0.00    -0.091 C  
HETATM   25  H   UNL     1      -9.270   6.717  69.981  1.00  0.00     0.000 HD 
HETATM   26  O   UNL     1      -6.431   5.463  70.632  1.00  0.00    -0.032 OA 
BRANCH  24  27
HETATM   27  C   UNL     1      -7.917   6.599  72.133  1.00  0.00    -0.097 C  
BRANCH  27  28
HETATM   28  S   UNL     1      -8.477   8.328  71.981  1.00  0.00    -0.182 SA 
BRANCH  28  29
HETATM   29  C   UNL     1     -10.220   8.163  72.534  1.00  0.00    -0.313 C  
HETATM   30  C   UNL     1     -11.202   8.740  71.605  1.00  0.00    -0.324 C  
HETATM   31  N   UNL     1     -11.976   9.192  70.867  1.00  0.00    -0.272 NA 
ENDBRANCH  28  29
ENDBRANCH  27  28
ENDBRANCH  24  27
ENDBRANCH   8  23
TORSDOF 8
ENDMDL
MODEL      132
REMARK 921   NORMALIZED FREE ENERGY PREDICTED BY IDOCK:   -4.09 KCAL/MOL
REMARK 922        TOTAL FREE ENERGY PREDICTED BY IDOCK:   -7.10 KCAL/MOL
REMARK 923 INTER-LIGAND FREE ENERGY PREDICTED BY IDOCK:   -6.49 KCAL/MOL
REMARK 924 INTRA-LIGAND FREE ENERGY PREDICTED BY IDOCK:   -0.61 KCAL/MOL
REMARK 927      BINDING AFFINITY PREDICTED BY RF-SCORE:    0.00 PKD
ROOT
HETATM    1  C   UNL     1      -7.625   8.939  66.945  1.00  0.00    -0.087 C  
HETATM    2  S   UNL     1      -9.409   8.666  66.808  1.00  0.00    -0.195 SA 
HETATM    3  C   UNL     1      -9.728  10.332  66.180  1.00  0.00    -0.211 C  
HETATM    4  C   UNL     1      -9.082  11.449  66.991  1.00  0.00    -0.169 C  
HETATM    5  O   UNL     1      -6.279  12.286  69.250  1.00  0.00    -0.082 OA 
HETATM    6  C   UNL     1      -7.970  11.284  67.771  1.00  0.00    -0.117 C  
HETATM    7  N   UNL     1      -7.396  10.040  67.871  1.00  0.00    -0.087 N  
HETATM    8  C   UNL     1      -6.836   7.989  67.962  1.00  0.00    -0.072 C  
HETATM    9  C   UNL     1      -7.400  12.474  68.533  1.00  0.00    -0.115 C  
HETATM   10  O   UNL     1      -5.724   9.868  69.460  1.00  0.00    -0.037 OA 
HETATM   11  C   UNL     1      -6.472   9.408  68.626  1.00  0.00    -0.052 C  
HETATM   12  O   UNL     1      -7.869  13.603  68.473  1.00  0.00    -0.136 OA 
ENDROOT
BRANCH   4  13
HETATM   13  C   UNL     1      -9.901  12.741  66.884  1.00  0.00    -0.236 C  
BRANCH  13  14
HETATM   14  S   UNL     1     -11.649  12.382  66.548  1.00  0.00    -0.375 SA 
BRANCH  14  15
HETATM   15  C   UNL     1     -11.958  13.508  65.273  1.00  0.00    -0.373 A  
HETATM   16  N   UNL     1     -11.831  14.813  65.349  1.00  0.00    -0.296 NA 
HETATM   17  N   UNL     1     -12.625  14.319  63.325  1.00  0.00    -0.508 NA 
HETATM   18  N   UNL     1     -12.257  15.304  64.135  1.00  0.00    -0.571 NA 
HETATM   19  C   UNL     1     -12.716  11.911  63.443  1.00  0.00    -0.366 C  
HETATM   20  N   UNL     1     -12.436  13.189  64.034  1.00  0.00    -0.651 NA 
ENDBRANCH  14  15
ENDBRANCH  13  14
ENDBRANCH   4  13
BRANCH   8  21
HETATM   21  O   UNL     1      -5.693   7.297  67.384  1.00  0.00    -0.027 OA 
HETATM   22  C   UNL     1      -5.341   7.676  66.054  1.00  0.00    -0.028 C  
ENDBRANCH   8  21
BRANCH   8  23
HETATM   23  N   UNL     1      -7.722   7.061  68.730  1.00  0.00    -0.108 N  
HETATM   24  C   UNL     1      -8.093   5.816  68.292  1.00  0.00    -0.108 C  
HETATM   25  H   UNL     1      -8.071   7.374  69.636  1.00  0.00     0.000 HD 
HETATM   26  O   UNL     1      -7.748   5.361  67.207  1.00  0.00    -0.094 OA 
BRANCH  24  27
HETATM   27  C   UNL     1      -9.038   5.059  69.206  1.00  0.00    -0.103 C  
BRANCH  27  28
HETATM   28  S   UNL     1     -10.688   5.836  69.197  1.00  0.00    -0.274 SA 
BRANCH  28  29
HETATM   29  C   UNL     1     -10.864   6.264  70.974  1.00  0.00    -0.271 C  
HETATM   30  C   UNL     1     -12.198   6.757  71.344  1.00  0.00    -0.363 C  
HETATM   31  N   UNL     1     -13.254   7.140  71.635  1.00  0.00    -0.378 NA 
ENDBRANCH  28  29
ENDBRANCH  27  28
ENDBRANCH  24  27
ENDBRANCH   8  23
TORSDOF 8
ENDMDL
MODEL      133
REMARK 921   NORMALIZED FREE ENERGY PREDICTED BY IDOCK:   -4.09 KCAL/MOL
REMARK 922        TOTAL FREE ENERGY PREDICTED BY IDOCK:   -7.10 KCAL/MOL
REMARK 923 INTER-LIGAND FREE ENERGY PREDICTED BY IDOCK:   -6.34 KCAL/MOL
REMARK 924 INTRA-LIGAND FREE ENERGY PREDICTED BY IDOCK:   -0.76 KCAL/MOL
REMARK 927      BINDING AFFINITY PREDICTED BY RF-SCORE:    0.00 PKD
ROOT
HETATM    1  C   UNL     1     -11.366  15.341  69.097  1.00  0.00    -0.297 C  
HETATM    2  S   UNL     1      -9.648  15.515  69.642  1.00  0.00    -0.189 SA 
HETATM    3  C   UNL     1      -9.378  17.020  68.674  1.00  0.00    -0.270 C  
HETATM    4  C   UNL     1      -9.820  16.925  67.219  1.00  0.00    -0.265 C  
HETATM    5  O   UNL     1     -12.135  15.232  64.888  1.00  0.00    -0.186 OA 
HETATM    6  C   UNL     1     -10.780  16.062  66.766  1.00  0.00    -0.259 C  
HETATM    7  N   UNL     1     -11.379  15.196  67.649  1.00  0.00    -0.325 N  
HETATM    8  C   UNL     1     -11.999  13.875  69.197  1.00  0.00    -0.363 C  
HETATM    9  C   UNL     1     -11.154  16.058  65.289  1.00  0.00    -0.213 C  
HETATM   10  O   UNL     1     -12.744  13.605  66.671  1.00  0.00    -0.209 OA 
HETATM   11  C   UNL     1     -12.178  14.107  67.616  1.00  0.00    -0.196 C  
HETATM   12  O   UNL     1     -10.656  16.813  64.463  1.00  0.00    -0.513 OA 
ENDROOT
BRANCH   4  13
HETATM   13  C   UNL     1      -8.980  17.854  66.335  1.00  0.00    -0.227 C  
BRANCH  13  14
HETATM   14  S   UNL     1      -7.206  17.536  66.551  1.00  0.00    -0.291 SA 
BRANCH  14  15
HETATM   15  C   UNL     1      -6.602  19.156  66.589  1.00  0.00    -0.190 A  
HETATM   16  N   UNL     1      -6.430  19.890  67.664  1.00  0.00    -0.215 NA 
HETATM   17  N   UNL     1      -5.914  21.141  65.892  1.00  0.00    -0.257 NA 
HETATM   18  N   UNL     1      -6.012  21.122  67.215  1.00  0.00    -0.284 NA 
HETATM   19  C   UNL     1      -6.267  19.565  64.100  1.00  0.00     0.008 C  
HETATM   20  N   UNL     1      -6.281  19.907  65.494  1.00  0.00    -0.207 NA 
ENDBRANCH  14  15
ENDBRANCH  13  14
ENDBRANCH   4  13
BRANCH   8  21
HETATM   21  O   UNL     1     -13.255  13.805  69.930  1.00  0.00     0.410 OA 
HETATM   22  C   UNL     1     -13.206  14.220  71.293  1.00  0.00    -0.343 C  
ENDBRANCH   8  21
BRANCH   8  23
HETATM   23  N   UNL     1     -11.029  12.830  69.648  1.00  0.00    -0.447 N  
HETATM   24  C   UNL     1     -11.110  11.506  69.298  1.00  0.00    -0.246 C  
HETATM   25  H   UNL     1     -10.259  13.119  70.252  1.00  0.00     0.000 HD 
HETATM   26  O   UNL     1     -12.011  11.056  68.600  1.00  0.00    -0.496 OA 
BRANCH  24  27
HETATM   27  C   UNL     1     -10.050  10.607  69.905  1.00  0.00     0.103 C  
BRANCH  27  28
HETATM   28  S   UNL     1      -8.769  10.211  68.668  1.00  0.00    -0.135 SA 
BRANCH  28  29
HETATM   29  C   UNL     1      -7.768   8.990  69.605  1.00  0.00    -0.075 C  
HETATM   30  C   UNL     1      -7.325   7.838  68.808  1.00  0.00    -0.087 C  
HETATM   31  N   UNL     1      -6.971   6.932  68.174  1.00  0.00    -0.077 NA 
ENDBRANCH  28  29
ENDBRANCH  27  28
ENDBRANCH  24  27
ENDBRANCH   8  23
TORSDOF 8
ENDMDL
MODEL      134
REMARK 921   NORMALIZED FREE ENERGY PREDICTED BY IDOCK:   -4.09 KCAL/MOL
REMARK 922        TOTAL FREE ENERGY PREDICTED BY IDOCK:   -7.09 KCAL/MOL
REMARK 923 INTER-LIGAND FREE ENERGY PREDICTED BY IDOCK:   -6.09 KCAL/MOL
REMARK 924 INTRA-LIGAND FREE ENERGY PREDICTED BY IDOCK:   -1.01 KCAL/MOL
REMARK 927      BINDING AFFINITY PREDICTED BY RF-SCORE:    0.00 PKD
ROOT
HETATM    1  C   UNL     1      -8.538   7.690  69.129  1.00  0.00    -0.139 C  
HETATM    2  S   UNL     1      -9.254   8.783  67.875  1.00  0.00    -0.139 SA 
HETATM    3  C   UNL     1      -9.771  10.021  69.089  1.00  0.00    -0.209 C  
HETATM    4  C   UNL     1     -10.531   9.457  70.283  1.00  0.00    -0.298 C  
HETATM    5  O   UNL     1     -11.039   6.453  72.375  1.00  0.00    -0.243 OA 
HETATM    6  C   UNL     1     -10.415   8.167  70.726  1.00  0.00    -0.202 C  
HETATM    7  N   UNL     1      -9.591   7.297  70.054  1.00  0.00    -0.168 N  
HETATM    8  C   UNL     1      -8.386   6.150  68.728  1.00  0.00    -0.111 C  
HETATM    9  C   UNL     1     -11.215   7.711  71.939  1.00  0.00    -0.257 C  
HETATM   10  O   UNL     1      -9.746   5.092  70.739  1.00  0.00    -0.167 OA 
HETATM   11  C   UNL     1      -9.335   5.971  70.014  1.00  0.00    -0.153 C  
HETATM   12  O   UNL     1     -11.957   8.448  72.576  1.00  0.00    -0.393 OA 
ENDROOT
BRANCH   4  13
HETATM   13  C   UNL     1     -11.502  10.500  70.850  1.00  0.00    -0.215 C  
BRANCH  13  14
HETATM   14  S   UNL     1     -12.283  11.458  69.520  1.00  0.00    -0.175 SA 
BRANCH  14  15
HETATM   15  C   UNL     1     -12.020  13.067  70.100  1.00  0.00    -0.303 A  
HETATM   16  N   UNL     1     -11.202  13.950  69.575  1.00  0.00    -0.221 NA 
HETATM   17  N   UNL     1     -12.100  14.850  71.407  1.00  0.00    -0.317 NA 
HETATM   18  N   UNL     1     -11.256  15.049  70.402  1.00  0.00    -0.264 NA 
HETATM   19  C   UNL     1     -13.559  13.068  72.126  1.00  0.00    -0.526 C  
HETATM   20  N   UNL     1     -12.585  13.607  71.219  1.00  0.00    -0.358 NA 
ENDBRANCH  14  15
ENDBRANCH  13  14
ENDBRANCH   4  13
BRANCH   8  21
HETATM   21  O   UNL     1      -7.047   5.606  68.902  1.00  0.00    -0.065 OA 
HETATM   22  C   UNL     1      -5.987   6.560  68.938  1.00  0.00    -0.022 C  
ENDBRANCH   8  21
BRANCH   8  23
HETATM   23  N   UNL     1      -8.955   5.819  67.384  1.00  0.00    -0.109 N  
HETATM   24  C   UNL     1      -9.459   4.589  67.047  1.00  0.00    -0.169 C  
HETATM   25  H   UNL     1      -8.968   6.553  66.676  1.00  0.00     0.000 HD 
HETATM   26  O   UNL     1      -9.463   3.636  67.818  1.00  0.00    -0.189 OA 
BRANCH  24  27
HETATM   27  C   UNL     1      -9.941   4.454  65.615  1.00  0.00    -0.236 C  
BRANCH  27  28
HETATM   28  S   UNL     1      -8.678   3.621  64.595  1.00  0.00    -0.113 SA 
BRANCH  28  29
HETATM   29  C   UNL     1      -8.268   4.964  63.413  1.00  0.00    -0.110 C  
HETATM   30  C   UNL     1      -7.898   6.235  64.051  1.00  0.00    -0.116 C  
HETATM   31  N   UNL     1      -7.600   7.236  64.558  1.00  0.00    -0.099 NA 
ENDBRANCH  28  29
ENDBRANCH  27  28
ENDBRANCH  24  27
ENDBRANCH   8  23
TORSDOF 8
ENDMDL
MODEL      135
REMARK 921   NORMALIZED FREE ENERGY PREDICTED BY IDOCK:   -4.08 KCAL/MOL
REMARK 922        TOTAL FREE ENERGY PREDICTED BY IDOCK:   -7.09 KCAL/MOL
REMARK 923 INTER-LIGAND FREE ENERGY PREDICTED BY IDOCK:   -6.18 KCAL/MOL
REMARK 924 INTRA-LIGAND FREE ENERGY PREDICTED BY IDOCK:   -0.91 KCAL/MOL
REMARK 927      BINDING AFFINITY PREDICTED BY RF-SCORE:    0.00 PKD
ROOT
HETATM    1  C   UNL     1     -10.656  13.832  67.967  1.00  0.00    -0.252 C  
HETATM    2  S   UNL     1      -9.283  14.297  69.053  1.00  0.00     0.138 SA 
HETATM    3  C   UNL     1      -9.780  16.035  69.122  1.00  0.00    -0.251 C  
HETATM    4  C   UNL     1     -10.063  16.667  67.764  1.00  0.00    -0.275 C  
HETATM    5  O   UNL     1     -11.118  15.974  64.291  1.00  0.00    -0.516 OA 
HETATM    6  C   UNL     1     -10.437  15.959  66.654  1.00  0.00    -0.306 C  
HETATM    7  N   UNL     1     -10.544  14.592  66.730  1.00  0.00    -0.273 N  
HETATM    8  C   UNL     1     -10.462  12.499  67.105  1.00  0.00    -0.224 C  
HETATM    9  C   UNL     1     -10.706  16.695  65.347  1.00  0.00    -0.215 C  
HETATM   10  O   UNL     1     -10.880  13.531  64.702  1.00  0.00    -0.361 OA 
HETATM   11  C   UNL     1     -10.680  13.538  65.897  1.00  0.00    -0.277 C  
HETATM   12  O   UNL     1     -10.632  17.911  65.227  1.00  0.00    -0.637 OA 
ENDROOT
BRANCH   4  13
HETATM   13  C   UNL     1      -9.781  18.173  67.797  1.00  0.00    -0.293 C  
BRANCH  13  14
HETATM   14  S   UNL     1      -8.584  18.587  69.098  1.00  0.00     0.197 SA 
BRANCH  14  15
HETATM   15  C   UNL     1      -7.104  18.180  68.301  1.00  0.00    -0.247 A  
HETATM   16  N   UNL     1      -6.497  17.017  68.351  1.00  0.00    -0.151 NA 
HETATM   17  N   UNL     1      -5.225  18.404  67.154  1.00  0.00    -0.131 NA 
HETATM   18  N   UNL     1      -5.327  17.174  67.642  1.00  0.00    -0.114 NA 
HETATM   19  C   UNL     1      -6.572  20.405  67.188  1.00  0.00    -0.232 C  
HETATM   20  N   UNL     1      -6.341  19.039  67.564  1.00  0.00    -0.192 NA 
ENDBRANCH  14  15
ENDBRANCH  13  14
ENDBRANCH   4  13
BRANCH   8  21
HETATM   21  O   UNL     1     -11.533  11.524  67.246  1.00  0.00    -0.422 OA 
HETATM   22  C   UNL     1     -11.760  11.032  68.565  1.00  0.00    -0.278 C  
ENDBRANCH   8  21
BRANCH   8  23
HETATM   23  N   UNL     1      -9.112  11.874  67.259  1.00  0.00    -0.173 N  
HETATM   24  C   UNL     1      -8.545  11.033  66.335  1.00  0.00    -0.165 C  
HETATM   25  H   UNL     1      -8.579  12.087  68.103  1.00  0.00     0.000 HD 
HETATM   26  O   UNL     1      -9.116  10.697  65.303  1.00  0.00    -0.179 OA 
BRANCH  24  27
HETATM   27  C   UNL     1      -7.188  10.472  66.711  1.00  0.00    -0.114 C  
BRANCH  27  28
HETATM   28  S   UNL     1      -6.834   8.966  65.745  1.00  0.00    -0.073 SA 
BRANCH  28  29
HETATM   29  C   UNL     1      -7.204   7.674  66.995  1.00  0.00    -0.089 C  
HETATM   30  C   UNL     1      -6.618   6.360  66.694  1.00  0.00    -0.048 C  
HETATM   31  N   UNL     1      -6.149   5.326  66.456  1.00  0.00    -0.026 NA 
ENDBRANCH  28  29
ENDBRANCH  27  28
ENDBRANCH  24  27
ENDBRANCH   8  23
TORSDOF 8
ENDMDL
MODEL      136
REMARK 921   NORMALIZED FREE ENERGY PREDICTED BY IDOCK:   -4.08 KCAL/MOL
REMARK 922        TOTAL FREE ENERGY PREDICTED BY IDOCK:   -7.08 KCAL/MOL
REMARK 923 INTER-LIGAND FREE ENERGY PREDICTED BY IDOCK:   -5.64 KCAL/MOL
REMARK 924 INTRA-LIGAND FREE ENERGY PREDICTED BY IDOCK:   -1.45 KCAL/MOL
REMARK 927      BINDING AFFINITY PREDICTED BY RF-SCORE:    0.00 PKD
ROOT
HETATM    1  C   UNL     1     -10.483   8.973  70.642  1.00  0.00    -0.230 C  
HETATM    2  S   UNL     1     -11.416   7.426  70.514  1.00  0.00    -0.219 SA 
HETATM    3  C   UNL     1     -11.552   7.231  72.308  1.00  0.00    -0.277 C  
HETATM    4  C   UNL     1     -10.239   7.391  73.064  1.00  0.00    -0.335 C  
HETATM    5  O   UNL     1      -6.897   8.966  72.979  1.00  0.00    -0.323 OA 
HETATM    6  C   UNL     1      -9.171   8.109  72.599  1.00  0.00    -0.263 C  
HETATM    7  N   UNL     1      -9.248   8.709  71.365  1.00  0.00    -0.212 N  
HETATM    8  C   UNL     1      -9.594   9.374  69.375  1.00  0.00    -0.173 C  
HETATM    9  C   UNL     1      -7.908   8.213  73.444  1.00  0.00    -0.174 C  
HETATM   10  O   UNL     1      -7.260   9.613  70.602  1.00  0.00    -0.147 OA 
HETATM   11  C   UNL     1      -8.425   9.308  70.477  1.00  0.00    -0.216 C  
HETATM   12  O   UNL     1      -7.791   7.704  74.552  1.00  0.00    -0.159 OA 
ENDROOT
BRANCH   4  13
HETATM   13  C   UNL     1     -10.253   6.567  74.357  1.00  0.00    -0.310 C  
BRANCH  13  14
HETATM   14  S   UNL     1     -10.473   4.800  74.004  1.00  0.00    -0.296 SA 
BRANCH  14  15
HETATM   15  C   UNL     1      -8.976   4.452  73.211  1.00  0.00    -0.111 A  
HETATM   16  N   UNL     1      -7.794   4.409  73.781  1.00  0.00    -0.085 NA 
HETATM   17  N   UNL     1      -7.513   4.070  71.595  1.00  0.00    -0.058 NA 
HETATM   18  N   UNL     1      -6.895   4.180  72.764  1.00  0.00    -0.046 NA 
HETATM   19  C   UNL     1      -9.797   4.154  70.821  1.00  0.00    -0.178 C  
HETATM   20  N   UNL     1      -8.822   4.237  71.871  1.00  0.00    -0.110 NA 
ENDBRANCH  14  15
ENDBRANCH  13  14
ENDBRANCH   4  13
BRANCH   8  21
HETATM   21  O   UNL     1      -9.843  10.712  68.857  1.00  0.00    -0.185 OA 
HETATM   22  C   UNL     1     -10.930  10.834  67.941  1.00  0.00    -0.289 C  
ENDBRANCH   8  21
BRANCH   8  23
HETATM   23  N   UNL     1      -9.593   8.345  68.289  1.00  0.00    -0.142 N  
HETATM   24  C   UNL     1      -8.614   8.236  67.335  1.00  0.00    -0.125 C  
HETATM   25  H   UNL     1     -10.369   7.683  68.257  1.00  0.00     0.000 HD 
HETATM   26  O   UNL     1      -7.657   9.000  67.274  1.00  0.00    -0.087 OA 
BRANCH  24  27
HETATM   27  C   UNL     1      -8.834   7.153  66.297  1.00  0.00    -0.148 C  
BRANCH  27  28
HETATM   28  S   UNL     1     -10.306   6.160  66.718  1.00  0.00    -0.225 SA 
BRANCH  28  29
HETATM   29  C   UNL     1      -9.795   4.518  66.077  1.00  0.00    -0.229 C  
HETATM   30  C   UNL     1      -9.277   4.544  64.702  1.00  0.00    -0.145 C  
HETATM   31  N   UNL     1      -8.862   4.569  63.618  1.00  0.00    -0.139 NA 
ENDBRANCH  28  29
ENDBRANCH  27  28
ENDBRANCH  24  27
ENDBRANCH   8  23
TORSDOF 8
ENDMDL
MODEL      137
REMARK 921   NORMALIZED FREE ENERGY PREDICTED BY IDOCK:   -4.06 KCAL/MOL
REMARK 922        TOTAL FREE ENERGY PREDICTED BY IDOCK:   -7.05 KCAL/MOL
REMARK 923 INTER-LIGAND FREE ENERGY PREDICTED BY IDOCK:   -6.37 KCAL/MOL
REMARK 924 INTRA-LIGAND FREE ENERGY PREDICTED BY IDOCK:   -0.69 KCAL/MOL
REMARK 927      BINDING AFFINITY PREDICTED BY RF-SCORE:    0.00 PKD
ROOT
HETATM    1  C   UNL     1     -10.576   7.993  69.019  1.00  0.00    -0.154 C  
HETATM    2  S   UNL     1     -10.306   8.829  70.603  1.00  0.00    -0.223 SA 
HETATM    3  C   UNL     1     -11.567  10.085  70.281  1.00  0.00    -0.280 C  
HETATM    4  C   UNL     1     -11.458  10.757  68.917  1.00  0.00    -0.362 C  
HETATM    5  O   UNL     1     -10.273  10.326  65.443  1.00  0.00    -0.297 OA 
HETATM    6  C   UNL     1     -10.864  10.182  67.826  1.00  0.00    -0.292 C  
HETATM    7  N   UNL     1     -10.297   8.936  67.946  1.00  0.00    -0.222 N  
HETATM    8  C   UNL     1      -9.369   7.096  68.473  1.00  0.00    -0.136 C  
HETATM    9  C   UNL     1     -10.821  10.940  66.506  1.00  0.00    -0.171 C  
HETATM   10  O   UNL     1      -9.073   8.249  66.108  1.00  0.00    -0.173 OA 
HETATM   11  C   UNL     1      -9.485   8.121  67.239  1.00  0.00    -0.155 C  
HETATM   12  O   UNL     1     -11.316  12.048  66.345  1.00  0.00    -0.325 OA 
ENDROOT
BRANCH   4  13
HETATM   13  C   UNL     1     -12.017  12.183  68.969  1.00  0.00    -0.247 C  
BRANCH  13  14
HETATM   14  S   UNL     1     -12.572  12.609  70.644  1.00  0.00    -0.083 SA 
BRANCH  14  15
HETATM   15  C   UNL     1     -12.091  14.269  70.719  1.00  0.00    -0.348 A  
HETATM   16  N   UNL     1     -11.256  14.867  69.901  1.00  0.00    -0.268 NA 
HETATM   17  N   UNL     1     -11.852  16.338  71.467  1.00  0.00    -0.446 NA 
HETATM   18  N   UNL     1     -11.110  16.148  70.383  1.00  0.00    -0.363 NA 
HETATM   19  C   UNL     1     -13.387  15.016  72.777  1.00  0.00    -0.481 C  
HETATM   20  N   UNL     1     -12.472  15.161  71.680  1.00  0.00    -0.324 NA 
ENDBRANCH  14  15
ENDBRANCH  13  14
ENDBRANCH   4  13
BRANCH   8  21
HETATM   21  O   UNL     1      -9.733   5.727  68.139  1.00  0.00    -0.116 OA 
HETATM   22  C   UNL     1      -8.825   5.031  67.288  1.00  0.00    -0.102 C  
ENDBRANCH   8  21
BRANCH   8  23
HETATM   23  N   UNL     1      -8.140   7.158  69.324  1.00  0.00    -0.119 N  
HETATM   24  C   UNL     1      -7.920   6.353  70.413  1.00  0.00    -0.112 C  
HETATM   25  H   UNL     1      -7.422   7.839  69.079  1.00  0.00     0.000 HD 
HETATM   26  O   UNL     1      -8.733   5.522  70.802  1.00  0.00    -0.126 OA 
BRANCH  24  27
HETATM   27  C   UNL     1      -6.629   6.615  71.164  1.00  0.00    -0.053 C  
BRANCH  27  28
HETATM   28  S   UNL     1      -6.707   8.225  72.018  1.00  0.00    -0.084 SA 
BRANCH  28  29
HETATM   29  C   UNL     1      -5.812   9.283  70.814  1.00  0.00    -0.050 C  
HETATM   30  C   UNL     1      -6.688  10.125  69.988  1.00  0.00    -0.127 C  
HETATM   31  N   UNL     1      -7.382  10.793  69.340  1.00  0.00    -0.127 NA 
ENDBRANCH  28  29
ENDBRANCH  27  28
ENDBRANCH  24  27
ENDBRANCH   8  23
TORSDOF 8
ENDMDL
MODEL      138
REMARK 921   NORMALIZED FREE ENERGY PREDICTED BY IDOCK:   -4.06 KCAL/MOL
REMARK 922        TOTAL FREE ENERGY PREDICTED BY IDOCK:   -7.05 KCAL/MOL
REMARK 923 INTER-LIGAND FREE ENERGY PREDICTED BY IDOCK:   -6.24 KCAL/MOL
REMARK 924 INTRA-LIGAND FREE ENERGY PREDICTED BY IDOCK:   -0.81 KCAL/MOL
REMARK 927      BINDING AFFINITY PREDICTED BY RF-SCORE:    0.00 PKD
ROOT
HETATM    1  C   UNL     1      -8.094   8.335  67.917  1.00  0.00    -0.127 C  
HETATM    2  S   UNL     1      -9.277   8.838  69.193  1.00  0.00    -0.149 SA 
HETATM    3  C   UNL     1      -9.199   7.246  70.050  1.00  0.00    -0.148 C  
HETATM    4  C   UNL     1      -9.363   6.031  69.146  1.00  0.00    -0.136 C  
HETATM    5  O   UNL     1      -8.932   4.773  65.698  1.00  0.00    -0.132 OA 
HETATM    6  C   UNL     1      -9.077   6.029  67.807  1.00  0.00    -0.109 C  
HETATM    7  N   UNL     1      -8.639   7.186  67.210  1.00  0.00    -0.121 N  
HETATM    8  C   UNL     1      -8.148   9.144  66.539  1.00  0.00    -0.107 C  
HETATM    9  C   UNL     1      -9.269   4.752  66.998  1.00  0.00    -0.126 C  
HETATM   10  O   UNL     1      -8.499   7.092  64.902  1.00  0.00    -0.062 OA 
HETATM   11  C   UNL     1      -8.439   7.670  65.965  1.00  0.00    -0.144 C  
HETATM   12  O   UNL     1      -9.650   3.694  67.483  1.00  0.00    -0.202 OA 
ENDROOT
BRANCH   4  13
HETATM   13  C   UNL     1      -9.977   4.859  69.919  1.00  0.00    -0.247 C  
BRANCH  13  14
HETATM   14  S   UNL     1      -8.797   4.175  71.118  1.00  0.00    -0.110 SA 
BRANCH  14  15
HETATM   15  C   UNL     1      -9.696   4.367  72.583  1.00  0.00    -0.149 A  
HETATM   16  N   UNL     1     -10.670   3.590  72.997  1.00  0.00    -0.163 NA 
HETATM   17  N   UNL     1     -10.459   5.261  74.458  1.00  0.00    -0.308 NA 
HETATM   18  N   UNL     1     -11.140   4.163  74.157  1.00  0.00    -0.169 NA 
HETATM   19  C   UNL     1      -8.613   6.481  73.496  1.00  0.00    -0.123 C  
HETATM   20  N   UNL     1      -9.548   5.392  73.473  1.00  0.00    -0.137 NA 
ENDBRANCH  14  15
ENDBRANCH  13  14
ENDBRANCH   4  13
BRANCH   8  21
HETATM   21  O   UNL     1      -6.874   9.703  66.112  1.00  0.00    -0.087 OA 
HETATM   22  C   UNL     1      -5.799   9.586  67.043  1.00  0.00    -0.052 C  
ENDBRANCH   8  21
BRANCH   8  23
HETATM   23  N   UNL     1      -9.251  10.152  66.475  1.00  0.00    -0.151 N  
HETATM   24  C   UNL     1      -9.770  10.649  65.307  1.00  0.00    -0.259 C  
HETATM   25  H   UNL     1      -9.641  10.491  67.355  1.00  0.00     0.000 HD 
HETATM   26  O   UNL     1      -9.352  10.324  64.201  1.00  0.00    -0.241 OA 
BRANCH  24  27
HETATM   27  C   UNL     1     -10.851  11.700  65.470  1.00  0.00    -0.279 C  
BRANCH  27  28
HETATM   28  S   UNL     1     -10.880  12.811  64.023  1.00  0.00    -0.420 SA 
BRANCH  28  29
HETATM   29  C   UNL     1     -12.146  14.026  64.562  1.00  0.00    -0.459 C  
HETATM   30  C   UNL     1     -11.808  15.423  64.253  1.00  0.00    -0.199 C  
HETATM   31  N   UNL     1     -11.541  16.524  64.003  1.00  0.00    -1.124 NA 
ENDBRANCH  28  29
ENDBRANCH  27  28
ENDBRANCH  24  27
ENDBRANCH   8  23
TORSDOF 8
ENDMDL
MODEL      139
REMARK 921   NORMALIZED FREE ENERGY PREDICTED BY IDOCK:   -4.01 KCAL/MOL
REMARK 922        TOTAL FREE ENERGY PREDICTED BY IDOCK:   -6.98 KCAL/MOL
REMARK 923 INTER-LIGAND FREE ENERGY PREDICTED BY IDOCK:   -6.22 KCAL/MOL
REMARK 924 INTRA-LIGAND FREE ENERGY PREDICTED BY IDOCK:   -0.75 KCAL/MOL
REMARK 927      BINDING AFFINITY PREDICTED BY RF-SCORE:    0.00 PKD
ROOT
HETATM    1  C   UNL     1      -7.845  11.667  67.567  1.00  0.00    -0.137 C  
HETATM    2  S   UNL     1      -9.501  12.242  67.114  1.00  0.00    -0.201 SA 
HETATM    3  C   UNL     1      -8.967  13.956  66.892  1.00  0.00    -0.222 C  
HETATM    4  C   UNL     1      -8.140  14.516  68.043  1.00  0.00    -0.139 C  
HETATM    5  O   UNL     1      -5.859  13.629  70.813  1.00  0.00    -0.184 OA 
HETATM    6  C   UNL     1      -7.406  13.746  68.905  1.00  0.00    -0.076 C  
HETATM    7  N   UNL     1      -7.420  12.379  68.765  1.00  0.00    -0.092 N  
HETATM    8  C   UNL     1      -7.767  10.310  68.410  1.00  0.00    -0.093 C  
HETATM    9  C   UNL     1      -6.606  14.412  70.017  1.00  0.00    -0.116 C  
HETATM   10  O   UNL     1      -6.386  11.219  70.478  1.00  0.00    -0.306 OA 
HETATM   11  C   UNL     1      -7.034  11.286  69.457  1.00  0.00    -0.089 C  
HETATM   12  O   UNL     1      -6.555  15.624  70.180  1.00  0.00    -0.104 OA 
ENDROOT
BRANCH   4  13
HETATM   13  C   UNL     1      -8.322  16.034  68.154  1.00  0.00    -0.160 C  
BRANCH  13  14
HETATM   14  S   UNL     1     -10.078  16.474  68.298  1.00  0.00    -0.272 SA 
BRANCH  14  15
HETATM   15  C   UNL     1     -10.121  17.905  67.327  1.00  0.00    -0.343 A  
HETATM   16  N   UNL     1     -10.734  18.034  66.173  1.00  0.00    -0.234 NA 
HETATM   17  N   UNL     1      -9.666  19.945  66.599  1.00  0.00    -0.393 NA 
HETATM   18  N   UNL     1     -10.435  19.303  65.729  1.00  0.00    -0.528 NA 
HETATM   19  C   UNL     1      -8.687  19.452  68.749  1.00  0.00    -0.337 C  
HETATM   20  N   UNL     1      -9.468  19.071  67.607  1.00  0.00    -0.301 NA 
ENDBRANCH  14  15
ENDBRANCH  13  14
ENDBRANCH   4  13
BRANCH   8  21
HETATM   21  O   UNL     1      -6.896   9.292  67.842  1.00  0.00    -0.070 OA 
HETATM   22  C   UNL     1      -7.411   8.590  66.712  1.00  0.00    -0.083 C  
ENDBRANCH   8  21
BRANCH   8  23
HETATM   23  N   UNL     1      -9.106   9.757  68.784  1.00  0.00    -0.132 N  
HETATM   24  C   UNL     1      -9.321   8.926  69.854  1.00  0.00    -0.166 C  
HETATM   25  H   UNL     1      -9.908  10.014  68.208  1.00  0.00     0.000 HD 
HETATM   26  O   UNL     1      -8.419   8.540  70.589  1.00  0.00    -0.126 OA 
BRANCH  24  27
HETATM   27  C   UNL     1     -10.747   8.442  70.025  1.00  0.00    -0.236 C  
BRANCH  27  28
HETATM   28  S   UNL     1     -10.910   6.724  69.431  1.00  0.00    -0.275 SA 
BRANCH  28  29
HETATM   29  C   UNL     1     -10.897   6.998  67.616  1.00  0.00    -0.242 C  
HETATM   30  C   UNL     1     -10.547   5.805  66.831  1.00  0.00    -0.308 C  
HETATM   31  N   UNL     1     -10.277   4.861  66.214  1.00  0.00    -0.255 NA 
ENDBRANCH  28  29
ENDBRANCH  27  28
ENDBRANCH  24  27
ENDBRANCH   8  23
TORSDOF 8
ENDMDL
MODEL      140
REMARK 921   NORMALIZED FREE ENERGY PREDICTED BY IDOCK:   -3.99 KCAL/MOL
REMARK 922        TOTAL FREE ENERGY PREDICTED BY IDOCK:   -6.95 KCAL/MOL
REMARK 923 INTER-LIGAND FREE ENERGY PREDICTED BY IDOCK:   -6.25 KCAL/MOL
REMARK 924 INTRA-LIGAND FREE ENERGY PREDICTED BY IDOCK:   -0.70 KCAL/MOL
REMARK 927      BINDING AFFINITY PREDICTED BY RF-SCORE:    0.00 PKD
ROOT
HETATM    1  C   UNL     1      -9.807  10.707  67.072  1.00  0.00    -0.185 C  
HETATM    2  S   UNL     1     -10.989  11.179  68.361  1.00  0.00    -0.252 SA 
HETATM    3  C   UNL     1     -10.886  12.941  67.966  1.00  0.00    -0.241 C  
HETATM    4  C   UNL     1      -9.466  13.483  67.850  1.00  0.00    -0.215 C  
HETATM    5  O   UNL     1      -5.962  12.587  67.089  1.00  0.00    -0.243 OA 
HETATM    6  C   UNL     1      -8.376  12.715  67.542  1.00  0.00    -0.177 C  
HETATM    7  N   UNL     1      -8.537  11.364  67.346  1.00  0.00    -0.139 N  
HETATM    8  C   UNL     1      -9.064   9.305  67.267  1.00  0.00    -0.126 C  
HETATM    9  C   UNL     1      -7.001  13.363  67.442  1.00  0.00    -0.083 C  
HETATM   10  O   UNL     1      -6.565  10.172  67.141  1.00  0.00    -0.068 OA 
HETATM   11  C   UNL     1      -7.770  10.259  67.227  1.00  0.00    -0.095 C  
HETATM   12  O   UNL     1      -6.804  14.561  67.601  1.00  0.00    -0.168 OA 
ENDROOT
BRANCH   4  13
HETATM   13  C   UNL     1      -9.421  14.970  68.219  1.00  0.00    -0.196 C  
BRANCH  13  14
HETATM   14  S   UNL     1     -11.076  15.713  68.146  1.00  0.00    -0.337 SA 
BRANCH  14  15
HETATM   15  C   UNL     1     -10.998  16.496  66.605  1.00  0.00     0.060 A  
HETATM   16  N   UNL     1     -10.648  17.743  66.392  1.00  0.00    -0.274 NA 
HETATM   17  N   UNL     1     -11.233  16.851  64.434  1.00  0.00    -1.120 NA 
HETATM   18  N   UNL     1     -10.808  17.952  65.040  1.00  0.00    -0.646 NA 
HETATM   19  C   UNL     1     -11.774  14.597  65.100  1.00  0.00    -0.364 C  
HETATM   20  N   UNL     1     -11.351  15.933  65.413  1.00  0.00    -0.063 NA 
ENDBRANCH  14  15
ENDBRANCH  13  14
ENDBRANCH   4  13
BRANCH   8  21
HETATM   21  O   UNL     1      -9.166   8.401  66.130  1.00  0.00    -0.189 OA 
HETATM   22  C   UNL     1      -8.880   8.969  64.854  1.00  0.00    -0.148 C  
ENDBRANCH   8  21
BRANCH   8  23
HETATM   23  N   UNL     1      -9.394   8.622  68.556  1.00  0.00    -0.138 N  
HETATM   24  C   UNL     1      -8.770   7.486  69.005  1.00  0.00    -0.136 C  
HETATM   25  H   UNL     1     -10.127   9.027  69.138  1.00  0.00     0.000 HD 
HETATM   26  O   UNL     1      -7.896   6.910  68.366  1.00  0.00    -0.116 OA 
BRANCH  24  27
HETATM   27  C   UNL     1      -9.292   6.932  70.316  1.00  0.00    -0.162 C  
BRANCH  27  28
HETATM   28  S   UNL     1      -8.317   5.475  70.822  1.00  0.00    -0.123 SA 
BRANCH  28  29
HETATM   29  C   UNL     1      -9.465   4.124  70.344  1.00  0.00    -0.177 C  
HETATM   30  C   UNL     1      -8.796   2.863  69.993  1.00  0.00    -0.087 C  
HETATM   31  N   UNL     1      -8.266   1.867  69.723  1.00  0.00    -0.044 NA 
ENDBRANCH  28  29
ENDBRANCH  27  28
ENDBRANCH  24  27
ENDBRANCH   8  23
TORSDOF 8
ENDMDL
MODEL      141
REMARK 921   NORMALIZED FREE ENERGY PREDICTED BY IDOCK:   -3.92 KCAL/MOL
REMARK 922        TOTAL FREE ENERGY PREDICTED BY IDOCK:   -6.85 KCAL/MOL
REMARK 923 INTER-LIGAND FREE ENERGY PREDICTED BY IDOCK:   -5.97 KCAL/MOL
REMARK 924 INTRA-LIGAND FREE ENERGY PREDICTED BY IDOCK:   -0.88 KCAL/MOL
REMARK 927      BINDING AFFINITY PREDICTED BY RF-SCORE:    0.00 PKD
ROOT
HETATM    1  C   UNL     1      -7.875  12.116  67.432  1.00  0.00    -0.168 C  
HETATM    2  S   UNL     1      -9.172  13.304  67.000  1.00  0.00    -0.241 SA 
HETATM    3  C   UNL     1      -8.011  14.681  66.833  1.00  0.00     0.053 C  
HETATM    4  C   UNL     1      -7.044  14.839  68.000  1.00  0.00    -0.147 C  
HETATM    5  O   UNL     1      -5.319  13.051  70.736  1.00  0.00    -0.136 OA 
HETATM    6  C   UNL     1      -6.677  13.819  68.835  1.00  0.00    -0.108 C  
HETATM    7  N   UNL     1      -7.220  12.570  68.651  1.00  0.00    -0.102 N  
HETATM    8  C   UNL     1      -8.341  10.812  68.230  1.00  0.00    -0.125 C  
HETATM    9  C   UNL     1      -5.693  14.086  69.966  1.00  0.00    -0.124 C  
HETATM   10  O   UNL     1      -6.738  11.047  70.324  1.00  0.00    -0.230 OA 
HETATM   11  C   UNL     1      -7.298  11.392  69.307  1.00  0.00    -0.042 C  
HETATM   12  O   UNL     1      -5.176  15.178  70.169  1.00  0.00    -0.108 OA 
ENDROOT
BRANCH   4  13
HETATM   13  C   UNL     1      -6.622  16.304  68.160  1.00  0.00    -0.126 C  
BRANCH  13  14
HETATM   14  S   UNL     1      -7.949  17.290  68.911  1.00  0.00    -0.137 SA 
BRANCH  14  15
HETATM   15  C   UNL     1      -7.771  18.770  68.034  1.00  0.00    -0.263 A  
HETATM   16  N   UNL     1      -8.349  19.064  66.892  1.00  0.00    -0.269 NA 
HETATM   17  N   UNL     1      -7.013  20.763  67.440  1.00  0.00    -0.342 NA 
HETATM   18  N   UNL     1      -7.861  20.300  66.531  1.00  0.00    -0.269 NA 
HETATM   19  C   UNL     1      -6.135  19.993  69.552  1.00  0.00    -0.333 C  
HETATM   20  N   UNL     1      -6.955  19.806  68.388  1.00  0.00    -0.295 NA 
ENDBRANCH  14  15
ENDBRANCH  13  14
ENDBRANCH   4  13
BRANCH   8  21
HETATM   21  O   UNL     1      -7.929   9.552  67.628  1.00  0.00    -0.105 OA 
HETATM   22  C   UNL     1      -8.115   9.444  66.218  1.00  0.00    -0.111 C  
ENDBRANCH   8  21
BRANCH   8  23
HETATM   23  N   UNL     1      -9.794  10.812  68.588  1.00  0.00    -0.176 N  
HETATM   24  C   UNL     1     -10.369   9.925  69.462  1.00  0.00    -0.229 C  
HETATM   25  H   UNL     1     -10.393  11.515  68.156  1.00  0.00     0.000 HD 
HETATM   26  O   UNL     1      -9.738   9.028  70.012  1.00  0.00    -0.170 OA 
BRANCH  24  27
HETATM   27  C   UNL     1     -11.867  10.072  69.646  1.00  0.00     0.030 C  
BRANCH  27  28
HETATM   28  S   UNL     1     -12.293  11.804  70.027  1.00  0.00    -0.104 SA 
BRANCH  28  29
HETATM   29  C   UNL     1     -12.973  11.615  71.722  1.00  0.00    -0.377 C  
HETATM   30  C   UNL     1     -13.465  12.866  72.315  1.00  0.00    -0.531 C  
HETATM   31  N   UNL     1     -13.859  13.854  72.779  1.00  0.00    -0.688 NA 
ENDBRANCH  28  29
ENDBRANCH  27  28
ENDBRANCH  24  27
ENDBRANCH   8  23
TORSDOF 8
ENDMDL
MODEL      142
REMARK 921   NORMALIZED FREE ENERGY PREDICTED BY IDOCK:   -3.90 KCAL/MOL
REMARK 922        TOTAL FREE ENERGY PREDICTED BY IDOCK:   -6.82 KCAL/MOL
REMARK 923 INTER-LIGAND FREE ENERGY PREDICTED BY IDOCK:   -5.43 KCAL/MOL
REMARK 924 INTRA-LIGAND FREE ENERGY PREDICTED BY IDOCK:   -1.40 KCAL/MOL
REMARK 927      BINDING AFFINITY PREDICTED BY RF-SCORE:    0.00 PKD
ROOT
HETATM    1  C   UNL     1      -9.494   9.642  65.585  1.00  0.00    -0.255 C  
HETATM    2  S   UNL     1     -10.619   9.027  66.863  1.00  0.00    -0.088 SA 
HETATM    3  C   UNL     1     -11.129  10.687  67.370  1.00  0.00    -0.272 C  
HETATM    4  C   UNL     1      -9.978  11.654  67.621  1.00  0.00    -0.201 C  
HETATM    5  O   UNL     1      -6.475  12.445  66.750  1.00  0.00    -0.094 OA 
HETATM    6  C   UNL     1      -8.740  11.534  67.052  1.00  0.00    -0.169 C  
HETATM    7  N   UNL     1      -8.480  10.471  66.222  1.00  0.00    -0.144 N  
HETATM    8  C   UNL     1      -8.324   8.652  65.129  1.00  0.00    -0.168 C  
HETATM    9  C   UNL     1      -7.663  12.566  67.364  1.00  0.00    -0.167 C  
HETATM   10  O   UNL     1      -6.263  10.248  65.596  1.00  0.00    -0.094 OA 
HETATM   11  C   UNL     1      -7.416   9.879  65.636  1.00  0.00    -0.116 C  
HETATM   12  O   UNL     1      -7.846  13.535  68.091  1.00  0.00    -0.122 OA 
ENDROOT
BRANCH   4  13
HETATM   13  C   UNL     1     -10.374  12.710  68.660  1.00  0.00    -0.177 C  
BRANCH  13  14
HETATM   14  S   UNL     1     -11.875  13.596  68.155  1.00  0.00    -0.363 SA 
BRANCH  14  15
HETATM   15  C   UNL     1     -11.207  15.141  67.759  1.00  0.00    -0.323 A  
HETATM   16  N   UNL     1     -11.190  16.196  68.541  1.00  0.00    -0.354 NA 
HETATM   17  N   UNL     1     -10.310  16.783  66.578  1.00  0.00    -0.310 NA 
HETATM   18  N   UNL     1     -10.639  17.211  67.790  1.00  0.00    -0.364 NA 
HETATM   19  C   UNL     1     -10.422  14.691  65.381  1.00  0.00    -0.380 C  
HETATM   20  N   UNL     1     -10.662  15.483  66.554  1.00  0.00    -0.308 NA 
ENDBRANCH  14  15
ENDBRANCH  13  14
ENDBRANCH   4  13
BRANCH   8  21
HETATM   21  O   UNL     1      -8.251   8.417  63.694  1.00  0.00    -0.159 OA 
HETATM   22  C   UNL     1      -8.766   9.457  62.866  1.00  0.00    -0.224 C  
ENDBRANCH   8  21
BRANCH   8  23
HETATM   23  N   UNL     1      -8.278   7.376  65.909  1.00  0.00    -0.127 N  
HETATM   24  C   UNL     1      -7.151   6.608  66.058  1.00  0.00    -0.062 C  
HETATM   25  H   UNL     1      -9.137   7.058  66.357  1.00  0.00     0.000 HD 
HETATM   26  O   UNL     1      -6.078   6.892  65.536  1.00  0.00    -0.034 OA 
BRANCH  24  27
HETATM   27  C   UNL     1      -7.337   5.327  66.848  1.00  0.00    -0.086 C  
BRANCH  27  28
HETATM   28  S   UNL     1      -6.081   5.207  68.166  1.00  0.00    -0.028 SA 
BRANCH  28  29
HETATM   29  C   UNL     1      -6.950   6.071  69.533  1.00  0.00    -0.067 C  
HETATM   30  C   UNL     1      -7.239   7.486  69.262  1.00  0.00    -0.086 C  
HETATM   31  N   UNL     1      -7.471   8.602  69.043  1.00  0.00    -0.087 NA 
ENDBRANCH  28  29
ENDBRANCH  27  28
ENDBRANCH  24  27
ENDBRANCH   8  23
TORSDOF 8
ENDMDL
MODEL      143
REMARK 921   NORMALIZED FREE ENERGY PREDICTED BY IDOCK:   -3.90 KCAL/MOL
REMARK 922        TOTAL FREE ENERGY PREDICTED BY IDOCK:   -6.82 KCAL/MOL
REMARK 923 INTER-LIGAND FREE ENERGY PREDICTED BY IDOCK:   -5.09 KCAL/MOL
REMARK 924 INTRA-LIGAND FREE ENERGY PREDICTED BY IDOCK:   -1.72 KCAL/MOL
REMARK 927      BINDING AFFINITY PREDICTED BY RF-SCORE:    0.00 PKD
ROOT
HETATM    1  C   UNL     1      -9.902   9.452  70.059  1.00  0.00    -0.221 C  
HETATM    2  S   UNL     1      -8.118   9.756  70.078  1.00  0.00    -0.180 SA 
HETATM    3  C   UNL     1      -7.995   9.804  68.273  1.00  0.00    -0.096 C  
HETATM    4  C   UNL     1      -8.668   8.637  67.561  1.00  0.00    -0.135 C  
HETATM    5  O   UNL     1     -11.342   6.100  67.821  1.00  0.00    -0.201 OA 
HETATM    6  C   UNL     1      -9.695   7.906  68.093  1.00  0.00    -0.159 C  
HETATM    7  N   UNL     1     -10.151   8.202  69.355  1.00  0.00    -0.190 N  
HETATM    8  C   UNL     1     -10.523   8.776  71.369  1.00  0.00    -0.284 C  
HETATM    9  C   UNL     1     -10.303   6.764  67.288  1.00  0.00    -0.244 C  
HETATM   10  O   UNL     1     -11.669   6.685  70.218  1.00  0.00    -0.389 OA 
HETATM   11  C   UNL     1     -10.953   7.659  70.296  1.00  0.00    -0.252 C  
HETATM   12  O   UNL     1      -9.939   6.464  66.158  1.00  0.00    -0.017 OA 
ENDROOT
BRANCH   4  13
HETATM   13  C   UNL     1      -7.974   8.343  66.226  1.00  0.00    -0.099 C  
BRANCH  13  14
HETATM   14  S   UNL     1      -6.307   7.673  66.487  1.00  0.00    -0.047 SA 
BRANCH  14  15
HETATM   15  C   UNL     1      -6.682   6.009  66.774  1.00  0.00    -0.057 A  
HETATM   16  N   UNL     1      -6.853   5.088  65.854  1.00  0.00    -0.060 NA 
HETATM   17  N   UNL     1      -7.244   4.153  67.841  1.00  0.00    -0.063 NA 
HETATM   18  N   UNL     1      -7.211   3.944  66.531  1.00  0.00    -0.067 NA 
HETATM   19  C   UNL     1      -6.822   6.016  69.315  1.00  0.00    -0.062 C  
HETATM   20  N   UNL     1      -6.909   5.449  67.999  1.00  0.00    -0.058 NA 
ENDBRANCH  14  15
ENDBRANCH  13  14
ENDBRANCH   4  13
BRANCH   8  21
HETATM   21  O   UNL     1     -11.644   9.499  71.952  1.00  0.00    -0.371 OA 
HETATM   22  C   UNL     1     -12.220  10.519  71.138  1.00  0.00    -0.391 C  
ENDBRANCH   8  21
BRANCH   8  23
HETATM   23  N   UNL     1      -9.501   8.405  72.397  1.00  0.00    -0.280 N  
HETATM   24  C   UNL     1      -9.728   7.521  73.420  1.00  0.00    -0.291 C  
HETATM   25  H   UNL     1      -8.579   8.837  72.332  1.00  0.00     0.000 HD 
HETATM   26  O   UNL     1     -10.810   6.972  73.598  1.00  0.00    -0.336 OA 
BRANCH  24  27
HETATM   27  C   UNL     1      -8.570   7.325  74.379  1.00  0.00    -0.206 C  
BRANCH  27  28
HETATM   28  S   UNL     1      -7.302   6.247  73.632  1.00  0.00    -0.086 SA 
BRANCH  28  29
HETATM   29  C   UNL     1      -8.148   4.620  73.732  1.00  0.00    -0.105 C  
HETATM   30  C   UNL     1      -8.135   3.858  72.475  1.00  0.00    -0.086 C  
HETATM   31  N   UNL     1      -8.118   3.255  71.484  1.00  0.00    -0.060 NA 
ENDBRANCH  28  29
ENDBRANCH  27  28
ENDBRANCH  24  27
ENDBRANCH   8  23
TORSDOF 8
ENDMDL
MODEL      144
REMARK 921   NORMALIZED FREE ENERGY PREDICTED BY IDOCK:   -3.87 KCAL/MOL
REMARK 922        TOTAL FREE ENERGY PREDICTED BY IDOCK:   -6.77 KCAL/MOL
REMARK 923 INTER-LIGAND FREE ENERGY PREDICTED BY IDOCK:   -6.01 KCAL/MOL
REMARK 924 INTRA-LIGAND FREE ENERGY PREDICTED BY IDOCK:   -0.77 KCAL/MOL
REMARK 927      BINDING AFFINITY PREDICTED BY RF-SCORE:    0.00 PKD
ROOT
HETATM    1  C   UNL     1      -8.446   9.494  70.316  1.00  0.00    -0.207 C  
HETATM    2  S   UNL     1      -7.957   9.369  68.577  1.00  0.00    -0.093 SA 
HETATM    3  C   UNL     1      -8.473  11.060  68.195  1.00  0.00    -0.135 C  
HETATM    4  C   UNL     1      -9.873  11.420  68.678  1.00  0.00    -0.199 C  
HETATM    5  O   UNL     1     -12.474  10.652  71.189  1.00  0.00    -0.348 OA 
HETATM    6  C   UNL     1     -10.505  10.801  69.722  1.00  0.00    -0.083 C  
HETATM    7  N   UNL     1      -9.875   9.770  70.376  1.00  0.00    -0.252 N  
HETATM    8  C   UNL     1      -8.734   8.116  71.075  1.00  0.00    -0.139 C  
HETATM    9  C   UNL     1     -11.903  11.249  70.129  1.00  0.00    -0.364 C  
HETATM   10  O   UNL     1     -11.196   8.637  71.900  1.00  0.00    -0.296 OA 
HETATM   11  C   UNL     1     -10.175   8.803  71.270  1.00  0.00    -0.262 C  
HETATM   12  O   UNL     1     -12.505  12.166  69.585  1.00  0.00    -0.047 OA 
ENDROOT
BRANCH   4  13
HETATM   13  C   UNL     1     -10.498  12.493  67.779  1.00  0.00    -0.220 C  
BRANCH  13  14
HETATM   14  S   UNL     1      -9.351  12.996  66.465  1.00  0.00    -0.174 SA 
BRANCH  14  15
HETATM   15  C   UNL     1     -10.307  12.646  65.067  1.00  0.00    -0.299 A  
HETATM   16  N   UNL     1     -10.972  13.522  64.350  1.00  0.00    -0.390 NA 
HETATM   17  N   UNL     1     -11.387  11.497  63.515  1.00  0.00    -0.369 NA 
HETATM   18  N   UNL     1     -11.645  12.793  63.396  1.00  0.00    -0.499 NA 
HETATM   19  C   UNL     1     -10.035  10.119  64.961  1.00  0.00    -0.305 C  
HETATM   20  N   UNL     1     -10.544  11.400  64.562  1.00  0.00    -0.311 NA 
ENDBRANCH  14  15
ENDBRANCH  13  14
ENDBRANCH   4  13
BRANCH   8  21
HETATM   21  O   UNL     1      -7.992   7.939  72.315  1.00  0.00    -0.104 OA 
HETATM   22  C   UNL     1      -8.657   7.203  73.340  1.00  0.00    -0.134 C  
ENDBRANCH   8  21
BRANCH   8  23
HETATM   23  N   UNL     1      -8.644   6.912  70.193  1.00  0.00    -0.139 N  
HETATM   24  C   UNL     1      -7.475   6.252  69.911  1.00  0.00    -0.084 C  
HETATM   25  H   UNL     1      -9.505   6.559  69.775  1.00  0.00     0.000 HD 
HETATM   26  O   UNL     1      -6.386   6.614  70.342  1.00  0.00    -0.040 OA 
BRANCH  24  27
HETATM   27  C   UNL     1      -7.602   5.083  68.953  1.00  0.00    -0.073 C  
BRANCH  27  28
HETATM   28  S   UNL     1      -7.045   3.542  69.756  1.00  0.00    -0.042 SA 
BRANCH  28  29
HETATM   29  C   UNL     1      -8.661   2.814  70.233  1.00  0.00    -0.074 C  
HETATM   30  C   UNL     1      -9.516   3.713  71.021  1.00  0.00    -0.164 C  
HETATM   31  N   UNL     1     -10.192   4.427  71.638  1.00  0.00    -0.157 NA 
ENDBRANCH  28  29
ENDBRANCH  27  28
ENDBRANCH  24  27
ENDBRANCH   8  23
TORSDOF 8
ENDMDL
MODEL      145
REMARK 921   NORMALIZED FREE ENERGY PREDICTED BY IDOCK:   -3.85 KCAL/MOL
REMARK 922        TOTAL FREE ENERGY PREDICTED BY IDOCK:   -6.74 KCAL/MOL
REMARK 923 INTER-LIGAND FREE ENERGY PREDICTED BY IDOCK:   -5.09 KCAL/MOL
REMARK 924 INTRA-LIGAND FREE ENERGY PREDICTED BY IDOCK:   -1.65 KCAL/MOL
REMARK 927      BINDING AFFINITY PREDICTED BY RF-SCORE:    0.00 PKD
ROOT
HETATM    1  C   UNL     1     -10.467   7.762  68.398  1.00  0.00    -0.166 C  
HETATM    2  S   UNL     1     -11.160   6.129  68.762  1.00  0.00    -0.206 SA 
HETATM    3  C   UNL     1     -11.716   6.611  70.414  1.00  0.00    -0.386 C  
HETATM    4  C   UNL     1     -10.660   7.313  71.259  1.00  0.00    -0.236 C  
HETATM    5  O   UNL     1      -7.599   9.380  71.133  1.00  0.00    -0.306 OA 
HETATM    6  C   UNL     1      -9.596   8.000  70.740  1.00  0.00    -0.162 C  
HETATM    7  N   UNL     1      -9.430   8.053  69.377  1.00  0.00    -0.159 N  
HETATM    8  C   UNL     1      -9.341   7.821  67.264  1.00  0.00    -0.145 C  
HETATM    9  C   UNL     1      -8.603   8.674  71.678  1.00  0.00    -0.189 C  
HETATM   10  O   UNL     1      -7.429   8.982  68.681  1.00  0.00    -0.081 OA 
HETATM   11  C   UNL     1      -8.484   8.422  68.485  1.00  0.00    -0.132 C  
HETATM   12  O   UNL     1      -8.710   8.662  72.898  1.00  0.00    -0.384 OA 
ENDROOT
BRANCH   4  13
HETATM   13  C   UNL     1     -10.903   7.061  72.752  1.00  0.00    -0.288 C  
BRANCH  13  14
HETATM   14  S   UNL     1     -10.861   5.286  73.132  1.00  0.00    -0.310 SA 
BRANCH  14  15
HETATM   15  C   UNL     1      -9.206   4.931  72.778  1.00  0.00    -0.132 A  
HETATM   16  N   UNL     1      -8.163   5.405  73.418  1.00  0.00    -0.114 NA 
HETATM   17  N   UNL     1      -7.419   4.156  71.727  1.00  0.00    -0.063 NA 
HETATM   18  N   UNL     1      -7.060   4.923  72.749  1.00  0.00    -0.076 NA 
HETATM   19  C   UNL     1      -9.499   3.392  70.773  1.00  0.00    -0.170 C  
HETATM   20  N   UNL     1      -8.767   4.155  71.743  1.00  0.00    -0.110 NA 
ENDBRANCH  14  15
ENDBRANCH  13  14
ENDBRANCH   4  13
BRANCH   8  21
HETATM   21  O   UNL     1      -9.601   8.779  66.199  1.00  0.00    -0.237 OA 
HETATM   22  C   UNL     1     -10.104  10.048  66.610  1.00  0.00    -0.227 C  
ENDBRANCH   8  21
BRANCH   8  23
HETATM   23  N   UNL     1      -8.955   6.479  66.729  1.00  0.00    -0.127 N  
HETATM   24  C   UNL     1      -7.763   6.217  66.102  1.00  0.00    -0.099 C  
HETATM   25  H   UNL     1      -9.618   5.712  66.836  1.00  0.00     0.000 HD 
HETATM   26  O   UNL     1      -6.912   7.077  65.902  1.00  0.00    -0.061 OA 
BRANCH  24  27
HETATM   27  C   UNL     1      -7.594   4.798  65.593  1.00  0.00    -0.086 C  
BRANCH  27  28
HETATM   28  S   UNL     1      -9.211   3.956  65.514  1.00  0.00    -0.161 SA 
BRANCH  28  29
HETATM   29  C   UNL     1      -9.175   3.019  67.092  1.00  0.00    -0.175 C  
HETATM   30  C   UNL     1      -7.835   2.571  67.494  1.00  0.00    -0.064 C  
HETATM   31  N   UNL     1      -6.774   2.223  67.812  1.00  0.00    -0.038 NA 
ENDBRANCH  28  29
ENDBRANCH  27  28
ENDBRANCH  24  27
ENDBRANCH   8  23
TORSDOF 8
ENDMDL
MODEL      146
REMARK 921   NORMALIZED FREE ENERGY PREDICTED BY IDOCK:   -3.81 KCAL/MOL
REMARK 922        TOTAL FREE ENERGY PREDICTED BY IDOCK:   -6.68 KCAL/MOL
REMARK 923 INTER-LIGAND FREE ENERGY PREDICTED BY IDOCK:   -6.33 KCAL/MOL
REMARK 924 INTRA-LIGAND FREE ENERGY PREDICTED BY IDOCK:   -0.35 KCAL/MOL
REMARK 927      BINDING AFFINITY PREDICTED BY RF-SCORE:    0.00 PKD
ROOT
HETATM    1  C   UNL     1      -8.280  13.239  67.127  1.00  0.00    -0.114 C  
HETATM    2  S   UNL     1      -8.591  12.316  68.654  1.00  0.00     0.104 SA 
HETATM    3  C   UNL     1      -8.740  10.730  67.796  1.00  0.00    -0.130 C  
HETATM    4  C   UNL     1      -9.669  10.748  66.588  1.00  0.00    -0.227 C  
HETATM    5  O   UNL     1     -11.130  12.888  63.953  1.00  0.00    -0.394 OA 
HETATM    6  C   UNL     1      -9.965  11.872  65.866  1.00  0.00    -0.234 C  
HETATM    7  N   UNL     1      -9.428  13.078  66.247  1.00  0.00    -0.231 N  
HETATM    8  C   UNL     1      -8.595  14.806  67.166  1.00  0.00    -0.226 C  
HETATM    9  C   UNL     1     -10.901  11.774  64.668  1.00  0.00    -0.307 C  
HETATM   10  O   UNL     1     -10.270  14.914  65.118  1.00  0.00    -0.383 OA 
HETATM   11  C   UNL     1      -9.589  14.391  65.973  1.00  0.00    -0.262 C  
HETATM   12  O   UNL     1     -11.399  10.724  64.283  1.00  0.00     0.326 OA 
ENDROOT
BRANCH   4  13
HETATM   13  C   UNL     1     -10.290   9.365  66.361  1.00  0.00    -0.167 C  
BRANCH  13  14
HETATM   14  S   UNL     1      -9.010   8.117  66.040  1.00  0.00    -0.149 SA 
BRANCH  14  15
HETATM   15  C   UNL     1      -8.149   8.880  64.749  1.00  0.00    -0.144 A  
HETATM   16  N   UNL     1      -8.560   8.989  63.507  1.00  0.00    -0.173 NA 
HETATM   17  N   UNL     1      -6.510   9.857  63.628  1.00  0.00    -0.120 NA 
HETATM   18  N   UNL     1      -7.529   9.589  62.821  1.00  0.00    -0.107 NA 
HETATM   19  C   UNL     1      -6.029   9.571  65.975  1.00  0.00    -0.062 C  
HETATM   20  N   UNL     1      -6.896   9.416  64.841  1.00  0.00    -0.090 NA 
ENDBRANCH  14  15
ENDBRANCH  13  14
ENDBRANCH   4  13
BRANCH   8  21
HETATM   21  O   UNL     1      -7.492  15.659  66.747  1.00  0.00    -0.179 OA 
HETATM   22  C   UNL     1      -6.885  16.443  67.772  1.00  0.00    -0.134 C  
ENDBRANCH   8  21
BRANCH   8  23
HETATM   23  N   UNL     1      -9.199  15.267  68.455  1.00  0.00    -0.188 N  
HETATM   24  C   UNL     1     -10.471  15.767  68.570  1.00  0.00    -0.236 C  
HETATM   25  H   UNL     1      -8.631  15.205  69.299  1.00  0.00     0.000 HD 
HETATM   26  O   UNL     1     -11.222  15.906  67.611  1.00  0.00    -0.308 OA 
BRANCH  24  27
HETATM   27  C   UNL     1     -10.868  16.222  69.962  1.00  0.00    -0.329 C  
BRANCH  27  28
HETATM   28  S   UNL     1     -12.503  15.548  70.407  1.00  0.00    -0.349 SA 
BRANCH  28  29
HETATM   29  C   UNL     1     -12.135  14.852  72.066  1.00  0.00    -0.359 C  
HETATM   30  C   UNL     1     -12.603  15.684  73.184  1.00  0.00    -0.476 C  
HETATM   31  N   UNL     1     -12.979  16.340  74.064  1.00  0.00    -0.682 NA 
ENDBRANCH  28  29
ENDBRANCH  27  28
ENDBRANCH  24  27
ENDBRANCH   8  23
TORSDOF 8
ENDMDL
MODEL      147
REMARK 921   NORMALIZED FREE ENERGY PREDICTED BY IDOCK:   -3.81 KCAL/MOL
REMARK 922        TOTAL FREE ENERGY PREDICTED BY IDOCK:   -6.68 KCAL/MOL
REMARK 923 INTER-LIGAND FREE ENERGY PREDICTED BY IDOCK:   -6.32 KCAL/MOL
REMARK 924 INTRA-LIGAND FREE ENERGY PREDICTED BY IDOCK:   -0.36 KCAL/MOL
REMARK 927      BINDING AFFINITY PREDICTED BY RF-SCORE:    0.00 PKD
ROOT
HETATM    1  C   UNL     1      -9.124  15.091  66.359  1.00  0.00    -0.277 C  
HETATM    2  S   UNL     1      -9.227  14.544  68.082  1.00  0.00    -0.202 SA 
HETATM    3  C   UNL     1      -9.619  12.836  67.634  1.00  0.00    -0.192 C  
HETATM    4  C   UNL     1     -10.738  12.691  66.610  1.00  0.00    -0.275 C  
HETATM    5  O   UNL     1     -12.493  14.363  63.820  1.00  0.00    -0.814 OA 
HETATM    6  C   UNL     1     -11.083  13.662  65.710  1.00  0.00    -0.287 C  
HETATM    7  N   UNL     1     -10.415  14.862  65.725  1.00  0.00    -0.309 N  
HETATM    8  C   UNL     1      -9.330  16.654  66.095  1.00  0.00    -0.284 C  
HETATM    9  C   UNL     1     -12.215  13.407  64.722  1.00  0.00    -0.409 C  
HETATM   10  O   UNL     1     -11.321  16.493  64.357  1.00  0.00    -0.921 OA 
HETATM   11  C   UNL     1     -10.538  16.097  65.192  1.00  0.00    -0.343 C  
HETATM   12  O   UNL     1     -12.836  12.354  64.663  1.00  0.00    -0.714 OA 
ENDROOT
BRANCH   4  13
HETATM   13  C   UNL     1     -11.474  11.359  66.796  1.00  0.00    -0.078 C  
BRANCH  13  14
HETATM   14  S   UNL     1     -10.312   9.964  66.801  1.00  0.00    -0.194 SA 
BRANCH  14  15
HETATM   15  C   UNL     1      -9.543  10.193  65.269  1.00  0.00    -0.277 A  
HETATM   16  N   UNL     1     -10.151  10.278  64.108  1.00  0.00    -0.204 NA 
HETATM   17  N   UNL     1      -7.953  10.366  63.740  1.00  0.00    -0.128 NA 
HETATM   18  N   UNL     1      -9.150  10.375  63.167  1.00  0.00    -0.231 NA 
HETATM   19  C   UNL     1      -7.105  10.238  65.995  1.00  0.00    -0.128 C  
HETATM   20  N   UNL     1      -8.195  10.255  65.061  1.00  0.00    -0.152 NA 
ENDBRANCH  14  15
ENDBRANCH  13  14
ENDBRANCH   4  13
BRANCH   8  21
HETATM   21  O   UNL     1      -8.264  17.287  65.331  1.00  0.00     0.079 OA 
HETATM   22  C   UNL     1      -7.058  17.553  66.045  1.00  0.00    -0.264 C  
ENDBRANCH   8  21
BRANCH   8  23
HETATM   23  N   UNL     1      -9.674  17.433  67.325  1.00  0.00    -0.261 N  
HETATM   24  C   UNL     1     -10.354  18.624  67.314  1.00  0.00    -0.400 C  
HETATM   25  H   UNL     1      -9.386  17.054  68.227  1.00  0.00     0.000 HD 
HETATM   26  O   UNL     1     -10.719  19.173  66.281  1.00  0.00    -0.415 OA 
BRANCH  24  27
HETATM   27  C   UNL     1     -10.556  19.270  68.671  1.00  0.00     0.110 C  
BRANCH  27  28
HETATM   28  S   UNL     1     -10.375  18.030  69.998  1.00  0.00     1.399 SA 
BRANCH  28  29
HETATM   29  C   UNL     1     -11.428  16.680  69.336  1.00  0.00     0.138 C  
HETATM   30  C   UNL     1     -12.364  16.112  70.316  1.00  0.00     0.215 C  
HETATM   31  N   UNL     1     -13.106  15.669  71.091  1.00  0.00    -0.503 NA 
ENDBRANCH  28  29
ENDBRANCH  27  28
ENDBRANCH  24  27
ENDBRANCH   8  23
TORSDOF 8
ENDMDL
MODEL      148
REMARK 921   NORMALIZED FREE ENERGY PREDICTED BY IDOCK:   -3.81 KCAL/MOL
REMARK 922        TOTAL FREE ENERGY PREDICTED BY IDOCK:   -6.68 KCAL/MOL
REMARK 923 INTER-LIGAND FREE ENERGY PREDICTED BY IDOCK:   -6.32 KCAL/MOL
REMARK 924 INTRA-LIGAND FREE ENERGY PREDICTED BY IDOCK:   -0.35 KCAL/MOL
REMARK 927      BINDING AFFINITY PREDICTED BY RF-SCORE:    0.00 PKD
ROOT
HETATM    1  C   UNL     1     -10.675   8.445  69.487  1.00  0.00    -0.175 C  
HETATM    2  S   UNL     1     -10.409   8.652  67.708  1.00  0.00    -0.233 SA 
HETATM    3  C   UNL     1      -9.922   6.927  67.467  1.00  0.00    -0.149 C  
HETATM    4  C   UNL     1      -8.871   6.422  68.448  1.00  0.00    -0.119 C  
HETATM    5  O   UNL     1      -7.452   6.881  71.830  1.00  0.00    -0.086 OA 
HETATM    6  C   UNL     1      -8.666   6.955  69.692  1.00  0.00    -0.141 C  
HETATM    7  N   UNL     1      -9.420   8.030  70.097  1.00  0.00    -0.160 N  
HETATM    8  C   UNL     1     -10.608   9.773  70.376  1.00  0.00    -0.304 C  
HETATM    9  C   UNL     1      -7.592   6.365  70.597  1.00  0.00    -0.103 C  
HETATM   10  O   UNL     1      -8.740   8.996  72.086  1.00  0.00    -0.368 OA 
HETATM   11  C   UNL     1      -9.429   8.944  71.091  1.00  0.00    -0.265 C  
HETATM   12  O   UNL     1      -6.899   5.405  70.287  1.00  0.00    -0.045 OA 
ENDROOT
BRANCH   4  13
HETATM   13  C   UNL     1      -8.026   5.311  67.814  1.00  0.00    -0.099 C  
BRANCH  13  14
HETATM   14  S   UNL     1      -8.005   5.457  66.004  1.00  0.00    -0.107 SA 
BRANCH  14  15
HETATM   15  C   UNL     1      -8.151   3.793  65.556  1.00  0.00    -0.097 A  
HETATM   16  N   UNL     1      -7.229   2.871  65.708  1.00  0.00    -0.065 NA 
HETATM   17  N   UNL     1      -8.967   1.938  64.668  1.00  0.00    -0.113 NA 
HETATM   18  N   UNL     1      -7.746   1.726  65.144  1.00  0.00    -0.070 NA 
HETATM   19  C   UNL     1     -10.493   3.803  64.563  1.00  0.00    -0.182 C  
HETATM   20  N   UNL     1      -9.227   3.234  64.928  1.00  0.00    -0.141 NA 
ENDBRANCH  14  15
ENDBRANCH  13  14
ENDBRANCH   4  13
BRANCH   8  21
HETATM   21  O   UNL     1     -11.770   9.996  71.224  1.00  0.00    -0.361 OA 
HETATM   22  C   UNL     1     -12.135   8.914  72.079  1.00  0.00    -0.371 C  
ENDBRANCH   8  21
BRANCH   8  23
HETATM   23  N   UNL     1     -10.235  10.997  69.603  1.00  0.00    -0.438 N  
HETATM   24  C   UNL     1     -11.134  11.777  68.920  1.00  0.00    -0.243 C  
HETATM   25  H   UNL     1      -9.252  11.270  69.582  1.00  0.00     0.000 HD 
HETATM   26  O   UNL     1     -12.331  11.518  68.863  1.00  0.00    -0.400 OA 
BRANCH  24  27
HETATM   27  C   UNL     1     -10.537  12.946  68.162  1.00  0.00    -0.237 C  
BRANCH  27  28
HETATM   28  S   UNL     1     -11.858  14.027  67.519  1.00  0.00    -0.402 SA 
BRANCH  28  29
HETATM   29  C   UNL     1     -11.827  15.371  68.771  1.00  0.00    -0.318 C  
HETATM   30  C   UNL     1     -10.590  16.165  68.769  1.00  0.00    -0.279 C  
HETATM   31  N   UNL     1      -9.615  16.794  68.761  1.00  0.00    -0.253 NA 
ENDBRANCH  28  29
ENDBRANCH  27  28
ENDBRANCH  24  27
ENDBRANCH   8  23
TORSDOF 8
ENDMDL
MODEL      149
REMARK 921   NORMALIZED FREE ENERGY PREDICTED BY IDOCK:   -3.80 KCAL/MOL
REMARK 922        TOTAL FREE ENERGY PREDICTED BY IDOCK:   -6.68 KCAL/MOL
REMARK 923 INTER-LIGAND FREE ENERGY PREDICTED BY IDOCK:   -5.91 KCAL/MOL
REMARK 924 INTRA-LIGAND FREE ENERGY PREDICTED BY IDOCK:   -0.76 KCAL/MOL
REMARK 927      BINDING AFFINITY PREDICTED BY RF-SCORE:    0.00 PKD
ROOT
HETATM    1  C   UNL     1      -9.718  11.425  68.203  1.00  0.00    -0.192 C  
HETATM    2  S   UNL     1      -8.377  12.499  68.776  1.00  0.00     0.238 SA 
HETATM    3  C   UNL     1      -9.160  14.001  68.141  1.00  0.00    -0.192 C  
HETATM    4  C   UNL     1      -9.637  13.905  66.697  1.00  0.00    -0.297 C  
HETATM    5  O   UNL     1     -10.785  11.584  64.061  1.00  0.00    -0.328 OA 
HETATM    6  C   UNL     1      -9.956  12.730  66.072  1.00  0.00    -0.271 C  
HETATM    7  N   UNL     1      -9.821  11.546  66.756  1.00  0.00    -0.200 N  
HETATM    8  C   UNL     1      -9.355   9.881  67.996  1.00  0.00    -0.130 C  
HETATM    9  C   UNL     1     -10.434  12.751  64.626  1.00  0.00    -0.350 C  
HETATM   10  O   UNL     1     -10.102   9.646  65.466  1.00  0.00    -0.290 OA 
HETATM   11  C   UNL     1      -9.828  10.220  66.496  1.00  0.00    -0.212 C  
HETATM   12  O   UNL     1     -10.578  13.778  63.976  1.00  0.00    -0.144 OA 
ENDROOT
BRANCH   4  13
HETATM   13  C   UNL     1      -9.617  15.284  66.027  1.00  0.00    -0.338 C  
BRANCH  13  14
HETATM   14  S   UNL     1     -10.374  16.543  67.094  1.00  0.00    -0.292 SA 
BRANCH  14  15
HETATM   15  C   UNL     1      -9.325  17.883  66.787  1.00  0.00    -0.275 A  
HETATM   16  N   UNL     1      -9.419  18.720  65.780  1.00  0.00    -0.341 NA 
HETATM   17  N   UNL     1      -7.603  19.263  66.955  1.00  0.00    -0.234 NA 
HETATM   18  N   UNL     1      -8.339  19.566  65.892  1.00  0.00    -0.435 NA 
HETATM   19  C   UNL     1      -7.698  17.629  68.727  1.00  0.00    -0.246 C  
HETATM   20  N   UNL     1      -8.221  18.208  67.522  1.00  0.00    -0.235 NA 
ENDBRANCH  14  15
ENDBRANCH  13  14
ENDBRANCH   4  13
BRANCH   8  21
HETATM   21  O   UNL     1     -10.230   8.952  68.695  1.00  0.00    -0.190 OA 
HETATM   22  C   UNL     1      -9.681   8.332  69.857  1.00  0.00    -0.180 C  
ENDBRANCH   8  21
BRANCH   8  23
HETATM   23  N   UNL     1      -7.910   9.567  68.221  1.00  0.00    -0.086 N  
HETATM   24  C   UNL     1      -7.242   8.541  67.604  1.00  0.00    -0.084 C  
HETATM   25  H   UNL     1      -7.389  10.153  68.875  1.00  0.00     0.000 HD 
HETATM   26  O   UNL     1      -7.785   7.767  66.824  1.00  0.00    -0.095 OA 
BRANCH  24  27
HETATM   27  C   UNL     1      -5.792   8.368  68.014  1.00  0.00    -0.042 C  
BRANCH  27  28
HETATM   28  S   UNL     1      -5.676   7.359  69.529  1.00  0.00    -0.023 SA 
BRANCH  28  29
HETATM   29  C   UNL     1      -5.421   8.674  70.785  1.00  0.00    -0.028 C  
HETATM   30  C   UNL     1      -6.492   8.765  71.787  1.00  0.00    -0.073 C  
HETATM   31  N   UNL     1      -7.337   8.830  72.581  1.00  0.00    -0.348 NA 
ENDBRANCH  28  29
ENDBRANCH  27  28
ENDBRANCH  24  27
ENDBRANCH   8  23
TORSDOF 8
ENDMDL
MODEL      150
REMARK 921   NORMALIZED FREE ENERGY PREDICTED BY IDOCK:   -3.80 KCAL/MOL
REMARK 922        TOTAL FREE ENERGY PREDICTED BY IDOCK:   -6.67 KCAL/MOL
REMARK 923 INTER-LIGAND FREE ENERGY PREDICTED BY IDOCK:   -5.74 KCAL/MOL
REMARK 924 INTRA-LIGAND FREE ENERGY PREDICTED BY IDOCK:   -0.92 KCAL/MOL
REMARK 927      BINDING AFFINITY PREDICTED BY RF-SCORE:    0.00 PKD
ROOT
HETATM    1  C   UNL     1     -11.138   7.983  70.233  1.00  0.00    -0.224 C  
HETATM    2  S   UNL     1     -10.995   7.477  68.500  1.00  0.00     0.214 SA 
HETATM    3  C   UNL     1     -10.906   5.717  68.906  1.00  0.00    -0.159 C  
HETATM    4  C   UNL     1      -9.900   5.368  69.996  1.00  0.00    -0.274 C  
HETATM    5  O   UNL     1      -8.118   6.663  72.963  1.00  0.00    -0.106 OA 
HETATM    6  C   UNL     1      -9.476   6.247  70.956  1.00  0.00    -0.175 C  
HETATM    7  N   UNL     1      -9.949   7.537  70.944  1.00  0.00    -0.181 N  
HETATM    8  C   UNL     1     -10.713   9.487  70.573  1.00  0.00    -0.298 C  
HETATM    9  C   UNL     1      -8.474   5.789  72.007  1.00  0.00    -0.126 C  
HETATM   10  O   UNL     1      -8.904   8.965  72.434  1.00  0.00    -0.396 OA 
HETATM   11  C   UNL     1      -9.675   8.721  71.533  1.00  0.00    -0.291 C  
HETATM   12  O   UNL     1      -8.028   4.649  72.066  1.00  0.00    -0.096 OA 
ENDROOT
BRANCH   4  13
HETATM   13  C   UNL     1      -9.368   3.943  69.808  1.00  0.00    -0.172 C  
BRANCH  13  14
HETATM   14  S   UNL     1      -8.599   3.741  68.175  1.00  0.00    -0.102 SA 
BRANCH  14  15
HETATM   15  C   UNL     1      -7.370   4.955  68.258  1.00  0.00    -0.066 A  
HETATM   16  N   UNL     1      -6.382   4.994  69.123  1.00  0.00    -0.030 NA 
HETATM   17  N   UNL     1      -6.259   6.827  67.859  1.00  0.00    -0.032 NA 
HETATM   18  N   UNL     1      -5.706   6.166  68.868  1.00  0.00    -0.018 NA 
HETATM   19  C   UNL     1      -8.121   6.480  66.365  1.00  0.00    -0.113 C  
HETATM   20  N   UNL     1      -7.303   6.069  67.470  1.00  0.00    -0.076 NA 
ENDBRANCH  14  15
ENDBRANCH  13  14
ENDBRANCH   4  13
BRANCH   8  21
HETATM   21  O   UNL     1     -11.722  10.256  71.287  1.00  0.00    -0.354 OA 
HETATM   22  C   UNL     1     -12.813   9.509  71.821  1.00  0.00    -0.406 C  
ENDBRANCH   8  21
BRANCH   8  23
HETATM   23  N   UNL     1     -10.163  10.237  69.401  1.00  0.00    -0.223 N  
HETATM   24  C   UNL     1     -10.937  10.884  68.472  1.00  0.00    -0.230 C  
HETATM   25  H   UNL     1      -9.150  10.269  69.286  1.00  0.00     0.000 HD 
HETATM   26  O   UNL     1     -12.163  10.882  68.508  1.00  0.00    -0.535 OA 
BRANCH  24  27
HETATM   27  C   UNL     1     -10.177  11.542  67.337  1.00  0.00    -0.203 C  
BRANCH  27  28
HETATM   28  S   UNL     1     -10.708  13.276  67.138  1.00  0.00    -0.260 SA 
BRANCH  28  29
HETATM   29  C   UNL     1     -10.836  13.787  68.897  1.00  0.00    -0.242 C  
HETATM   30  C   UNL     1     -11.183  15.203  69.088  1.00  0.00    -0.279 C  
HETATM   31  N   UNL     1     -11.462  16.320  69.235  1.00  0.00    -0.292 NA 
ENDBRANCH  28  29
ENDBRANCH  27  28
ENDBRANCH  24  27
ENDBRANCH   8  23
TORSDOF 8
ENDMDL
MODEL      151
REMARK 921   NORMALIZED FREE ENERGY PREDICTED BY IDOCK:   -3.76 KCAL/MOL
REMARK 922        TOTAL FREE ENERGY PREDICTED BY IDOCK:   -6.61 KCAL/MOL
REMARK 923 INTER-LIGAND FREE ENERGY PREDICTED BY IDOCK:   -4.99 KCAL/MOL
REMARK 924 INTRA-LIGAND FREE ENERGY PREDICTED BY IDOCK:   -1.62 KCAL/MOL
REMARK 927      BINDING AFFINITY PREDICTED BY RF-SCORE:    0.00 PKD
ROOT
HETATM    1  C   UNL     1     -10.305   8.997  69.824  1.00  0.00    -0.211 C  
HETATM    2  S   UNL     1      -8.626   9.561  70.201  1.00  0.00    -0.231 SA 
HETATM    3  C   UNL     1      -8.149   9.663  68.459  1.00  0.00    -0.104 C  
HETATM    4  C   UNL     1      -8.483   8.424  67.637  1.00  0.00    -0.130 C  
HETATM    5  O   UNL     1     -10.748   5.516  67.372  1.00  0.00    -0.228 OA 
HETATM    6  C   UNL     1      -9.477   7.539  67.956  1.00  0.00    -0.142 C  
HETATM    7  N   UNL     1     -10.217   7.739  69.096  1.00  0.00    -0.204 N  
HETATM    8  C   UNL     1     -11.070   8.210  70.987  1.00  0.00    -0.253 C  
HETATM    9  C   UNL     1      -9.732   6.336  67.056  1.00  0.00    -0.144 C  
HETATM   10  O   UNL     1     -11.636   5.997  69.648  1.00  0.00    -0.321 OA 
HETATM   11  C   UNL     1     -11.104   7.064  69.859  1.00  0.00    -0.264 C  
HETATM   12  O   UNL     1      -9.107   6.117  66.026  1.00  0.00    -0.156 OA 
ENDROOT
BRANCH   4  13
HETATM   13  C   UNL     1      -7.498   8.264  66.473  1.00  0.00    -0.081 C  
BRANCH  13  14
HETATM   14  S   UNL     1      -5.815   7.949  67.078  1.00  0.00    -0.046 SA 
BRANCH  14  15
HETATM   15  C   UNL     1      -6.001   6.342  67.692  1.00  0.00    -0.017 A  
HETATM   16  N   UNL     1      -6.226   6.017  68.943  1.00  0.00    -0.034 NA 
HETATM   17  N   UNL     1      -6.011   4.131  67.773  1.00  0.00    -0.026 NA 
HETATM   18  N   UNL     1      -6.220   4.640  68.980  1.00  0.00    -0.030 NA 
HETATM   19  C   UNL     1      -5.657   5.007  65.553  1.00  0.00    -0.014 C  
HETATM   20  N   UNL     1      -5.875   5.196  66.959  1.00  0.00    -0.021 NA 
ENDBRANCH  14  15
ENDBRANCH  13  14
ENDBRANCH   4  13
BRANCH   8  21
HETATM   21  O   UNL     1     -12.381   8.747  71.322  1.00  0.00    -0.295 OA 
HETATM   22  C   UNL     1     -12.434  10.149  71.579  1.00  0.00    -0.427 C  
ENDBRANCH   8  21
BRANCH   8  23
HETATM   23  N   UNL     1     -10.234   7.973  72.204  1.00  0.00    -0.223 N  
HETATM   24  C   UNL     1     -10.389   6.900  73.044  1.00  0.00    -0.244 C  
HETATM   25  H   UNL     1      -9.504   8.651  72.423  1.00  0.00     0.000 HD 
HETATM   26  O   UNL     1     -11.254   6.046  72.882  1.00  0.00    -0.259 OA 
BRANCH  24  27
HETATM   27  C   UNL     1      -9.467   6.878  74.248  1.00  0.00    -0.250 C  
BRANCH  27  28
HETATM   28  S   UNL     1      -8.117   5.678  73.991  1.00  0.00    -0.109 SA 
BRANCH  28  29
HETATM   29  C   UNL     1      -6.953   6.694  72.999  1.00  0.00    -0.076 C  
HETATM   30  C   UNL     1      -6.789   8.070  73.489  1.00  0.00    -0.116 C  
HETATM   31  N   UNL     1      -6.656   9.154  73.882  1.00  0.00    -0.332 NA 
ENDBRANCH  28  29
ENDBRANCH  27  28
ENDBRANCH  24  27
ENDBRANCH   8  23
TORSDOF 8
ENDMDL
MODEL      152
REMARK 921   NORMALIZED FREE ENERGY PREDICTED BY IDOCK:   -3.69 KCAL/MOL
REMARK 922        TOTAL FREE ENERGY PREDICTED BY IDOCK:   -6.50 KCAL/MOL
REMARK 923 INTER-LIGAND FREE ENERGY PREDICTED BY IDOCK:   -5.22 KCAL/MOL
REMARK 924 INTRA-LIGAND FREE ENERGY PREDICTED BY IDOCK:   -1.28 KCAL/MOL
REMARK 927      BINDING AFFINITY PREDICTED BY RF-SCORE:    0.00 PKD
ROOT
HETATM    1  C   UNL     1      -9.221   7.133  69.374  1.00  0.00    -0.148 C  
HETATM    2  S   UNL     1      -7.616   7.843  69.820  1.00  0.00    -0.091 SA 
HETATM    3  C   UNL     1      -7.232   6.520  70.992  1.00  0.00    -0.078 C  
HETATM    4  C   UNL     1      -8.347   6.208  71.983  1.00  0.00    -0.114 C  
HETATM    5  O   UNL     1     -12.001   6.321  72.527  1.00  0.00    -0.223 OA 
HETATM    6  C   UNL     1      -9.671   6.464  71.751  1.00  0.00    -0.159 C  
HETATM    7  N   UNL     1     -10.045   7.064  70.573  1.00  0.00    -0.191 N  
HETATM    8  C   UNL     1     -10.298   8.141  68.756  1.00  0.00    -0.202 C  
HETATM    9  C   UNL     1     -10.706   6.101  72.809  1.00  0.00    -0.239 C  
HETATM   10  O   UNL     1     -12.266   7.703  70.473  1.00  0.00    -0.067 OA 
HETATM   11  C   UNL     1     -11.138   7.647  70.035  1.00  0.00    -0.191 C  
HETATM   12  O   UNL     1     -10.426   5.559  73.871  1.00  0.00    -0.242 OA 
ENDROOT
BRANCH   4  13
HETATM   13  C   UNL     1      -7.770   5.663  73.295  1.00  0.00    -0.099 C  
BRANCH  13  14
HETATM   14  S   UNL     1      -7.068   4.005  73.063  1.00  0.00    -0.064 SA 
BRANCH  14  15
HETATM   15  C   UNL     1      -8.482   3.034  73.285  1.00  0.00    -0.077 A  
HETATM   16  N   UNL     1      -8.925   2.569  74.431  1.00  0.00    -0.073 NA 
HETATM   17  N   UNL     1     -10.251   1.791  72.816  1.00  0.00    -0.121 NA 
HETATM   18  N   UNL     1     -10.018   1.791  74.123  1.00  0.00    -0.085 NA 
HETATM   19  C   UNL     1      -9.256   2.814  70.872  1.00  0.00    -0.136 C  
HETATM   20  N   UNL     1      -9.290   2.572  72.286  1.00  0.00    -0.088 NA 
ENDBRANCH  14  15
ENDBRANCH  13  14
ENDBRANCH   4  13
BRANCH   8  21
HETATM   21  O   UNL     1     -10.862   7.720  67.481  1.00  0.00    -0.216 OA 
HETATM   22  C   UNL     1     -10.530   6.398  67.058  1.00  0.00    -0.282 C  
ENDBRANCH   8  21
BRANCH   8  23
HETATM   23  N   UNL     1      -9.841   9.565  68.723  1.00  0.00    -0.164 N  
HETATM   24  C   UNL     1     -10.689  10.642  68.693  1.00  0.00    -0.207 C  
HETATM   25  H   UNL     1      -8.837   9.745  68.724  1.00  0.00     0.000 HD 
HETATM   26  O   UNL     1     -11.910  10.528  68.662  1.00  0.00    -0.318 OA 
BRANCH  24  27
HETATM   27  C   UNL     1     -10.016  11.998  68.613  1.00  0.00    -0.142 C  
BRANCH  27  28
HETATM   28  S   UNL     1     -10.683  12.958  67.213  1.00  0.00    -0.248 SA 
BRANCH  28  29
HETATM   29  C   UNL     1     -11.274  14.459  68.089  1.00  0.00    -0.281 C  
HETATM   30  C   UNL     1     -11.895  14.188  69.393  1.00  0.00    -0.330 C  
HETATM   31  N   UNL     1     -12.380  13.971  70.425  1.00  0.00    -0.342 NA 
ENDBRANCH  28  29
ENDBRANCH  27  28
ENDBRANCH  24  27
ENDBRANCH   8  23
TORSDOF 8
ENDMDL
MODEL      153
REMARK 921   NORMALIZED FREE ENERGY PREDICTED BY IDOCK:   -3.68 KCAL/MOL
REMARK 922        TOTAL FREE ENERGY PREDICTED BY IDOCK:   -6.50 KCAL/MOL
REMARK 923 INTER-LIGAND FREE ENERGY PREDICTED BY IDOCK:   -5.73 KCAL/MOL
REMARK 924 INTRA-LIGAND FREE ENERGY PREDICTED BY IDOCK:   -0.77 KCAL/MOL
REMARK 927      BINDING AFFINITY PREDICTED BY RF-SCORE:    0.00 PKD
ROOT
HETATM    1  C   UNL     1      -8.959   8.629  67.129  1.00  0.00    -0.132 C  
HETATM    2  S   UNL     1     -10.711   9.018  67.376  1.00  0.00    -0.056 SA 
HETATM    3  C   UNL     1     -10.506  10.753  66.907  1.00  0.00    -0.252 C  
HETATM    4  C   UNL     1      -9.353  11.466  67.604  1.00  0.00    -0.159 C  
HETATM    5  O   UNL     1      -6.066  10.987  69.225  1.00  0.00    -0.043 OA 
HETATM    6  C   UNL     1      -8.254  10.828  68.112  1.00  0.00    -0.119 C  
HETATM    7  N   UNL     1      -8.171   9.459  68.028  1.00  0.00    -0.114 N  
HETATM    8  C   UNL     1      -8.399   7.348  67.904  1.00  0.00    -0.119 C  
HETATM    9  C   UNL     1      -7.153  11.641  68.781  1.00  0.00    -0.106 C  
HETATM   10  O   UNL     1      -6.411   8.522  69.202  1.00  0.00    -0.042 OA 
HETATM   11  C   UNL     1      -7.419   8.457  68.534  1.00  0.00    -0.094 C  
HETATM   12  O   UNL     1      -7.176  12.862  68.876  1.00  0.00    -0.100 OA 
ENDROOT
BRANCH   4  13
HETATM   13  C   UNL     1      -9.643  12.965  67.737  1.00  0.00    -0.212 C  
BRANCH  13  14
HETATM   14  S   UNL     1     -11.408  13.315  67.493  1.00  0.00    -0.314 SA 
BRANCH  14  15
HETATM   15  C   UNL     1     -11.745  14.228  68.923  1.00  0.00    -0.328 A  
HETATM   16  N   UNL     1     -12.278  13.760  70.028  1.00  0.00    -0.344 NA 
HETATM   17  N   UNL     1     -11.992  15.957  70.282  1.00  0.00    -0.343 NA 
HETATM   18  N   UNL     1     -12.434  14.846  70.859  1.00  0.00    -0.305 NA 
HETATM   19  C   UNL     1     -10.980  16.534  68.169  1.00  0.00    -0.336 C  
HETATM   20  N   UNL     1     -11.555  15.572  69.066  1.00  0.00    -0.344 NA 
ENDBRANCH  14  15
ENDBRANCH  13  14
ENDBRANCH   4  13
BRANCH   8  21
HETATM   21  O   UNL     1      -7.722   6.374  67.059  1.00  0.00    -0.097 OA 
HETATM   22  C   UNL     1      -8.486   5.855  65.972  1.00  0.00    -0.137 C  
ENDBRANCH   8  21
BRANCH   8  23
HETATM   23  N   UNL     1      -9.402   6.703  68.808  1.00  0.00    -0.132 N  
HETATM   24  C   UNL     1      -9.074   5.917  69.882  1.00  0.00    -0.146 C  
HETATM   25  H   UNL     1     -10.391   6.859  68.612  1.00  0.00     0.000 HD 
HETATM   26  O   UNL     1      -7.916   5.649  70.183  1.00  0.00    -0.094 OA 
BRANCH  24  27
HETATM   27  C   UNL     1     -10.248   5.323  70.636  1.00  0.00    -0.257 C  
BRANCH  27  28
HETATM   28  S   UNL     1     -10.678   6.369  72.068  1.00  0.00    -0.236 SA 
BRANCH  28  29
HETATM   29  C   UNL     1      -9.971   7.976  71.529  1.00  0.00    -0.177 C  
HETATM   30  C   UNL     1      -8.803   8.410  72.307  1.00  0.00    -0.220 C  
HETATM   31  N   UNL     1      -7.877   8.747  72.920  1.00  0.00    -0.377 NA 
ENDBRANCH  28  29
ENDBRANCH  27  28
ENDBRANCH  24  27
ENDBRANCH   8  23
TORSDOF 8
ENDMDL
MODEL      154
REMARK 921   NORMALIZED FREE ENERGY PREDICTED BY IDOCK:   -3.65 KCAL/MOL
REMARK 922        TOTAL FREE ENERGY PREDICTED BY IDOCK:   -6.45 KCAL/MOL
REMARK 923 INTER-LIGAND FREE ENERGY PREDICTED BY IDOCK:   -5.96 KCAL/MOL
REMARK 924 INTRA-LIGAND FREE ENERGY PREDICTED BY IDOCK:   -0.49 KCAL/MOL
REMARK 927      BINDING AFFINITY PREDICTED BY RF-SCORE:    0.00 PKD
ROOT
HETATM    1  C   UNL     1      -8.637  14.887  67.670  1.00  0.00    -0.174 C  
HETATM    2  S   UNL     1      -9.286  14.875  69.361  1.00  0.00     0.026 SA 
HETATM    3  C   UNL     1     -10.052  13.247  69.173  1.00  0.00     0.276 C  
HETATM    4  C   UNL     1     -10.901  13.087  67.918  1.00  0.00    -0.260 C  
HETATM    5  O   UNL     1     -11.400  14.283  64.457  1.00  0.00    -0.369 OA 
HETATM    6  C   UNL     1     -10.729  13.824  66.778  1.00  0.00    -0.276 C  
HETATM    7  N   UNL     1      -9.758  14.796  66.745  1.00  0.00    -0.244 N  
HETATM    8  C   UNL     1      -8.306  16.322  67.045  1.00  0.00    -0.205 C  
HETATM    9  C   UNL     1     -11.629  13.574  65.575  1.00  0.00    -0.320 C  
HETATM   10  O   UNL     1      -9.806  16.149  64.869  1.00  0.00    -0.204 OA 
HETATM   11  C   UNL     1      -9.386  15.830  65.960  1.00  0.00    -0.349 C  
HETATM   12  O   UNL     1     -12.504  12.717  65.551  1.00  0.00    -0.573 OA 
ENDROOT
BRANCH   4  13
HETATM   13  C   UNL     1     -12.019  12.063  68.146  1.00  0.00    -0.163 C  
BRANCH  13  14
HETATM   14  S   UNL     1     -11.339  10.438  68.586  1.00  0.00    -0.171 SA 
BRANCH  14  15
HETATM   15  C   UNL     1     -10.225  10.204  67.285  1.00  0.00    -0.222 A  
HETATM   16  N   UNL     1     -10.528  10.173  66.007  1.00  0.00    -0.151 NA 
HETATM   17  N   UNL     1      -8.346   9.756  66.205  1.00  0.00    -0.119 NA 
HETATM   18  N   UNL     1      -9.353   9.885  65.350  1.00  0.00    -0.219 NA 
HETATM   19  C   UNL     1      -8.063   9.914  68.595  1.00  0.00    -0.099 C  
HETATM   20  N   UNL     1      -8.888   9.958  67.422  1.00  0.00    -0.132 NA 
ENDBRANCH  14  15
ENDBRANCH  13  14
ENDBRANCH   4  13
BRANCH   8  21
HETATM   21  O   UNL     1      -6.957  16.457  66.516  1.00  0.00    -0.183 OA 
HETATM   22  C   UNL     1      -5.956  15.662  67.150  1.00  0.00     0.253 C  
ENDBRANCH   8  21
BRANCH   8  23
HETATM   23  N   UNL     1      -8.676  17.466  67.935  1.00  0.00    -0.232 N  
HETATM   24  C   UNL     1      -7.886  18.569  68.135  1.00  0.00    -0.290 C  
HETATM   25  H   UNL     1      -9.571  17.423  68.422  1.00  0.00     0.000 HD 
HETATM   26  O   UNL     1      -6.783  18.701  67.616  1.00  0.00    -0.201 OA 
BRANCH  24  27
HETATM   27  C   UNL     1      -8.430  19.590  69.115  1.00  0.00    -0.082 C  
BRANCH  27  28
HETATM   28  S   UNL     1     -10.158  20.007  68.703  1.00  0.00    -0.237 SA 
BRANCH  28  29
HETATM   29  C   UNL     1      -9.945  20.664  67.003  1.00  0.00    -0.246 C  
HETATM   30  C   UNL     1     -10.494  19.798  65.950  1.00  0.00    -0.486 C  
HETATM   31  N   UNL     1     -10.935  19.115  65.122  1.00  0.00    -0.312 NA 
ENDBRANCH  28  29
ENDBRANCH  27  28
ENDBRANCH  24  27
ENDBRANCH   8  23
TORSDOF 8
ENDMDL
MODEL      155
REMARK 921   NORMALIZED FREE ENERGY PREDICTED BY IDOCK:   -3.64 KCAL/MOL
REMARK 922        TOTAL FREE ENERGY PREDICTED BY IDOCK:   -6.43 KCAL/MOL
REMARK 923 INTER-LIGAND FREE ENERGY PREDICTED BY IDOCK:   -5.83 KCAL/MOL
REMARK 924 INTRA-LIGAND FREE ENERGY PREDICTED BY IDOCK:   -0.60 KCAL/MOL
REMARK 927      BINDING AFFINITY PREDICTED BY RF-SCORE:    0.00 PKD
ROOT
HETATM    1  C   UNL     1      -8.631   7.528  69.743  1.00  0.00    -0.140 C  
HETATM    2  S   UNL     1      -8.652   8.181  68.054  1.00  0.00    -0.129 SA 
HETATM    3  C   UNL     1      -9.337   9.777  68.561  1.00  0.00    -0.142 C  
HETATM    4  C   UNL     1     -10.557   9.683  69.469  1.00  0.00    -0.247 C  
HETATM    5  O   UNL     1     -12.295   7.571  71.955  1.00  0.00    -0.302 OA 
HETATM    6  C   UNL     1     -10.835   8.607  70.269  1.00  0.00    -0.235 C  
HETATM    7  N   UNL     1      -9.995   7.520  70.252  1.00  0.00    -0.191 N  
HETATM    8  C   UNL     1      -8.623   5.936  69.890  1.00  0.00    -0.129 C  
HETATM    9  C   UNL     1     -12.080   8.623  71.146  1.00  0.00    -0.260 C  
HETATM   10  O   UNL     1     -10.770   5.679  71.417  1.00  0.00    -0.247 OA 
HETATM   11  C   UNL     1      -9.981   6.244  70.694  1.00  0.00    -0.186 C  
HETATM   12  O   UNL     1     -12.856   9.568  71.203  1.00  0.00    -0.321 OA 
ENDROOT
BRANCH   4  13
HETATM   13  C   UNL     1     -11.464  10.905  69.287  1.00  0.00    -0.302 C  
BRANCH  13  14
HETATM   14  S   UNL     1     -11.154  11.720  67.695  1.00  0.00    -0.272 SA 
BRANCH  14  15
HETATM   15  C   UNL     1     -10.674  13.291  68.238  1.00  0.00    -0.252 A  
HETATM   16  N   UNL     1     -11.433  14.149  68.879  1.00  0.00    -0.273 NA 
HETATM   17  N   UNL     1      -9.459  15.119  68.514  1.00  0.00    -0.197 NA 
HETATM   18  N   UNL     1     -10.668  15.283  69.036  1.00  0.00    -0.233 NA 
HETATM   19  C   UNL     1      -8.277  13.343  67.387  1.00  0.00    -0.183 C  
HETATM   20  N   UNL     1      -9.457  13.868  68.014  1.00  0.00    -0.202 NA 
ENDBRANCH  14  15
ENDBRANCH  13  14
ENDBRANCH   4  13
BRANCH   8  21
HETATM   21  O   UNL     1      -7.551   5.408  70.721  1.00  0.00    -0.083 OA 
HETATM   22  C   UNL     1      -7.944   4.891  71.991  1.00  0.00    -0.110 C  
ENDBRANCH   8  21
BRANCH   8  23
HETATM   23  N   UNL     1      -8.728   5.210  68.586  1.00  0.00    -0.094 N  
HETATM   24  C   UNL     1      -9.186   3.923  68.459  1.00  0.00    -0.155 C  
HETATM   25  H   UNL     1      -8.443   5.703  67.740  1.00  0.00     0.000 HD 
HETATM   26  O   UNL     1      -9.526   3.240  69.418  1.00  0.00    -0.167 OA 
BRANCH  24  27
HETATM   27  C   UNL     1      -9.165   3.362  67.051  1.00  0.00    -0.184 C  
BRANCH  27  28
HETATM   28  S   UNL     1      -9.366   4.702  65.830  1.00  0.00    -0.168 SA 
BRANCH  28  29
HETATM   29  C   UNL     1     -10.524   3.906  64.649  1.00  0.00    -0.182 C  
HETATM   30  C   UNL     1      -9.928   2.814  63.867  1.00  0.00    -0.155 C  
HETATM   31  N   UNL     1      -9.456   1.948  63.255  1.00  0.00    -0.093 NA 
ENDBRANCH  28  29
ENDBRANCH  27  28
ENDBRANCH  24  27
ENDBRANCH   8  23
TORSDOF 8
ENDMDL
MODEL      156
REMARK 921   NORMALIZED FREE ENERGY PREDICTED BY IDOCK:   -3.63 KCAL/MOL
REMARK 922        TOTAL FREE ENERGY PREDICTED BY IDOCK:   -6.42 KCAL/MOL
REMARK 923 INTER-LIGAND FREE ENERGY PREDICTED BY IDOCK:   -5.79 KCAL/MOL
REMARK 924 INTRA-LIGAND FREE ENERGY PREDICTED BY IDOCK:   -0.63 KCAL/MOL
REMARK 927      BINDING AFFINITY PREDICTED BY RF-SCORE:    0.00 PKD
ROOT
HETATM    1  C   UNL     1      -7.989   9.796  65.205  1.00  0.00    -0.129 C  
HETATM    2  S   UNL     1      -9.640   9.891  64.468  1.00  0.00    -0.126 SA 
HETATM    3  C   UNL     1      -9.725  11.691  64.617  1.00  0.00    -0.185 C  
HETATM    4  C   UNL     1      -9.359  12.231  65.995  1.00  0.00    -0.142 C  
HETATM    5  O   UNL     1      -7.411  11.558  69.063  1.00  0.00    -0.115 OA 
HETATM    6  C   UNL     1      -8.554  11.573  66.885  1.00  0.00    -0.163 C  
HETATM    7  N   UNL     1      -8.054  10.336  66.555  1.00  0.00    -0.118 N  
HETATM    8  C   UNL     1      -7.574   8.390  65.844  1.00  0.00    -0.082 C  
HETATM    9  C   UNL     1      -8.244  12.210  68.234  1.00  0.00    -0.168 C  
HETATM   10  O   UNL     1      -6.976   9.235  68.281  1.00  0.00    -0.070 OA 
HETATM   11  C   UNL     1      -7.425   9.304  67.158  1.00  0.00    -0.091 C  
HETATM   12  O   UNL     1      -8.658  13.311  68.573  1.00  0.00    -0.152 OA 
ENDROOT
BRANCH   4  13
HETATM   13  C   UNL     1     -10.088  13.550  66.272  1.00  0.00    -0.298 C  
BRANCH  13  14
HETATM   14  S   UNL     1     -11.875  13.286  66.453  1.00  0.00    -0.405 SA 
BRANCH  14  15
HETATM   15  C   UNL     1     -11.921  12.518  68.002  1.00  0.00    -0.223 A  
HETATM   16  N   UNL     1     -11.975  11.225  68.220  1.00  0.00    -0.621 NA 
HETATM   17  N   UNL     1     -12.068  12.256  70.195  1.00  0.00    -0.321 NA 
HETATM   18  N   UNL     1     -12.076  11.077  69.585  1.00  0.00    -0.338 NA 
HETATM   19  C   UNL     1     -11.907  14.565  69.514  1.00  0.00    -0.329 C  
HETATM   20  N   UNL     1     -11.968  13.164  69.205  1.00  0.00    -0.302 NA 
ENDBRANCH  14  15
ENDBRANCH  13  14
ENDBRANCH   4  13
BRANCH   8  21
HETATM   21  O   UNL     1      -6.314   7.849  65.355  1.00  0.00    -0.041 OA 
HETATM   22  C   UNL     1      -5.834   6.684  66.024  1.00  0.00    -0.026 C  
ENDBRANCH   8  21
BRANCH   8  23
HETATM   23  N   UNL     1      -8.668   7.370  65.818  1.00  0.00    -0.254 N  
HETATM   24  C   UNL     1      -9.116   6.698  66.926  1.00  0.00    -0.136 C  
HETATM   25  H   UNL     1      -9.108   7.163  64.921  1.00  0.00     0.000 HD 
HETATM   26  O   UNL     1      -8.635   6.857  68.042  1.00  0.00    -0.123 OA 
BRANCH  24  27
HETATM   27  C   UNL     1     -10.202   5.671  66.668  1.00  0.00    -0.229 C  
BRANCH  27  28
HETATM   28  S   UNL     1      -9.542   4.283  65.685  1.00  0.00    -0.204 SA 
BRANCH  28  29
HETATM   29  C   UNL     1     -10.814   4.177  64.365  1.00  0.00    -0.086 C  
HETATM   30  C   UNL     1     -10.501   3.208  63.305  1.00  0.00    -0.219 C  
HETATM   31  N   UNL     1     -10.254   2.438  62.472  1.00  0.00    -0.096 NA 
ENDBRANCH  28  29
ENDBRANCH  27  28
ENDBRANCH  24  27
ENDBRANCH   8  23
TORSDOF 8
ENDMDL
MODEL      157
REMARK 921   NORMALIZED FREE ENERGY PREDICTED BY IDOCK:   -3.59 KCAL/MOL
REMARK 922        TOTAL FREE ENERGY PREDICTED BY IDOCK:   -6.37 KCAL/MOL
REMARK 923 INTER-LIGAND FREE ENERGY PREDICTED BY IDOCK:   -6.11 KCAL/MOL
REMARK 924 INTRA-LIGAND FREE ENERGY PREDICTED BY IDOCK:   -0.25 KCAL/MOL
REMARK 927      BINDING AFFINITY PREDICTED BY RF-SCORE:    0.00 PKD
ROOT
HETATM    1  C   UNL     1      -8.296  10.178  67.528  1.00  0.00    -0.118 C  
HETATM    2  S   UNL     1      -9.986  10.270  68.174  1.00  0.00    -0.151 SA 
HETATM    3  C   UNL     1     -10.432  11.671  67.121  1.00  0.00    -0.220 C  
HETATM    4  C   UNL     1      -9.433  12.822  67.141  1.00  0.00    -0.223 C  
HETATM    5  O   UNL     1      -5.890  13.714  67.700  1.00  0.00    -0.257 OA 
HETATM    6  C   UNL     1      -8.108  12.680  67.455  1.00  0.00    -0.178 C  
HETATM    7  N   UNL     1      -7.627  11.441  67.805  1.00  0.00    -0.101 N  
HETATM    8  C   UNL     1      -7.215   9.461  68.462  1.00  0.00    -0.072 C  
HETATM    9  C   UNL     1      -7.194  13.899  67.434  1.00  0.00    -0.093 C  
HETATM   10  O   UNL     1      -5.455  11.434  68.600  1.00  0.00    -0.043 OA 
HETATM   11  C   UNL     1      -6.513  10.903  68.346  1.00  0.00    -0.057 C  
HETATM   12  O   UNL     1      -7.571  15.022  67.123  1.00  0.00    -0.202 OA 
ENDROOT
BRANCH   4  13
HETATM   13  C   UNL     1     -10.134  14.155  66.857  1.00  0.00    -0.258 C  
BRANCH  13  14
HETATM   14  S   UNL     1     -10.054  14.574  65.093  1.00  0.00    -0.244 SA 
BRANCH  14  15
HETATM   15  C   UNL     1     -11.076  13.344  64.434  1.00  0.00    -0.388 A  
HETATM   16  N   UNL     1     -10.694  12.368  63.642  1.00  0.00    -0.446 NA 
HETATM   17  N   UNL     1     -12.905  12.223  63.891  1.00  0.00    -0.756 NA 
HETATM   18  N   UNL     1     -11.842  11.686  63.306  1.00  0.00    -0.269 NA 
HETATM   19  C   UNL     1     -13.319  14.065  65.393  1.00  0.00     0.282 C  
HETATM   20  N   UNL     1     -12.428  13.263  64.603  1.00  0.00    -0.588 NA 
ENDBRANCH  14  15
ENDBRANCH  13  14
ENDBRANCH   4  13
BRANCH   8  21
HETATM   21  O   UNL     1      -6.471   8.389  67.817  1.00  0.00    -0.058 OA 
HETATM   22  C   UNL     1      -6.607   8.301  66.400  1.00  0.00    -0.055 C  
ENDBRANCH   8  21
BRANCH   8  23
HETATM   23  N   UNL     1      -7.751   9.046  69.796  1.00  0.00    -0.072 N  
HETATM   24  C   UNL     1      -8.312   7.821  70.050  1.00  0.00    -0.130 C  
HETATM   25  H   UNL     1      -7.696   9.716  70.563  1.00  0.00     0.000 HD 
HETATM   26  O   UNL     1      -8.448   6.959  69.189  1.00  0.00    -0.127 OA 
BRANCH  24  27
HETATM   27  C   UNL     1      -8.837   7.625  71.459  1.00  0.00    -0.124 C  
BRANCH  27  28
HETATM   28  S   UNL     1     -10.328   8.642  71.728  1.00  0.00    -0.343 SA 
BRANCH  28  29
HETATM   29  C   UNL     1     -11.606   7.330  71.853  1.00  0.00    -0.277 C  
HETATM   30  C   UNL     1     -11.199   6.169  72.656  1.00  0.00    -0.274 C  
HETATM   31  N   UNL     1     -10.877   5.255  73.296  1.00  0.00    -0.272 NA 
ENDBRANCH  28  29
ENDBRANCH  27  28
ENDBRANCH  24  27
ENDBRANCH   8  23
TORSDOF 8
ENDMDL
MODEL      158
REMARK 921   NORMALIZED FREE ENERGY PREDICTED BY IDOCK:   -3.59 KCAL/MOL
REMARK 922        TOTAL FREE ENERGY PREDICTED BY IDOCK:   -6.36 KCAL/MOL
REMARK 923 INTER-LIGAND FREE ENERGY PREDICTED BY IDOCK:   -5.24 KCAL/MOL
REMARK 924 INTRA-LIGAND FREE ENERGY PREDICTED BY IDOCK:   -1.12 KCAL/MOL
REMARK 927      BINDING AFFINITY PREDICTED BY RF-SCORE:    0.00 PKD
ROOT
HETATM    1  C   UNL     1     -10.562   8.065  67.966  1.00  0.00    -0.128 C  
HETATM    2  S   UNL     1     -11.021   6.331  68.215  1.00  0.00    -0.263 SA 
HETATM    3  C   UNL     1     -11.482   6.586  69.946  1.00  0.00    -0.403 C  
HETATM    4  C   UNL     1     -10.446   7.336  70.774  1.00  0.00    -0.224 C  
HETATM    5  O   UNL     1      -7.675   9.777  70.623  1.00  0.00    -0.270 OA 
HETATM    6  C   UNL     1      -9.521   8.196  70.247  1.00  0.00    -0.170 C  
HETATM    7  N   UNL     1      -9.483   8.394  68.887  1.00  0.00    -0.147 N  
HETATM    8  C   UNL     1      -9.555   8.368  66.761  1.00  0.00    -0.219 C  
HETATM    9  C   UNL     1      -8.536   8.902  71.169  1.00  0.00    -0.208 C  
HETATM   10  O   UNL     1      -7.676   9.628  68.138  1.00  0.00    -0.085 OA 
HETATM   11  C   UNL     1      -8.671   8.959  67.968  1.00  0.00    -0.133 C  
HETATM   12  O   UNL     1      -8.532   8.766  72.386  1.00  0.00    -0.393 OA 
ENDROOT
BRANCH   4  13
HETATM   13  C   UNL     1     -10.525   6.921  72.247  1.00  0.00    -0.207 C  
BRANCH  13  14
HETATM   14  S   UNL     1     -10.566   5.113  72.417  1.00  0.00    -0.215 SA 
BRANCH  14  15
HETATM   15  C   UNL     1      -9.045   4.700  71.705  1.00  0.00    -0.135 A  
HETATM   16  N   UNL     1      -8.873   4.067  70.568  1.00  0.00    -0.079 NA 
HETATM   17  N   UNL     1      -6.864   4.409  71.471  1.00  0.00    -0.033 NA 
HETATM   18  N   UNL     1      -7.515   3.885  70.440  1.00  0.00    -0.041 NA 
HETATM   19  C   UNL     1      -7.461   5.600  73.482  1.00  0.00    -0.091 C  
HETATM   20  N   UNL     1      -7.821   4.924  72.267  1.00  0.00    -0.097 NA 
ENDBRANCH  14  15
ENDBRANCH  13  14
ENDBRANCH   4  13
BRANCH   8  21
HETATM   21  O   UNL     1     -10.019   9.378  65.821  1.00  0.00    -0.309 OA 
HETATM   22  C   UNL     1     -10.529  10.579  66.398  1.00  0.00    -0.192 C  
ENDBRANCH   8  21
BRANCH   8  23
HETATM   23  N   UNL     1      -9.061   7.140  66.065  1.00  0.00    -0.322 N  
HETATM   24  C   UNL     1      -8.083   7.144  65.103  1.00  0.00    -0.127 C  
HETATM   25  H   UNL     1      -9.477   6.245  66.322  1.00  0.00     0.000 HD 
HETATM   26  O   UNL     1      -7.542   8.170  64.708  1.00  0.00    -0.088 OA 
BRANCH  24  27
HETATM   27  C   UNL     1      -7.767   5.793  64.491  1.00  0.00    -0.095 C  
BRANCH  27  28
HETATM   28  S   UNL     1      -8.822   4.499  65.230  1.00  0.00    -0.146 SA 
BRANCH  28  29
HETATM   29  C   UNL     1      -8.608   3.154  64.000  1.00  0.00    -0.089 C  
HETATM   30  C   UNL     1      -9.869   2.622  63.465  1.00  0.00    -0.124 C  
HETATM   31  N   UNL     1     -10.867   2.208  63.040  1.00  0.00    -0.201 NA 
ENDBRANCH  28  29
ENDBRANCH  27  28
ENDBRANCH  24  27
ENDBRANCH   8  23
TORSDOF 8
ENDMDL
MODEL      159
REMARK 921   NORMALIZED FREE ENERGY PREDICTED BY IDOCK:   -3.53 KCAL/MOL
REMARK 922        TOTAL FREE ENERGY PREDICTED BY IDOCK:   -6.28 KCAL/MOL
REMARK 923 INTER-LIGAND FREE ENERGY PREDICTED BY IDOCK:   -5.55 KCAL/MOL
REMARK 924 INTRA-LIGAND FREE ENERGY PREDICTED BY IDOCK:   -0.73 KCAL/MOL
REMARK 927      BINDING AFFINITY PREDICTED BY RF-SCORE:    0.00 PKD
ROOT
HETATM    1  C   UNL     1      -8.774  10.700  67.955  1.00  0.00    -0.126 C  
HETATM    2  S   UNL     1     -10.573  10.523  68.069  1.00  0.00    -0.234 SA 
HETATM    3  C   UNL     1     -10.499   8.720  68.198  1.00  0.00    -0.191 C  
HETATM    4  C   UNL     1      -9.626   8.045  67.148  1.00  0.00    -0.227 C  
HETATM    5  O   UNL     1      -6.732   8.511  64.896  1.00  0.00    -0.067 OA 
HETATM    6  C   UNL     1      -8.589   8.662  66.502  1.00  0.00    -0.116 C  
HETATM    7  N   UNL     1      -8.312   9.980  66.777  1.00  0.00    -0.125 N  
HETATM    8  C   UNL     1      -8.233  12.045  67.281  1.00  0.00    -0.173 C  
HETATM    9  C   UNL     1      -7.773   7.889  65.474  1.00  0.00    -0.101 C  
HETATM   10  O   UNL     1      -6.741  10.952  65.385  1.00  0.00    -0.001 OA 
HETATM   11  C   UNL     1      -7.564  10.985  66.273  1.00  0.00    -0.111 C  
HETATM   12  O   UNL     1      -7.974   6.713  65.198  1.00  0.00    -0.112 OA 
ENDROOT
BRANCH   4  13
HETATM   13  C   UNL     1     -10.130   6.627  66.853  1.00  0.00    -0.195 C  
BRANCH  13  14
HETATM   14  S   UNL     1     -11.025   5.942  68.276  1.00  0.00    -0.035 SA 
BRANCH  14  15
HETATM   15  C   UNL     1      -9.711   5.270  69.177  1.00  0.00    -0.168 A  
HETATM   16  N   UNL     1      -9.121   5.826  70.210  1.00  0.00    -0.143 NA 
HETATM   17  N   UNL     1      -8.055   3.921  69.755  1.00  0.00    -0.054 NA 
HETATM   18  N   UNL     1      -8.089   4.982  70.552  1.00  0.00    -0.091 NA 
HETATM   19  C   UNL     1      -9.347   3.107  67.888  1.00  0.00    -0.201 C  
HETATM   20  N   UNL     1      -9.074   4.096  68.891  1.00  0.00    -0.117 NA 
ENDBRANCH  14  15
ENDBRANCH  13  14
ENDBRANCH   4  13
BRANCH   8  21
HETATM   21  O   UNL     1      -7.270  12.783  68.085  1.00  0.00    -0.093 OA 
HETATM   22  C   UNL     1      -6.704  12.074  69.186  1.00  0.00    -0.101 C  
ENDBRANCH   8  21
BRANCH   8  23
HETATM   23  N   UNL     1      -9.315  12.931  66.751  1.00  0.00    -0.238 N  
HETATM   24  C   UNL     1      -9.935  13.909  67.486  1.00  0.00    -0.240 C  
HETATM   25  H   UNL     1      -9.609  12.800  65.783  1.00  0.00     0.000 HD 
HETATM   26  O   UNL     1      -9.671  14.126  68.663  1.00  0.00    -0.223 OA 
BRANCH  24  27
HETATM   27  C   UNL     1     -11.040  14.660  66.768  1.00  0.00    -0.335 C  
BRANCH  27  28
HETATM   28  S   UNL     1     -10.599  14.917  65.017  1.00  0.00    -0.396 SA 
BRANCH  28  29
HETATM   29  C   UNL     1     -12.164  14.410  64.202  1.00  0.00    -0.363 C  
HETATM   30  C   UNL     1     -12.144  13.044  63.660  1.00  0.00    -0.531 C  
HETATM   31  N   UNL     1     -12.128  11.963  63.239  1.00  0.00    -0.443 NA 
ENDBRANCH  28  29
ENDBRANCH  27  28
ENDBRANCH  24  27
ENDBRANCH   8  23
TORSDOF 8
ENDMDL
MODEL      160
REMARK 921   NORMALIZED FREE ENERGY PREDICTED BY IDOCK:   -3.53 KCAL/MOL
REMARK 922        TOTAL FREE ENERGY PREDICTED BY IDOCK:   -6.28 KCAL/MOL
REMARK 923 INTER-LIGAND FREE ENERGY PREDICTED BY IDOCK:   -6.41 KCAL/MOL
REMARK 924 INTRA-LIGAND FREE ENERGY PREDICTED BY IDOCK:    0.13 KCAL/MOL
REMARK 927      BINDING AFFINITY PREDICTED BY RF-SCORE:    0.00 PKD
ROOT
HETATM    1  C   UNL     1     -10.268  15.134  69.391  1.00  0.00    -0.240 C  
HETATM    2  S   UNL     1      -9.675  13.494  68.905  1.00  0.00     0.208 SA 
HETATM    3  C   UNL     1      -7.957  13.867  69.328  1.00  0.00     0.309 C  
HETATM    4  C   UNL     1      -7.435  15.181  68.759  1.00  0.00    -0.132 C  
HETATM    5  O   UNL     1      -8.413  18.550  67.598  1.00  0.00    -0.259 OA 
HETATM    6  C   UNL     1      -8.233  16.240  68.423  1.00  0.00    -0.185 C  
HETATM    7  N   UNL     1      -9.595  16.131  68.570  1.00  0.00    -0.208 N  
HETATM    8  C   UNL     1     -11.651  15.612  68.746  1.00  0.00    -0.384 C  
HETATM    9  C   UNL     1      -7.604  17.513  67.871  1.00  0.00    -0.204 C  
HETATM   10  O   UNL     1     -10.811  17.882  67.672  1.00  0.00    -0.375 OA 
HETATM   11  C   UNL     1     -10.711  16.800  68.206  1.00  0.00    -0.364 C  
HETATM   12  O   UNL     1      -6.398  17.664  67.727  1.00  0.00    -0.164 OA 
ENDROOT
BRANCH   4  13
HETATM   13  C   UNL     1      -5.920  15.110  68.532  1.00  0.00    -0.097 C  
BRANCH  13  14
HETATM   14  S   UNL     1      -5.196  13.679  69.383  1.00  0.00    -0.083 SA 
BRANCH  14  15
HETATM   15  C   UNL     1      -5.297  12.489  68.131  1.00  0.00    -0.069 A  
HETATM   16  N   UNL     1      -5.182  12.715  66.843  1.00  0.00    -0.310 NA 
HETATM   17  N   UNL     1      -5.643  10.551  67.122  1.00  0.00    -0.041 NA 
HETATM   18  N   UNL     1      -5.408  11.504  66.228  1.00  0.00    -0.286 NA 
HETATM   19  C   UNL     1      -5.754  10.412  69.528  1.00  0.00    -0.038 C  
HETATM   20  N   UNL     1      -5.571  11.165  68.319  1.00  0.00    -0.046 NA 
ENDBRANCH  14  15
ENDBRANCH  13  14
ENDBRANCH   4  13
BRANCH   8  21
HETATM   21  O   UNL     1     -12.653  16.044  69.709  1.00  0.00    -0.142 OA 
HETATM   22  C   UNL     1     -12.848  15.188  70.833  1.00  0.00    -0.419 C  
ENDBRANCH   8  21
BRANCH   8  23
HETATM   23  N   UNL     1     -12.212  14.652  67.746  1.00  0.00    -0.596 N  
HETATM   24  C   UNL     1     -11.874  14.643  66.417  1.00  0.00    -0.293 C  
HETATM   25  H   UNL     1     -12.888  13.961  68.073  1.00  0.00     0.000 HD 
HETATM   26  O   UNL     1     -11.093  15.448  65.923  1.00  0.00    -0.321 OA 
BRANCH  24  27
HETATM   27  C   UNL     1     -12.599  13.616  65.568  1.00  0.00    -0.496 C  
BRANCH  27  28
HETATM   28  S   UNL     1     -11.874  13.550  63.895  1.00  0.00    -0.370 SA 
BRANCH  28  29
HETATM   29  C   UNL     1     -12.030  11.756  63.536  1.00  0.00    -0.380 C  
HETATM   30  C   UNL     1     -10.745  11.067  63.351  1.00  0.00    -0.097 C  
HETATM   31  N   UNL     1      -9.729  10.524  63.212  1.00  0.00    -0.327 NA 
ENDBRANCH  28  29
ENDBRANCH  27  28
ENDBRANCH  24  27
ENDBRANCH   8  23
TORSDOF 8
ENDMDL
MODEL      161
REMARK 921   NORMALIZED FREE ENERGY PREDICTED BY IDOCK:   -3.52 KCAL/MOL
REMARK 922        TOTAL FREE ENERGY PREDICTED BY IDOCK:   -6.26 KCAL/MOL
REMARK 923 INTER-LIGAND FREE ENERGY PREDICTED BY IDOCK:   -5.90 KCAL/MOL
REMARK 924 INTRA-LIGAND FREE ENERGY PREDICTED BY IDOCK:   -0.37 KCAL/MOL
REMARK 927      BINDING AFFINITY PREDICTED BY RF-SCORE:    0.00 PKD
ROOT
HETATM    1  C   UNL     1      -9.901  14.009  68.895  1.00  0.00    -0.071 C  
HETATM    2  S   UNL     1      -9.936  12.375  68.114  1.00  0.00    -0.217 SA 
HETATM    3  C   UNL     1      -8.162  12.106  68.338  1.00  0.00    -0.145 C  
HETATM    4  C   UNL     1      -7.283  13.265  67.883  1.00  0.00    -0.137 C  
HETATM    5  O   UNL     1      -7.177  16.918  67.334  1.00  0.00    -0.144 OA 
HETATM    6  C   UNL     1      -7.707  14.564  67.808  1.00  0.00    -0.156 C  
HETATM    7  N   UNL     1      -9.009  14.867  68.129  1.00  0.00    -0.171 N  
HETATM    8  C   UNL     1     -11.095  15.003  68.520  1.00  0.00    -0.272 C  
HETATM    9  C   UNL     1      -6.740  15.648  67.349  1.00  0.00    -0.183 C  
HETATM   10  O   UNL     1      -9.643  17.041  67.654  1.00  0.00    -0.244 OA 
HETATM   11  C   UNL     1      -9.864  15.907  68.018  1.00  0.00    -0.218 C  
HETATM   12  O   UNL     1      -5.570  15.432  67.059  1.00  0.00    -0.225 OA 
ENDROOT
BRANCH   4  13
HETATM   13  C   UNL     1      -5.906  12.760  67.438  1.00  0.00    -0.092 C  
BRANCH  13  14
HETATM   14  S   UNL     1      -5.786  10.956  67.603  1.00  0.00    -0.044 SA 
BRANCH  14  15
HETATM   15  C   UNL     1      -5.811  10.489  65.938  1.00  0.00    -0.120 A  
HETATM   16  N   UNL     1      -5.155  11.075  64.963  1.00  0.00    -0.257 NA 
HETATM   17  N   UNL     1      -6.393   9.447  64.074  1.00  0.00    -0.090 NA 
HETATM   18  N   UNL     1      -5.534  10.424  63.811  1.00  0.00    -0.146 NA 
HETATM   19  C   UNL     1      -7.431   8.530  66.049  1.00  0.00    -0.085 C  
HETATM   20  N   UNL     1      -6.568   9.482  65.410  1.00  0.00    -0.074 NA 
ENDBRANCH  14  15
ENDBRANCH  13  14
ENDBRANCH   4  13
BRANCH   8  21
HETATM   21  O   UNL     1     -11.806  15.557  69.664  1.00  0.00    -0.325 OA 
HETATM   22  C   UNL     1     -12.902  14.784  70.150  1.00  0.00    -0.148 C  
ENDBRANCH   8  21
BRANCH   8  23
HETATM   23  N   UNL     1     -12.032  14.458  67.489  1.00  0.00    -0.517 N  
HETATM   24  C   UNL     1     -11.953  14.748  66.151  1.00  0.00    -0.149 C  
HETATM   25  H   UNL     1     -12.774  13.831  67.801  1.00  0.00     0.000 HD 
HETATM   26  O   UNL     1     -11.114  15.510  65.683  1.00  0.00    -0.308 OA 
BRANCH  24  27
HETATM   27  C   UNL     1     -13.033  14.127  65.286  1.00  0.00    -0.237 C  
BRANCH  27  28
HETATM   28  S   UNL     1     -12.335  13.587  63.689  1.00  0.00    -0.167 SA 
BRANCH  28  29
HETATM   29  C   UNL     1     -11.508  12.029  64.198  1.00  0.00    -0.383 C  
HETATM   30  C   UNL     1     -10.162  11.851  63.635  1.00  0.00    -0.438 C  
HETATM   31  N   UNL     1      -9.097  11.716  63.194  1.00  0.00    -0.132 NA 
ENDBRANCH  28  29
ENDBRANCH  27  28
ENDBRANCH  24  27
ENDBRANCH   8  23
TORSDOF 8
ENDMDL
MODEL      162
REMARK 921   NORMALIZED FREE ENERGY PREDICTED BY IDOCK:   -3.51 KCAL/MOL
REMARK 922        TOTAL FREE ENERGY PREDICTED BY IDOCK:   -6.24 KCAL/MOL
REMARK 923 INTER-LIGAND FREE ENERGY PREDICTED BY IDOCK:   -4.66 KCAL/MOL
REMARK 924 INTRA-LIGAND FREE ENERGY PREDICTED BY IDOCK:   -1.58 KCAL/MOL
REMARK 927      BINDING AFFINITY PREDICTED BY RF-SCORE:    0.00 PKD
ROOT
HETATM    1  C   UNL     1      -7.364   6.087  67.901  1.00  0.00    -0.084 C  
HETATM    2  S   UNL     1      -6.469   7.440  67.095  1.00  0.00    -0.062 SA 
HETATM    3  C   UNL     1      -6.682   8.563  68.497  1.00  0.00    -0.060 C  
HETATM    4  C   UNL     1      -8.109   8.659  69.022  1.00  0.00    -0.121 C  
HETATM    5  O   UNL     1     -11.328   6.867  69.316  1.00  0.00    -0.175 OA 
HETATM    6  C   UNL     1      -9.049   7.676  68.868  1.00  0.00    -0.140 C  
HETATM    7  N   UNL     1      -8.722   6.533  68.180  1.00  0.00    -0.118 N  
HETATM    8  C   UNL     1      -7.985   4.971  66.938  1.00  0.00    -0.104 C  
HETATM    9  C   UNL     1     -10.446   7.873  69.442  1.00  0.00    -0.220 C  
HETATM   10  O   UNL     1     -10.502   5.120  67.747  1.00  0.00    -0.137 OA 
HETATM   11  C   UNL     1      -9.343   5.458  67.647  1.00  0.00    -0.115 C  
HETATM   12  O   UNL     1     -10.786   8.868  70.069  1.00  0.00    -0.230 OA 
ENDROOT
BRANCH   4  13
HETATM   13  C   UNL     1      -8.365  10.034  69.651  1.00  0.00    -0.176 C  
BRANCH  13  14
HETATM   14  S   UNL     1      -8.131  11.363  68.437  1.00  0.00    -0.150 SA 
BRANCH  14  15
HETATM   15  C   UNL     1      -9.775  11.680  68.002  1.00  0.00    -0.182 A  
HETATM   16  N   UNL     1     -10.555  12.586  68.546  1.00  0.00    -0.240 NA 
HETATM   17  N   UNL     1     -11.758  11.456  67.047  1.00  0.00    -0.508 NA 
HETATM   18  N   UNL     1     -11.786  12.429  67.950  1.00  0.00    -0.357 NA 
HETATM   19  C   UNL     1     -10.103   9.925  66.190  1.00  0.00    -0.245 C  
HETATM   20  N   UNL     1     -10.496  10.985  67.074  1.00  0.00    -0.228 NA 
ENDBRANCH  14  15
ENDBRANCH  13  14
ENDBRANCH   4  13
BRANCH   8  21
HETATM   21  O   UNL     1      -7.604   3.605  67.266  1.00  0.00    -0.077 OA 
HETATM   22  C   UNL     1      -6.247   3.414  67.662  1.00  0.00    -0.032 C  
ENDBRANCH   8  21
BRANCH   8  23
HETATM   23  N   UNL     1      -7.809   5.267  65.482  1.00  0.00    -0.091 N  
HETATM   24  C   UNL     1      -8.643   4.802  64.498  1.00  0.00    -0.144 C  
HETATM   25  H   UNL     1      -7.019   5.850  65.204  1.00  0.00     0.000 HD 
HETATM   26  O   UNL     1      -9.603   4.074  64.728  1.00  0.00    -0.157 OA 
BRANCH  24  27
HETATM   27  C   UNL     1      -8.254   5.180  63.082  1.00  0.00    -0.109 C  
BRANCH  27  28
HETATM   28  S   UNL     1      -6.879   6.379  63.101  1.00  0.00    -0.043 SA 
BRANCH  28  29
HETATM   29  C   UNL     1      -7.814   7.957  63.162  1.00  0.00    -0.142 C  
HETATM   30  C   UNL     1      -7.006   9.119  63.559  1.00  0.00    -0.089 C  
HETATM   31  N   UNL     1      -6.364  10.036  63.867  1.00  0.00    -0.127 NA 
ENDBRANCH  28  29
ENDBRANCH  27  28
ENDBRANCH  24  27
ENDBRANCH   8  23
TORSDOF 8
ENDMDL
MODEL      163
REMARK 921   NORMALIZED FREE ENERGY PREDICTED BY IDOCK:   -3.51 KCAL/MOL
REMARK 922        TOTAL FREE ENERGY PREDICTED BY IDOCK:   -6.24 KCAL/MOL
REMARK 923 INTER-LIGAND FREE ENERGY PREDICTED BY IDOCK:   -4.70 KCAL/MOL
REMARK 924 INTRA-LIGAND FREE ENERGY PREDICTED BY IDOCK:   -1.54 KCAL/MOL
REMARK 927      BINDING AFFINITY PREDICTED BY RF-SCORE:    0.00 PKD
ROOT
HETATM    1  C   UNL     1      -7.043   6.073  69.137  1.00  0.00    -0.070 C  
HETATM    2  S   UNL     1      -7.141   7.481  70.272  1.00  0.00    -0.060 SA 
HETATM    3  C   UNL     1      -6.938   6.450  71.745  1.00  0.00    -0.076 C  
HETATM    4  C   UNL     1      -7.850   5.231  71.796  1.00  0.00    -0.111 C  
HETATM    5  O   UNL     1      -9.751   2.814  69.745  1.00  0.00    -0.067 OA 
HETATM    6  C   UNL     1      -8.388   4.630  70.690  1.00  0.00    -0.091 C  
HETATM    7  N   UNL     1      -8.129   5.154  69.446  1.00  0.00    -0.086 N  
HETATM    8  C   UNL     1      -7.696   6.276  67.692  1.00  0.00    -0.098 C  
HETATM    9  C   UNL     1      -9.280   3.407  70.855  1.00  0.00    -0.130 C  
HETATM   10  O   UNL     1      -9.356   4.214  67.724  1.00  0.00    -0.144 OA 
HETATM   11  C   UNL     1      -8.576   5.021  68.178  1.00  0.00    -0.102 C  
HETATM   12  O   UNL     1      -9.536   2.897  71.939  1.00  0.00    -0.122 OA 
ENDROOT
BRANCH   4  13
HETATM   13  C   UNL     1      -8.151   4.838  73.247  1.00  0.00    -0.100 C  
BRANCH  13  14
HETATM   14  S   UNL     1      -8.927   6.210  74.149  1.00  0.00    -0.137 SA 
BRANCH  14  15
HETATM   15  C   UNL     1     -10.390   6.389  73.245  1.00  0.00    -0.233 A  
HETATM   16  N   UNL     1     -11.345   5.494  73.138  1.00  0.00    -0.268 NA 
HETATM   17  N   UNL     1     -11.892   7.234  71.857  1.00  0.00    -0.287 NA 
HETATM   18  N   UNL     1     -12.266   6.029  72.266  1.00  0.00    -0.199 NA 
HETATM   19  C   UNL     1     -10.029   8.711  72.268  1.00  0.00    -0.291 C  
HETATM   20  N   UNL     1     -10.715   7.466  72.471  1.00  0.00    -0.250 NA 
ENDBRANCH  14  15
ENDBRANCH  13  14
ENDBRANCH   4  13
BRANCH   8  21
HETATM   21  O   UNL     1      -6.808   5.979  66.577  1.00  0.00    -0.058 OA 
HETATM   22  C   UNL     1      -5.630   5.242  66.898  1.00  0.00    -0.017 C  
ENDBRANCH   8  21
BRANCH   8  23
HETATM   23  N   UNL     1      -8.385   7.593  67.522  1.00  0.00    -0.120 N  
HETATM   24  C   UNL     1      -9.540   7.768  66.804  1.00  0.00    -0.212 C  
HETATM   25  H   UNL     1      -7.970   8.411  67.969  1.00  0.00     0.000 HD 
HETATM   26  O   UNL     1     -10.100   6.853  66.211  1.00  0.00    -0.031 OA 
BRANCH  24  27
HETATM   27  C   UNL     1     -10.044   9.196  66.720  1.00  0.00    -0.271 C  
BRANCH  27  28
HETATM   28  S   UNL     1      -8.826  10.343  67.448  1.00  0.00    -0.131 SA 
BRANCH  28  29
HETATM   29  C   UNL     1      -9.613  10.674  69.074  1.00  0.00    -0.195 C  
HETATM   30  C   UNL     1     -11.066  10.887  69.006  1.00  0.00    -0.246 C  
HETATM   31  N   UNL     1     -12.214  11.048  68.950  1.00  0.00    -0.502 NA 
ENDBRANCH  28  29
ENDBRANCH  27  28
ENDBRANCH  24  27
ENDBRANCH   8  23
TORSDOF 8
ENDMDL
MODEL      164
REMARK 921   NORMALIZED FREE ENERGY PREDICTED BY IDOCK:   -3.48 KCAL/MOL
REMARK 922        TOTAL FREE ENERGY PREDICTED BY IDOCK:   -6.20 KCAL/MOL
REMARK 923 INTER-LIGAND FREE ENERGY PREDICTED BY IDOCK:   -6.14 KCAL/MOL
REMARK 924 INTRA-LIGAND FREE ENERGY PREDICTED BY IDOCK:   -0.06 KCAL/MOL
REMARK 927      BINDING AFFINITY PREDICTED BY RF-SCORE:    0.00 PKD
ROOT
HETATM    1  C   UNL     1      -9.676  12.297  68.649  1.00  0.00    -0.065 C  
HETATM    2  S   UNL     1     -11.187  11.304  68.755  1.00  0.00    -0.279 SA 
HETATM    3  C   UNL     1     -10.537  10.253  70.076  1.00  0.00    -0.269 C  
HETATM    4  C   UNL     1      -9.146   9.689  69.810  1.00  0.00    -0.232 C  
HETATM    5  O   UNL     1      -5.973  10.250  68.000  1.00  0.00    -0.045 OA 
HETATM    6  C   UNL     1      -8.231  10.270  68.975  1.00  0.00    -0.139 C  
HETATM    7  N   UNL     1      -8.569  11.418  68.299  1.00  0.00    -0.150 N  
HETATM    8  C   UNL     1      -9.428  13.072  67.273  1.00  0.00    -0.224 C  
HETATM    9  C   UNL     1      -6.863   9.626  68.790  1.00  0.00    -0.051 C  
HETATM   10  O   UNL     1      -7.034  12.092  66.704  1.00  0.00    -0.024 OA 
HETATM   11  C   UNL     1      -8.092  12.177  67.288  1.00  0.00    -0.176 C  
HETATM   12  O   UNL     1      -6.510   8.609  69.373  1.00  0.00    -0.043 OA 
ENDROOT
BRANCH   4  13
HETATM   13  C   UNL     1      -8.958   8.348  70.528  1.00  0.00    -0.150 C  
BRANCH  13  14
HETATM   14  S   UNL     1     -10.550   7.512  70.781  1.00  0.00    -0.223 SA 
BRANCH  14  15
HETATM   15  C   UNL     1     -10.500   6.352  69.500  1.00  0.00    -0.230 A  
HETATM   16  N   UNL     1     -11.030   6.497  68.307  1.00  0.00    -0.290 NA 
HETATM   17  N   UNL     1     -10.157   4.449  68.423  1.00  0.00     0.011 NA 
HETATM   18  N   UNL     1     -10.817   5.305  67.653  1.00  0.00     0.040 NA 
HETATM   19  C   UNL     1      -9.233   4.470  70.652  1.00  0.00    -0.135 C  
HETATM   20  N   UNL     1      -9.952   5.104  69.583  1.00  0.00    -0.221 NA 
ENDBRANCH  14  15
ENDBRANCH  13  14
ENDBRANCH   4  13
BRANCH   8  21
HETATM   21  O   UNL     1      -9.184  14.500  67.415  1.00  0.00    -0.188 OA 
HETATM   22  C   UNL     1      -7.881  14.868  67.865  1.00  0.00    -0.137 C  
ENDBRANCH   8  21
BRANCH   8  23
HETATM   23  N   UNL     1     -10.455  12.781  66.225  1.00  0.00    -0.253 N  
HETATM   24  C   UNL     1     -11.699  13.357  66.188  1.00  0.00    -0.368 C  
HETATM   25  H   UNL     1     -10.215  12.113  65.492  1.00  0.00     0.000 HD 
HETATM   26  O   UNL     1     -12.090  14.151  67.037  1.00  0.00    -0.427 OA 
BRANCH  24  27
HETATM   27  C   UNL     1     -12.602  12.885  65.066  1.00  0.00    -0.472 C  
BRANCH  27  28
HETATM   28  S   UNL     1     -11.695  12.872  63.483  1.00  0.00    -0.457 SA 
BRANCH  28  29
HETATM   29  C   UNL     1     -10.845  11.249  63.601  1.00  0.00    -0.333 C  
HETATM   30  C   UNL     1      -9.543  11.201  62.920  1.00  0.00    -0.348 C  
HETATM   31  N   UNL     1      -8.513  11.169  62.387  1.00  0.00    -0.260 NA 
ENDBRANCH  28  29
ENDBRANCH  27  28
ENDBRANCH  24  27
ENDBRANCH   8  23
TORSDOF 8
ENDMDL
MODEL      165
REMARK 921   NORMALIZED FREE ENERGY PREDICTED BY IDOCK:   -3.48 KCAL/MOL
REMARK 922        TOTAL FREE ENERGY PREDICTED BY IDOCK:   -6.19 KCAL/MOL
REMARK 923 INTER-LIGAND FREE ENERGY PREDICTED BY IDOCK:   -6.48 KCAL/MOL
REMARK 924 INTRA-LIGAND FREE ENERGY PREDICTED BY IDOCK:    0.28 KCAL/MOL
REMARK 927      BINDING AFFINITY PREDICTED BY RF-SCORE:    0.00 PKD
ROOT
HETATM    1  C   UNL     1      -7.568  14.703  69.247  1.00  0.00    -0.113 C  
HETATM    2  S   UNL     1      -8.942  15.821  68.874  1.00  0.00    -0.243 SA 
HETATM    3  C   UNL     1     -10.161  14.485  68.823  1.00  0.00    -0.244 C  
HETATM    4  C   UNL     1      -9.757  13.291  67.966  1.00  0.00    -0.223 C  
HETATM    5  O   UNL     1      -6.885  11.409  66.600  1.00  0.00    -0.140 OA 
HETATM    6  C   UNL     1      -8.461  12.958  67.680  1.00  0.00    -0.183 C  
HETATM    7  N   UNL     1      -7.442  13.745  68.157  1.00  0.00    -0.109 N  
HETATM    8  C   UNL     1      -6.103  15.230  68.884  1.00  0.00    -0.093 C  
HETATM    9  C   UNL     1      -8.170  11.734  66.820  1.00  0.00    -0.147 C  
HETATM   10  O   UNL     1      -5.345  13.224  67.330  1.00  0.00    -0.327 OA 
HETATM   11  C   UNL     1      -6.113  13.904  67.974  1.00  0.00    -0.141 C  
HETATM   12  O   UNL     1      -9.040  10.997  66.376  1.00  0.00    -0.167 OA 
ENDROOT
BRANCH   4  13
HETATM   13  C   UNL     1     -10.995  12.585  67.401  1.00  0.00    -0.259 C  
BRANCH  13  14
HETATM   14  S   UNL     1     -11.221  10.951  68.160  1.00  0.00    -0.313 SA 
BRANCH  14  15
HETATM   15  C   UNL     1     -11.948  11.404  69.663  1.00  0.00    -0.348 A  
HETATM   16  N   UNL     1     -12.634  12.501  69.887  1.00  0.00     0.116 NA 
HETATM   17  N   UNL     1     -12.475  11.386  71.812  1.00  0.00    -0.118 NA 
HETATM   18  N   UNL     1     -12.947  12.481  71.228  1.00  0.00    -0.280 NA 
HETATM   19  C   UNL     1     -11.234   9.439  71.113  1.00  0.00    -0.357 C  
HETATM   20  N   UNL     1     -11.849  10.705  70.832  1.00  0.00    -0.341 NA 
ENDBRANCH  14  15
ENDBRANCH  13  14
ENDBRANCH   4  13
BRANCH   8  21
HETATM   21  O   UNL     1      -5.150  15.184  69.984  1.00  0.00    -0.095 OA 
HETATM   22  C   UNL     1      -5.390  14.186  70.974  1.00  0.00    -0.153 C  
ENDBRANCH   8  21
BRANCH   8  23
HETATM   23  N   UNL     1      -6.094  16.556  68.191  1.00  0.00    -0.117 N  
HETATM   24  C   UNL     1      -5.973  17.759  68.838  1.00  0.00    -0.197 C  
HETATM   25  H   UNL     1      -6.184  16.565  67.175  1.00  0.00     0.000 HD 
HETATM   26  O   UNL     1      -5.886  17.854  70.058  1.00  0.00    -0.245 OA 
BRANCH  24  27
HETATM   27  C   UNL     1      -6.037  18.985  67.949  1.00  0.00    -0.206 C  
BRANCH  27  28
HETATM   28  S   UNL     1      -7.217  18.718  66.583  1.00  0.00    -0.226 SA 
BRANCH  28  29
HETATM   29  C   UNL     1      -8.573  19.847  67.090  1.00  0.00    -0.325 C  
HETATM   30  C   UNL     1      -9.805  19.697  66.303  1.00  0.00    -0.447 C  
HETATM   31  N   UNL     1     -10.779  19.572  65.684  1.00  0.00    -0.435 NA 
ENDBRANCH  28  29
ENDBRANCH  27  28
ENDBRANCH  24  27
ENDBRANCH   8  23
TORSDOF 8
ENDMDL
MODEL      166
REMARK 921   NORMALIZED FREE ENERGY PREDICTED BY IDOCK:   -3.44 KCAL/MOL
REMARK 922        TOTAL FREE ENERGY PREDICTED BY IDOCK:   -6.15 KCAL/MOL
REMARK 923 INTER-LIGAND FREE ENERGY PREDICTED BY IDOCK:   -6.33 KCAL/MOL
REMARK 924 INTRA-LIGAND FREE ENERGY PREDICTED BY IDOCK:    0.19 KCAL/MOL
REMARK 927      BINDING AFFINITY PREDICTED BY RF-SCORE:    0.00 PKD
ROOT
HETATM    1  C   UNL     1      -7.227  14.457  67.456  1.00  0.00    -0.180 C  
HETATM    2  S   UNL     1      -8.516  15.482  66.703  1.00  0.00    -0.246 SA 
HETATM    3  C   UNL     1      -7.424  16.912  66.514  1.00  0.00    -0.293 C  
HETATM    4  C   UNL     1      -6.644  17.284  67.769  1.00  0.00    -0.168 C  
HETATM    5  O   UNL     1      -5.225  15.976  70.921  1.00  0.00    -0.176 OA 
HETATM    6  C   UNL     1      -6.342  16.403  68.771  1.00  0.00    -0.135 C  
HETATM    7  N   UNL     1      -6.780  15.103  68.681  1.00  0.00    -0.091 N  
HETATM    8  C   UNL     1      -7.726  13.227  68.348  1.00  0.00    -0.138 C  
HETATM    9  C   UNL     1      -5.545  16.880  69.980  1.00  0.00    -0.222 C  
HETATM   10  O   UNL     1      -6.453  13.836  70.589  1.00  0.00    -0.005 OA 
HETATM   11  C   UNL     1      -6.882  14.012  69.470  1.00  0.00    -0.052 C  
HETATM   12  O   UNL     1      -5.126  18.023  70.105  1.00  0.00    -0.189 OA 
ENDROOT
BRANCH   4  13
HETATM   13  C   UNL     1      -6.334  18.785  67.791  1.00  0.00    -0.206 C  
BRANCH  13  14
HETATM   14  S   UNL     1      -7.606  19.702  68.706  1.00  0.00    -0.273 SA 
BRANCH  14  15
HETATM   15  C   UNL     1      -8.901  19.666  67.562  1.00  0.00    -0.311 A  
HETATM   16  N   UNL     1     -10.141  19.312  67.812  1.00  0.00    -0.367 NA 
HETATM   17  N   UNL     1      -9.979  19.747  65.631  1.00  0.00    -0.383 NA 
HETATM   18  N   UNL     1     -10.796  19.357  66.602  1.00  0.00    -0.415 NA 
HETATM   19  C   UNL     1      -7.663  20.402  65.464  1.00  0.00     0.127 C  
HETATM   20  N   UNL     1      -8.788  19.945  66.229  1.00  0.00    -0.363 NA 
ENDBRANCH  14  15
ENDBRANCH  13  14
ENDBRANCH   4  13
BRANCH   8  21
HETATM   21  O   UNL     1      -7.160  11.939  67.977  1.00  0.00    -0.074 OA 
HETATM   22  C   UNL     1      -6.176  11.964  66.945  1.00  0.00    -0.115 C  
ENDBRANCH   8  21
BRANCH   8  23
HETATM   23  N   UNL     1      -9.212  13.162  68.506  1.00  0.00    -0.364 N  
HETATM   24  C   UNL     1     -10.070  12.732  67.526  1.00  0.00    -0.213 C  
HETATM   25  H   UNL     1      -9.611  13.454  69.398  1.00  0.00     0.000 HD 
HETATM   26  O   UNL     1      -9.689  12.385  66.413  1.00  0.00    -0.230 OA 
BRANCH  24  27
HETATM   27  C   UNL     1     -11.543  12.791  67.879  1.00  0.00    -0.351 C  
BRANCH  27  28
HETATM   28  S   UNL     1     -12.108  11.179  68.520  1.00  0.00     0.146 SA 
BRANCH  28  29
HETATM   29  C   UNL     1     -12.376  11.598  70.287  1.00  0.00    -0.258 C  
HETATM   30  C   UNL     1     -12.676  10.440  71.141  1.00  0.00    -0.415 C  
HETATM   31  N   UNL     1     -12.906   9.523  71.813  1.00  0.00    -0.374 NA 
ENDBRANCH  28  29
ENDBRANCH  27  28
ENDBRANCH  24  27
ENDBRANCH   8  23
TORSDOF 8
ENDMDL
MODEL      167
REMARK 921   NORMALIZED FREE ENERGY PREDICTED BY IDOCK:   -3.43 KCAL/MOL
REMARK 922        TOTAL FREE ENERGY PREDICTED BY IDOCK:   -6.13 KCAL/MOL
REMARK 923 INTER-LIGAND FREE ENERGY PREDICTED BY IDOCK:   -5.40 KCAL/MOL
REMARK 924 INTRA-LIGAND FREE ENERGY PREDICTED BY IDOCK:   -0.73 KCAL/MOL
REMARK 927      BINDING AFFINITY PREDICTED BY RF-SCORE:    0.00 PKD
ROOT
HETATM    1  C   UNL     1     -10.316  12.375  67.666  1.00  0.00    -0.216 C  
HETATM    2  S   UNL     1     -10.830  10.689  67.248  1.00  0.00    -0.269 SA 
HETATM    3  C   UNL     1     -10.416  10.039  68.885  1.00  0.00    -0.210 C  
HETATM    4  C   UNL     1      -9.030  10.423  69.387  1.00  0.00    -0.168 C  
HETATM    5  O   UNL     1      -6.344  12.951  69.153  1.00  0.00    -0.093 OA 
HETATM    6  C   UNL     1      -8.345  11.532  68.971  1.00  0.00     0.093 C  
HETATM    7  N   UNL     1      -8.905  12.353  68.021  1.00  0.00    -0.181 N  
HETATM    8  C   UNL     1      -9.939  13.328  66.439  1.00  0.00    -0.288 C  
HETATM    9  C   UNL     1      -6.966  11.828  69.548  1.00  0.00     0.027 C  
HETATM   10  O   UNL     1      -7.495  13.997  67.209  1.00  0.00    -0.157 OA 
HETATM   11  C   UNL     1      -8.535  13.376  67.221  1.00  0.00    -0.200 C  
HETATM   12  O   UNL     1      -6.427  11.133  70.400  1.00  0.00    -0.269 OA 
ENDROOT
BRANCH   4  13
HETATM   13  C   UNL     1      -8.482   9.354  70.340  1.00  0.00    -0.214 C  
BRANCH  13  14
HETATM   14  S   UNL     1      -9.270   7.746  70.041  1.00  0.00    -0.153 SA 
BRANCH  14  15
HETATM   15  C   UNL     1      -8.097   6.688  70.747  1.00  0.00    -0.119 A  
HETATM   16  N   UNL     1      -7.878   6.530  72.031  1.00  0.00    -0.098 NA 
HETATM   17  N   UNL     1      -6.396   5.284  70.923  1.00  0.00    -0.023 NA 
HETATM   18  N   UNL     1      -6.813   5.662  72.125  1.00  0.00    -0.073 NA 
HETATM   19  C   UNL     1      -7.045   5.722  68.641  1.00  0.00    -0.077 C  
HETATM   20  N   UNL     1      -7.203   5.924  70.053  1.00  0.00    -0.071 NA 
ENDBRANCH  14  15
ENDBRANCH  13  14
ENDBRANCH   4  13
BRANCH   8  21
HETATM   21  O   UNL     1     -10.646  14.600  66.418  1.00  0.00    -0.290 OA 
HETATM   22  C   UNL     1     -11.291  14.975  67.633  1.00  0.00    -0.334 C  
ENDBRANCH   8  21
BRANCH   8  23
HETATM   23  N   UNL     1      -9.978  12.644  65.109  1.00  0.00    -0.434 N  
HETATM   24  C   UNL     1     -11.126  12.430  64.390  1.00  0.00    -0.333 C  
HETATM   25  H   UNL     1      -9.097  12.316  64.714  1.00  0.00     0.000 HD 
HETATM   26  O   UNL     1     -12.235  12.762  64.792  1.00  0.00    -0.406 OA 
BRANCH  24  27
HETATM   27  C   UNL     1     -10.946  11.673  63.088  1.00  0.00    -0.164 C  
BRANCH  27  28
HETATM   28  S   UNL     1      -9.189  11.250  62.837  1.00  0.00    -0.262 SA 
BRANCH  28  29
HETATM   29  C   UNL     1      -9.105   9.641  63.718  1.00  0.00    -0.178 C  
HETATM   30  C   UNL     1      -8.254   9.656  64.916  1.00  0.00    -0.143 C  
HETATM   31  N   UNL     1      -7.586   9.672  65.865  1.00  0.00    -0.100 NA 
ENDBRANCH  28  29
ENDBRANCH  27  28
ENDBRANCH  24  27
ENDBRANCH   8  23
TORSDOF 8
ENDMDL
MODEL      168
REMARK 921   NORMALIZED FREE ENERGY PREDICTED BY IDOCK:   -3.43 KCAL/MOL
REMARK 922        TOTAL FREE ENERGY PREDICTED BY IDOCK:   -6.12 KCAL/MOL
REMARK 923 INTER-LIGAND FREE ENERGY PREDICTED BY IDOCK:   -5.50 KCAL/MOL
REMARK 924 INTRA-LIGAND FREE ENERGY PREDICTED BY IDOCK:   -0.62 KCAL/MOL
REMARK 927      BINDING AFFINITY PREDICTED BY RF-SCORE:    0.00 PKD
ROOT
HETATM    1  C   UNL     1      -8.611  12.176  68.701  1.00  0.00     0.004 C  
HETATM    2  S   UNL     1     -10.283  11.495  68.560  1.00  0.00    -0.213 SA 
HETATM    3  C   UNL     1      -9.871   9.996  69.484  1.00  0.00    -0.229 C  
HETATM    4  C   UNL     1      -8.605   9.290  69.013  1.00  0.00    -0.134 C  
HETATM    5  O   UNL     1      -5.345   9.767  67.340  1.00  0.00    -0.036 OA 
HETATM    6  C   UNL     1      -7.579   9.914  68.356  1.00  0.00    -0.083 C  
HETATM    7  N   UNL     1      -7.682  11.253  68.065  1.00  0.00    -0.104 N  
HETATM    8  C   UNL     1      -8.192  13.267  67.609  1.00  0.00    -0.179 C  
HETATM    9  C   UNL     1      -6.353   9.112  67.939  1.00  0.00    -0.055 C  
HETATM   10  O   UNL     1      -6.014  12.075  66.689  1.00  0.00    -0.219 OA 
HETATM   11  C   UNL     1      -7.049  12.176  67.310  1.00  0.00    -0.144 C  
HETATM   12  O   UNL     1      -6.210   7.920  68.180  1.00  0.00    -0.043 OA 
ENDROOT
BRANCH   4  13
HETATM   13  C   UNL     1      -8.688   7.784  69.292  1.00  0.00    -0.139 C  
BRANCH  13  14
HETATM   14  S   UNL     1      -8.319   7.420  71.032  1.00  0.00    -0.115 SA 
BRANCH  14  15
HETATM   15  C   UNL     1      -9.863   6.854  71.566  1.00  0.00    -0.169 A  
HETATM   16  N   UNL     1     -10.914   7.601  71.813  1.00  0.00    -0.235 NA 
HETATM   17  N   UNL     1     -11.440   5.493  72.314  1.00  0.00    -0.208 NA 
HETATM   18  N   UNL     1     -11.882   6.744  72.285  1.00  0.00    -0.271 NA 
HETATM   19  C   UNL     1      -9.390   4.359  71.735  1.00  0.00    -0.140 C  
HETATM   20  N   UNL     1     -10.173   5.556  71.860  1.00  0.00    -0.193 NA 
ENDBRANCH  14  15
ENDBRANCH  13  14
ENDBRANCH   4  13
BRANCH   8  21
HETATM   21  O   UNL     1      -7.687  14.516  68.161  1.00  0.00    -0.110 OA 
HETATM   22  C   UNL     1      -7.007  15.372  67.245  1.00  0.00    -0.145 C  
ENDBRANCH   8  21
BRANCH   8  23
HETATM   23  N   UNL     1      -9.233  13.498  66.559  1.00  0.00    -0.413 N  
HETATM   24  C   UNL     1     -10.323  14.313  66.726  1.00  0.00    -0.274 C  
HETATM   25  H   UNL     1      -9.124  13.021  65.664  1.00  0.00     0.000 HD 
HETATM   26  O   UNL     1     -10.556  14.909  67.773  1.00  0.00    -0.255 OA 
BRANCH  24  27
HETATM   27  C   UNL     1     -11.280  14.368  65.551  1.00  0.00    -0.330 C  
BRANCH  27  28
HETATM   28  S   UNL     1     -10.723  13.245  64.226  1.00  0.00    -0.325 SA 
BRANCH  28  29
HETATM   29  C   UNL     1     -11.407  11.652  64.831  1.00  0.00    -0.184 C  
HETATM   30  C   UNL     1     -10.393  10.616  65.075  1.00  0.00    -0.271 C  
HETATM   31  N   UNL     1      -9.589   9.803  65.272  1.00  0.00    -0.288 NA 
ENDBRANCH  28  29
ENDBRANCH  27  28
ENDBRANCH  24  27
ENDBRANCH   8  23
TORSDOF 8
ENDMDL
MODEL      169
REMARK 921   NORMALIZED FREE ENERGY PREDICTED BY IDOCK:   -3.42 KCAL/MOL
REMARK 922        TOTAL FREE ENERGY PREDICTED BY IDOCK:   -6.12 KCAL/MOL
REMARK 923 INTER-LIGAND FREE ENERGY PREDICTED BY IDOCK:   -5.54 KCAL/MOL
REMARK 924 INTRA-LIGAND FREE ENERGY PREDICTED BY IDOCK:   -0.58 KCAL/MOL
REMARK 927      BINDING AFFINITY PREDICTED BY RF-SCORE:    0.00 PKD
ROOT
HETATM    1  C   UNL     1      -7.995   6.422  68.960  1.00  0.00    -0.111 C  
HETATM    2  S   UNL     1      -7.297   7.042  67.409  1.00  0.00    -0.094 SA 
HETATM    3  C   UNL     1      -7.277   8.760  67.975  1.00  0.00    -0.083 C  
HETATM    4  C   UNL     1      -8.587   9.240  68.589  1.00  0.00    -0.127 C  
HETATM    5  O   UNL     1     -11.651   8.159  70.351  1.00  0.00    -0.198 OA 
HETATM    6  C   UNL     1      -9.514   8.410  69.160  1.00  0.00    -0.155 C  
HETATM    7  N   UNL     1      -9.289   7.054  69.170  1.00  0.00    -0.141 N  
HETATM    8  C   UNL     1      -8.752   5.015  68.888  1.00  0.00    -0.089 C  
HETATM    9  C   UNL     1     -10.787   8.998  69.755  1.00  0.00    -0.205 C  
HETATM   10  O   UNL     1     -11.082   5.780  69.888  1.00  0.00    -0.360 OA 
HETATM   11  C   UNL     1      -9.970   5.916  69.428  1.00  0.00    -0.178 C  
HETATM   12  O   UNL     1     -11.032  10.198  69.778  1.00  0.00    -0.243 OA 
ENDROOT
BRANCH   4  13
HETATM   13  C   UNL     1      -8.758  10.750  68.392  1.00  0.00    -0.142 C  
BRANCH  13  14
HETATM   14  S   UNL     1      -8.617  11.202  66.639  1.00  0.00    -0.170 SA 
BRANCH  14  15
HETATM   15  C   UNL     1     -10.229  11.746  66.327  1.00  0.00    -0.221 A  
HETATM   16  N   UNL     1     -11.049  12.271  67.208  1.00  0.00    -0.259 NA 
HETATM   17  N   UNL     1     -12.141  12.099  65.271  1.00  0.00    -0.453 NA 
HETATM   18  N   UNL     1     -12.235  12.477  66.540  1.00  0.00    -0.531 NA 
HETATM   19  C   UNL     1     -10.423  11.169  63.856  1.00  0.00    -0.381 C  
HETATM   20  N   UNL     1     -10.881  11.642  65.132  1.00  0.00    -0.295 NA 
ENDBRANCH  14  15
ENDBRANCH  13  14
ENDBRANCH   4  13
BRANCH   8  21
HETATM   21  O   UNL     1      -8.283   4.023  69.844  1.00  0.00    -0.057 OA 
HETATM   22  C   UNL     1      -7.893   4.523  71.122  1.00  0.00    -0.077 C  
ENDBRANCH   8  21
BRANCH   8  23
HETATM   23  N   UNL     1      -8.853   4.456  67.504  1.00  0.00    -0.105 N  
HETATM   24  C   UNL     1      -7.873   3.705  66.907  1.00  0.00    -0.080 C  
HETATM   25  H   UNL     1      -9.703   4.645  66.973  1.00  0.00     0.000 HD 
HETATM   26  O   UNL     1      -6.806   3.446  67.453  1.00  0.00    -0.045 OA 
BRANCH  24  27
HETATM   27  C   UNL     1      -8.159   3.278  65.480  1.00  0.00    -0.090 C  
BRANCH  27  28
HETATM   28  S   UNL     1      -8.634   1.517  65.428  1.00  0.00    -0.112 SA 
BRANCH  28  29
HETATM   29  C   UNL     1      -9.550   1.468  63.837  1.00  0.00    -0.129 C  
HETATM   30  C   UNL     1     -10.452   2.609  63.627  1.00  0.00    -0.175 C  
HETATM   31  N   UNL     1     -11.158   3.515  63.461  1.00  0.00    -0.235 NA 
ENDBRANCH  28  29
ENDBRANCH  27  28
ENDBRANCH  24  27
ENDBRANCH   8  23
TORSDOF 8
ENDMDL
MODEL      170
REMARK 921   NORMALIZED FREE ENERGY PREDICTED BY IDOCK:   -3.40 KCAL/MOL
REMARK 922        TOTAL FREE ENERGY PREDICTED BY IDOCK:   -6.08 KCAL/MOL
REMARK 923 INTER-LIGAND FREE ENERGY PREDICTED BY IDOCK:   -5.40 KCAL/MOL
REMARK 924 INTRA-LIGAND FREE ENERGY PREDICTED BY IDOCK:   -0.68 KCAL/MOL
REMARK 927      BINDING AFFINITY PREDICTED BY RF-SCORE:    0.00 PKD
ROOT
HETATM    1  C   UNL     1      -8.260  10.140  65.539  1.00  0.00    -0.156 C  
HETATM    2  S   UNL     1     -10.003  10.607  65.390  1.00  0.00    -0.296 SA 
HETATM    3  C   UNL     1      -9.676  12.358  65.707  1.00  0.00    -0.200 C  
HETATM    4  C   UNL     1      -8.808  12.629  66.930  1.00  0.00    -0.201 C  
HETATM    5  O   UNL     1      -6.195  11.219  69.130  1.00  0.00    -0.048 OA 
HETATM    6  C   UNL     1      -7.919  11.729  67.453  1.00  0.00    -0.155 C  
HETATM    7  N   UNL     1      -7.802  10.487  66.877  1.00  0.00    -0.114 N  
HETATM    8  C   UNL     1      -7.960   8.609  65.890  1.00  0.00    -0.105 C  
HETATM    9  C   UNL     1      -7.092  12.109  68.674  1.00  0.00    -0.103 C  
HETATM   10  O   UNL     1      -6.493   8.991  68.061  1.00  0.00    -0.058 OA 
HETATM   11  C   UNL     1      -7.239   9.291  67.155  1.00  0.00    -0.087 C  
HETATM   12  O   UNL     1      -7.154  13.204  69.219  1.00  0.00    -0.040 OA 
ENDROOT
BRANCH   4  13
HETATM   13  C   UNL     1      -9.138  13.997  67.537  1.00  0.00    -0.196 C  
BRANCH  13  14
HETATM   14  S   UNL     1      -7.992  15.273  66.940  1.00  0.00    -0.075 SA 
BRANCH  14  15
HETATM   15  C   UNL     1      -9.111  16.405  66.265  1.00  0.00    -0.327 A  
HETATM   16  N   UNL     1     -10.127  16.113  65.486  1.00  0.00    -0.503 NA 
HETATM   17  N   UNL     1     -10.034  18.332  65.688  1.00  0.00    -0.445 NA 
HETATM   18  N   UNL     1     -10.685  17.320  65.128  1.00  0.00    -0.651 NA 
HETATM   19  C   UNL     1      -8.148  18.579  67.172  1.00  0.00    -0.243 C  
HETATM   20  N   UNL     1      -9.046  17.762  66.405  1.00  0.00    -0.377 NA 
ENDBRANCH  14  15
ENDBRANCH  13  14
ENDBRANCH   4  13
BRANCH   8  21
HETATM   21  O   UNL     1      -7.044   7.945  64.975  1.00  0.00    -0.058 OA 
HETATM   22  C   UNL     1      -7.170   8.299  63.599  1.00  0.00    -0.093 C  
ENDBRANCH   8  21
BRANCH   8  23
HETATM   23  N   UNL     1      -9.191   7.796  66.138  1.00  0.00    -0.303 N  
HETATM   24  C   UNL     1      -9.230   6.688  66.945  1.00  0.00    -0.142 C  
HETATM   25  H   UNL     1     -10.055   8.084  65.679  1.00  0.00     0.000 HD 
HETATM   26  O   UNL     1      -8.240   6.248  67.519  1.00  0.00    -0.112 OA 
BRANCH  24  27
HETATM   27  C   UNL     1     -10.570   5.983  67.019  1.00  0.00    -0.316 C  
BRANCH  27  28
HETATM   28  S   UNL     1     -10.387   4.224  66.573  1.00  0.00     0.321 SA 
BRANCH  28  29
HETATM   29  C   UNL     1      -9.627   4.380  64.909  1.00  0.00    -0.154 C  
HETATM   30  C   UNL     1      -8.324   3.714  64.779  1.00  0.00    -0.096 C  
HETATM   31  N   UNL     1      -7.298   3.181  64.677  1.00  0.00    -0.069 NA 
ENDBRANCH  28  29
ENDBRANCH  27  28
ENDBRANCH  24  27
ENDBRANCH   8  23
TORSDOF 8
ENDMDL
MODEL      171
REMARK 921   NORMALIZED FREE ENERGY PREDICTED BY IDOCK:   -3.33 KCAL/MOL
REMARK 922        TOTAL FREE ENERGY PREDICTED BY IDOCK:   -5.98 KCAL/MOL
REMARK 923 INTER-LIGAND FREE ENERGY PREDICTED BY IDOCK:   -5.28 KCAL/MOL
REMARK 924 INTRA-LIGAND FREE ENERGY PREDICTED BY IDOCK:   -0.70 KCAL/MOL
REMARK 927      BINDING AFFINITY PREDICTED BY RF-SCORE:    0.00 PKD
ROOT
HETATM    1  C   UNL     1      -8.899   8.367  67.529  1.00  0.00    -0.135 C  
HETATM    2  S   UNL     1     -10.453   7.549  67.088  1.00  0.00    -0.343 SA 
HETATM    3  C   UNL     1      -9.625   6.075  66.446  1.00  0.00    -0.137 C  
HETATM    4  C   UNL     1      -8.488   6.360  65.472  1.00  0.00    -0.141 C  
HETATM    5  O   UNL     1      -5.946   8.848  64.468  1.00  0.00    -0.064 OA 
HETATM    6  C   UNL     1      -7.779   7.530  65.445  1.00  0.00    -0.109 C  
HETATM    7  N   UNL     1      -8.107   8.538  66.319  1.00  0.00    -0.105 N  
HETATM    8  C   UNL     1      -8.946   9.960  67.661  1.00  0.00    -0.128 C  
HETATM    9  C   UNL     1      -6.653   7.706  64.433  1.00  0.00    -0.048 C  
HETATM   10  O   UNL     1      -7.024  10.546  65.935  1.00  0.00    -0.125 OA 
HETATM   11  C   UNL     1      -7.832   9.847  66.506  1.00  0.00    -0.110 C  
HETATM   12  O   UNL     1      -6.316   6.838  63.638  1.00  0.00    -0.040 OA 
ENDROOT
BRANCH   4  13
HETATM   13  C   UNL     1      -8.321   5.204  64.480  1.00  0.00    -0.137 C  
BRANCH  13  14
HETATM   14  S   UNL     1      -7.041   4.043  65.037  1.00  0.00    -0.063 SA 
BRANCH  14  15
HETATM   15  C   UNL     1      -7.941   3.116  66.187  1.00  0.00    -0.085 A  
HETATM   16  N   UNL     1      -7.847   3.207  67.493  1.00  0.00    -0.076 NA 
HETATM   17  N   UNL     1      -9.285   1.569  67.023  1.00  0.00    -0.073 NA 
HETATM   18  N   UNL     1      -8.680   2.234  67.999  1.00  0.00    -0.086 NA 
HETATM   19  C   UNL     1      -9.299   1.650  64.611  1.00  0.00    -0.118 C  
HETATM   20  N   UNL     1      -8.826   2.121  65.882  1.00  0.00    -0.120 NA 
ENDBRANCH  14  15
ENDBRANCH  13  14
ENDBRANCH   4  13
BRANCH   8  21
HETATM   21  O   UNL     1      -8.438  10.480  68.922  1.00  0.00    -0.134 OA 
HETATM   22  C   UNL     1      -8.735   9.704  70.081  1.00  0.00    -0.231 C  
ENDBRANCH   8  21
BRANCH   8  23
HETATM   23  N   UNL     1     -10.270  10.556  67.302  1.00  0.00    -0.204 N  
HETATM   24  C   UNL     1     -10.438  11.843  66.858  1.00  0.00    -0.222 C  
HETATM   25  H   UNL     1     -11.099   9.969  67.394  1.00  0.00     0.000 HD 
HETATM   26  O   UNL     1      -9.508  12.633  66.741  1.00  0.00    -0.224 OA 
BRANCH  24  27
HETATM   27  C   UNL     1     -11.872  12.259  66.598  1.00  0.00    -0.289 C  
BRANCH  27  28
HETATM   28  S   UNL     1     -12.135  12.551  64.816  1.00  0.00    -0.432 SA 
BRANCH  28  29
HETATM   29  C   UNL     1     -12.477  14.355  64.822  1.00  0.00    -0.357 C  
HETATM   30  C   UNL     1     -11.273  15.194  64.902  1.00  0.00    -0.417 C  
HETATM   31  N   UNL     1     -10.320  15.855  64.959  1.00  0.00    -0.524 NA 
ENDBRANCH  28  29
ENDBRANCH  27  28
ENDBRANCH  24  27
ENDBRANCH   8  23
TORSDOF 8
ENDMDL
MODEL      172
REMARK 921   NORMALIZED FREE ENERGY PREDICTED BY IDOCK:   -3.30 KCAL/MOL
REMARK 922        TOTAL FREE ENERGY PREDICTED BY IDOCK:   -5.94 KCAL/MOL
REMARK 923 INTER-LIGAND FREE ENERGY PREDICTED BY IDOCK:   -5.62 KCAL/MOL
REMARK 924 INTRA-LIGAND FREE ENERGY PREDICTED BY IDOCK:   -0.32 KCAL/MOL
REMARK 927      BINDING AFFINITY PREDICTED BY RF-SCORE:    0.00 PKD
ROOT
HETATM    1  C   UNL     1     -10.613   8.939  68.958  1.00  0.00    -0.183 C  
HETATM    2  S   UNL     1     -10.217   9.406  67.254  1.00  0.00    -0.262 SA 
HETATM    3  C   UNL     1      -9.775   7.718  66.777  1.00  0.00    -0.227 C  
HETATM    4  C   UNL     1      -8.812   7.021  67.731  1.00  0.00    -0.123 C  
HETATM    5  O   UNL     1      -7.616   6.890  71.225  1.00  0.00    -0.085 OA 
HETATM    6  C   UNL     1      -8.676   7.346  69.053  1.00  0.00    -0.133 C  
HETATM    7  N   UNL     1      -9.419   8.379  69.573  1.00  0.00    -0.165 N  
HETATM    8  C   UNL     1     -10.562  10.109  70.047  1.00  0.00    -0.287 C  
HETATM    9  C   UNL     1      -7.688   6.576  69.921  1.00  0.00    -0.109 C  
HETATM   10  O   UNL     1      -8.845   8.996  71.728  1.00  0.00    -0.348 OA 
HETATM   11  C   UNL     1      -9.465   9.129  70.696  1.00  0.00    -0.261 C  
HETATM   12  O   UNL     1      -7.009   5.645  69.508  1.00  0.00    -0.059 OA 
ENDROOT
BRANCH   4  13
HETATM   13  C   UNL     1      -7.964   5.985  66.985  1.00  0.00    -0.102 C  
BRANCH  13  14
HETATM   14  S   UNL     1      -6.461   6.739  66.300  1.00  0.00    -0.048 SA 
BRANCH  14  15
HETATM   15  C   UNL     1      -6.363   5.916  64.783  1.00  0.00    -0.037 A  
HETATM   16  N   UNL     1      -6.816   6.361  63.634  1.00  0.00    -0.043 NA 
HETATM   17  N   UNL     1      -6.003   4.311  63.301  1.00  0.00    -0.017 NA 
HETATM   18  N   UNL     1      -6.594   5.351  62.725  1.00  0.00    -0.025 NA 
HETATM   19  C   UNL     1      -5.216   3.766  65.515  1.00  0.00    -0.009 C  
HETATM   20  N   UNL     1      -5.853   4.663  64.594  1.00  0.00    -0.017 NA 
ENDBRANCH  14  15
ENDBRANCH  13  14
ENDBRANCH   4  13
BRANCH   8  21
HETATM   21  O   UNL     1     -11.772  10.251  70.844  1.00  0.00    -0.333 OA 
HETATM   22  C   UNL     1     -12.243   9.064  71.478  1.00  0.00    -0.335 C  
ENDBRANCH   8  21
BRANCH   8  23
HETATM   23  N   UNL     1     -10.095  11.421  69.500  1.00  0.00    -0.393 N  
HETATM   24  C   UNL     1     -10.922  12.351  68.925  1.00  0.00    -0.223 C  
HETATM   25  H   UNL     1      -9.099  11.636  69.559  1.00  0.00     0.000 HD 
HETATM   26  O   UNL     1     -12.127  12.174  68.784  1.00  0.00    -0.274 OA 
BRANCH  24  27
HETATM   27  C   UNL     1     -10.234  13.593  68.391  1.00  0.00    -0.245 C  
BRANCH  27  28
HETATM   28  S   UNL     1     -11.438  14.672  67.547  1.00  0.00    -0.371 SA 
BRANCH  28  29
HETATM   29  C   UNL     1     -11.310  16.185  68.580  1.00  0.00    -0.359 C  
HETATM   30  C   UNL     1      -9.961  16.766  68.629  1.00  0.00    -0.276 C  
HETATM   31  N   UNL     1      -8.896  17.227  68.660  1.00  0.00    -0.271 NA 
ENDBRANCH  28  29
ENDBRANCH  27  28
ENDBRANCH  24  27
ENDBRANCH   8  23
TORSDOF 8
ENDMDL
MODEL      173
REMARK 921   NORMALIZED FREE ENERGY PREDICTED BY IDOCK:   -3.29 KCAL/MOL
REMARK 922        TOTAL FREE ENERGY PREDICTED BY IDOCK:   -5.92 KCAL/MOL
REMARK 923 INTER-LIGAND FREE ENERGY PREDICTED BY IDOCK:   -4.63 KCAL/MOL
REMARK 924 INTRA-LIGAND FREE ENERGY PREDICTED BY IDOCK:   -1.29 KCAL/MOL
REMARK 927      BINDING AFFINITY PREDICTED BY RF-SCORE:    0.00 PKD
ROOT
HETATM    1  C   UNL     1      -9.408   7.931  66.317  1.00  0.00    -0.164 C  
HETATM    2  S   UNL     1     -10.704   9.111  66.770  1.00  0.00     0.100 SA 
HETATM    3  C   UNL     1      -9.874  10.502  65.964  1.00  0.00    -0.222 C  
HETATM    4  C   UNL     1      -8.401  10.654  66.322  1.00  0.00    -0.155 C  
HETATM    5  O   UNL     1      -5.381   8.844  67.446  1.00  0.00    -0.033 OA 
HETATM    6  C   UNL     1      -7.608   9.625  66.753  1.00  0.00    -0.098 C  
HETATM    7  N   UNL     1      -8.153   8.373  66.909  1.00  0.00    -0.099 N  
HETATM    8  C   UNL     1      -9.303   6.610  67.213  1.00  0.00    -0.132 C  
HETATM    9  C   UNL     1      -6.141   9.887  67.073  1.00  0.00    -0.059 C  
HETATM   10  O   UNL     1      -6.764   6.832  67.932  1.00  0.00    -0.062 OA 
HETATM   11  C   UNL     1      -7.822   7.186  67.460  1.00  0.00    -0.112 C  
HETATM   12  O   UNL     1      -5.606  10.980  66.945  1.00  0.00    -0.055 OA 
ENDROOT
BRANCH   4  13
HETATM   13  C   UNL     1      -7.967  12.121  66.223  1.00  0.00     0.413 C  
BRANCH  13  14
HETATM   14  S   UNL     1      -8.305  13.010  67.769  1.00  0.00    -0.190 SA 
BRANCH  14  15
HETATM   15  C   UNL     1      -9.778  13.814  67.349  1.00  0.00    -0.235 A  
HETATM   16  N   UNL     1      -9.887  14.866  66.571  1.00  0.00    -0.254 NA 
HETATM   17  N   UNL     1     -11.919  14.373  67.345  1.00  0.00    -0.398 NA 
HETATM   18  N   UNL     1     -11.221  15.207  66.585  1.00  0.00    -0.311 NA 
HETATM   19  C   UNL     1     -11.441  12.420  68.679  1.00  0.00    -0.303 C  
HETATM   20  N   UNL     1     -11.018  13.494  67.825  1.00  0.00    -0.261 NA 
ENDBRANCH  14  15
ENDBRANCH  13  14
ENDBRANCH   4  13
BRANCH   8  21
HETATM   21  O   UNL     1      -9.334   5.363  66.462  1.00  0.00    -0.135 OA 
HETATM   22  C   UNL     1     -10.610   4.968  65.962  1.00  0.00    -0.232 C  
ENDBRANCH   8  21
BRANCH   8  23
HETATM   23  N   UNL     1     -10.251   6.590  68.370  1.00  0.00    -0.159 N  
HETATM   24  C   UNL     1      -9.937   6.097  69.611  1.00  0.00    -0.168 C  
HETATM   25  H   UNL     1     -11.188   6.967  68.227  1.00  0.00     0.000 HD 
HETATM   26  O   UNL     1      -8.848   5.600  69.873  1.00  0.00    -0.126 OA 
BRANCH  24  27
HETATM   27  C   UNL     1     -11.062   6.129  70.627  1.00  0.00    -0.317 C  
BRANCH  27  28
HETATM   28  S   UNL     1     -10.675   7.308  71.965  1.00  0.00    -0.216 SA 
BRANCH  28  29
HETATM   29  C   UNL     1     -10.787   8.896  71.051  1.00  0.00    -0.259 C  
HETATM   30  C   UNL     1      -9.488   9.446  70.641  1.00  0.00    -0.262 C  
HETATM   31  N   UNL     1      -8.460   9.875  70.313  1.00  0.00    -0.127 NA 
ENDBRANCH  28  29
ENDBRANCH  27  28
ENDBRANCH  24  27
ENDBRANCH   8  23
TORSDOF 8
ENDMDL
MODEL      174
REMARK 921   NORMALIZED FREE ENERGY PREDICTED BY IDOCK:   -3.24 KCAL/MOL
REMARK 922        TOTAL FREE ENERGY PREDICTED BY IDOCK:   -5.85 KCAL/MOL
REMARK 923 INTER-LIGAND FREE ENERGY PREDICTED BY IDOCK:   -4.83 KCAL/MOL
REMARK 924 INTRA-LIGAND FREE ENERGY PREDICTED BY IDOCK:   -1.02 KCAL/MOL
REMARK 927      BINDING AFFINITY PREDICTED BY RF-SCORE:    0.00 PKD
ROOT
HETATM    1  C   UNL     1     -10.855   7.445  70.426  1.00  0.00    -0.243 C  
HETATM    2  S   UNL     1     -11.007   6.280  69.048  1.00  0.00    -0.374 SA 
HETATM    3  C   UNL     1     -10.399   4.880  70.019  1.00  0.00    -0.172 C  
HETATM    4  C   UNL     1      -9.111   5.152  70.786  1.00  0.00    -0.171 C  
HETATM    5  O   UNL     1      -7.048   7.788  72.353  1.00  0.00    -0.071 OA 
HETATM    6  C   UNL     1      -8.699   6.398  71.173  1.00  0.00    -0.135 C  
HETATM    7  N   UNL     1      -9.460   7.493  70.839  1.00  0.00    -0.165 N  
HETATM    8  C   UNL     1     -10.740   8.992  70.041  1.00  0.00    -0.229 C  
HETATM    9  C   UNL     1      -7.397   6.555  71.947  1.00  0.00    -0.091 C  
HETATM   10  O   UNL     1      -8.472   9.535  71.295  1.00  0.00    -0.256 OA 
HETATM   11  C   UNL     1      -9.351   8.839  70.836  1.00  0.00    -0.214 C  
HETATM   12  O   UNL     1      -6.687   5.613  72.275  1.00  0.00    -0.066 OA 
ENDROOT
BRANCH   4  13
HETATM   13  C   UNL     1      -8.309   3.859  70.975  1.00  0.00    -0.068 C  
BRANCH  13  14
HETATM   14  S   UNL     1      -7.079   3.653  69.655  1.00  0.00    -0.042 SA 
BRANCH  14  15
HETATM   15  C   UNL     1      -8.117   3.313  68.313  1.00  0.00    -0.073 A  
HETATM   16  N   UNL     1      -8.816   2.215  68.139  1.00  0.00    -0.100 NA 
HETATM   17  N   UNL     1      -9.114   3.509  66.347  1.00  0.00    -0.150 NA 
HETATM   18  N   UNL     1      -9.422   2.347  66.910  1.00  0.00     0.030 NA 
HETATM   19  C   UNL     1      -7.783   5.431  66.943  1.00  0.00    -0.100 C  
HETATM   20  N   UNL     1      -8.296   4.120  67.227  1.00  0.00    -0.099 NA 
ENDBRANCH  14  15
ENDBRANCH  13  14
ENDBRANCH   4  13
BRANCH   8  21
HETATM   21  O   UNL     1     -11.707   9.856  70.702  1.00  0.00    -0.284 OA 
HETATM   22  C   UNL     1     -12.416   9.276  71.796  1.00  0.00    -0.381 C  
ENDBRANCH   8  21
BRANCH   8  23
HETATM   23  N   UNL     1     -10.681   9.244  68.567  1.00  0.00    -0.379 N  
HETATM   24  C   UNL     1     -10.323  10.443  68.007  1.00  0.00    -0.179 C  
HETATM   25  H   UNL     1     -10.922   8.475  67.941  1.00  0.00     0.000 HD 
HETATM   26  O   UNL     1     -10.042  11.432  68.675  1.00  0.00    -0.203 OA 
BRANCH  24  27
HETATM   27  C   UNL     1     -10.376  10.495  66.493  1.00  0.00    -0.233 C  
BRANCH  27  28
HETATM   28  S   UNL     1      -9.618   8.997  65.779  1.00  0.00    -0.150 SA 
BRANCH  28  29
HETATM   29  C   UNL     1      -7.965   9.050  66.574  1.00  0.00    -0.103 C  
HETATM   30  C   UNL     1      -7.115  10.160  66.120  1.00  0.00    -0.114 C  
HETATM   31  N   UNL     1      -6.448  11.041  65.764  1.00  0.00    -0.020 NA 
ENDBRANCH  28  29
ENDBRANCH  27  28
ENDBRANCH  24  27
ENDBRANCH   8  23
TORSDOF 8
ENDMDL
MODEL      175
REMARK 921   NORMALIZED FREE ENERGY PREDICTED BY IDOCK:   -3.23 KCAL/MOL
REMARK 922        TOTAL FREE ENERGY PREDICTED BY IDOCK:   -5.83 KCAL/MOL
REMARK 923 INTER-LIGAND FREE ENERGY PREDICTED BY IDOCK:   -4.92 KCAL/MOL
REMARK 924 INTRA-LIGAND FREE ENERGY PREDICTED BY IDOCK:   -0.91 KCAL/MOL
REMARK 927      BINDING AFFINITY PREDICTED BY RF-SCORE:    0.00 PKD
ROOT
HETATM    1  C   UNL     1      -8.482   8.802  67.444  1.00  0.00    -0.116 C  
HETATM    2  S   UNL     1      -9.831   8.577  68.631  1.00  0.00    -0.175 SA 
HETATM    3  C   UNL     1      -9.412   6.846  68.948  1.00  0.00    -0.136 C  
HETATM    4  C   UNL     1      -9.211   6.003  67.694  1.00  0.00    -0.107 C  
HETATM    5  O   UNL     1      -8.261   6.108  64.124  1.00  0.00    -0.112 OA 
HETATM    6  C   UNL     1      -8.849   6.514  66.478  1.00  0.00    -0.138 C  
HETATM    7  N   UNL     1      -8.676   7.871  66.341  1.00  0.00    -0.144 N  
HETATM    8  C   UNL     1      -8.648   9.997  66.395  1.00  0.00    -0.129 C  
HETATM    9  C   UNL     1      -8.665   5.578  65.290  1.00  0.00    -0.136 C  
HETATM   10  O   UNL     1      -8.372   8.595  64.165  1.00  0.00    -0.168 OA 
HETATM   11  C   UNL     1      -8.526   8.779  65.353  1.00  0.00    -0.170 C  
HETATM   12  O   UNL     1      -8.799   4.362  65.360  1.00  0.00    -0.124 OA 
ENDROOT
BRANCH   4  13
HETATM   13  C   UNL     1      -9.560   4.535  67.965  1.00  0.00    -0.154 C  
BRANCH  13  14
HETATM   14  S   UNL     1      -8.154   3.652  68.701  1.00  0.00    -0.069 SA 
BRANCH  14  15
HETATM   15  C   UNL     1      -8.702   3.500  70.334  1.00  0.00    -0.074 A  
HETATM   16  N   UNL     1      -9.605   2.651  70.768  1.00  0.00    -0.140 NA 
HETATM   17  N   UNL     1      -8.990   3.935  72.485  1.00  0.00    -0.107 NA 
HETATM   18  N   UNL     1      -9.780   2.939  72.103  1.00  0.00    -0.146 NA 
HETATM   19  C   UNL     1      -7.331   5.339  71.437  1.00  0.00    -0.086 C  
HETATM   20  N   UNL     1      -8.309   4.289  71.377  1.00  0.00    -0.089 NA 
ENDBRANCH  14  15
ENDBRANCH  13  14
ENDBRANCH   4  13
BRANCH   8  21
HETATM   21  O   UNL     1      -7.529  10.927  66.350  1.00  0.00    -0.139 OA 
HETATM   22  C   UNL     1      -7.295  11.678  67.540  1.00  0.00    -0.119 C  
ENDBRANCH   8  21
BRANCH   8  23
HETATM   23  N   UNL     1      -9.962  10.706  66.494  1.00  0.00    -0.208 N  
HETATM   24  C   UNL     1     -10.433  11.584  65.551  1.00  0.00    -0.275 C  
HETATM   25  H   UNL     1     -10.542  10.526  67.313  1.00  0.00     0.000 HD 
HETATM   26  O   UNL     1      -9.799  11.886  64.546  1.00  0.00    -0.242 OA 
BRANCH  24  27
HETATM   27  C   UNL     1     -11.767  12.229  65.872  1.00  0.00    -0.389 C  
BRANCH  27  28
HETATM   28  S   UNL     1     -11.521  13.944  66.445  1.00  0.00    -0.359 SA 
BRANCH  28  29
HETATM   29  C   UNL     1     -10.849  13.639  68.126  1.00  0.00    -0.246 C  
HETATM   30  C   UNL     1      -9.776  14.563  68.521  1.00  0.00    -0.224 C  
HETATM   31  N   UNL     1      -8.934  15.298  68.833  1.00  0.00    -0.196 NA 
ENDBRANCH  28  29
ENDBRANCH  27  28
ENDBRANCH  24  27
ENDBRANCH   8  23
TORSDOF 8
ENDMDL
MODEL      176
REMARK 921   NORMALIZED FREE ENERGY PREDICTED BY IDOCK:   -3.15 KCAL/MOL
REMARK 922        TOTAL FREE ENERGY PREDICTED BY IDOCK:   -5.72 KCAL/MOL
REMARK 923 INTER-LIGAND FREE ENERGY PREDICTED BY IDOCK:   -5.43 KCAL/MOL
REMARK 924 INTRA-LIGAND FREE ENERGY PREDICTED BY IDOCK:   -0.29 KCAL/MOL
REMARK 927      BINDING AFFINITY PREDICTED BY RF-SCORE:    0.00 PKD
ROOT
HETATM    1  C   UNL     1     -11.111   8.820  68.205  1.00  0.00     0.307 C  
HETATM    2  S   UNL     1     -10.198   8.694  66.647  1.00  0.00    -0.218 SA 
HETATM    3  C   UNL     1     -10.069   6.892  66.740  1.00  0.00    -0.194 C  
HETATM    4  C   UNL     1      -9.576   6.360  68.080  1.00  0.00    -0.118 C  
HETATM    5  O   UNL     1      -9.367   7.069  71.701  1.00  0.00    -0.156 OA 
HETATM    6  C   UNL     1      -9.703   7.033  69.264  1.00  0.00    -0.158 C  
HETATM    7  N   UNL     1     -10.282   8.279  69.273  1.00  0.00    -0.201 N  
HETATM    8  C   UNL     1     -11.055  10.234  68.950  1.00  0.00    -0.231 C  
HETATM    9  C   UNL     1      -9.182   6.402  70.549  1.00  0.00    -0.158 C  
HETATM   10  O   UNL     1     -10.138   9.401  71.291  1.00  0.00    -0.302 OA 
HETATM   11  C   UNL     1     -10.427   9.323  70.117  1.00  0.00    -0.230 C  
HETATM   12  O   UNL     1      -8.665   5.293  70.597  1.00  0.00    -0.121 OA 
ENDROOT
BRANCH   4  13
HETATM   13  C   UNL     1      -8.842   5.026  67.897  1.00  0.00    -0.103 C  
BRANCH  13  14
HETATM   14  S   UNL     1      -7.788   5.055  66.419  1.00  0.00    -0.100 SA 
BRANCH  14  15
HETATM   15  C   UNL     1      -8.620   3.915  65.420  1.00  0.00    -0.114 A  
HETATM   16  N   UNL     1      -9.537   4.200  64.524  1.00  0.00    -0.164 NA 
HETATM   17  N   UNL     1      -9.328   1.981  64.609  1.00  0.00    -0.132 NA 
HETATM   18  N   UNL     1      -9.974   2.989  64.036  1.00  0.00    -0.158 NA 
HETATM   19  C   UNL     1      -7.587   1.748  66.264  1.00  0.00    -0.062 C  
HETATM   20  N   UNL     1      -8.474   2.558  65.478  1.00  0.00    -0.098 NA 
ENDBRANCH  14  15
ENDBRANCH  13  14
ENDBRANCH   4  13
BRANCH   8  21
HETATM   21  O   UNL     1     -12.356  10.799  69.279  1.00  0.00    -0.368 OA 
HETATM   22  C   UNL     1     -12.351  11.867  70.224  1.00  0.00    -0.207 C  
ENDBRANCH   8  21
BRANCH   8  23
HETATM   23  N   UNL     1     -10.164  11.232  68.282  1.00  0.00    -0.179 N  
HETATM   24  C   UNL     1     -10.572  12.078  67.283  1.00  0.00    -0.222 C  
HETATM   25  H   UNL     1      -9.193  11.287  68.590  1.00  0.00     0.000 HD 
HETATM   26  O   UNL     1     -11.710  12.070  66.827  1.00  0.00    -0.523 OA 
BRANCH  24  27
HETATM   27  C   UNL     1      -9.493  12.977  66.711  1.00  0.00    -0.250 C  
BRANCH  27  28
HETATM   28  S   UNL     1     -10.226  14.524  66.078  1.00  0.00    -0.331 SA 
BRANCH  28  29
HETATM   29  C   UNL     1      -9.403  15.752  67.166  1.00  0.00    -0.213 C  
HETATM   30  C   UNL     1      -8.069  16.163  66.707  1.00  0.00    -0.270 C  
HETATM   31  N   UNL     1      -7.018  16.490  66.339  1.00  0.00    -0.156 NA 
ENDBRANCH  28  29
ENDBRANCH  27  28
ENDBRANCH  24  27
ENDBRANCH   8  23
TORSDOF 8
ENDMDL
MODEL      177
REMARK 921   NORMALIZED FREE ENERGY PREDICTED BY IDOCK:   -3.15 KCAL/MOL
REMARK 922        TOTAL FREE ENERGY PREDICTED BY IDOCK:   -5.72 KCAL/MOL
REMARK 923 INTER-LIGAND FREE ENERGY PREDICTED BY IDOCK:   -5.62 KCAL/MOL
REMARK 924 INTRA-LIGAND FREE ENERGY PREDICTED BY IDOCK:   -0.09 KCAL/MOL
REMARK 927      BINDING AFFINITY PREDICTED BY RF-SCORE:    0.00 PKD
ROOT
HETATM    1  C   UNL     1     -10.962   8.365  69.616  1.00  0.00    -0.087 C  
HETATM    2  S   UNL     1     -10.240   8.697  67.989  1.00  0.00    -0.213 SA 
HETATM    3  C   UNL     1      -9.621   7.008  67.796  1.00  0.00    -0.123 C  
HETATM    4  C   UNL     1      -8.847   6.476  68.995  1.00  0.00    -0.130 C  
HETATM    5  O   UNL     1      -8.410   6.759  72.654  1.00  0.00    -0.111 OA 
HETATM    6  C   UNL     1      -9.009   6.932  70.275  1.00  0.00    -0.152 C  
HETATM    7  N   UNL     1      -9.897   7.952  70.519  1.00  0.00    -0.185 N  
HETATM    8  C   UNL     1     -11.202   9.632  70.561  1.00  0.00    -0.297 C  
HETATM    9  C   UNL     1      -8.189   6.320  71.404  1.00  0.00    -0.122 C  
HETATM   10  O   UNL     1      -9.823   8.808  72.667  1.00  0.00    -0.199 OA 
HETATM   11  C   UNL     1     -10.218   8.799  71.522  1.00  0.00    -0.300 C  
HETATM   12  O   UNL     1      -7.391   5.406  71.241  1.00  0.00    -0.078 OA 
ENDROOT
BRANCH   4  13
HETATM   13  C   UNL     1      -7.808   5.438  68.554  1.00  0.00    -0.088 C  
BRANCH  13  14
HETATM   14  S   UNL     1      -6.279   6.240  67.992  1.00  0.00    -0.033 SA 
BRANCH  14  15
HETATM   15  C   UNL     1      -6.736   6.691  66.386  1.00  0.00    -0.053 A  
HETATM   16  N   UNL     1      -7.049   5.866  65.414  1.00  0.00    -0.063 NA 
HETATM   17  N   UNL     1      -7.099   7.940  64.596  1.00  0.00    -0.073 NA 
HETATM   18  N   UNL     1      -7.263   6.655  64.306  1.00  0.00    -0.064 NA 
HETATM   19  C   UNL     1      -6.543   9.222  66.562  1.00  0.00    -0.067 C  
HETATM   20  N   UNL     1      -6.771   7.968  65.902  1.00  0.00    -0.049 NA 
ENDBRANCH  14  15
ENDBRANCH  13  14
ENDBRANCH   4  13
BRANCH   8  21
HETATM   21  O   UNL     1     -12.558   9.760  71.074  1.00  0.00    -0.317 OA 
HETATM   22  C   UNL     1     -12.833  10.942  71.823  1.00  0.00    -0.404 C  
ENDBRANCH   8  21
BRANCH   8  23
HETATM   23  N   UNL     1     -10.698  10.917  69.985  1.00  0.00    -0.463 N  
HETATM   24  C   UNL     1     -11.337  11.616  68.993  1.00  0.00    -0.275 C  
HETATM   25  H   UNL     1      -9.825  11.297  70.352  1.00  0.00     0.000 HD 
HETATM   26  O   UNL     1     -12.376  11.229  68.469  1.00  0.00    -0.543 OA 
BRANCH  24  27
HETATM   27  C   UNL     1     -10.627  12.870  68.520  1.00  0.00    -0.253 C  
BRANCH  27  28
HETATM   28  S   UNL     1      -8.880  12.507  68.143  1.00  0.00    -0.180 SA 
BRANCH  28  29
HETATM   29  C   UNL     1      -8.378  14.081  67.342  1.00  0.00    -0.196 C  
HETATM   30  C   UNL     1      -9.491  15.006  67.085  1.00  0.00    -0.216 C  
HETATM   31  N   UNL     1     -10.371  15.737  66.890  1.00  0.00    -0.289 NA 
ENDBRANCH  28  29
ENDBRANCH  27  28
ENDBRANCH  24  27
ENDBRANCH   8  23
TORSDOF 8
ENDMDL
MODEL      178
REMARK 921   NORMALIZED FREE ENERGY PREDICTED BY IDOCK:   -3.11 KCAL/MOL
REMARK 922        TOTAL FREE ENERGY PREDICTED BY IDOCK:   -5.65 KCAL/MOL
REMARK 923 INTER-LIGAND FREE ENERGY PREDICTED BY IDOCK:   -4.53 KCAL/MOL
REMARK 924 INTRA-LIGAND FREE ENERGY PREDICTED BY IDOCK:   -1.12 KCAL/MOL
REMARK 927      BINDING AFFINITY PREDICTED BY RF-SCORE:    0.00 PKD
ROOT
HETATM    1  C   UNL     1     -10.335   6.830  70.169  1.00  0.00    -0.202 C  
HETATM    2  S   UNL     1     -10.107   6.990  68.380  1.00  0.00    -0.171 SA 
HETATM    3  C   UNL     1     -10.480   5.248  68.065  1.00  0.00    -0.074 C  
HETATM    4  C   UNL     1      -9.721   4.267  68.951  1.00  0.00    -0.195 C  
HETATM    5  O   UNL     1      -8.055   3.845  72.223  1.00  0.00    -0.081 OA 
HETATM    6  C   UNL     1      -9.223   4.580  70.187  1.00  0.00    -0.130 C  
HETATM    7  N   UNL     1      -9.376   5.856  70.672  1.00  0.00    -0.158 N  
HETATM    8  C   UNL     1      -9.615   7.930  71.079  1.00  0.00    -0.159 C  
HETATM    9  C   UNL     1      -8.488   3.517  70.994  1.00  0.00    -0.067 C  
HETATM   10  O   UNL     1      -8.214   6.297  72.623  1.00  0.00    -0.106 OA 
HETATM   11  C   UNL     1      -8.907   6.619  71.683  1.00  0.00    -0.134 C  
HETATM   12  O   UNL     1      -8.331   2.365  70.610  1.00  0.00    -0.048 OA 
ENDROOT
BRANCH   4  13
HETATM   13  C   UNL     1      -9.517   2.930  68.229  1.00  0.00    -0.155 C  
BRANCH  13  14
HETATM   14  S   UNL     1      -8.074   2.993  67.130  1.00  0.00    -0.080 SA 
BRANCH  14  15
HETATM   15  C   UNL     1      -8.858   3.015  65.588  1.00  0.00    -0.138 A  
HETATM   16  N   UNL     1      -9.387   1.979  64.978  1.00  0.00    -0.105 NA 
HETATM   17  N   UNL     1      -9.577   3.742  63.626  1.00  0.00    -0.145 NA 
HETATM   18  N   UNL     1      -9.821   2.444  63.757  1.00  0.00    -0.137 NA 
HETATM   19  C   UNL     1      -8.589   5.472  64.986  1.00  0.00    -0.128 C  
HETATM   20  N   UNL     1      -8.975   4.106  64.775  1.00  0.00    -0.133 NA 
ENDBRANCH  14  15
ENDBRANCH  13  14
ENDBRANCH   4  13
BRANCH   8  21
HETATM   21  O   UNL     1     -10.495   8.612  72.018  1.00  0.00    -0.307 OA 
HETATM   22  C   UNL     1     -11.883   8.300  71.911  1.00  0.00    -0.324 C  
ENDBRANCH   8  21
BRANCH   8  23
HETATM   23  N   UNL     1      -8.769   8.892  70.306  1.00  0.00    -0.154 N  
HETATM   24  C   UNL     1      -7.643   9.495  70.805  1.00  0.00    -0.071 C  
HETATM   25  H   UNL     1      -9.047   9.111  69.350  1.00  0.00     0.000 HD 
HETATM   26  O   UNL     1      -7.243   9.317  71.950  1.00  0.00    -0.326 OA 
BRANCH  24  27
HETATM   27  C   UNL     1      -6.961  10.474  69.868  1.00  0.00    -0.150 C  
BRANCH  27  28
HETATM   28  S   UNL     1      -7.530  10.214  68.154  1.00  0.00    -0.083 SA 
BRANCH  28  29
HETATM   29  C   UNL     1      -8.507  11.747  67.893  1.00  0.00    -0.154 C  
HETATM   30  C   UNL     1      -9.942  11.600  68.171  1.00  0.00    -0.195 C  
HETATM   31  N   UNL     1     -11.074  11.482  68.397  1.00  0.00    -0.215 NA 
ENDBRANCH  28  29
ENDBRANCH  27  28
ENDBRANCH  24  27
ENDBRANCH   8  23
TORSDOF 8
ENDMDL
MODEL      179
REMARK 921   NORMALIZED FREE ENERGY PREDICTED BY IDOCK:   -2.88 KCAL/MOL
REMARK 922        TOTAL FREE ENERGY PREDICTED BY IDOCK:   -5.32 KCAL/MOL
REMARK 923 INTER-LIGAND FREE ENERGY PREDICTED BY IDOCK:   -4.99 KCAL/MOL
REMARK 924 INTRA-LIGAND FREE ENERGY PREDICTED BY IDOCK:   -0.33 KCAL/MOL
REMARK 927      BINDING AFFINITY PREDICTED BY RF-SCORE:    0.00 PKD
ROOT
HETATM    1  C   UNL     1      -9.462   9.148  69.540  1.00  0.00    -0.168 C  
HETATM    2  S   UNL     1      -7.665   9.283  69.721  1.00  0.00    -0.110 SA 
HETATM    3  C   UNL     1      -7.357   9.025  67.957  1.00  0.00    -0.084 C  
HETATM    4  C   UNL     1      -8.080   7.826  67.356  1.00  0.00    -0.123 C  
HETATM    5  O   UNL     1     -11.032   5.626  67.681  1.00  0.00    -0.185 OA 
HETATM    6  C   UNL     1      -9.231   7.291  67.868  1.00  0.00    -0.131 C  
HETATM    7  N   UNL     1      -9.775   7.829  69.009  1.00  0.00    -0.156 N  
HETATM    8  C   UNL     1     -10.281   8.755  70.856  1.00  0.00    -0.226 C  
HETATM    9  C   UNL     1      -9.877   6.095  67.180  1.00  0.00    -0.141 C  
HETATM   10  O   UNL     1     -11.531   6.621  69.908  1.00  0.00    -0.358 OA 
HETATM   11  C   UNL     1     -10.723   7.524  69.921  1.00  0.00    -0.246 C  
HETATM   12  O   UNL     1      -9.437   5.583  66.158  1.00  0.00    -0.156 OA 
ENDROOT
BRANCH   4  13
HETATM   13  C   UNL     1      -7.293   7.256  66.170  1.00  0.00    -0.075 C  
BRANCH  13  14
HETATM   14  S   UNL     1      -8.107   7.646  64.595  1.00  0.00    -0.070 SA 
BRANCH  14  15
HETATM   15  C   UNL     1      -6.961   8.749  63.917  1.00  0.00    -0.087 A  
HETATM   16  N   UNL     1      -5.656   8.673  64.035  1.00  0.00    -0.064 NA 
HETATM   17  N   UNL     1      -6.135  10.536  62.906  1.00  0.00    -0.145 NA 
HETATM   18  N   UNL     1      -5.156   9.794  63.410  1.00  0.00    -0.069 NA 
HETATM   19  C   UNL     1      -8.541  10.401  62.800  1.00  0.00    -0.199 C  
HETATM   20  N   UNL     1      -7.270   9.882  63.219  1.00  0.00    -0.126 NA 
ENDBRANCH  14  15
ENDBRANCH  13  14
ENDBRANCH   4  13
BRANCH   8  21
HETATM   21  O   UNL     1     -11.369   9.664  71.188  1.00  0.00    -0.327 OA 
HETATM   22  C   UNL     1     -11.580  10.742  70.278  1.00  0.00    -0.338 C  
ENDBRANCH   8  21
BRANCH   8  23
HETATM   23  N   UNL     1      -9.416   8.462  72.040  1.00  0.00    -0.241 N  
HETATM   24  C   UNL     1      -9.845   7.795  73.158  1.00  0.00    -0.298 C  
HETATM   25  H   UNL     1      -8.446   8.778  72.013  1.00  0.00     0.000 HD 
HETATM   26  O   UNL     1     -10.998   7.399  73.296  1.00  0.00    -0.376 OA 
BRANCH  24  27
HETATM   27  C   UNL     1      -8.817   7.647  74.263  1.00  0.00    -0.182 C  
BRANCH  27  28
HETATM   28  S   UNL     1      -7.130   7.764  73.579  1.00  0.00    -0.102 SA 
BRANCH  28  29
HETATM   29  C   UNL     1      -6.445   6.143  74.103  1.00  0.00    -0.071 C  
HETATM   30  C   UNL     1      -6.907   5.007  73.294  1.00  0.00    -0.074 C  
HETATM   31  N   UNL     1      -7.269   4.112  72.650  1.00  0.00    -0.064 NA 
ENDBRANCH  28  29
ENDBRANCH  27  28
ENDBRANCH  24  27
ENDBRANCH   8  23
TORSDOF 8
ENDMDL
MODEL      180
REMARK 921   NORMALIZED FREE ENERGY PREDICTED BY IDOCK:   -2.83 KCAL/MOL
REMARK 922        TOTAL FREE ENERGY PREDICTED BY IDOCK:   -5.25 KCAL/MOL
REMARK 923 INTER-LIGAND FREE ENERGY PREDICTED BY IDOCK:   -6.36 KCAL/MOL
REMARK 924 INTRA-LIGAND FREE ENERGY PREDICTED BY IDOCK:    1.11 KCAL/MOL
REMARK 927      BINDING AFFINITY PREDICTED BY RF-SCORE:    0.00 PKD
ROOT
HETATM    1  C   UNL     1      -7.490  16.946  69.273  1.00  0.00    -0.116 C  
HETATM    2  S   UNL     1      -8.572  17.723  68.046  1.00  0.00    -0.256 SA 
HETATM    3  C   UNL     1      -9.939  16.582  68.363  1.00  0.00    -0.250 C  
HETATM    4  C   UNL     1      -9.547  15.109  68.364  1.00  0.00    -0.212 C  
HETATM    5  O   UNL     1      -6.767  12.740  68.930  1.00  0.00    -0.089 OA 
HETATM    6  C   UNL     1      -8.285  14.653  68.631  1.00  0.00    -0.159 C  
HETATM    7  N   UNL     1      -7.283  15.556  68.891  1.00  0.00    -0.131 N  
HETATM    8  C   UNL     1      -5.919  17.177  69.086  1.00  0.00    -0.195 C  
HETATM    9  C   UNL     1      -8.006  13.155  68.615  1.00  0.00    -0.033 C  
HETATM   10  O   UNL     1      -5.161  14.641  69.014  1.00  0.00    -0.088 OA 
HETATM   11  C   UNL     1      -5.937  15.572  69.003  1.00  0.00    -0.104 C  
HETATM   12  O   UNL     1      -8.864  12.309  68.397  1.00  0.00    -0.184 OA 
ENDROOT
BRANCH   4  13
HETATM   13  C   UNL     1     -10.730  14.233  67.935  1.00  0.00    -0.240 C  
BRANCH  13  14
HETATM   14  S   UNL     1     -10.468  13.547  66.275  1.00  0.00    -0.295 SA 
BRANCH  14  15
HETATM   15  C   UNL     1     -10.837  14.930  65.304  1.00  0.00    -0.386 A  
HETATM   16  N   UNL     1     -10.395  16.151  65.504  1.00  0.00    -0.473 NA 
HETATM   17  N   UNL     1     -11.791  16.202  63.766  1.00  0.00    -0.780 NA 
HETATM   18  N   UNL     1     -11.003  16.931  64.547  1.00  0.00    -0.956 NA 
HETATM   19  C   UNL     1     -12.402  13.874  63.599  1.00  0.00    -0.122 C  
HETATM   20  N   UNL     1     -11.687  14.944  64.236  1.00  0.00    -0.303 NA 
ENDBRANCH  14  15
ENDBRANCH  13  14
ENDBRANCH   4  13
BRANCH   8  21
HETATM   21  O   UNL     1      -5.239  17.701  70.261  1.00  0.00    -0.205 OA 
HETATM   22  C   UNL     1      -5.188  16.831  71.391  1.00  0.00     0.076 C  
ENDBRANCH   8  21
BRANCH   8  23
HETATM   23  N   UNL     1      -5.566  17.940  67.848  1.00  0.00    -0.151 N  
HETATM   24  C   UNL     1      -5.465  19.307  67.792  1.00  0.00    -0.176 C  
HETATM   25  H   UNL     1      -5.389  17.411  66.994  1.00  0.00     0.000 HD 
HETATM   26  O   UNL     1      -5.684  20.031  68.756  1.00  0.00    -0.218 OA 
BRANCH  24  27
HETATM   27  C   UNL     1      -5.143  19.879  66.425  1.00  0.00    -0.161 C  
BRANCH  27  28
HETATM   28  S   UNL     1      -6.356  19.299  65.192  1.00  0.00    -0.260 SA 
BRANCH  28  29
HETATM   29  C   UNL     1      -7.577  20.669  65.255  1.00  0.00     0.407 C  
HETATM   30  C   UNL     1      -8.906  20.268  65.736  1.00  0.00     0.173 C  
HETATM   31  N   UNL     1      -9.953  19.949  66.122  1.00  0.00    -0.467 NA 
ENDBRANCH  28  29
ENDBRANCH  27  28
ENDBRANCH  24  27
ENDBRANCH   8  23
TORSDOF 8
ENDMDL
MODEL      181
REMARK 921   NORMALIZED FREE ENERGY PREDICTED BY IDOCK:   -2.59 KCAL/MOL
REMARK 922        TOTAL FREE ENERGY PREDICTED BY IDOCK:   -4.89 KCAL/MOL
REMARK 923 INTER-LIGAND FREE ENERGY PREDICTED BY IDOCK:   -5.34 KCAL/MOL
REMARK 924 INTRA-LIGAND FREE ENERGY PREDICTED BY IDOCK:    0.46 KCAL/MOL
REMARK 927      BINDING AFFINITY PREDICTED BY RF-SCORE:    0.00 PKD
ROOT
HETATM    1  C   UNL     1      -8.718  17.520  69.695  1.00  0.00     0.974 C  
HETATM    2  S   UNL     1     -10.235  17.943  68.800  1.00  0.00    -0.300 SA 
HETATM    3  C   UNL     1     -11.022  16.355  69.159  1.00  0.00    -0.324 C  
HETATM    4  C   UNL     1     -10.155  15.136  68.867  1.00  0.00    -0.238 C  
HETATM    5  O   UNL     1      -6.674  13.925  68.592  1.00  0.00    -0.085 OA 
HETATM    6  C   UNL     1      -8.786  15.158  68.848  1.00  0.00    -0.205 C  
HETATM    7  N   UNL     1      -8.128  16.343  69.074  1.00  0.00    -0.233 N  
HETATM    8  C   UNL     1      -7.402  18.331  69.288  1.00  0.00    -0.033 C  
HETATM    9  C   UNL     1      -8.016  13.877  68.554  1.00  0.00    -0.137 C  
HETATM   10  O   UNL     1      -5.846  16.270  68.700  1.00  0.00    -0.104 OA 
HETATM   11  C   UNL     1      -6.879  16.845  68.962  1.00  0.00    -0.224 C  
HETATM   12  O   UNL     1      -8.554  12.795  68.353  1.00  0.00    -0.177 OA 
ENDROOT
BRANCH   4  13
HETATM   13  C   UNL     1     -11.023  13.925  68.510  1.00  0.00    -0.257 C  
BRANCH  13  14
HETATM   14  S   UNL     1     -11.830  14.149  66.899  1.00  0.00    -0.446 SA 
BRANCH  14  15
HETATM   15  C   UNL     1     -11.076  12.882  65.995  1.00  0.00    -0.281 A  
HETATM   16  N   UNL     1     -10.553  12.997  64.796  1.00  0.00    -0.341 NA 
HETATM   17  N   UNL     1     -10.400  10.858  65.408  1.00  0.00    -0.272 NA 
HETATM   18  N   UNL     1     -10.146  11.731  64.441  1.00  0.00    -0.271 NA 
HETATM   19  C   UNL     1     -11.372  10.942  67.614  1.00  0.00    -0.270 C  
HETATM   20  N   UNL     1     -10.982  11.577  66.388  1.00  0.00    -0.291 NA 
ENDBRANCH  14  15
ENDBRANCH  13  14
ENDBRANCH   4  13
BRANCH   8  21
HETATM   21  O   UNL     1      -6.713  18.968  70.401  1.00  0.00     0.206 OA 
HETATM   22  C   UNL     1      -5.364  19.363  70.156  1.00  0.00    -0.210 C  
ENDBRANCH   8  21
BRANCH   8  23
HETATM   23  N   UNL     1      -7.603  19.271  68.142  1.00  0.00    -0.279 N  
HETATM   24  C   UNL     1      -7.728  18.873  66.836  1.00  0.00    -0.239 C  
HETATM   25  H   UNL     1      -7.652  20.270  68.346  1.00  0.00     0.000 HD 
HETATM   26  O   UNL     1      -7.658  17.700  66.488  1.00  0.00    -0.220 OA 
BRANCH  24  27
HETATM   27  C   UNL     1      -7.877  19.994  65.826  1.00  0.00    -0.198 C  
BRANCH  27  28
HETATM   28  S   UNL     1      -6.393  21.056  65.832  1.00  0.00    -0.140 SA 
BRANCH  28  29
HETATM   29  C   UNL     1      -5.193  19.954  64.985  1.00  0.00    -0.156 C  
HETATM   30  C   UNL     1      -5.452  19.774  63.550  1.00  0.00    -0.277 C  
HETATM   31  N   UNL     1      -5.655  19.638  62.416  1.00  0.00    -0.316 NA 
ENDBRANCH  28  29
ENDBRANCH  27  28
ENDBRANCH  24  27
ENDBRANCH   8  23
TORSDOF 8
ENDMDL
MODEL      182
REMARK 921   NORMALIZED FREE ENERGY PREDICTED BY IDOCK:   -2.58 KCAL/MOL
REMARK 922        TOTAL FREE ENERGY PREDICTED BY IDOCK:   -4.88 KCAL/MOL
REMARK 923 INTER-LIGAND FREE ENERGY PREDICTED BY IDOCK:   -4.62 KCAL/MOL
REMARK 924 INTRA-LIGAND FREE ENERGY PREDICTED BY IDOCK:   -0.26 KCAL/MOL
REMARK 927      BINDING AFFINITY PREDICTED BY RF-SCORE:    0.00 PKD
ROOT
HETATM    1  C   UNL     1      -9.420   7.900  68.155  1.00  0.00    -0.147 C  
HETATM    2  S   UNL     1     -10.951   7.239  67.450  1.00  0.00    -0.089 SA 
HETATM    3  C   UNL     1     -10.184   5.672  66.971  1.00  0.00    -0.222 C  
HETATM    4  C   UNL     1      -8.871   5.815  66.211  1.00  0.00    -0.140 C  
HETATM    5  O   UNL     1      -5.942   8.001  65.661  1.00  0.00    -0.037 OA 
HETATM    6  C   UNL     1      -8.047   6.904  66.305  1.00  0.00    -0.112 C  
HETATM    7  N   UNL     1      -8.415   7.960  67.103  1.00  0.00    -0.116 N  
HETATM    8  C   UNL     1      -9.319   9.492  68.270  1.00  0.00    -0.133 C  
HETATM    9  C   UNL     1      -6.750   6.938  65.507  1.00  0.00    -0.051 C  
HETATM   10  O   UNL     1      -7.074   9.835  66.908  1.00  0.00    -0.087 OA 
HETATM   11  C   UNL     1      -8.039   9.237  67.330  1.00  0.00    -0.110 C  
HETATM   12  O   UNL     1      -6.373   6.022  64.788  1.00  0.00    -0.032 OA 
ENDROOT
BRANCH   4  13
HETATM   13  C   UNL     1      -8.656   4.625  65.269  1.00  0.00    -0.133 C  
BRANCH  13  14
HETATM   14  S   UNL     1      -7.484   3.433  65.977  1.00  0.00    -0.074 SA 
BRANCH  14  15
HETATM   15  C   UNL     1      -8.275   3.066  67.470  1.00  0.00    -0.081 A  
HETATM   16  N   UNL     1      -9.330   2.299  67.615  1.00  0.00    -0.168 NA 
HETATM   17  N   UNL     1      -8.811   3.135  69.616  1.00  0.00    -0.076 NA 
HETATM   18  N   UNL     1      -9.658   2.359  68.951  1.00  0.00    -0.086 NA 
HETATM   19  C   UNL     1      -6.855   4.440  69.075  1.00  0.00    -0.047 C  
HETATM   20  N   UNL     1      -7.939   3.580  68.690  1.00  0.00    -0.062 NA 
ENDBRANCH  14  15
ENDBRANCH  13  14
ENDBRANCH   4  13
BRANCH   8  21
HETATM   21  O   UNL     1      -8.987   9.985  69.599  1.00  0.00    -0.198 OA 
HETATM   22  C   UNL     1      -7.602   9.978  69.939  1.00  0.00    -0.170 C  
ENDBRANCH   8  21
BRANCH   8  23
HETATM   23  N   UNL     1     -10.489  10.214  67.681  1.00  0.00    -0.226 N  
HETATM   24  C   UNL     1     -10.452  11.517  67.256  1.00  0.00    -0.212 C  
HETATM   25  H   UNL     1     -11.368   9.705  67.589  1.00  0.00     0.000 HD 
HETATM   26  O   UNL     1      -9.451  12.220  67.348  1.00  0.00    -0.175 OA 
BRANCH  24  27
HETATM   27  C   UNL     1     -11.765  12.069  66.735  1.00  0.00    -0.264 C  
BRANCH  27  28
HETATM   28  S   UNL     1     -11.892  13.853  67.099  1.00  0.00    -0.420 SA 
BRANCH  28  29
HETATM   29  C   UNL     1     -11.951  13.814  68.934  1.00  0.00    -0.359 C  
HETATM   30  C   UNL     1     -11.116  14.835  69.583  1.00  0.00    -0.272 C  
HETATM   31  N   UNL     1     -10.460  15.646  70.092  1.00  0.00    -0.316 NA 
ENDBRANCH  28  29
ENDBRANCH  27  28
ENDBRANCH  24  27
ENDBRANCH   8  23
TORSDOF 8
ENDMDL
MODEL      183
REMARK 921   NORMALIZED FREE ENERGY PREDICTED BY IDOCK:   -2.46 KCAL/MOL
REMARK 922        TOTAL FREE ENERGY PREDICTED BY IDOCK:   -4.70 KCAL/MOL
REMARK 923 INTER-LIGAND FREE ENERGY PREDICTED BY IDOCK:   -5.74 KCAL/MOL
REMARK 924 INTRA-LIGAND FREE ENERGY PREDICTED BY IDOCK:    1.04 KCAL/MOL
REMARK 927      BINDING AFFINITY PREDICTED BY RF-SCORE:    0.00 PKD
ROOT
HETATM    1  C   UNL     1      -7.994  17.221  69.319  1.00  0.00     0.113 C  
HETATM    2  S   UNL     1      -9.768  17.001  69.029  1.00  0.00    -0.171 SA 
HETATM    3  C   UNL     1      -9.742  15.256  69.504  1.00  0.00    -0.219 C  
HETATM    4  C   UNL     1      -8.646  14.433  68.837  1.00  0.00    -0.064 C  
HETATM    5  O   UNL     1      -5.290  14.589  67.298  1.00  0.00    -0.286 OA 
HETATM    6  C   UNL     1      -7.479  14.961  68.356  1.00  0.00    -0.115 C  
HETATM    7  N   UNL     1      -7.266  16.316  68.440  1.00  0.00    -0.146 N  
HETATM    8  C   UNL     1      -7.294  18.440  68.556  1.00  0.00    -0.287 C  
HETATM    9  C   UNL     1      -6.445  14.044  67.715  1.00  0.00    -0.170 C  
HETATM   10  O   UNL     1      -5.397  17.076  67.310  1.00  0.00    -0.121 OA 
HETATM   11  C   UNL     1      -6.410  17.240  67.953  1.00  0.00    -0.149 C  
HETATM   12  O   UNL     1      -6.582  12.831  67.621  1.00  0.00    -0.119 OA 
ENDROOT
BRANCH   4  13
HETATM   13  C   UNL     1      -9.075  12.968  68.699  1.00  0.00     0.049 C  
BRANCH  13  14
HETATM   14  S   UNL     1     -10.746  12.839  68.000  1.00  0.00    -0.239 SA 
BRANCH  14  15
HETATM   15  C   UNL     1     -11.627  12.314  69.393  1.00  0.00    -0.314 A  
HETATM   16  N   UNL     1     -12.274  13.089  70.232  1.00  0.00    -0.329 NA 
HETATM   17  N   UNL     1     -12.414  10.995  70.986  1.00  0.00    -0.389 NA 
HETATM   18  N   UNL     1     -12.751  12.257  71.221  1.00  0.00    -0.322 NA 
HETATM   19  C   UNL     1     -11.204   9.808  69.269  1.00  0.00    -0.088 C  
HETATM   20  N   UNL     1     -11.710  11.025  69.837  1.00  0.00    -0.314 NA 
ENDBRANCH  14  15
ENDBRANCH  13  14
ENDBRANCH   4  13
BRANCH   8  21
HETATM   21  O   UNL     1      -6.548  19.347  69.417  1.00  0.00    -0.308 OA 
HETATM   22  C   UNL     1      -5.750  20.324  68.751  1.00  0.00    -0.278 C  
ENDBRANCH   8  21
BRANCH   8  23
HETATM   23  N   UNL     1      -8.208  19.174  67.628  1.00  0.00    -0.280 N  
HETATM   24  C   UNL     1      -7.984  19.314  66.282  1.00  0.00    -0.308 C  
HETATM   25  H   UNL     1      -9.050  19.597  68.020  1.00  0.00     0.000 HD 
HETATM   26  O   UNL     1      -6.990  18.866  65.722  1.00  0.00    -0.260 OA 
BRANCH  24  27
HETATM   27  C   UNL     1      -9.013  20.139  65.534  1.00  0.00     0.461 C  
BRANCH  27  28
HETATM   28  S   UNL     1     -10.598  20.147  66.437  1.00  0.00    -0.093 SA 
BRANCH  28  29
HETATM   29  C   UNL     1     -10.830  18.348  66.720  1.00  0.00    -0.094 C  
HETATM   30  C   UNL     1     -10.980  17.561  65.488  1.00  0.00     0.174 C  
HETATM   31  N   UNL     1     -11.092  16.940  64.514  1.00  0.00    -1.071 NA 
ENDBRANCH  28  29
ENDBRANCH  27  28
ENDBRANCH  24  27
ENDBRANCH   8  23
TORSDOF 8
ENDMDL
MODEL      184
REMARK 921   NORMALIZED FREE ENERGY PREDICTED BY IDOCK:   -2.30 KCAL/MOL
REMARK 922        TOTAL FREE ENERGY PREDICTED BY IDOCK:   -4.47 KCAL/MOL
REMARK 923 INTER-LIGAND FREE ENERGY PREDICTED BY IDOCK:   -5.33 KCAL/MOL
REMARK 924 INTRA-LIGAND FREE ENERGY PREDICTED BY IDOCK:    0.86 KCAL/MOL
REMARK 927      BINDING AFFINITY PREDICTED BY RF-SCORE:    0.00 PKD
ROOT
HETATM    1  C   UNL     1      -7.992  17.220  69.317  1.00  0.00     0.113 C  
HETATM    2  S   UNL     1      -9.763  16.986  69.022  1.00  0.00    -0.171 SA 
HETATM    3  C   UNL     1      -9.724  15.239  69.493  1.00  0.00    -0.219 C  
HETATM    4  C   UNL     1      -8.619  14.428  68.826  1.00  0.00    -0.125 C  
HETATM    5  O   UNL     1      -5.261  14.617  67.296  1.00  0.00    -0.290 OA 
HETATM    6  C   UNL     1      -7.455  14.967  68.349  1.00  0.00    -0.113 C  
HETATM    7  N   UNL     1      -7.255  16.324  68.438  1.00  0.00    -0.146 N  
HETATM    8  C   UNL     1      -7.301  18.447  68.560  1.00  0.00    -0.287 C  
HETATM    9  C   UNL     1      -6.412  14.061  67.708  1.00  0.00    -0.170 C  
HETATM   10  O   UNL     1      -5.389  17.103  67.314  1.00  0.00    -0.119 OA 
HETATM   11  C   UNL     1      -6.405  17.256  67.955  1.00  0.00    -0.149 C  
HETATM   12  O   UNL     1      -6.539  12.847  67.611  1.00  0.00    -0.127 OA 
ENDROOT
BRANCH   4  13
HETATM   13  C   UNL     1      -9.036  12.960  68.682  1.00  0.00     0.051 C  
BRANCH  13  14
HETATM   14  S   UNL     1     -10.703  12.818  67.979  1.00  0.00    -0.239 SA 
BRANCH  14  15
HETATM   15  C   UNL     1     -10.621  11.229  67.301  1.00  0.00    -0.233 A  
HETATM   16  N   UNL     1     -11.010  10.120  67.887  1.00  0.00    -0.285 NA 
HETATM   17  N   UNL     1     -10.121   9.577  65.915  1.00  0.00    -0.273 NA 
HETATM   18  N   UNL     1     -10.685   9.102  67.019  1.00  0.00    -0.193 NA 
HETATM   19  C   UNL     1      -9.546  11.757  65.057  1.00  0.00    -0.130 C  
HETATM   20  N   UNL     1     -10.081  10.914  66.087  1.00  0.00    -0.232 NA 
ENDBRANCH  14  15
ENDBRANCH  13  14
ENDBRANCH   4  13
BRANCH   8  21
HETATM   21  O   UNL     1      -6.565  19.358  69.424  1.00  0.00    -0.308 OA 
HETATM   22  C   UNL     1      -5.774  20.343  68.763  1.00  0.00    -0.297 C  
ENDBRANCH   8  21
BRANCH   8  23
HETATM   23  N   UNL     1      -8.219  19.176  67.630  1.00  0.00    -0.280 N  
HETATM   24  C   UNL     1      -7.990  19.326  66.287  1.00  0.00    -0.308 C  
HETATM   25  H   UNL     1      -9.067  19.586  68.021  1.00  0.00     0.000 HD 
HETATM   26  O   UNL     1      -6.988  18.893  65.729  1.00  0.00    -0.260 OA 
BRANCH  24  27
HETATM   27  C   UNL     1      -9.025  20.143  65.538  1.00  0.00     0.461 C  
BRANCH  27  28
HETATM   28  S   UNL     1     -10.617  20.120  66.428  1.00  0.00    -0.093 SA 
BRANCH  28  29
HETATM   29  C   UNL     1     -10.829  18.314  66.684  1.00  0.00    -0.031 C  
HETATM   30  C   UNL     1     -10.961  17.542  65.440  1.00  0.00     0.194 C  
HETATM   31  N   UNL     1     -11.058  16.935  64.456  1.00  0.00    -1.071 NA 
ENDBRANCH  28  29
ENDBRANCH  27  28
ENDBRANCH  24  27
ENDBRANCH   8  23
TORSDOF 8
ENDMDL
MODEL      185
REMARK 921   NORMALIZED FREE ENERGY PREDICTED BY IDOCK:   -2.29 KCAL/MOL
REMARK 922        TOTAL FREE ENERGY PREDICTED BY IDOCK:   -4.45 KCAL/MOL
REMARK 923 INTER-LIGAND FREE ENERGY PREDICTED BY IDOCK:   -3.86 KCAL/MOL
REMARK 924 INTRA-LIGAND FREE ENERGY PREDICTED BY IDOCK:   -0.59 KCAL/MOL
REMARK 927      BINDING AFFINITY PREDICTED BY RF-SCORE:    0.00 PKD
ROOT
HETATM    1  C   UNL     1      -8.172   5.464  68.542  1.00  0.00    -0.094 C  
HETATM    2  S   UNL     1      -6.945   5.386  67.213  1.00  0.00    -0.066 SA 
HETATM    3  C   UNL     1      -6.315   7.049  67.546  1.00  0.00    -0.046 C  
HETATM    4  C   UNL     1      -7.392   8.121  67.670  1.00  0.00    -0.093 C  
HETATM    5  O   UNL     1     -10.931   8.737  68.535  1.00  0.00    -0.032 OA 
HETATM    6  C   UNL     1      -8.687   7.867  68.029  1.00  0.00    -0.125 C  
HETATM    7  N   UNL     1      -9.078   6.572  68.270  1.00  0.00    -0.120 N  
HETATM    8  C   UNL     1      -9.424   4.478  68.413  1.00  0.00    -0.151 C  
HETATM    9  C   UNL     1      -9.681   9.017  68.133  1.00  0.00    -0.152 C  
HETATM   10  O   UNL     1     -11.355   6.284  68.559  1.00  0.00    -0.324 OA 
HETATM   11  C   UNL     1     -10.221   5.874  68.445  1.00  0.00    -0.191 C  
HETATM   12  O   UNL     1      -9.382  10.188  67.935  1.00  0.00    -0.140 OA 
ENDROOT
BRANCH   4  13
HETATM   13  C   UNL     1      -6.845   9.490  67.249  1.00  0.00    -0.084 C  
BRANCH  13  14
HETATM   14  S   UNL     1      -6.289   9.470  65.521  1.00  0.00    -0.071 SA 
BRANCH  14  15
HETATM   15  C   UNL     1      -7.674  10.151  64.741  1.00  0.00    -0.141 A  
HETATM   16  N   UNL     1      -8.641  10.817  65.330  1.00  0.00    -0.175 NA 
HETATM   17  N   UNL     1      -9.160  10.622  63.170  1.00  0.00    -0.239 NA 
HETATM   18  N   UNL     1      -9.561  11.094  64.344  1.00  0.00    -0.244 NA 
HETATM   19  C   UNL     1      -7.236   9.425  62.342  1.00  0.00    -0.098 C  
HETATM   20  N   UNL     1      -7.974  10.031  63.414  1.00  0.00    -0.151 NA 
ENDBRANCH  14  15
ENDBRANCH  13  14
ENDBRANCH   4  13
BRANCH   8  21
HETATM   21  O   UNL     1      -9.658   3.638  69.579  1.00  0.00    -0.185 OA 
HETATM   22  C   UNL     1      -9.415   4.248  70.846  1.00  0.00    -0.169 C  
ENDBRANCH   8  21
BRANCH   8  23
HETATM   23  N   UNL     1      -9.441   3.688  67.143  1.00  0.00    -0.205 N  
HETATM   24  C   UNL     1      -8.853   2.458  66.996  1.00  0.00    -0.133 C  
HETATM   25  H   UNL     1      -9.920   4.090  66.336  1.00  0.00     0.000 HD 
HETATM   26  O   UNL     1      -8.233   1.905  67.897  1.00  0.00    -0.058 OA 
BRANCH  24  27
HETATM   27  C   UNL     1      -8.947   1.854  65.608  1.00  0.00    -0.109 C  
BRANCH  27  28
HETATM   28  S   UNL     1      -9.468   3.118  64.399  1.00  0.00    -0.149 SA 
BRANCH  28  29
HETATM   29  C   UNL     1      -7.998   3.152  63.300  1.00  0.00    -0.069 C  
HETATM   30  C   UNL     1      -6.714   3.185  64.014  1.00  0.00    -0.036 C  
HETATM   31  N   UNL     1      -5.701   3.205  64.581  1.00  0.00    -0.013 NA 
ENDBRANCH  28  29
ENDBRANCH  27  28
ENDBRANCH  24  27
ENDBRANCH   8  23
TORSDOF 8
ENDMDL
MODEL      186
REMARK 921   NORMALIZED FREE ENERGY PREDICTED BY IDOCK:   -2.20 KCAL/MOL
REMARK 922        TOTAL FREE ENERGY PREDICTED BY IDOCK:   -4.32 KCAL/MOL
REMARK 923 INTER-LIGAND FREE ENERGY PREDICTED BY IDOCK:   -3.67 KCAL/MOL
REMARK 924 INTRA-LIGAND FREE ENERGY PREDICTED BY IDOCK:   -0.65 KCAL/MOL
REMARK 927      BINDING AFFINITY PREDICTED BY RF-SCORE:    0.00 PKD
ROOT
HETATM    1  C   UNL     1      -9.273   5.407  70.768  1.00  0.00    -0.149 C  
HETATM    2  S   UNL     1     -10.455   5.406  69.396  1.00  0.00    -0.216 SA 
HETATM    3  C   UNL     1      -9.923   3.786  68.793  1.00  0.00     0.290 C  
HETATM    4  C   UNL     1      -8.415   3.631  68.638  1.00  0.00    -0.104 C  
HETATM    5  O   UNL     1      -5.133   4.822  69.850  1.00  0.00     0.000 OA 
HETATM    6  C   UNL     1      -7.495   4.363  69.337  1.00  0.00    -0.055 C  
HETATM    7  N   UNL     1      -7.927   5.324  70.219  1.00  0.00    -0.082 N  
HETATM    8  C   UNL     1      -8.883   6.835  71.372  1.00  0.00    -0.131 C  
HETATM    9  C   UNL     1      -6.008   4.119  69.111  1.00  0.00    -0.023 C  
HETATM   10  O   UNL     1      -6.256   6.673  71.080  1.00  0.00    -0.038 OA 
HETATM   11  C   UNL     1      -7.414   6.352  70.929  1.00  0.00    -0.088 C  
HETATM   12  O   UNL     1      -5.571   3.272  68.343  1.00  0.00    -0.016 OA 
ENDROOT
BRANCH   4  13
HETATM   13  C   UNL     1      -8.084   2.620  67.534  1.00  0.00    -0.069 C  
BRANCH  13  14
HETATM   14  S   UNL     1      -7.654   3.461  65.983  1.00  0.00    -0.081 SA 
BRANCH  14  15
HETATM   15  C   UNL     1      -9.120   3.242  65.093  1.00  0.00    -0.146 A  
HETATM   16  N   UNL     1      -9.397   2.232  64.302  1.00  0.00    -0.128 NA 
HETATM   17  N   UNL     1     -11.101   3.668  64.202  1.00  0.00    -0.257 NA 
HETATM   18  N   UNL     1     -10.626   2.514  63.749  1.00  0.00    -0.133 NA 
HETATM   19  C   UNL     1     -10.361   5.365  65.749  1.00  0.00     0.124 C  
HETATM   20  N   UNL     1     -10.159   4.128  65.049  1.00  0.00    -0.213 NA 
ENDBRANCH  14  15
ENDBRANCH  13  14
ENDBRANCH   4  13
BRANCH   8  21
HETATM   21  O   UNL     1      -9.056   6.954  72.812  1.00  0.00    -0.134 OA 
HETATM   22  C   UNL     1     -10.404   7.012  73.275  1.00  0.00    -0.309 C  
ENDBRANCH   8  21
BRANCH   8  23
HETATM   23  N   UNL     1      -9.494   7.986  70.637  1.00  0.00    -0.161 N  
HETATM   24  C   UNL     1      -8.933   9.236  70.566  1.00  0.00    -0.250 C  
HETATM   25  H   UNL     1     -10.382   7.832  70.160  1.00  0.00     0.000 HD 
HETATM   26  O   UNL     1      -7.883   9.527  71.127  1.00  0.00    -0.326 OA 
BRANCH  24  27
HETATM   27  C   UNL     1      -9.744  10.271  69.810  1.00  0.00    -0.144 C  
BRANCH  27  28
HETATM   28  S   UNL     1     -10.713   9.474  68.485  1.00  0.00    -0.142 SA 
BRANCH  28  29
HETATM   29  C   UNL     1      -9.794  10.055  67.006  1.00  0.00    -0.189 C  
HETATM   30  C   UNL     1     -10.294  11.318  66.446  1.00  0.00    -0.245 C  
HETATM   31  N   UNL     1     -10.687  12.319  66.009  1.00  0.00    -0.254 NA 
ENDBRANCH  28  29
ENDBRANCH  27  28
ENDBRANCH  24  27
ENDBRANCH   8  23
TORSDOF 8
ENDMDL
MODEL      187
REMARK 921   NORMALIZED FREE ENERGY PREDICTED BY IDOCK:   -2.17 KCAL/MOL
REMARK 922        TOTAL FREE ENERGY PREDICTED BY IDOCK:   -4.28 KCAL/MOL
REMARK 923 INTER-LIGAND FREE ENERGY PREDICTED BY IDOCK:   -4.62 KCAL/MOL
REMARK 924 INTRA-LIGAND FREE ENERGY PREDICTED BY IDOCK:    0.34 KCAL/MOL
REMARK 927      BINDING AFFINITY PREDICTED BY RF-SCORE:    0.00 PKD
ROOT
HETATM    1  C   UNL     1      -8.307  15.136  67.723  1.00  0.00    -0.151 C  
HETATM    2  S   UNL     1      -8.739  15.551  69.432  1.00  0.00    -0.218 SA 
HETATM    3  C   UNL     1      -9.726  14.052  69.663  1.00  0.00     0.793 C  
HETATM    4  C   UNL     1     -10.737  13.782  68.555  1.00  0.00    -0.274 C  
HETATM    5  O   UNL     1     -11.499  14.345  64.982  1.00  0.00    -0.340 OA 
HETATM    6  C   UNL     1     -10.612  14.250  67.274  1.00  0.00    -0.278 C  
HETATM    7  N   UNL     1      -9.535  15.037  66.947  1.00  0.00    -0.227 N  
HETATM    8  C   UNL     1      -7.873  16.355  66.783  1.00  0.00    -0.266 C  
HETATM    9  C   UNL     1     -11.679  13.910  66.241  1.00  0.00    -0.383 C  
HETATM   10  O   UNL     1      -9.638  15.993  64.842  1.00  0.00     0.015 OA 
HETATM   11  C   UNL     1      -9.132  15.831  65.931  1.00  0.00    -0.265 C  
HETATM   12  O   UNL     1     -12.653  13.207  66.480  1.00  0.00    -0.301 OA 
ENDROOT
BRANCH   4  13
HETATM   13  C   UNL     1     -11.941  13.004  69.096  1.00  0.00    -0.271 C  
BRANCH  13  14
HETATM   14  S   UNL     1     -12.003  11.327  68.403  1.00  0.00    -0.047 SA 
BRANCH  14  15
HETATM   15  C   UNL     1     -10.781  10.553  69.351  1.00  0.00    -0.241 A  
HETATM   16  N   UNL     1     -10.915  10.134  70.588  1.00  0.00    -0.314 NA 
HETATM   17  N   UNL     1      -8.803   9.774  69.969  1.00  0.00    -0.221 NA 
HETATM   18  N   UNL     1      -9.677   9.662  70.962  1.00  0.00    -0.115 NA 
HETATM   19  C   UNL     1      -8.849  10.577  67.694  1.00  0.00    -0.131 C  
HETATM   20  N   UNL     1      -9.493  10.331  68.954  1.00  0.00    -0.178 NA 
ENDBRANCH  14  15
ENDBRANCH  13  14
ENDBRANCH   4  13
BRANCH   8  21
HETATM   21  O   UNL     1      -6.593  16.179  66.112  1.00  0.00     0.341 OA 
HETATM   22  C   UNL     1      -5.450  16.098  66.962  1.00  0.00     0.161 C  
ENDBRANCH   8  21
BRANCH   8  23
HETATM   23  N   UNL     1      -7.980  17.693  67.443  1.00  0.00    -0.204 N  
HETATM   24  C   UNL     1      -7.600  18.872  66.854  1.00  0.00    -0.229 C  
HETATM   25  H   UNL     1      -8.358  17.730  68.390  1.00  0.00     0.000 HD 
HETATM   26  O   UNL     1      -7.110  18.928  65.732  1.00  0.00    -0.305 OA 
BRANCH  24  27
HETATM   27  C   UNL     1      -7.748  20.108  67.720  1.00  0.00    -0.285 C  
BRANCH  27  28
HETATM   28  S   UNL     1      -8.890  19.781  69.104  1.00  0.00     0.225 SA 
BRANCH  28  29
HETATM   29  C   UNL     1     -10.487  20.268  68.340  1.00  0.00    -0.088 C  
HETATM   30  C   UNL     1     -10.568  20.004  66.896  1.00  0.00    -0.327 C  
HETATM   31  N   UNL     1     -10.631  19.789  65.758  1.00  0.00    -0.498 NA 
ENDBRANCH  28  29
ENDBRANCH  27  28
ENDBRANCH  24  27
ENDBRANCH   8  23
TORSDOF 8
ENDMDL
MODEL      188
REMARK 921   NORMALIZED FREE ENERGY PREDICTED BY IDOCK:   -1.83 KCAL/MOL
REMARK 922        TOTAL FREE ENERGY PREDICTED BY IDOCK:   -3.78 KCAL/MOL
REMARK 923 INTER-LIGAND FREE ENERGY PREDICTED BY IDOCK:   -3.07 KCAL/MOL
REMARK 924 INTRA-LIGAND FREE ENERGY PREDICTED BY IDOCK:   -0.71 KCAL/MOL
REMARK 927      BINDING AFFINITY PREDICTED BY RF-SCORE:    0.00 PKD
ROOT
HETATM    1  C   UNL     1      -9.493   5.729  70.632  1.00  0.00    -0.164 C  
HETATM    2  S   UNL     1      -9.561   5.975  68.839  1.00  0.00    -0.129 SA 
HETATM    3  C   UNL     1      -9.792   4.214  68.494  1.00  0.00    -0.015 C  
HETATM    4  C   UNL     1      -8.807   3.295  69.206  1.00  0.00    -0.156 C  
HETATM    5  O   UNL     1      -6.623   2.949  72.167  1.00  0.00    -0.014 OA 
HETATM    6  C   UNL     1      -8.160   3.618  70.368  1.00  0.00    -0.053 C  
HETATM    7  N   UNL     1      -8.371   4.852  70.935  1.00  0.00    -0.104 N  
HETATM    8  C   UNL     1      -8.762   6.871  71.480  1.00  0.00    -0.122 C  
HETATM    9  C   UNL     1      -7.202   2.617  71.001  1.00  0.00    -0.033 C  
HETATM   10  O   UNL     1      -6.976   5.352  72.711  1.00  0.00    -0.078 OA 
HETATM   11  C   UNL     1      -7.835   5.626  71.903  1.00  0.00    -0.106 C  
HETATM   12  O   UNL     1      -6.985   1.504  70.539  1.00  0.00    -0.032 OA 
ENDROOT
BRANCH   4  13
HETATM   13  C   UNL     1      -8.577   2.015  68.394  1.00  0.00    -0.071 C  
BRANCH  13  14
HETATM   14  S   UNL     1      -7.140   2.185  67.297  1.00  0.00    -0.048 SA 
BRANCH  14  15
HETATM   15  C   UNL     1      -7.635   3.542  66.345  1.00  0.00    -0.077 A  
HETATM   16  N   UNL     1      -8.464   3.507  65.327  1.00  0.00    -0.105 NA 
HETATM   17  N   UNL     1      -7.721   5.600  65.536  1.00  0.00    -0.087 NA 
HETATM   18  N   UNL     1      -8.501   4.790  64.829  1.00  0.00    -0.135 NA 
HETATM   19  C   UNL     1      -6.286   5.387  67.464  1.00  0.00    -0.039 C  
HETATM   20  N   UNL     1      -7.178   4.820  66.491  1.00  0.00    -0.075 NA 
ENDBRANCH  14  15
ENDBRANCH  13  14
ENDBRANCH   4  13
BRANCH   8  21
HETATM   21  O   UNL     1      -9.553   7.416  72.573  1.00  0.00    -0.148 OA 
HETATM   22  C   UNL     1     -10.841   6.833  72.762  1.00  0.00    -0.262 C  
ENDBRANCH   8  21
BRANCH   8  23
HETATM   23  N   UNL     1      -8.151   7.947  70.640  1.00  0.00    -0.100 N  
HETATM   24  C   UNL     1      -7.213   8.838  71.096  1.00  0.00    -0.093 C  
HETATM   25  H   UNL     1      -8.450   8.023  69.668  1.00  0.00     0.000 HD 
HETATM   26  O   UNL     1      -6.810   8.845  72.254  1.00  0.00    -0.272 OA 
BRANCH  24  27
HETATM   27  C   UNL     1      -6.762   9.879  70.091  1.00  0.00    -0.112 C  
BRANCH  27  28
HETATM   28  S   UNL     1      -6.847   9.206  68.398  1.00  0.00    -0.064 SA 
BRANCH  28  29
HETATM   29  C   UNL     1      -5.451  10.103  67.613  1.00  0.00    -0.041 C  
HETATM   30  C   UNL     1      -5.777  11.472  67.192  1.00  0.00    -0.108 C  
HETATM   31  N   UNL     1      -6.036  12.556  66.866  1.00  0.00    -0.222 NA 
ENDBRANCH  28  29
ENDBRANCH  27  28
ENDBRANCH  24  27
ENDBRANCH   8  23
TORSDOF 8
ENDMDL
MODEL      189
REMARK 921   NORMALIZED FREE ENERGY PREDICTED BY IDOCK:   -1.46 KCAL/MOL
REMARK 922        TOTAL FREE ENERGY PREDICTED BY IDOCK:   -3.24 KCAL/MOL
REMARK 923 INTER-LIGAND FREE ENERGY PREDICTED BY IDOCK:   -3.73 KCAL/MOL
REMARK 924 INTRA-LIGAND FREE ENERGY PREDICTED BY IDOCK:    0.49 KCAL/MOL
REMARK 927      BINDING AFFINITY PREDICTED BY RF-SCORE:    0.00 PKD
ROOT
HETATM    1  C   UNL     1      -8.059   4.895  68.999  1.00  0.00    -0.079 C  
HETATM    2  S   UNL     1      -6.725   5.117  67.794  1.00  0.00    -0.056 SA 
HETATM    3  C   UNL     1      -6.098   6.611  68.598  1.00  0.00    -0.026 C  
HETATM    4  C   UNL     1      -7.162   7.655  68.916  1.00  0.00    -0.081 C  
HETATM    5  O   UNL     1     -10.751   8.161  69.637  1.00  0.00    -0.229 OA 
HETATM    6  C   UNL     1      -8.488   7.366  69.095  1.00  0.00    -0.133 C  
HETATM    7  N   UNL     1      -8.919   6.068  68.958  1.00  0.00    -0.124 N  
HETATM    8  C   UNL     1      -9.312   4.024  68.521  1.00  0.00    -0.160 C  
HETATM    9  C   UNL     1      -9.466   8.487  69.420  1.00  0.00    -0.161 C  
HETATM   10  O   UNL     1     -11.217   5.804  68.985  1.00  0.00    -0.236 OA 
HETATM   11  C   UNL     1     -10.085   5.394  68.855  1.00  0.00    -0.195 C  
HETATM   12  O   UNL     1      -9.132   9.657  69.559  1.00  0.00    -0.170 OA 
ENDROOT
BRANCH   4  13
HETATM   13  C   UNL     1      -6.559   9.064  68.912  1.00  0.00    -0.052 C  
BRANCH  13  14
HETATM   14  S   UNL     1      -6.544   9.765  67.237  1.00  0.00    -0.071 SA 
BRANCH  14  15
HETATM   15  C   UNL     1      -6.035  11.382  67.580  1.00  0.00    -0.054 A  
HETATM   16  N   UNL     1      -5.719  12.295  66.692  1.00  0.00    -0.188 NA 
HETATM   17  N   UNL     1      -5.373  13.161  68.717  1.00  0.00    -0.071 NA 
HETATM   18  N   UNL     1      -5.302  13.391  67.412  1.00  0.00    -0.345 NA 
HETATM   19  C   UNL     1      -6.062  11.326  70.124  1.00  0.00    -0.149 C  
HETATM   20  N   UNL     1      -5.837  11.901  68.828  1.00  0.00    -0.050 NA 
ENDBRANCH  14  15
ENDBRANCH  13  14
ENDBRANCH   4  13
BRANCH   8  21
HETATM   21  O   UNL     1      -9.657   2.920  69.405  1.00  0.00    -0.130 OA 
HETATM   22  C   UNL     1      -9.659   3.216  70.800  1.00  0.00    -0.149 C  
ENDBRANCH   8  21
BRANCH   8  23
HETATM   23  N   UNL     1      -9.235   3.593  67.090  1.00  0.00    -0.174 N  
HETATM   24  C   UNL     1      -8.723   2.390  66.678  1.00  0.00    -0.124 C  
HETATM   25  H   UNL     1      -9.586   4.233  66.378  1.00  0.00     0.000 HD 
HETATM   26  O   UNL     1      -8.253   1.565  67.454  1.00  0.00    -0.064 OA 
BRANCH  24  27
HETATM   27  C   UNL     1      -8.695   2.174  65.177  1.00  0.00    -0.117 C  
BRANCH  27  28
HETATM   28  S   UNL     1      -9.824   3.344  64.347  1.00  0.00    -0.166 SA 
BRANCH  28  29
HETATM   29  C   UNL     1      -8.700   4.043  63.075  1.00  0.00    -0.104 C  
HETATM   30  C   UNL     1      -7.348   4.342  63.566  1.00  0.00    -0.054 C  
HETATM   31  N   UNL     1      -6.279   4.571  63.955  1.00  0.00    -0.022 NA 
ENDBRANCH  28  29
ENDBRANCH  27  28
ENDBRANCH  24  27
ENDBRANCH   8  23
TORSDOF 8
ENDMDL
MODEL      190
REMARK 921   NORMALIZED FREE ENERGY PREDICTED BY IDOCK:   -1.36 KCAL/MOL
REMARK 922        TOTAL FREE ENERGY PREDICTED BY IDOCK:   -3.09 KCAL/MOL
REMARK 923 INTER-LIGAND FREE ENERGY PREDICTED BY IDOCK:   -4.76 KCAL/MOL
REMARK 924 INTRA-LIGAND FREE ENERGY PREDICTED BY IDOCK:    1.67 KCAL/MOL
REMARK 927      BINDING AFFINITY PREDICTED BY RF-SCORE:    0.00 PKD
ROOT
HETATM    1  C   UNL     1      -7.672  12.783  67.133  1.00  0.00    -0.067 C  
HETATM    2  S   UNL     1      -9.036  11.976  66.256  1.00  0.00    -0.068 SA 
HETATM    3  C   UNL     1      -9.688  13.534  65.608  1.00  0.00    -0.086 C  
HETATM    4  C   UNL     1      -9.858  14.633  66.650  1.00  0.00    -0.280 C  
HETATM    5  O   UNL     1      -8.635  15.908  69.896  1.00  0.00     0.063 OA 
HETATM    6  C   UNL     1      -9.144  14.698  67.816  1.00  0.00    -0.191 C  
HETATM    7  N   UNL     1      -8.233  13.711  68.105  1.00  0.00    -0.149 N  
HETATM    8  C   UNL     1      -7.032  11.973  68.354  1.00  0.00    -0.080 C  
HETATM    9  C   UNL     1      -9.387  15.849  68.784  1.00  0.00    -0.220 C  
HETATM   10  O   UNL     1      -7.346  13.806  70.239  1.00  0.00     0.688 OA 
HETATM   11  C   UNL     1      -7.498  13.287  69.155  1.00  0.00     0.175 C  
HETATM   12  O   UNL     1     -10.182  16.756  68.572  1.00  0.00    -0.262 OA 
ENDROOT
BRANCH   4  13
HETATM   13  C   UNL     1     -10.991  15.585  66.254  1.00  0.00    -0.242 C  
BRANCH  13  14
HETATM   14  S   UNL     1     -11.231  15.606  64.455  1.00  0.00    -0.075 SA 
BRANCH  14  15
HETATM   15  C   UNL     1     -12.104  14.129  64.240  1.00  0.00    -0.444 A  
HETATM   16  N   UNL     1     -12.270  13.490  63.105  1.00  0.00    -0.595 NA 
HETATM   17  N   UNL     1     -13.408  12.396  64.679  1.00  0.00    -0.607 NA 
HETATM   18  N   UNL     1     -13.089  12.421  63.391  1.00  0.00    -0.567 NA 
HETATM   19  C   UNL     1     -12.902  13.732  66.623  1.00  0.00     0.334 C  
HETATM   20  N   UNL     1     -12.789  13.465  65.217  1.00  0.00    -0.686 NA 
ENDBRANCH  14  15
ENDBRANCH  13  14
ENDBRANCH   4  13
BRANCH   8  21
HETATM   21  O   UNL     1      -5.588  11.806  68.281  1.00  0.00    -0.046 OA 
HETATM   22  C   UNL     1      -5.126  10.693  67.519  1.00  0.00    -0.036 C  
ENDBRANCH   8  21
BRANCH   8  23
HETATM   23  N   UNL     1      -7.730  10.684  68.653  1.00  0.00    -0.102 N  
HETATM   24  C   UNL     1      -7.748  10.091  69.890  1.00  0.00    -0.175 C  
HETATM   25  H   UNL     1      -8.223  10.219  67.891  1.00  0.00     0.000 HD 
HETATM   26  O   UNL     1      -7.165  10.558  70.861  1.00  0.00     0.016 OA 
BRANCH  24  27
HETATM   27  C   UNL     1      -8.474   8.761  69.962  1.00  0.00    -0.133 C  
BRANCH  27  28
HETATM   28  S   UNL     1      -9.804   8.831  71.210  1.00  0.00    -0.294 SA 
BRANCH  28  29
HETATM   29  C   UNL     1     -11.006   7.650  70.481  1.00  0.00    -0.249 C  
HETATM   30  C   UNL     1     -10.957   6.304  71.068  1.00  0.00    -0.283 C  
HETATM   31  N   UNL     1     -10.919   5.243  71.537  1.00  0.00    -0.103 NA 
ENDBRANCH  28  29
ENDBRANCH  27  28
ENDBRANCH  24  27
ENDBRANCH   8  23
TORSDOF 8
ENDMDL
MODEL      191
REMARK 921   NORMALIZED FREE ENERGY PREDICTED BY IDOCK:   -1.35 KCAL/MOL
REMARK 922        TOTAL FREE ENERGY PREDICTED BY IDOCK:   -3.07 KCAL/MOL
REMARK 923 INTER-LIGAND FREE ENERGY PREDICTED BY IDOCK:   -3.51 KCAL/MOL
REMARK 924 INTRA-LIGAND FREE ENERGY PREDICTED BY IDOCK:    0.44 KCAL/MOL
REMARK 927      BINDING AFFINITY PREDICTED BY RF-SCORE:    0.00 PKD
ROOT
HETATM    1  C   UNL     1      -6.523  13.024  67.540  1.00  0.00    -0.154 C  
HETATM    2  S   UNL     1      -7.620  14.285  66.843  1.00  0.00     0.683 SA 
HETATM    3  C   UNL     1      -6.644  15.658  67.502  1.00  0.00    -0.182 C  
HETATM    4  C   UNL     1      -6.293  15.534  68.980  1.00  0.00    -0.113 C  
HETATM    5  O   UNL     1      -5.741  13.147  71.747  1.00  0.00    -0.394 OA 
HETATM    6  C   UNL     1      -6.221  14.345  69.653  1.00  0.00    -0.126 C  
HETATM    7  N   UNL     1      -6.505  13.176  68.988  1.00  0.00    -0.098 N  
HETATM    8  C   UNL     1      -7.154  11.570  67.753  1.00  0.00    -0.079 C  
HETATM    9  C   UNL     1      -5.851  14.336  71.130  1.00  0.00    -0.200 C  
HETATM   10  O   UNL     1      -6.639  11.302  70.337  1.00  0.00    -0.248 OA 
HETATM   11  C   UNL     1      -6.739  11.878  69.276  1.00  0.00    -0.099 C  
HETATM   12  O   UNL     1      -5.582  15.348  71.766  1.00  0.00     0.174 OA 
ENDROOT
BRANCH   4  13
HETATM   13  C   UNL     1      -6.129  16.920  69.616  1.00  0.00    -0.225 C  
BRANCH  13  14
HETATM   14  S   UNL     1      -7.562  17.976  69.262  1.00  0.00     0.192 SA 
BRANCH  14  15
HETATM   15  C   UNL     1      -6.820  19.189  68.277  1.00  0.00    -0.254 A  
HETATM   16  N   UNL     1      -6.932  19.298  66.973  1.00  0.00    -0.199 NA 
HETATM   17  N   UNL     1      -5.525  20.880  67.675  1.00  0.00    -0.228 NA 
HETATM   18  N   UNL     1      -6.116  20.346  66.612  1.00  0.00    -0.179 NA 
HETATM   19  C   UNL     1      -5.540  20.484  70.054  1.00  0.00    -0.344 C  
HETATM   20  N   UNL     1      -5.967  20.158  68.723  1.00  0.00    -0.268 NA 
ENDBRANCH  14  15
ENDBRANCH  13  14
ENDBRANCH   4  13
BRANCH   8  21
HETATM   21  O   UNL     1      -6.400  10.485  67.143  1.00  0.00    -0.064 OA 
HETATM   22  C   UNL     1      -5.728  10.801  65.926  1.00  0.00    -0.145 C  
ENDBRANCH   8  21
BRANCH   8  23
HETATM   23  N   UNL     1      -8.612  11.492  67.426  1.00  0.00    -0.141 N  
HETATM   24  C   UNL     1      -9.600  12.067  68.182  1.00  0.00    -0.200 C  
HETATM   25  H   UNL     1      -8.887  10.980  66.587  1.00  0.00     0.000 HD 
HETATM   26  O   UNL     1      -9.374  12.680  69.220  1.00  0.00     0.540 OA 
BRANCH  24  27
HETATM   27  C   UNL     1     -11.016  11.825  67.696  1.00  0.00    -0.233 C  
BRANCH  27  28
HETATM   28  S   UNL     1     -10.999  10.845  66.157  1.00  0.00     0.060 SA 
BRANCH  28  29
HETATM   29  C   UNL     1     -10.798  12.181  64.914  1.00  0.00    -0.308 C  
HETATM   30  C   UNL     1     -10.017  11.790  63.732  1.00  0.00    -0.355 C  
HETATM   31  N   UNL     1      -9.406  11.476  62.797  1.00  0.00    -0.322 NA 
ENDBRANCH  28  29
ENDBRANCH  27  28
ENDBRANCH  24  27
ENDBRANCH   8  23
TORSDOF 8
ENDMDL
MODEL      192
REMARK 921   NORMALIZED FREE ENERGY PREDICTED BY IDOCK:   -1.19 KCAL/MOL
REMARK 922        TOTAL FREE ENERGY PREDICTED BY IDOCK:   -2.84 KCAL/MOL
REMARK 923 INTER-LIGAND FREE ENERGY PREDICTED BY IDOCK:   -4.55 KCAL/MOL
REMARK 924 INTRA-LIGAND FREE ENERGY PREDICTED BY IDOCK:    1.71 KCAL/MOL
REMARK 927      BINDING AFFINITY PREDICTED BY RF-SCORE:    0.00 PKD
ROOT
HETATM    1  C   UNL     1      -7.959  15.231  69.736  1.00  0.00    -0.039 C  
HETATM    2  S   UNL     1      -8.941  16.098  68.486  1.00  0.00    -0.214 SA 
HETATM    3  C   UNL     1     -10.151  14.761  68.349  1.00  0.00    -0.225 C  
HETATM    4  C   UNL     1      -9.545  13.374  68.167  1.00  0.00    -0.222 C  
HETATM    5  O   UNL     1      -6.560  11.293  68.811  1.00  0.00    -0.053 OA 
HETATM    6  C   UNL     1      -8.286  13.030  68.576  1.00  0.00    -0.067 C  
HETATM    7  N   UNL     1      -7.485  13.979  69.165  1.00  0.00    -0.059 N  
HETATM    8  C   UNL     1      -6.432  15.682  69.881  1.00  0.00    -0.137 C  
HETATM    9  C   UNL     1      -7.783  11.609  68.353  1.00  0.00    -0.130 C  
HETATM   10  O   UNL     1      -5.295  13.319  69.511  1.00  0.00    -0.082 OA 
HETATM   11  C   UNL     1      -6.191  14.134  69.521  1.00  0.00    -0.119 C  
HETATM   12  O   UNL     1      -8.458  10.725  67.840  1.00  0.00    -0.118 OA 
ENDROOT
BRANCH   4  13
HETATM   13  C   UNL     1     -10.499  12.464  67.386  1.00  0.00    -0.215 C  
BRANCH  13  14
HETATM   14  S   UNL     1      -9.962  12.277  65.661  1.00  0.00    -0.234 SA 
BRANCH  14  15
HETATM   15  C   UNL     1     -10.911  13.509  64.904  1.00  0.00    -0.362 A  
HETATM   16  N   UNL     1     -10.909  14.784  65.218  1.00  0.00    -0.356 NA 
HETATM   17  N   UNL     1     -12.433  14.473  63.619  1.00  0.00    -0.703 NA 
HETATM   18  N   UNL     1     -11.865  15.368  64.418  1.00  0.00    -0.352 NA 
HETATM   19  C   UNL     1     -12.195  12.106  63.214  1.00  0.00    -0.426 C  
HETATM   20  N   UNL     1     -11.834  13.303  63.919  1.00  0.00    -0.454 NA 
ENDBRANCH  14  15
ENDBRANCH  13  14
ENDBRANCH   4  13
BRANCH   8  21
HETATM   21  O   UNL     1      -6.030  16.043  71.233  1.00  0.00     0.453 OA 
HETATM   22  C   UNL     1      -5.139  15.138  71.881  1.00  0.00    -0.107 C  
ENDBRANCH   8  21
BRANCH   8  23
HETATM   23  N   UNL     1      -6.010  16.710  68.878  1.00  0.00    -0.144 N  
HETATM   24  C   UNL     1      -5.520  17.948  69.208  1.00  0.00    -0.196 C  
HETATM   25  H   UNL     1      -6.091  16.474  67.889  1.00  0.00     0.000 HD 
HETATM   26  O   UNL     1      -5.409  18.333  70.366  1.00  0.00    -0.226 OA 
BRANCH  24  27
HETATM   27  C   UNL     1      -5.198  18.853  68.035  1.00  0.00    -0.173 C  
BRANCH  27  28
HETATM   28  S   UNL     1      -6.646  19.007  66.936  1.00  0.00    -0.196 SA 
BRANCH  28  29
HETATM   29  C   UNL     1      -7.909  19.598  68.130  1.00  0.00    -0.311 C  
HETATM   30  C   UNL     1      -7.352  20.308  69.290  1.00  0.00     0.171 C  
HETATM   31  N   UNL     1      -6.911  20.874  70.202  1.00  0.00     0.746 NA 
ENDBRANCH  28  29
ENDBRANCH  27  28
ENDBRANCH  24  27
ENDBRANCH   8  23
TORSDOF 8
ENDMDL
MODEL      193
REMARK 921   NORMALIZED FREE ENERGY PREDICTED BY IDOCK:   -0.92 KCAL/MOL
REMARK 922        TOTAL FREE ENERGY PREDICTED BY IDOCK:   -2.44 KCAL/MOL
REMARK 923 INTER-LIGAND FREE ENERGY PREDICTED BY IDOCK:   -1.84 KCAL/MOL
REMARK 924 INTRA-LIGAND FREE ENERGY PREDICTED BY IDOCK:   -0.60 KCAL/MOL
REMARK 927      BINDING AFFINITY PREDICTED BY RF-SCORE:    0.00 PKD
ROOT
HETATM    1  C   UNL     1      -9.562  15.662  68.416  1.00  0.00    -0.199 C  
HETATM    2  S   UNL     1      -9.332  14.274  69.557  1.00  0.00     0.684 SA 
HETATM    3  C   UNL     1      -8.355  13.317  68.373  1.00  0.00    -0.131 C  
HETATM    4  C   UNL     1      -8.974  13.205  66.985  1.00  0.00    -0.228 C  
HETATM    5  O   UNL     1     -11.245  14.836  64.568  1.00  0.00    -0.349 OA 
HETATM    6  C   UNL     1      -9.862  14.108  66.468  1.00  0.00    -0.290 C  
HETATM    7  N   UNL     1     -10.260  15.177  67.234  1.00  0.00    -0.241 N  
HETATM    8  C   UNL     1     -10.812  16.617  68.700  1.00  0.00    -0.344 C  
HETATM    9  C   UNL     1     -10.413  13.904  65.062  1.00  0.00    -0.410 C  
HETATM   10  O   UNL     1     -11.987  16.426  66.334  1.00  0.00     1.248 OA 
HETATM   11  C   UNL     1     -11.204  16.143  67.213  1.00  0.00     0.008 C  
HETATM   12  O   UNL     1     -10.086  12.973  64.336  1.00  0.00    -0.329 OA 
ENDROOT
BRANCH   4  13
HETATM   13  C   UNL     1      -8.539  11.904  66.300  1.00  0.00    -0.016 C  
BRANCH  13  14
HETATM   14  S   UNL     1      -7.929  10.698  67.513  1.00  0.00    -0.111 SA 
BRANCH  14  15
HETATM   15  C   UNL     1      -9.099   9.440  67.316  1.00  0.00    -0.133 A  
HETATM   16  N   UNL     1     -10.083   9.167  68.141  1.00  0.00    -0.181 NA 
HETATM   17  N   UNL     1     -10.120   7.652  66.505  1.00  0.00    -0.188 NA 
HETATM   18  N   UNL     1     -10.703   8.048  67.630  1.00  0.00    -0.182 NA 
HETATM   19  C   UNL     1      -8.277   8.404  65.142  1.00  0.00    -0.157 C  
HETATM   20  N   UNL     1      -9.114   8.525  66.303  1.00  0.00    -0.173 NA 
ENDBRANCH  14  15
ENDBRANCH  13  14
ENDBRANCH   4  13
BRANCH   8  21
HETATM   21  O   UNL     1     -10.485  18.032  68.802  1.00  0.00    -0.326 OA 
HETATM   22  C   UNL     1      -9.183  18.404  68.354  1.00  0.00    -0.322 C  
ENDBRANCH   8  21
BRANCH   8  23
HETATM   23  N   UNL     1     -11.675  16.159  69.832  1.00  0.00    -0.341 N  
HETATM   24  C   UNL     1     -11.749  16.793  71.046  1.00  0.00     0.642 C  
HETATM   25  H   UNL     1     -12.244  15.324  69.693  1.00  0.00     0.000 HD 
HETATM   26  O   UNL     1     -11.085  17.787  71.320  1.00  0.00     1.348 OA 
BRANCH  24  27
HETATM   27  C   UNL     1     -12.650  16.132  72.071  1.00  0.00    -0.295 C  
BRANCH  27  28
HETATM   28  S   UNL     1     -11.990  14.496  72.536  1.00  0.00     0.164 SA 
BRANCH  28  29
HETATM   29  C   UNL     1     -13.184  13.399  71.674  1.00  0.00    -0.364 C  
HETATM   30  C   UNL     1     -12.895  11.966  71.818  1.00  0.00    -0.284 C  
HETATM   31  N   UNL     1     -12.668  10.834  71.939  1.00  0.00    -0.344 NA 
ENDBRANCH  28  29
ENDBRANCH  27  28
ENDBRANCH  24  27
ENDBRANCH   8  23
TORSDOF 8
ENDMDL
MODEL      194
REMARK 921   NORMALIZED FREE ENERGY PREDICTED BY IDOCK:   -0.69 KCAL/MOL
REMARK 922        TOTAL FREE ENERGY PREDICTED BY IDOCK:   -2.11 KCAL/MOL
REMARK 923 INTER-LIGAND FREE ENERGY PREDICTED BY IDOCK:   -2.48 KCAL/MOL
REMARK 924 INTRA-LIGAND FREE ENERGY PREDICTED BY IDOCK:    0.37 KCAL/MOL
REMARK 927      BINDING AFFINITY PREDICTED BY RF-SCORE:    0.00 PKD
ROOT
HETATM    1  C   UNL     1      -7.777  14.622  69.680  1.00  0.00     0.062 C  
HETATM    2  S   UNL     1      -8.803  16.092  69.939  1.00  0.00     0.860 SA 
HETATM    3  C   UNL     1     -10.341  15.143  70.007  1.00  0.00    -0.158 C  
HETATM    4  C   UNL     1     -10.524  14.149  68.866  1.00  0.00    -0.229 C  
HETATM    5  O   UNL     1      -8.746  12.054  66.395  1.00  0.00    -0.176 OA 
HETATM    6  C   UNL     1      -9.490  13.602  68.155  1.00  0.00    -0.217 C  
HETATM    7  N   UNL     1      -8.200  13.975  68.446  1.00  0.00    -0.147 N  
HETATM    8  C   UNL     1      -6.348  14.861  69.003  1.00  0.00    -0.099 C  
HETATM    9  C   UNL     1      -9.786  12.608  67.039  1.00  0.00    -0.225 C  
HETATM   10  O   UNL     1      -6.608  13.201  66.956  1.00  0.00    -0.118 OA 
HETATM   11  C   UNL     1      -6.966  13.855  67.911  1.00  0.00    -0.160 C  
HETATM   12  O   UNL     1     -10.916  12.238  66.745  1.00  0.00    -0.253 OA 
ENDROOT
BRANCH   4  13
HETATM   13  C   UNL     1     -12.012  13.927  68.573  1.00  0.00    -0.359 C  
BRANCH  13  14
HETATM   14  S   UNL     1     -12.634  12.450  69.426  1.00  0.00     0.747 SA 
BRANCH  14  15
HETATM   15  C   UNL     1     -12.767  13.056  71.041  1.00  0.00    -0.262 A  
HETATM   16  N   UNL     1     -12.328  12.461  72.125  1.00  0.00     0.607 NA 
HETATM   17  N   UNL     1     -13.374  14.331  72.745  1.00  0.00    -0.545 NA 
HETATM   18  N   UNL     1     -12.720  13.260  73.177  1.00  0.00     0.461 NA 
HETATM   19  C   UNL     1     -14.025  15.224  70.600  1.00  0.00     0.168 C  
HETATM   20  N   UNL     1     -13.404  14.209  71.403  1.00  0.00    -0.341 NA 
ENDBRANCH  14  15
ENDBRANCH  13  14
ENDBRANCH   4  13
BRANCH   8  21
HETATM   21  O   UNL     1      -5.224  14.309  69.745  1.00  0.00    -0.091 OA 
HETATM   22  C   UNL     1      -5.292  14.437  71.165  1.00  0.00    -0.158 C  
ENDBRANCH   8  21
BRANCH   8  23
HETATM   23  N   UNL     1      -6.106  16.279  68.593  1.00  0.00    -0.115 N  
HETATM   24  C   UNL     1      -6.413  16.783  67.355  1.00  0.00    -0.162 C  
HETATM   25  H   UNL     1      -5.686  16.910  69.276  1.00  0.00     0.000 HD 
HETATM   26  O   UNL     1      -6.895  16.100  66.458  1.00  0.00    -0.198 OA 
BRANCH  24  27
HETATM   27  C   UNL     1      -6.040  18.236  67.133  1.00  0.00    -0.160 C  
BRANCH  27  28
HETATM   28  S   UNL     1      -6.944  19.310  68.298  1.00  0.00    -0.282 SA 
BRANCH  28  29
HETATM   29  C   UNL     1      -8.400  19.760  67.275  1.00  0.00    -0.312 C  
HETATM   30  C   UNL     1      -9.361  18.665  67.083  1.00  0.00    -0.290 C  
HETATM   31  N   UNL     1     -10.122  17.801  66.938  1.00  0.00    -0.326 NA 
ENDBRANCH  28  29
ENDBRANCH  27  28
ENDBRANCH  24  27
ENDBRANCH   8  23
TORSDOF 8
ENDMDL
MODEL      195
REMARK 921   NORMALIZED FREE ENERGY PREDICTED BY IDOCK:    0.07 KCAL/MOL
REMARK 922        TOTAL FREE ENERGY PREDICTED BY IDOCK:   -0.99 KCAL/MOL
REMARK 923 INTER-LIGAND FREE ENERGY PREDICTED BY IDOCK:   -1.77 KCAL/MOL
REMARK 924 INTRA-LIGAND FREE ENERGY PREDICTED BY IDOCK:    0.78 KCAL/MOL
REMARK 927      BINDING AFFINITY PREDICTED BY RF-SCORE:    0.00 PKD
ROOT
HETATM    1  C   UNL     1     -11.398  15.949  69.832  1.00  0.00    -0.348 C  
HETATM    2  S   UNL     1      -9.846  15.733  70.740  1.00  0.00     1.540 SA 
HETATM    3  C   UNL     1      -9.078  17.191  69.994  1.00  0.00     1.740 C  
HETATM    4  C   UNL     1      -9.192  17.260  68.476  1.00  0.00    -0.273 C  
HETATM    5  O   UNL     1     -11.205  16.202  65.563  1.00  0.00    -0.114 OA 
HETATM    6  C   UNL     1     -10.174  16.640  67.752  1.00  0.00    -0.292 C  
HETATM    7  N   UNL     1     -11.113  15.878  68.406  1.00  0.00    -0.328 N  
HETATM    8  C   UNL     1     -12.309  14.646  69.660  1.00  0.00    -0.230 C  
HETATM    9  C   UNL     1     -10.199  16.784  66.236  1.00  0.00    -0.332 C  
HETATM   10  O   UNL     1     -12.505  14.657  67.019  1.00  0.00    -0.112 OA 
HETATM   11  C   UNL     1     -12.080  14.984  68.105  1.00  0.00    -0.037 C  
HETATM   12  O   UNL     1      -9.391  17.456  65.607  1.00  0.00    -0.496 OA 
ENDROOT
BRANCH   4  13
HETATM   13  C   UNL     1      -8.010  18.033  67.878  1.00  0.00    -0.241 C  
BRANCH  13  14
HETATM   14  S   UNL     1      -7.114  17.024  66.664  1.00  0.00    -0.274 SA 
BRANCH  14  15
HETATM   15  C   UNL     1      -6.497  15.777  67.691  1.00  0.00    -0.164 A  
HETATM   16  N   UNL     1      -6.733  14.491  67.569  1.00  0.00    -0.257 NA 
HETATM   17  N   UNL     1      -5.492  14.789  69.397  1.00  0.00    -0.093 NA 
HETATM   18  N   UNL     1      -6.111  13.891  68.640  1.00  0.00    -0.083 NA 
HETATM   19  C   UNL     1      -5.178  17.181  69.353  1.00  0.00    -0.157 C  
HETATM   20  N   UNL     1      -5.730  15.975  68.803  1.00  0.00    -0.107 NA 
ENDBRANCH  14  15
ENDBRANCH  13  14
ENDBRANCH   4  13
BRANCH   8  21
HETATM   21  O   UNL     1     -13.687  14.806  70.102  1.00  0.00     0.435 OA 
HETATM   22  C   UNL     1     -13.868  15.089  71.488  1.00  0.00    -0.484 C  
ENDBRANCH   8  21
BRANCH   8  23
HETATM   23  N   UNL     1     -11.687  13.400  70.207  1.00  0.00    -0.531 N  
HETATM   24  C   UNL     1     -11.850  12.155  69.654  1.00  0.00    -0.322 C  
HETATM   25  H   UNL     1     -11.106  13.481  71.041  1.00  0.00     0.000 HD 
HETATM   26  O   UNL     1     -12.550  11.950  68.669  1.00  0.00     0.041 OA 
BRANCH  24  27
HETATM   27  C   UNL     1     -11.171  11.020  70.396  1.00  0.00    -0.015 C  
BRANCH  27  28
HETATM   28  S   UNL     1     -11.631   9.415  69.660  1.00  0.00     0.332 SA 
BRANCH  28  29
HETATM   29  C   UNL     1     -10.011   8.553  69.703  1.00  0.00    -0.192 C  
HETATM   30  C   UNL     1     -10.103   7.094  69.556  1.00  0.00    -0.179 C  
HETATM   31  N   UNL     1     -10.178   5.942  69.433  1.00  0.00    -0.199 NA 
ENDBRANCH  28  29
ENDBRANCH  27  28
ENDBRANCH  24  27
ENDBRANCH   8  23
TORSDOF 8
ENDMDL
MODEL      196
REMARK 921   NORMALIZED FREE ENERGY PREDICTED BY IDOCK:    0.27 KCAL/MOL
REMARK 922        TOTAL FREE ENERGY PREDICTED BY IDOCK:   -0.70 KCAL/MOL
REMARK 923 INTER-LIGAND FREE ENERGY PREDICTED BY IDOCK:   -0.57 KCAL/MOL
REMARK 924 INTRA-LIGAND FREE ENERGY PREDICTED BY IDOCK:   -0.13 KCAL/MOL
REMARK 927      BINDING AFFINITY PREDICTED BY RF-SCORE:    0.00 PKD
ROOT
HETATM    1  C   UNL     1      -9.503  15.461  68.807  1.00  0.00    -0.211 C  
HETATM    2  S   UNL     1     -10.193  13.801  69.020  1.00  0.00     0.064 SA 
HETATM    3  C   UNL     1      -8.622  13.099  69.577  1.00  0.00     1.478 C  
HETATM    4  C   UNL     1      -7.428  13.434  68.691  1.00  0.00    -0.104 C  
HETATM    5  O   UNL     1      -6.062  15.897  66.298  1.00  0.00     0.685 OA 
HETATM    6  C   UNL     1      -7.361  14.535  67.882  1.00  0.00    -0.156 C  
HETATM    7  N   UNL     1      -8.433  15.394  67.822  1.00  0.00    -0.146 N  
HETATM    8  C   UNL     1     -10.287  16.436  67.810  1.00  0.00    -0.287 C  
HETATM    9  C   UNL     1      -6.113  14.780  67.044  1.00  0.00     1.039 C  
HETATM   10  O   UNL     1      -8.280  17.021  66.185  1.00  0.00    -0.379 OA 
HETATM   11  C   UNL     1      -8.862  16.427  67.066  1.00  0.00    -0.199 C  
HETATM   12  O   UNL     1      -5.130  14.051  67.066  1.00  0.00     0.114 OA 
ENDROOT
BRANCH   4  13
HETATM   13  C   UNL     1      -6.370  12.327  68.765  1.00  0.00    -0.077 C  
BRANCH  13  14
HETATM   14  S   UNL     1      -7.058  10.811  69.489  1.00  0.00    -0.121 SA 
BRANCH  14  15
HETATM   15  C   UNL     1      -7.720  10.064  68.076  1.00  0.00    -0.089 A  
HETATM   16  N   UNL     1      -8.967   9.685  67.918  1.00  0.00    -0.119 NA 
HETATM   17  N   UNL     1      -7.833   9.091  66.092  1.00  0.00    -0.101 NA 
HETATM   18  N   UNL     1      -9.021   9.074  66.685  1.00  0.00    -0.130 NA 
HETATM   19  C   UNL     1      -5.635   9.930  66.624  1.00  0.00    -0.046 C  
HETATM   20  N   UNL     1      -7.014   9.714  66.961  1.00  0.00    -0.084 NA 
ENDBRANCH  14  15
ENDBRANCH  13  14
ENDBRANCH   4  13
BRANCH   8  21
HETATM   21  O   UNL     1     -10.648  17.725  68.380  1.00  0.00    -0.357 OA 
HETATM   22  C   UNL     1     -10.528  18.848  67.509  1.00  0.00    -0.450 C  
ENDBRANCH   8  21
BRANCH   8  23
HETATM   23  N   UNL     1     -11.444  15.786  67.119  1.00  0.00    -0.024 N  
HETATM   24  C   UNL     1     -11.451  15.447  65.790  1.00  0.00    -0.022 C  
HETATM   25  H   UNL     1     -12.278  15.583  67.670  1.00  0.00     0.000 HD 
HETATM   26  O   UNL     1     -10.509  15.674  65.039  1.00  0.00    -0.402 OA 
BRANCH  24  27
HETATM   27  C   UNL     1     -12.745  14.842  65.280  1.00  0.00     0.054 C  
BRANCH  27  28
HETATM   28  S   UNL     1     -12.496  14.112  63.627  1.00  0.00     0.498 SA 
BRANCH  28  29
HETATM   29  C   UNL     1     -12.113  12.375  64.085  1.00  0.00    -0.453 C  
HETATM   30  C   UNL     1     -11.002  12.236  65.036  1.00  0.00    -0.302 C  
HETATM   31  N   UNL     1     -10.128  12.129  65.793  1.00  0.00    -0.242 NA 
ENDBRANCH  28  29
ENDBRANCH  27  28
ENDBRANCH  24  27
ENDBRANCH   8  23
TORSDOF 8
ENDMDL
MODEL      197
REMARK 921   NORMALIZED FREE ENERGY PREDICTED BY IDOCK:    1.58 KCAL/MOL
REMARK 922        TOTAL FREE ENERGY PREDICTED BY IDOCK:    1.22 KCAL/MOL
REMARK 923 INTER-LIGAND FREE ENERGY PREDICTED BY IDOCK:    0.64 KCAL/MOL
REMARK 924 INTRA-LIGAND FREE ENERGY PREDICTED BY IDOCK:    0.58 KCAL/MOL
REMARK 927      BINDING AFFINITY PREDICTED BY RF-SCORE:    0.00 PKD
ROOT
HETATM    1  C   UNL     1      -8.069  14.839  68.770  1.00  0.00    -0.158 C  
HETATM    2  S   UNL     1      -9.301  15.198  70.047  1.00  0.00     0.451 SA 
HETATM    3  C   UNL     1     -10.287  13.730  69.666  1.00  0.00     0.521 C  
HETATM    4  C   UNL     1     -10.601  13.544  68.187  1.00  0.00    -0.253 C  
HETATM    5  O   UNL     1      -9.444  14.281  64.755  1.00  0.00     0.353 OA 
HETATM    6  C   UNL     1      -9.840  14.059  67.172  1.00  0.00    -0.240 C  
HETATM    7  N   UNL     1      -8.736  14.818  67.476  1.00  0.00    -0.176 N  
HETATM    8  C   UNL     1      -7.204  16.077  68.246  1.00  0.00    -0.131 C  
HETATM    9  C   UNL     1     -10.241  13.802  65.725  1.00  0.00    -0.311 C  
HETATM   10  O   UNL     1      -7.749  15.862  65.663  1.00  0.00     1.273 OA 
HETATM   11  C   UNL     1      -7.865  15.637  66.848  1.00  0.00    -0.223 C  
HETATM   12  O   UNL     1     -11.210  13.128  65.400  1.00  0.00    -0.289 OA 
ENDROOT
BRANCH   4  13
HETATM   13  C   UNL     1     -11.923  12.790  68.003  1.00  0.00    -0.264 C  
BRANCH  13  14
HETATM   14  S   UNL     1     -11.650  11.168  67.233  1.00  0.00     0.160 SA 
BRANCH  14  15
HETATM   15  C   UNL     1     -10.548  10.466  68.366  1.00  0.00    -0.208 A  
HETATM   16  N   UNL     1      -9.320  10.079  68.108  1.00  0.00    -0.131 NA 
HETATM   17  N   UNL     1      -9.769   9.566  70.231  1.00  0.00    -0.248 NA 
HETATM   18  N   UNL     1      -8.852   9.514  69.272  1.00  0.00    -0.144 NA 
HETATM   19  C   UNL     1     -12.019  10.410  70.441  1.00  0.00    -0.320 C  
HETATM   20  N   UNL     1     -10.835  10.166  69.667  1.00  0.00    -0.245 NA 
ENDBRANCH  14  15
ENDBRANCH  13  14
ENDBRANCH   4  13
BRANCH   8  21
HETATM   21  O   UNL     1      -5.763  15.881  68.305  1.00  0.00    -0.099 OA 
HETATM   22  C   UNL     1      -5.321  14.527  68.379  1.00  0.00    -0.109 C  
ENDBRANCH   8  21
BRANCH   8  23
HETATM   23  N   UNL     1      -7.615  17.390  68.834  1.00  0.00    -0.251 N  
HETATM   24  C   UNL     1      -6.869  18.088  69.749  1.00  0.00     0.204 C  
HETATM   25  H   UNL     1      -8.504  17.791  68.535  1.00  0.00     0.000 HD 
HETATM   26  O   UNL     1      -5.801  17.678  70.189  1.00  0.00    -0.247 OA 
BRANCH  24  27
HETATM   27  C   UNL     1      -7.494  19.374  70.253  1.00  0.00     0.799 C  
BRANCH  27  28
HETATM   28  S   UNL     1      -8.711  20.003  69.047  1.00  0.00     0.369 SA 
BRANCH  28  29
HETATM   29  C   UNL     1      -7.593  20.520  67.686  1.00  0.00    -0.266 C  
HETATM   30  C   UNL     1      -8.238  20.574  66.366  1.00  0.00     0.022 C  
HETATM   31  N   UNL     1      -8.752  20.621  65.327  1.00  0.00     0.796 NA 
ENDBRANCH  28  29
ENDBRANCH  27  28
ENDBRANCH  24  27
ENDBRANCH   8  23
TORSDOF 8
ENDMDL
MODEL      198
REMARK 921   NORMALIZED FREE ENERGY PREDICTED BY IDOCK:    2.97 KCAL/MOL
REMARK 922        TOTAL FREE ENERGY PREDICTED BY IDOCK:    3.27 KCAL/MOL
REMARK 923 INTER-LIGAND FREE ENERGY PREDICTED BY IDOCK:    1.89 KCAL/MOL
REMARK 924 INTRA-LIGAND FREE ENERGY PREDICTED BY IDOCK:    1.38 KCAL/MOL
REMARK 927      BINDING AFFINITY PREDICTED BY RF-SCORE:    0.00 PKD
ROOT
HETATM    1  C   UNL     1      -7.222  16.129  69.558  1.00  0.00    -0.136 C  
HETATM    2  S   UNL     1      -8.846  15.565  70.127  1.00  0.00     0.917 SA 
HETATM    3  C   UNL     1      -8.232  13.935  70.617  1.00  0.00     3.669 C  
HETATM    4  C   UNL     1      -7.391  13.231  69.560  1.00  0.00     0.433 C  
HETATM    5  O   UNL     1      -5.179  13.749  66.645  1.00  0.00     1.028 OA 
HETATM    6  C   UNL     1      -6.701  13.880  68.572  1.00  0.00    -0.100 C  
HETATM    7  N   UNL     1      -6.776  15.250  68.487  1.00  0.00    -0.109 N  
HETATM    8  C   UNL     1      -7.215  17.331  68.504  1.00  0.00    -0.224 C  
HETATM    9  C   UNL     1      -5.882  13.076  67.571  1.00  0.00    -0.092 C  
HETATM   10  O   UNL     1      -5.812  16.156  66.590  1.00  0.00    -0.238 OA 
HETATM   11  C   UNL     1      -6.448  16.230  67.618  1.00  0.00    -0.158 C  
HETATM   12  O   UNL     1      -5.776  11.857  67.608  1.00  0.00    -0.056 OA 
ENDROOT
BRANCH   4  13
HETATM   13  C   UNL     1      -7.504  11.708  69.702  1.00  0.00     0.418 C  
BRANCH  13  14
HETATM   14  S   UNL     1      -8.032  10.942  68.143  1.00  0.00    -0.122 SA 
BRANCH  14  15
HETATM   15  C   UNL     1      -9.693  11.422  68.107  1.00  0.00    -0.192 A  
HETATM   16  N   UNL     1     -10.140  12.656  68.157  1.00  0.00    -0.225 NA 
HETATM   17  N   UNL     1     -11.902  11.289  68.135  1.00  0.00    -0.607 NA 
HETATM   18  N   UNL     1     -11.513  12.557  68.182  1.00  0.00    -0.295 NA 
HETATM   19  C   UNL     1     -10.814   9.140  68.000  1.00  0.00    -0.075 C  
HETATM   20  N   UNL     1     -10.762  10.572  68.085  1.00  0.00    -0.214 NA 
ENDBRANCH  14  15
ENDBRANCH  13  14
ENDBRANCH   4  13
BRANCH   8  21
HETATM   21  O   UNL     1      -6.386  18.466  68.883  1.00  0.00    -0.214 OA 
HETATM   22  C   UNL     1      -7.049  19.727  68.950  1.00  0.00    -0.323 C  
ENDBRANCH   8  21
BRANCH   8  23
HETATM   23  N   UNL     1      -8.581  17.756  68.066  1.00  0.00    -0.244 N  
HETATM   24  C   UNL     1      -8.919  18.031  66.766  1.00  0.00    -0.269 C  
HETATM   25  H   UNL     1      -9.305  17.847  68.779  1.00  0.00     0.000 HD 
HETATM   26  O   UNL     1      -8.114  17.977  65.843  1.00  0.00    -0.519 OA 
BRANCH  24  27
HETATM   27  C   UNL     1     -10.347  18.493  66.549  1.00  0.00    -0.414 C  
BRANCH  27  28
HETATM   28  S   UNL     1     -11.510  17.119  66.842  1.00  0.00     1.257 SA 
BRANCH  28  29
HETATM   29  C   UNL     1     -10.456  15.688  66.381  1.00  0.00    -0.305 C  
HETATM   30  C   UNL     1     -11.119  14.711  65.505  1.00  0.00    -0.345 C  
HETATM   31  N   UNL     1     -11.643  13.945  64.808  1.00  0.00    -0.357 NA 
ENDBRANCH  28  29
ENDBRANCH  27  28
ENDBRANCH  24  27
ENDBRANCH   8  23
TORSDOF 8
ENDMDL
MODEL      199
REMARK 921   NORMALIZED FREE ENERGY PREDICTED BY IDOCK:    3.01 KCAL/MOL
REMARK 922        TOTAL FREE ENERGY PREDICTED BY IDOCK:    3.33 KCAL/MOL
REMARK 923 INTER-LIGAND FREE ENERGY PREDICTED BY IDOCK:   -3.61 KCAL/MOL
REMARK 924 INTRA-LIGAND FREE ENERGY PREDICTED BY IDOCK:    6.94 KCAL/MOL
REMARK 927      BINDING AFFINITY PREDICTED BY RF-SCORE:    0.00 PKD
ROOT
HETATM    1  C   UNL     1      -8.903  17.260  69.233  1.00  0.00     0.178 C  
HETATM    2  S   UNL     1     -10.424  17.623  68.320  1.00  0.00    -0.350 SA 
HETATM    3  C   UNL     1     -11.253  16.116  68.883  1.00  0.00    -0.351 C  
HETATM    4  C   UNL     1     -10.430  14.844  68.726  1.00  0.00    -0.242 C  
HETATM    5  O   UNL     1      -6.995  13.492  68.536  1.00  0.00    -0.087 OA 
HETATM    6  C   UNL     1      -9.062  14.817  68.679  1.00  0.00    -0.186 C  
HETATM    7  N   UNL     1      -8.363  15.998  68.748  1.00  0.00    -0.202 N  
HETATM    8  C   UNL     1      -7.571  17.972  68.707  1.00  0.00    -0.270 C  
HETATM    9  C   UNL     1      -8.338  13.485  68.529  1.00  0.00    -0.097 C  
HETATM   10  O   UNL     1      -6.093  15.805  68.346  1.00  0.00    -0.095 OA 
HETATM   11  C   UNL     1      -7.102  16.442  68.554  1.00  0.00    -0.157 C  
HETATM   12  O   UNL     1      -8.914  12.406  68.471  1.00  0.00    -0.155 OA 
ENDROOT
BRANCH   4  13
HETATM   13  C   UNL     1     -11.343  13.627  68.534  1.00  0.00    -0.290 C  
BRANCH  13  14
HETATM   14  S   UNL     1     -10.995  12.790  66.961  1.00  0.00    -0.273 SA 
BRANCH  14  15
HETATM   15  C   UNL     1     -11.034  14.136  65.876  1.00  0.00    -0.297 A  
HETATM   16  N   UNL     1     -10.032  14.944  65.615  1.00  0.00    -0.341 NA 
HETATM   17  N   UNL     1     -11.817  15.684  64.502  1.00  0.00    -0.262 NA 
HETATM   18  N   UNL     1     -10.536  15.905  64.768  1.00  0.00    -0.497 NA 
HETATM   19  C   UNL     1     -13.459  14.026  65.115  1.00  0.00     0.737 C  
HETATM   20  N   UNL     1     -12.134  14.572  65.194  1.00  0.00    -0.381 NA 
ENDBRANCH  14  15
ENDBRANCH  13  14
ENDBRANCH   4  13
BRANCH   8  21
HETATM   21  O   UNL     1      -6.838  18.715  69.722  1.00  0.00    -0.085 OA 
HETATM   22  C   UNL     1      -5.724  18.043  70.305  1.00  0.00    -0.203 C  
ENDBRANCH   8  21
BRANCH   8  23
HETATM   23  N   UNL     1      -7.768  18.773  67.460  1.00  0.00    -0.229 N  
HETATM   24  C   UNL     1      -7.297  18.402  66.226  1.00  0.00    -0.258 C  
HETATM   25  H   UNL     1      -8.285  19.650  67.531  1.00  0.00     0.000 HD 
HETATM   26  O   UNL     1      -6.643  17.381  66.043  1.00  0.00    -0.225 OA 
BRANCH  24  27
HETATM   27  C   UNL     1      -7.567  19.385  65.104  1.00  0.00     0.692 C  
BRANCH  27  28
HETATM   28  S   UNL     1      -7.620  21.090  65.752  1.00  0.00     0.935 SA 
BRANCH  28  29
HETATM   29  C   UNL     1      -5.906  21.256  66.388  1.00  0.00    -0.289 C  
HETATM   30  C   UNL     1      -5.486  20.164  67.277  1.00  0.00    -0.167 C  
HETATM   31  N   UNL     1      -5.155  19.297  67.974  1.00  0.00    -0.169 NA 
ENDBRANCH  28  29
ENDBRANCH  27  28
ENDBRANCH  24  27
ENDBRANCH   8  23
TORSDOF 8
ENDMDL
MODEL      200
REMARK 921   NORMALIZED FREE ENERGY PREDICTED BY IDOCK:    3.71 KCAL/MOL
REMARK 922        TOTAL FREE ENERGY PREDICTED BY IDOCK:    4.35 KCAL/MOL
REMARK 923 INTER-LIGAND FREE ENERGY PREDICTED BY IDOCK:   -3.06 KCAL/MOL
REMARK 924 INTRA-LIGAND FREE ENERGY PREDICTED BY IDOCK:    7.41 KCAL/MOL
REMARK 927      BINDING AFFINITY PREDICTED BY RF-SCORE:    0.00 PKD
ROOT
HETATM    1  C   UNL     1      -7.919  14.235  69.462  1.00  0.00     0.321 C  
HETATM    2  S   UNL     1      -9.172  15.505  69.152  1.00  0.00    -0.258 SA 
HETATM    3  C   UNL     1     -10.443  14.298  68.701  1.00  0.00    -0.249 C  
HETATM    4  C   UNL     1      -9.994  13.256  67.684  1.00  0.00    -0.229 C  
HETATM    5  O   UNL     1      -7.072  11.445  66.328  1.00  0.00    -0.057 OA 
HETATM    6  C   UNL     1      -8.691  12.883  67.493  1.00  0.00    -0.190 C  
HETATM    7  N   UNL     1      -7.702  13.489  68.231  1.00  0.00    -0.128 N  
HETATM    8  C   UNL     1      -6.393  14.707  69.383  1.00  0.00    -0.125 C  
HETATM    9  C   UNL     1      -8.355  11.822  66.454  1.00  0.00    -0.040 C  
HETATM   10  O   UNL     1      -5.546  12.970  67.572  1.00  0.00    -0.230 OA 
HETATM   11  C   UNL     1      -6.355  13.576  68.240  1.00  0.00    -0.104 C  
HETATM   12  O   UNL     1      -9.198  11.248  65.776  1.00  0.00    -0.212 OA 
ENDROOT
BRANCH   4  13
HETATM   13  C   UNL     1     -11.183  12.764  66.851  1.00  0.00    -0.296 C  
BRANCH  13  14
HETATM   14  S   UNL     1     -10.888  11.090  66.214  1.00  0.00    -0.109 SA 
BRANCH  14  15
HETATM   15  C   UNL     1     -11.022  10.173  67.674  1.00  0.00    -0.268 A  
HETATM   16  N   UNL     1     -10.441   9.021  67.917  1.00  0.00    -0.240 NA 
HETATM   17  N   UNL     1     -11.720   9.526  69.673  1.00  0.00     0.133 NA 
HETATM   18  N   UNL     1     -10.890   8.627  69.157  1.00  0.00    -0.110 NA 
HETATM   19  C   UNL     1     -12.612  11.661  68.991  1.00  0.00     0.626 C  
HETATM   20  N   UNL     1     -11.804  10.500  68.746  1.00  0.00    -0.288 NA 
ENDBRANCH  14  15
ENDBRANCH  13  14
ENDBRANCH   4  13
BRANCH   8  21
HETATM   21  O   UNL     1      -5.596  14.385  70.558  1.00  0.00    -0.120 OA 
HETATM   22  C   UNL     1      -5.168  13.029  70.669  1.00  0.00    -0.135 C  
ENDBRANCH   8  21
BRANCH   8  23
HETATM   23  N   UNL     1      -6.224  16.133  68.965  1.00  0.00    -0.132 N  
HETATM   24  C   UNL     1      -6.622  16.629  67.750  1.00  0.00    -0.141 C  
HETATM   25  H   UNL     1      -5.787  16.776  69.625  1.00  0.00     0.000 HD 
HETATM   26  O   UNL     1      -7.133  15.931  66.881  1.00  0.00    -0.198 OA 
BRANCH  24  27
HETATM   27  C   UNL     1      -6.312  18.094  67.513  1.00  0.00    -0.176 C  
BRANCH  27  28
HETATM   28  S   UNL     1      -7.856  19.041  67.287  1.00  0.00    -0.247 SA 
BRANCH  28  29
HETATM   29  C   UNL     1      -8.529  18.226  65.786  1.00  0.00     0.381 C  
HETATM   30  C   UNL     1      -9.851  17.613  65.976  1.00  0.00    -0.170 C  
HETATM   31  N   UNL     1     -10.897  17.135  66.128  1.00  0.00    -0.071 NA 
ENDBRANCH  28  29
ENDBRANCH  27  28
ENDBRANCH  24  27
ENDBRANCH   8  23
TORSDOF 8
ENDMDL
MODEL      201
REMARK 921   NORMALIZED FREE ENERGY PREDICTED BY IDOCK:    4.20 KCAL/MOL
REMARK 922        TOTAL FREE ENERGY PREDICTED BY IDOCK:    5.07 KCAL/MOL
REMARK 923 INTER-LIGAND FREE ENERGY PREDICTED BY IDOCK:    4.00 KCAL/MOL
REMARK 924 INTRA-LIGAND FREE ENERGY PREDICTED BY IDOCK:    1.07 KCAL/MOL
REMARK 927      BINDING AFFINITY PREDICTED BY RF-SCORE:    0.00 PKD
ROOT
HETATM    1  C   UNL     1     -10.122  14.743  66.796  1.00  0.00    -0.256 C  
HETATM    2  S   UNL     1     -11.279  14.739  68.189  1.00  0.00    -0.308 SA 
HETATM    3  C   UNL     1     -10.872  16.433  68.676  1.00  0.00    -0.331 C  
HETATM    4  C   UNL     1      -9.380  16.718  68.790  1.00  0.00    -0.254 C  
HETATM    5  O   UNL     1      -6.030  15.717  67.591  1.00  0.00    -0.141 OA 
HETATM    6  C   UNL     1      -8.413  16.018  68.121  1.00  0.00    -0.169 C  
HETATM    7  N   UNL     1      -8.779  14.969  67.311  1.00  0.00    -0.190 N  
HETATM    8  C   UNL     1      -9.626  13.314  66.278  1.00  0.00    -0.235 C  
HETATM    9  C   UNL     1      -6.948  16.395  68.300  1.00  0.00    -0.137 C  
HETATM   10  O   UNL     1      -7.017  13.705  66.506  1.00  0.00     0.995 OA 
HETATM   11  C   UNL     1      -8.195  13.941  66.659  1.00  0.00     0.382 C  
HETATM   12  O   UNL     1      -6.570  17.323  69.003  1.00  0.00    -0.206 OA 
ENDROOT
BRANCH   4  13
HETATM   13  C   UNL     1      -9.115  17.823  69.819  1.00  0.00     1.201 C  
BRANCH  13  14
HETATM   14  S   UNL     1      -8.234  19.221  69.067  1.00  0.00    -0.141 SA 
BRANCH  14  15
HETATM   15  C   UNL     1      -7.534  19.942  70.476  1.00  0.00     0.851 A  
HETATM   16  N   UNL     1      -8.159  20.193  71.603  1.00  0.00     1.580 NA 
HETATM   17  N   UNL     1      -6.074  20.963  71.787  1.00  0.00    -0.181 NA 
HETATM   18  N   UNL     1      -7.242  20.836  72.405  1.00  0.00     1.537 NA 
HETATM   19  C   UNL     1      -5.164  20.341  69.641  1.00  0.00    -0.246 C  
HETATM   20  N   UNL     1      -6.252  20.400  70.576  1.00  0.00    -0.505 NA 
ENDBRANCH  14  15
ENDBRANCH  13  14
ENDBRANCH   4  13
BRANCH   8  21
HETATM   21  O   UNL     1      -9.811  13.086  64.852  1.00  0.00    -0.159 OA 
HETATM   22  C   UNL     1      -9.933  14.256  64.045  1.00  0.00     2.260 C  
ENDBRANCH   8  21
BRANCH   8  23
HETATM   23  N   UNL     1     -10.130  12.168  67.098  1.00  0.00    -0.206 N  
HETATM   24  C   UNL     1      -9.475  10.971  67.229  1.00  0.00    -0.164 C  
HETATM   25  H   UNL     1     -11.016  12.286  67.590  1.00  0.00     0.000 HD 
HETATM   26  O   UNL     1      -8.419  10.724  66.657  1.00  0.00    -0.133 OA 
BRANCH  24  27
HETATM   27  C   UNL     1     -10.186   9.928  68.068  1.00  0.00    -0.182 C  
BRANCH  27  28
HETATM   28  S   UNL     1     -10.362  10.509  69.789  1.00  0.00    -0.093 SA 
BRANCH  28  29
HETATM   29  C   UNL     1     -11.129   9.032  70.562  1.00  0.00    -0.254 C  
HETATM   30  C   UNL     1     -11.051   7.815  69.742  1.00  0.00    -0.089 C  
HETATM   31  N   UNL     1     -10.982   6.854  69.095  1.00  0.00    -0.222 NA 
ENDBRANCH  28  29
ENDBRANCH  27  28
ENDBRANCH  24  27
ENDBRANCH   8  23
TORSDOF 8
ENDMDL
MODEL      202
REMARK 921   NORMALIZED FREE ENERGY PREDICTED BY IDOCK:    9.35 KCAL/MOL
REMARK 922        TOTAL FREE ENERGY PREDICTED BY IDOCK:   12.63 KCAL/MOL
REMARK 923 INTER-LIGAND FREE ENERGY PREDICTED BY IDOCK:    7.71 KCAL/MOL
REMARK 924 INTRA-LIGAND FREE ENERGY PREDICTED BY IDOCK:    4.93 KCAL/MOL
REMARK 927      BINDING AFFINITY PREDICTED BY RF-SCORE:    0.00 PKD
ROOT
HETATM    1  C   UNL     1     -10.194  15.546  69.439  1.00  0.00    -0.262 C  
HETATM    2  S   UNL     1     -10.722  13.923  70.045  1.00  0.00     0.714 SA 
HETATM    3  C   UNL     1      -9.145  13.594  70.869  1.00  0.00     6.728 C  
HETATM    4  C   UNL     1      -7.915  13.838  70.003  1.00  0.00     1.601 C  
HETATM    5  O   UNL     1      -6.596  15.751  67.129  1.00  0.00    -0.251 OA 
HETATM    6  C   UNL     1      -7.889  14.692  68.933  1.00  0.00    -0.148 C  
HETATM    7  N   UNL     1      -9.034  15.363  68.578  1.00  0.00    -0.184 N  
HETATM    8  C   UNL     1     -10.979  16.122  68.171  1.00  0.00    -0.341 C  
HETATM    9  C   UNL     1      -6.599  14.868  68.141  1.00  0.00    -0.130 C  
HETATM   10  O   UNL     1      -8.900  16.517  66.578  1.00  0.00    -0.231 OA 
HETATM   11  C   UNL     1      -9.496  16.103  67.547  1.00  0.00    -0.223 C  
HETATM   12  O   UNL     1      -5.551  14.299  68.420  1.00  0.00    -0.092 OA 
ENDROOT
BRANCH   4  13
HETATM   13  C   UNL     1      -6.758  12.931  70.436  1.00  0.00     0.874 C  
BRANCH  13  14
HETATM   14  S   UNL     1      -5.157  13.756  70.206  1.00  0.00    -0.098 SA 
BRANCH  14  15
HETATM   15  C   UNL     1      -5.265  14.987  71.416  1.00  0.00    -0.114 A  
HETATM   16  N   UNL     1      -5.287  16.281  71.198  1.00  0.00    -0.063 NA 
HETATM   17  N   UNL     1      -5.296  15.958  73.405  1.00  0.00     1.403 NA 
HETATM   18  N   UNL     1      -5.297  16.871  72.442  1.00  0.00     0.563 NA 
HETATM   19  C   UNL     1      -5.298  13.547  73.514  1.00  0.00     0.033 C  
HETATM   20  N   UNL     1      -5.279  14.772  72.765  1.00  0.00    -0.148 NA 
ENDBRANCH  14  15
ENDBRANCH  13  14
ENDBRANCH   4  13
BRANCH   8  21
HETATM   21  O   UNL     1     -11.526  17.459  68.350  1.00  0.00     0.186 OA 
HETATM   22  C   UNL     1     -11.128  18.430  67.385  1.00  0.00     0.079 C  
ENDBRANCH   8  21
BRANCH   8  23
HETATM   23  N   UNL     1     -11.990  15.175  67.606  1.00  0.00    -0.395 N  
HETATM   24  C   UNL     1     -11.715  14.251  66.631  1.00  0.00    -0.400 C  
HETATM   25  H   UNL     1     -12.942  15.219  67.970  1.00  0.00     0.000 HD 
HETATM   26  O   UNL     1     -10.610  14.138  66.112  1.00  0.00    -0.285 OA 
BRANCH  24  27
HETATM   27  C   UNL     1     -12.898  13.422  66.168  1.00  0.00     0.117 C  
BRANCH  27  28
HETATM   28  S   UNL     1     -12.530  12.630  64.566  1.00  0.00    -0.410 SA 
BRANCH  28  29
HETATM   29  C   UNL     1     -10.977  11.743  64.983  1.00  0.00    -0.300 C  
HETATM   30  C   UNL     1     -10.383  11.009  63.857  1.00  0.00    -0.372 C  
HETATM   31  N   UNL     1      -9.914  10.434  62.965  1.00  0.00    -0.145 NA 
ENDBRANCH  28  29
ENDBRANCH  27  28
ENDBRANCH  24  27
ENDBRANCH   8  23
TORSDOF 8
ENDMDL
MODEL      203
REMARK 921   NORMALIZED FREE ENERGY PREDICTED BY IDOCK:   10.00 KCAL/MOL
REMARK 922        TOTAL FREE ENERGY PREDICTED BY IDOCK:   13.58 KCAL/MOL
REMARK 923 INTER-LIGAND FREE ENERGY PREDICTED BY IDOCK:   -2.84 KCAL/MOL
REMARK 924 INTRA-LIGAND FREE ENERGY PREDICTED BY IDOCK:   16.42 KCAL/MOL
REMARK 927      BINDING AFFINITY PREDICTED BY RF-SCORE:    0.00 PKD
ROOT
HETATM    1  C   UNL     1      -7.727  17.804  70.025  1.00  0.00     1.693 C  
HETATM    2  S   UNL     1      -9.332  18.506  69.564  1.00  0.00     0.602 SA 
HETATM    3  C   UNL     1     -10.243  17.014  70.029  1.00  0.00     0.402 C  
HETATM    4  C   UNL     1      -9.669  15.719  69.466  1.00  0.00    -0.276 C  
HETATM    5  O   UNL     1      -6.587  14.075  68.259  1.00  0.00    -0.088 OA 
HETATM    6  C   UNL     1      -8.360  15.557  69.103  1.00  0.00    -0.253 C  
HETATM    7  N   UNL     1      -7.493  16.617  69.216  1.00  0.00    -0.217 N  
HETATM    8  C   UNL     1      -6.440  18.461  69.341  1.00  0.00    -0.239 C  
HETATM    9  C   UNL     1      -7.889  14.214  68.559  1.00  0.00    -0.140 C  
HETATM   10  O   UNL     1      -5.408  16.268  68.275  1.00  0.00    -0.097 OA 
HETATM   11  C   UNL     1      -6.246  16.953  68.819  1.00  0.00    -0.157 C  
HETATM   12  O   UNL     1      -8.619  13.237  68.445  1.00  0.00    -0.173 OA 
ENDROOT
BRANCH   4  13
HETATM   13  C   UNL     1     -10.773  14.673  69.278  1.00  0.00    -0.243 C  
BRANCH  13  14
HETATM   14  S   UNL     1     -10.873  14.129  67.548  1.00  0.00    -0.279 SA 
BRANCH  14  15
HETATM   15  C   UNL     1     -11.058  12.424  67.768  1.00  0.00    -0.247 A  
HETATM   16  N   UNL     1     -10.849  11.764  68.883  1.00  0.00    -0.223 NA 
HETATM   17  N   UNL     1     -11.370  10.284  67.299  1.00  0.00    -0.221 NA 
HETATM   18  N   UNL     1     -11.038  10.435  68.575  1.00  0.00    -0.263 NA 
HETATM   19  C   UNL     1     -11.737  11.743  65.412  1.00  0.00    -0.049 C  
HETATM   20  N   UNL     1     -11.387  11.531  66.788  1.00  0.00    -0.416 NA 
ENDBRANCH  14  15
ENDBRANCH  13  14
ENDBRANCH   4  13
BRANCH   8  21
HETATM   21  O   UNL     1      -5.413  18.899  70.275  1.00  0.00    -0.212 OA 
HETATM   22  C   UNL     1      -5.827  19.846  71.259  1.00  0.00    -0.274 C  
ENDBRANCH   8  21
BRANCH   8  23
HETATM   23  N   UNL     1      -6.767  19.517  68.333  1.00  0.00    -0.270 N  
HETATM   24  C   UNL     1      -7.861  19.478  67.508  1.00  0.00    -0.264 C  
HETATM   25  H   UNL     1      -6.136  20.315  68.255  1.00  0.00     0.000 HD 
HETATM   26  O   UNL     1      -8.662  18.549  67.507  1.00  0.00    -0.259 OA 
BRANCH  24  27
HETATM   27  C   UNL     1      -7.977  20.627  66.526  1.00  0.00     0.022 C  
BRANCH  27  28
HETATM   28  S   UNL     1      -6.490  20.713  65.471  1.00  0.00    -0.202 SA 
BRANCH  28  29
HETATM   29  C   UNL     1      -5.177  20.765  66.753  1.00  0.00    -0.177 C  
HETATM   30  C   UNL     1      -5.673  21.018  68.113  1.00  0.00    -0.341 C  
HETATM   31  N   UNL     1      -6.069  21.212  69.186  1.00  0.00     0.021 NA 
ENDBRANCH  28  29
ENDBRANCH  27  28
ENDBRANCH  24  27
ENDBRANCH   8  23
TORSDOF 8
ENDMDL
MODEL      204
REMARK 921   NORMALIZED FREE ENERGY PREDICTED BY IDOCK:   10.64 KCAL/MOL
REMARK 922        TOTAL FREE ENERGY PREDICTED BY IDOCK:   14.53 KCAL/MOL
REMARK 923 INTER-LIGAND FREE ENERGY PREDICTED BY IDOCK:    8.93 KCAL/MOL
REMARK 924 INTRA-LIGAND FREE ENERGY PREDICTED BY IDOCK:    5.59 KCAL/MOL
REMARK 927      BINDING AFFINITY PREDICTED BY RF-SCORE:    0.00 PKD
ROOT
HETATM    1  C   UNL     1      -7.996  13.705  68.709  1.00  0.00    -0.022 C  
HETATM    2  S   UNL     1      -8.815  14.673  70.002  1.00  0.00     1.087 SA 
HETATM    3  C   UNL     1     -10.460  14.049  69.582  1.00  0.00     0.277 C  
HETATM    4  C   UNL     1     -10.804  14.118  68.099  1.00  0.00    -0.258 C  
HETATM    5  O   UNL     1      -9.389  14.151  64.686  1.00  0.00     0.718 OA 
HETATM    6  C   UNL     1      -9.873  14.130  67.097  1.00  0.00    -0.253 C  
HETATM    7  N   UNL     1      -8.537  14.108  67.418  1.00  0.00    -0.198 N  
HETATM    8  C   UNL     1      -6.570  14.236  68.218  1.00  0.00    -0.113 C  
HETATM    9  C   UNL     1     -10.329  14.190  65.645  1.00  0.00    -0.333 C  
HETATM   10  O   UNL     1      -7.105  14.444  65.633  1.00  0.00     5.287 OA 
HETATM   11  C   UNL     1      -7.346  14.295  66.810  1.00  0.00     1.005 C  
HETATM   12  O   UNL     1     -11.506  14.205  65.305  1.00  0.00    -0.311 OA 
ENDROOT
BRANCH   4  13
HETATM   13  C   UNL     1     -12.317  14.266  67.900  1.00  0.00     0.014 C  
BRANCH  13  14
HETATM   14  S   UNL     1     -13.064  12.700  67.364  1.00  0.00     4.607 SA 
BRANCH  14  15
HETATM   15  C   UNL     1     -11.898  11.576  67.970  1.00  0.00    -0.217 A  
HETATM   16  N   UNL     1     -10.930  11.021  67.278  1.00  0.00    -0.284 NA 
HETATM   17  N   UNL     1     -10.873  10.171  69.339  1.00  0.00    -0.227 NA 
HETATM   18  N   UNL     1     -10.308  10.144  68.138  1.00  0.00    -0.175 NA 
HETATM   19  C   UNL     1     -12.686  11.373  70.381  1.00  0.00    -0.092 C  
HETATM   20  N   UNL     1     -11.870  11.071  69.239  1.00  0.00    -0.321 NA 
ENDBRANCH  14  15
ENDBRANCH  13  14
ENDBRANCH   4  13
BRANCH   8  21
HETATM   21  O   UNL     1      -5.504  13.245  68.263  1.00  0.00    -0.076 OA 
HETATM   22  C   UNL     1      -5.634  12.149  67.361  1.00  0.00    -0.128 C  
ENDBRANCH   8  21
BRANCH   8  23
HETATM   23  N   UNL     1      -6.159  15.529  68.847  1.00  0.00    -0.098 N  
HETATM   24  C   UNL     1      -6.022  15.716  70.199  1.00  0.00    -0.140 C  
HETATM   25  H   UNL     1      -5.969  16.321  68.233  1.00  0.00     0.000 HD 
HETATM   26  O   UNL     1      -6.252  14.834  71.019  1.00  0.00    -0.052 OA 
BRANCH  24  27
HETATM   27  C   UNL     1      -5.643  17.120  70.627  1.00  0.00    -0.068 C  
BRANCH  27  28
HETATM   28  S   UNL     1      -5.629  18.241  69.187  1.00  0.00    -0.213 SA 
BRANCH  28  29
HETATM   29  C   UNL     1      -5.957  17.045  67.833  1.00  0.00    -0.134 C  
HETATM   30  C   UNL     1      -5.717  17.582  66.486  1.00  0.00    -0.199 C  
HETATM   31  N   UNL     1      -5.521  18.007  65.424  1.00  0.00    -0.150 NA 
ENDBRANCH  28  29
ENDBRANCH  27  28
ENDBRANCH  24  27
ENDBRANCH   8  23
TORSDOF 8
ENDMDL
MODEL      205
REMARK 921   NORMALIZED FREE ENERGY PREDICTED BY IDOCK:   53.46 KCAL/MOL
REMARK 922        TOTAL FREE ENERGY PREDICTED BY IDOCK:   77.37 KCAL/MOL
REMARK 923 INTER-LIGAND FREE ENERGY PREDICTED BY IDOCK:   56.16 KCAL/MOL
REMARK 924 INTRA-LIGAND FREE ENERGY PREDICTED BY IDOCK:   21.21 KCAL/MOL
REMARK 927      BINDING AFFINITY PREDICTED BY RF-SCORE:    0.00 PKD
ROOT
HETATM    1  C   UNL     1      -9.175  17.772  70.017  1.00  0.00     1.848 C  
HETATM    2  S   UNL     1     -10.866  18.101  69.460  1.00  0.00     1.590 SA 
HETATM    3  C   UNL     1     -11.547  16.660  70.314  1.00  0.00     0.373 C  
HETATM    4  C   UNL     1     -10.790  15.360  70.067  1.00  0.00    -0.320 C  
HETATM    5  O   UNL     1      -7.503  13.920  69.185  1.00  0.00    -0.081 OA 
HETATM    6  C   UNL     1      -9.472  15.299  69.704  1.00  0.00    -0.165 C  
HETATM    7  N   UNL     1      -8.770  16.466  69.518  1.00  0.00     0.029 N  
HETATM    8  C   UNL     1      -7.999  18.413  69.143  1.00  0.00     0.017 C  
HETATM    9  C   UNL     1      -8.811  13.943  69.492  1.00  0.00     0.934 C  
HETATM   10  O   UNL     1      -6.659  16.191  68.613  1.00  0.00    -0.119 OA 
HETATM   11  C   UNL     1      -7.587  16.865  69.002  1.00  0.00    -0.210 C  
HETATM   12  O   UNL     1      -9.389  12.876  69.652  1.00  0.00     1.339 OA 
ENDROOT
BRANCH   4  13
HETATM   13  C   UNL     1     -11.729  14.154  70.187  1.00  0.00    -0.280 C  
BRANCH  13  14
HETATM   14  S   UNL     1     -12.815  14.023  68.738  1.00  0.00     1.630 SA 
BRANCH  14  15
HETATM   15  C   UNL     1     -13.254  15.683  68.526  1.00  0.00     2.984 A  
HETATM   16  N   UNL     1     -14.398  16.227  68.871  1.00  0.00     6.222 NA 
HETATM   17  N   UNL     1     -13.170  17.793  67.864  1.00  0.00     6.126 NA 
HETATM   18  N   UNL     1     -14.335  17.535  68.445  1.00  0.00     8.464 NA 
HETATM   19  C   UNL     1     -11.153  16.558  67.389  1.00  0.00    -0.027 C  
HETATM   20  N   UNL     1     -12.486  16.633  67.915  1.00  0.00     1.817 NA 
ENDBRANCH  14  15
ENDBRANCH  13  14
ENDBRANCH   4  13
BRANCH   8  21
HETATM   21  O   UNL     1      -7.046  19.211  69.899  1.00  0.00    -0.007 OA 
HETATM   22  C   UNL     1      -7.575  20.366  70.547  1.00  0.00     1.382 C  
ENDBRANCH   8  21
BRANCH   8  23
HETATM   23  N   UNL     1      -8.480  19.125  67.918  1.00  0.00    -0.292 N  
HETATM   24  C   UNL     1      -8.264  18.682  66.638  1.00  0.00    -0.278 C  
HETATM   25  H   UNL     1      -9.000  19.994  68.043  1.00  0.00     0.000 HD 
HETATM   26  O   UNL     1      -7.628  17.665  66.384  1.00  0.00    -0.239 OA 
BRANCH  24  27
HETATM   27  C   UNL     1      -8.795  19.583  65.540  1.00  0.00     0.636 C  
BRANCH  27  28
HETATM   28  S   UNL     1     -10.097  18.727  64.592  1.00  0.00     4.930 SA 
BRANCH  28  29
HETATM   29  C   UNL     1     -10.995  17.879  65.950  1.00  0.00     0.244 C  
HETATM   30  C   UNL     1     -12.349  18.396  66.190  1.00  0.00     6.372 C  
HETATM   31  N   UNL     1     -13.421  18.803  66.373  1.00  0.00    11.235 NA 
ENDBRANCH  28  29
ENDBRANCH  27  28
ENDBRANCH  24  27
ENDBRANCH   8  23
TORSDOF 8
ENDMDL
