MODEL        1
REMARK 921   NORMALIZED FREE ENERGY PREDICTED BY IDOCK:   -6.93 KCAL/MOL
REMARK 922        TOTAL FREE ENERGY PREDICTED BY IDOCK:  -12.52 KCAL/MOL
REMARK 923 INTER-LIGAND FREE ENERGY PREDICTED BY IDOCK:  -10.58 KCAL/MOL
REMARK 924 INTRA-LIGAND FREE ENERGY PREDICTED BY IDOCK:   -1.94 KCAL/MOL
REMARK 927      BINDING AFFINITY PREDICTED BY RF-SCORE:    0.00 PKD
ROOT
HETATM    1  C   UNL     1     -11.922  14.323  68.639  1.00  0.00    -0.313 C  
HETATM    2  S   UNL     1     -10.689  15.000  69.774  1.00  0.00    -0.215 SA 
HETATM    3  C   UNL     1     -10.782  16.666  69.082  1.00  0.00    -0.342 C  
HETATM    4  C   UNL     1     -10.729  16.736  67.561  1.00  0.00    -0.275 C  
HETATM    5  C   UNL     1     -11.469  13.190  66.942  1.00  0.00    -0.341 C  
HETATM    6  CA  UNL     1     -11.014  15.682  66.740  1.00  0.00    -0.230 C  
HETATM    7  C   UNL     1     -10.870  15.827  65.238  1.00  0.00    -0.395 C  
HETATM    8  CA  UNL     1     -11.853  12.780  68.399  1.00  0.00    -0.310 C  
HETATM    9  N   UNL     1     -11.431  14.494  67.282  1.00  0.00    -0.350 N  
HETATM   10  O   UNL     1     -10.726  14.705  64.513  1.00  0.00    -0.334 OA 
HETATM   11  OXT UNL     1     -10.893  16.910  64.670  1.00  0.00    -0.864 OA 
HETATM   12  O   UNL     1     -11.148  12.646  65.906  1.00  0.00    -0.274 OA 
ENDROOT
BRANCH   4  13
HETATM   13  C   UNL     1     -10.169  18.087  67.099  1.00  0.00    -0.360 C  
BRANCH  13  14
HETATM   14  S   UNL     1      -9.725  19.188  68.491  1.00  0.00    -0.428 SA 
BRANCH  14  15
HETATM   15  C   UNL     1      -8.037  19.451  68.260  1.00  0.00    -0.336 A  
HETATM   16  N   UNL     1      -7.482  20.559  67.822  1.00  0.00    -0.273 NA 
HETATM   17  N   UNL     1      -6.143  20.297  67.707  1.00  0.00    -0.218 NA 
HETATM   18  N   UNL     1      -7.049  18.525  68.470  1.00  0.00    -0.267 NA 
HETATM   19  N   UNL     1      -5.868  19.057  68.086  1.00  0.00    -0.206 NA 
BRANCH  18  20
HETATM   20  C   UNL     1      -7.054  17.189  69.041  1.00  0.00    -0.232 C  
BRANCH  20  21
HETATM   21  C   UNL     1      -7.127  16.127  67.929  1.00  0.00    -0.132 C  
BRANCH  21  22
HETATM   22  N   UNL     1      -6.815  14.728  68.299  1.00  0.00    -0.104 NA 
HETATM   23  C   UNL     1      -7.794  13.836  67.650  1.00  0.00    -0.178 C  
HETATM   24  C   UNL     1      -6.865  14.483  69.745  1.00  0.00    -0.126 C  
ENDBRANCH  21  22
ENDBRANCH  20  21
ENDBRANCH  18  20
ENDBRANCH  14  15
ENDBRANCH  13  14
ENDBRANCH   4  13
BRANCH   8  25
HETATM   25  N   UNL     1     -10.802  12.028  69.148  1.00  0.00    -0.383 N  
HETATM   26  C   UNL     1     -10.586  10.681  68.953  1.00  0.00    -0.212 C  
HETATM   27  H   UNL     1     -10.225  12.528  69.825  1.00  0.00     0.000 HD 
HETATM   28  O   UNL     1     -11.156  10.041  68.070  1.00  0.00    -0.266 OA 
BRANCH  26  29
HETATM   29  C   UNL     1      -9.608  10.045  69.918  1.00  0.00    -0.233 C  
BRANCH  29  30
HETATM   30  C   UNL     1     -10.319   9.347  71.022  1.00  0.00    -0.312 A  
HETATM   31  N   UNL     1     -13.314   9.178  72.838  1.00  0.00    -0.802 NA 
HETATM   32  C   UNL     1      -9.838   8.297  71.782  1.00  0.00    -0.218 A  
HETATM   33  S   UNL     1     -11.020   7.804  72.916  1.00  0.00    -0.376 SA 
HETATM   34  H2  UNL     1     -13.624   8.569  73.595  1.00  0.00     0.000 HD 
HETATM   35  H1  UNL     1     -13.945   9.898  72.486  1.00  0.00     0.000 HD 
HETATM   36  N   UNL     1     -11.613   9.745  71.339  1.00  0.00    -0.382 NA 
HETATM   37  C   UNL     1     -12.081   9.014  72.325  1.00  0.00    -0.288 A  
ENDBRANCH  29  30
ENDBRANCH  26  29
ENDBRANCH   8  25
TORSDOF 9
ENDMDL
MODEL        2
REMARK 921   NORMALIZED FREE ENERGY PREDICTED BY IDOCK:   -6.85 KCAL/MOL
REMARK 922        TOTAL FREE ENERGY PREDICTED BY IDOCK:  -12.39 KCAL/MOL
REMARK 923 INTER-LIGAND FREE ENERGY PREDICTED BY IDOCK:  -11.59 KCAL/MOL
REMARK 924 INTRA-LIGAND FREE ENERGY PREDICTED BY IDOCK:   -0.80 KCAL/MOL
REMARK 927      BINDING AFFINITY PREDICTED BY RF-SCORE:    0.00 PKD
ROOT
HETATM    1  C   UNL     1     -11.449  14.971  68.774  1.00  0.00    -0.319 C  
HETATM    2  S   UNL     1      -9.768  15.263  69.371  1.00  0.00    -0.224 SA 
HETATM    3  C   UNL     1      -9.612  16.855  68.532  1.00  0.00    -0.262 C  
HETATM    4  C   UNL     1     -10.056  16.863  67.074  1.00  0.00    -0.289 C  
HETATM    5  C   UNL     1     -11.934  13.705  67.183  1.00  0.00    -0.393 C  
HETATM    6  CA  UNL     1     -10.887  15.925  66.527  1.00  0.00    -0.198 C  
HETATM    7  C   UNL     1     -11.221  15.975  65.049  1.00  0.00    -0.261 C  
HETATM    8  CA  UNL     1     -11.905  13.477  68.728  1.00  0.00    -0.355 C  
HETATM    9  N   UNL     1     -11.416  14.942  67.322  1.00  0.00    -0.352 N  
HETATM   10  O   UNL     1     -11.654  14.844  64.468  1.00  0.00    -0.392 OA 
HETATM   11  OXT UNL     1     -11.126  16.996  64.381  1.00  0.00    -1.144 OA 
HETATM   12  O   UNL     1     -12.147  13.059  66.179  1.00  0.00    -0.412 OA 
ENDROOT
BRANCH   4  13
HETATM   13  C   UNL     1      -9.326  17.959  66.289  1.00  0.00    -0.197 C  
BRANCH  13  14
HETATM   14  S   UNL     1      -7.508  17.756  66.303  1.00  0.00    -0.292 SA 
BRANCH  14  15
HETATM   15  C   UNL     1      -6.944  19.226  65.603  1.00  0.00    -0.270 A  
HETATM   16  N   UNL     1      -6.509  19.377  64.372  1.00  0.00    -0.353 NA 
HETATM   17  N   UNL     1      -6.081  20.675  64.273  1.00  0.00    -0.292 NA 
HETATM   18  N   UNL     1      -6.842  20.431  66.249  1.00  0.00    -0.237 NA 
HETATM   19  N   UNL     1      -6.265  21.323  65.414  1.00  0.00    -0.122 NA 
BRANCH  18  20
HETATM   20  C   UNL     1      -7.265  20.884  67.563  1.00  0.00    -0.311 C  
BRANCH  20  21
HETATM   21  C   UNL     1      -6.176  20.591  68.611  1.00  0.00    -0.316 C  
BRANCH  21  22
HETATM   22  N   UNL     1      -6.550  19.747  69.769  1.00  0.00    -0.344 NA 
HETATM   23  C   UNL     1      -5.892  20.280  70.976  1.00  0.00    -0.283 C  
HETATM   24  C   UNL     1      -6.154  18.342  69.616  1.00  0.00    -0.249 C  
ENDBRANCH  21  22
ENDBRANCH  20  21
ENDBRANCH  18  20
ENDBRANCH  14  15
ENDBRANCH  13  14
ENDBRANCH   4  13
BRANCH   8  25
HETATM   25  N   UNL     1     -10.922  12.457  69.203  1.00  0.00    -0.402 N  
HETATM   26  C   UNL     1     -11.171  11.104  69.119  1.00  0.00    -0.264 C  
HETATM   27  H   UNL     1     -10.037  12.773  69.602  1.00  0.00     0.000 HD 
HETATM   28  O   UNL     1     -12.157  10.648  68.540  1.00  0.00    -0.420 OA 
BRANCH  26  29
HETATM   29  C   UNL     1     -10.150  10.222  69.806  1.00  0.00    -0.244 C  
BRANCH  29  30
HETATM   30  C   UNL     1     -10.755   9.491  70.952  1.00  0.00    -0.333 A  
HETATM   31  N   UNL     1     -13.640   9.133  72.912  1.00  0.00    -0.869 NA 
HETATM   32  C   UNL     1     -10.164   8.490  71.698  1.00  0.00    -0.266 A  
HETATM   33  S   UNL     1     -11.251   7.929  72.894  1.00  0.00    -0.265 SA 
HETATM   34  H2  UNL     1     -13.869   8.514  73.690  1.00  0.00     0.000 HD 
HETATM   35  H1  UNL     1     -14.338   9.800  72.584  1.00  0.00     0.000 HD 
HETATM   36  N   UNL     1     -12.058   9.799  71.326  1.00  0.00    -0.353 NA 
HETATM   37  C   UNL     1     -12.424   9.051  72.341  1.00  0.00    -0.305 A  
ENDBRANCH  29  30
ENDBRANCH  26  29
ENDBRANCH   8  25
TORSDOF 9
ENDMDL
MODEL        3
REMARK 921   NORMALIZED FREE ENERGY PREDICTED BY IDOCK:   -6.62 KCAL/MOL
REMARK 922        TOTAL FREE ENERGY PREDICTED BY IDOCK:  -12.05 KCAL/MOL
REMARK 923 INTER-LIGAND FREE ENERGY PREDICTED BY IDOCK:  -10.46 KCAL/MOL
REMARK 924 INTRA-LIGAND FREE ENERGY PREDICTED BY IDOCK:   -1.59 KCAL/MOL
REMARK 927      BINDING AFFINITY PREDICTED BY RF-SCORE:    0.00 PKD
ROOT
HETATM    1  C   UNL     1      -9.350   9.488  68.935  1.00  0.00    -0.149 C  
HETATM    2  S   UNL     1      -9.913   8.741  67.389  1.00  0.00    -0.228 SA 
HETATM    3  C   UNL     1     -10.217  10.330  66.585  1.00  0.00    -0.233 C  
HETATM    4  C   UNL     1     -10.992  11.340  67.424  1.00  0.00    -0.337 C  
HETATM    5  C   UNL     1     -10.519   9.661  70.659  1.00  0.00    -0.312 C  
HETATM    6  CA  UNL     1     -11.098  11.276  68.785  1.00  0.00    -0.233 C  
HETATM    7  C   UNL     1     -11.946  12.289  69.530  1.00  0.00    -0.270 C  
HETATM    8  CA  UNL     1      -9.473   8.592  70.209  1.00  0.00    -0.166 C  
HETATM    9  N   UNL     1     -10.433  10.293  69.472  1.00  0.00    -0.229 N  
HETATM   10  O   UNL     1     -12.380  11.957  70.757  1.00  0.00    -0.374 OA 
HETATM   11  OXT UNL     1     -12.233  13.384  69.067  1.00  0.00    -0.295 OA 
HETATM   12  O   UNL     1     -11.277   9.848  71.587  1.00  0.00    -0.257 OA 
ENDROOT
BRANCH   4  13
HETATM   13  C   UNL     1     -11.748  12.325  66.525  1.00  0.00    -0.352 C  
BRANCH  13  14
HETATM   14  S   UNL     1     -10.846  12.723  64.984  1.00  0.00    -0.304 SA 
BRANCH  14  15
HETATM   15  C   UNL     1     -11.353  14.333  64.637  1.00  0.00    -0.373 A  
HETATM   16  N   UNL     1     -12.433  14.675  63.971  1.00  0.00    -0.813 NA 
HETATM   17  N   UNL     1     -12.396  16.039  63.854  1.00  0.00    -0.730 NA 
HETATM   18  N   UNL     1     -10.678  15.475  64.983  1.00  0.00    -0.440 NA 
HETATM   19  N   UNL     1     -11.324  16.536  64.454  1.00  0.00    -0.976 NA 
BRANCH  18  20
HETATM   20  C   UNL     1      -9.503  15.716  65.802  1.00  0.00    -0.303 C  
BRANCH  20  21
HETATM   21  C   UNL     1      -9.853  15.595  67.296  1.00  0.00    -0.225 C  
BRANCH  21  22
HETATM   22  N   UNL     1     -10.610  16.708  67.913  1.00  0.00    -0.331 NA 
HETATM   23  C   UNL     1      -9.862  17.962  67.707  1.00  0.00    -0.300 C  
HETATM   24  C   UNL     1     -10.825  16.537  69.355  1.00  0.00    -0.311 C  
ENDBRANCH  21  22
ENDBRANCH  20  21
ENDBRANCH  18  20
ENDBRANCH  14  15
ENDBRANCH  13  14
ENDBRANCH   4  13
BRANCH   8  25
HETATM   25  N   UNL     1     -10.015   7.213  70.014  1.00  0.00    -0.178 N  
HETATM   26  C   UNL     1      -9.538   6.132  70.723  1.00  0.00    -0.169 C  
HETATM   27  H   UNL     1     -10.761   7.068  69.334  1.00  0.00     0.000 HD 
HETATM   28  O   UNL     1      -8.729   6.248  71.643  1.00  0.00    -0.133 OA 
BRANCH  26  29
HETATM   29  C   UNL     1     -10.073   4.788  70.274  1.00  0.00    -0.304 C  
BRANCH  29  30
HETATM   30  C   UNL     1      -9.704   4.508  68.860  1.00  0.00    -0.154 A  
HETATM   31  N   UNL     1     -10.568   5.089  65.512  1.00  0.00    -0.495 NA 
HETATM   32  C   UNL     1      -8.622   3.770  68.419  1.00  0.00    -0.096 A  
HETATM   33  S   UNL     1      -8.589   3.742  66.708  1.00  0.00    -0.113 SA 
HETATM   34  H2  UNL     1     -10.139   4.801  64.632  1.00  0.00     0.000 HD 
HETATM   35  H1  UNL     1     -11.412   5.660  65.491  1.00  0.00     0.000 HD 
HETATM   36  N   UNL     1     -10.489   5.048  67.847  1.00  0.00    -0.037 NA 
HETATM   37  C   UNL     1     -10.008   4.705  66.674  1.00  0.00    -0.236 A  
ENDBRANCH  29  30
ENDBRANCH  26  29
ENDBRANCH   8  25
TORSDOF 9
ENDMDL
MODEL        4
REMARK 921   NORMALIZED FREE ENERGY PREDICTED BY IDOCK:   -6.61 KCAL/MOL
REMARK 922        TOTAL FREE ENERGY PREDICTED BY IDOCK:  -12.02 KCAL/MOL
REMARK 923 INTER-LIGAND FREE ENERGY PREDICTED BY IDOCK:  -10.45 KCAL/MOL
REMARK 924 INTRA-LIGAND FREE ENERGY PREDICTED BY IDOCK:   -1.57 KCAL/MOL
REMARK 927      BINDING AFFINITY PREDICTED BY RF-SCORE:    0.00 PKD
ROOT
HETATM    1  C   UNL     1     -11.854  14.466  68.620  1.00  0.00    -0.331 C  
HETATM    2  S   UNL     1     -10.258  13.685  68.292  1.00  0.00    -0.245 SA 
HETATM    3  C   UNL     1     -10.871  12.013  68.593  1.00  0.00    -0.237 C  
HETATM    4  C   UNL     1     -11.702  11.849  69.860  1.00  0.00    -0.383 C  
HETATM    5  C   UNL     1     -12.356  15.424  70.409  1.00  0.00    -0.402 C  
HETATM    6  CA  UNL     1     -12.313  12.885  70.508  1.00  0.00    -0.283 C  
HETATM    7  C   UNL     1     -13.065  12.636  71.801  1.00  0.00    -0.360 C  
HETATM    8  CA  UNL     1     -11.803  15.967  69.053  1.00  0.00    -0.318 C  
HETATM    9  N   UNL     1     -12.243  14.150  69.984  1.00  0.00    -0.341 N  
HETATM   10  O   UNL     1     -13.266  13.683  72.619  1.00  0.00    -0.503 OA 
HETATM   11  OXT UNL     1     -13.501  11.536  72.114  1.00  0.00    -0.410 OA 
HETATM   12  O   UNL     1     -12.638  15.856  71.506  1.00  0.00    -0.444 OA 
ENDROOT
BRANCH   4  13
HETATM   13  C   UNL     1     -11.625  10.408  70.377  1.00  0.00    -0.337 C  
BRANCH  13  14
HETATM   14  S   UNL     1     -10.292   9.436  69.586  1.00  0.00    -0.229 SA 
BRANCH  14  15
HETATM   15  C   UNL     1      -9.151   9.226  70.860  1.00  0.00    -0.222 A  
HETATM   16  N   UNL     1      -7.869   9.510  70.802  1.00  0.00    -0.296 NA 
HETATM   17  N   UNL     1      -7.332   9.105  71.995  1.00  0.00    -0.318 NA 
HETATM   18  N   UNL     1      -9.422   8.702  72.097  1.00  0.00    -0.305 NA 
HETATM   19  N   UNL     1      -8.265   8.598  72.787  1.00  0.00    -0.409 NA 
BRANCH  18  20
HETATM   20  C   UNL     1     -10.659   8.317  72.755  1.00  0.00    -0.251 C  
BRANCH  20  21
HETATM   21  C   UNL     1     -10.874   6.796  72.652  1.00  0.00    -0.250 C  
BRANCH  21  22
HETATM   22  N   UNL     1     -11.935   6.317  71.737  1.00  0.00    -0.305 NA 
HETATM   23  C   UNL     1     -11.356   6.132  70.394  1.00  0.00    -0.328 C  
HETATM   24  C   UNL     1     -13.067   7.245  71.621  1.00  0.00    -0.369 C  
ENDBRANCH  21  22
ENDBRANCH  20  21
ENDBRANCH  18  20
ENDBRANCH  14  15
ENDBRANCH  13  14
ENDBRANCH   4  13
BRANCH   8  25
HETATM   25  N   UNL     1     -10.452  16.602  69.124  1.00  0.00    -0.314 N  
HETATM   26  C   UNL     1     -10.036  17.544  68.208  1.00  0.00    -0.346 C  
HETATM   27  H   UNL     1      -9.818  16.329  69.876  1.00  0.00     0.000 HD 
HETATM   28  O   UNL     1     -10.786  18.010  67.352  1.00  0.00    -0.356 OA 
BRANCH  26  29
HETATM   29  C   UNL     1      -8.581  17.948  68.324  1.00  0.00    -0.277 C  
BRANCH  29  30
HETATM   30  C   UNL     1      -7.693  16.756  68.365  1.00  0.00    -0.208 A  
HETATM   31  N   UNL     1      -6.545  14.113  70.363  1.00  0.00    -0.403 NA 
HETATM   32  C   UNL     1      -6.920  16.266  67.330  1.00  0.00    -0.192 A  
HETATM   33  S   UNL     1      -6.086  14.860  67.835  1.00  0.00    -0.138 SA 
HETATM   34  H2  UNL     1      -5.908  13.339  70.177  1.00  0.00     0.000 HD 
HETATM   35  H1  UNL     1      -6.971  14.197  71.285  1.00  0.00     0.000 HD 
HETATM   36  N   UNL     1      -7.624  16.016  69.540  1.00  0.00    -0.178 NA 
HETATM   37  C   UNL     1      -6.804  15.002  69.386  1.00  0.00    -0.165 A  
ENDBRANCH  29  30
ENDBRANCH  26  29
ENDBRANCH   8  25
TORSDOF 9
ENDMDL
MODEL        5
REMARK 921   NORMALIZED FREE ENERGY PREDICTED BY IDOCK:   -6.58 KCAL/MOL
REMARK 922        TOTAL FREE ENERGY PREDICTED BY IDOCK:  -11.98 KCAL/MOL
REMARK 923 INTER-LIGAND FREE ENERGY PREDICTED BY IDOCK:  -10.92 KCAL/MOL
REMARK 924 INTRA-LIGAND FREE ENERGY PREDICTED BY IDOCK:   -1.07 KCAL/MOL
REMARK 927      BINDING AFFINITY PREDICTED BY RF-SCORE:    0.00 PKD
ROOT
HETATM    1  C   UNL     1     -11.851  14.026  67.818  1.00  0.00    -0.384 C  
HETATM    2  S   UNL     1     -10.480  12.906  67.454  1.00  0.00    -0.234 SA 
HETATM    3  C   UNL     1     -11.289  11.471  68.194  1.00  0.00    -0.298 C  
HETATM    4  C   UNL     1     -11.903  11.714  69.567  1.00  0.00    -0.414 C  
HETATM    5  C   UNL     1     -11.875  15.386  69.406  1.00  0.00    -0.351 C  
HETATM    6  CA  UNL     1     -12.219  12.952  70.051  1.00  0.00    -0.222 C  
HETATM    7  C   UNL     1     -12.765  13.102  71.458  1.00  0.00    -0.269 C  
HETATM    8  CA  UNL     1     -11.487  15.544  67.901  1.00  0.00    -0.272 C  
HETATM    9  N   UNL     1     -12.041  14.056  69.258  1.00  0.00    -0.347 N  
HETATM   10  O   UNL     1     -12.652  14.305  72.047  1.00  0.00    -0.334 OA 
HETATM   11  OXT UNL     1     -13.309  12.187  72.061  1.00  0.00    -0.503 OA 
HETATM   12  O   UNL     1     -11.890  16.065  70.411  1.00  0.00    -0.345 OA 
ENDROOT
BRANCH   4  13
HETATM   13  C   UNL     1     -11.966  10.410  70.372  1.00  0.00    -0.320 C  
BRANCH  13  14
HETATM   14  S   UNL     1     -10.329   9.622  70.584  1.00  0.00    -0.268 SA 
BRANCH  14  15
HETATM   15  C   UNL     1     -10.661   8.306  71.645  1.00  0.00    -0.256 A  
HETATM   16  N   UNL     1     -10.356   8.248  72.922  1.00  0.00    -0.261 NA 
HETATM   17  N   UNL     1     -10.719   6.998  73.347  1.00  0.00    -0.343 NA 
HETATM   18  N   UNL     1     -11.261   7.125  71.290  1.00  0.00    -0.253 NA 
HETATM   19  N   UNL     1     -11.259   6.300  72.359  1.00  0.00    -0.267 NA 
BRANCH  18  20
HETATM   20  C   UNL     1     -11.894   6.671  70.064  1.00  0.00    -0.238 C  
BRANCH  20  21
HETATM   21  C   UNL     1     -10.843   6.102  69.093  1.00  0.00    -0.351 C  
BRANCH  21  22
HETATM   22  N   UNL     1     -11.057   6.328  67.645  1.00  0.00    -0.335 NA 
HETATM   23  C   UNL     1     -10.312   5.304  66.890  1.00  0.00    -0.255 C  
HETATM   24  C   UNL     1     -10.606   7.648  67.189  1.00  0.00    -0.340 C  
ENDBRANCH  21  22
ENDBRANCH  20  21
ENDBRANCH  18  20
ENDBRANCH  14  15
ENDBRANCH  13  14
ENDBRANCH   4  13
BRANCH   8  25
HETATM   25  N   UNL     1     -10.061  15.910  67.646  1.00  0.00    -0.239 N  
HETATM   26  C   UNL     1      -9.649  16.459  66.452  1.00  0.00    -0.288 C  
HETATM   27  H   UNL     1      -9.371  15.749  68.380  1.00  0.00     0.000 HD 
HETATM   28  O   UNL     1     -10.439  16.795  65.570  1.00  0.00    -0.538 OA 
BRANCH  26  29
HETATM   29  C   UNL     1      -8.149  16.602  66.299  1.00  0.00    -0.361 C  
BRANCH  29  30
HETATM   30  C   UNL     1      -7.709  17.993  66.591  1.00  0.00    -0.238 A  
HETATM   31  N   UNL     1      -6.547  20.982  65.173  1.00  0.00    -0.503 NA 
HETATM   32  C   UNL     1      -7.669  18.604  67.830  1.00  0.00    -0.237 A  
HETATM   33  S   UNL     1      -7.119  20.216  67.672  1.00  0.00    -0.295 SA 
HETATM   34  H2  UNL     1      -6.308  21.887  65.578  1.00  0.00     0.000 HD 
HETATM   35  H1  UNL     1      -6.458  20.847  64.166  1.00  0.00     0.000 HD 
HETATM   36  N   UNL     1      -7.313  18.803  65.533  1.00  0.00    -0.497 NA 
HETATM   37  C   UNL     1      -6.971  19.991  65.978  1.00  0.00    -0.267 A  
ENDBRANCH  29  30
ENDBRANCH  26  29
ENDBRANCH   8  25
TORSDOF 9
ENDMDL
MODEL        6
REMARK 921   NORMALIZED FREE ENERGY PREDICTED BY IDOCK:   -6.54 KCAL/MOL
REMARK 922        TOTAL FREE ENERGY PREDICTED BY IDOCK:  -11.92 KCAL/MOL
REMARK 923 INTER-LIGAND FREE ENERGY PREDICTED BY IDOCK:  -10.44 KCAL/MOL
REMARK 924 INTRA-LIGAND FREE ENERGY PREDICTED BY IDOCK:   -1.48 KCAL/MOL
REMARK 927      BINDING AFFINITY PREDICTED BY RF-SCORE:    0.00 PKD
ROOT
HETATM    1  C   UNL     1      -9.104   9.207  68.574  1.00  0.00    -0.132 C  
HETATM    2  S   UNL     1     -10.891   9.373  68.783  1.00  0.00    -0.051 SA 
HETATM    3  C   UNL     1     -11.053  10.624  67.490  1.00  0.00    -0.300 C  
HETATM    4  C   UNL     1     -10.038  11.757  67.558  1.00  0.00    -0.207 C  
HETATM    5  C   UNL     1      -7.682  10.084  69.829  1.00  0.00    -0.168 C  
HETATM    6  CA  UNL     1      -8.850  11.675  68.229  1.00  0.00    -0.167 C  
HETATM    7  C   UNL     1      -7.930  12.879  68.297  1.00  0.00    -0.151 C  
HETATM    8  CA  UNL     1      -8.322   8.660  69.811  1.00  0.00    -0.123 C  
HETATM    9  N   UNL     1      -8.495  10.499  68.837  1.00  0.00    -0.143 N  
HETATM   10  O   UNL     1      -7.024  12.917  69.289  1.00  0.00    -0.066 OA 
HETATM   11  OXT UNL     1      -7.973  13.795  67.487  1.00  0.00    -0.158 OA 
HETATM   12  O   UNL     1      -6.902  10.715  70.511  1.00  0.00    -0.309 OA 
ENDROOT
BRANCH   4  13
HETATM   13  C   UNL     1     -10.599  13.030  66.911  1.00  0.00    -0.254 C  
BRANCH  13  14
HETATM   14  S   UNL     1     -10.553  12.981  65.083  1.00  0.00    -0.324 SA 
BRANCH  14  15
HETATM   15  C   UNL     1     -11.215  14.507  64.633  1.00  0.00    -0.353 A  
HETATM   16  N   UNL     1     -12.303  14.696  63.922  1.00  0.00    -0.744 NA 
HETATM   17  N   UNL     1     -12.405  16.048  63.729  1.00  0.00    -0.608 NA 
HETATM   18  N   UNL     1     -10.674  15.731  64.931  1.00  0.00    -0.529 NA 
HETATM   19  N   UNL     1     -11.411  16.688  64.327  1.00  0.00    -1.093 NA 
BRANCH  18  20
HETATM   20  C   UNL     1      -9.556  16.139  65.765  1.00  0.00    -0.257 C  
BRANCH  20  21
HETATM   21  C   UNL     1      -9.886  17.445  66.508  1.00  0.00    -0.304 C  
BRANCH  21  22
HETATM   22  N   UNL     1      -9.809  17.429  67.986  1.00  0.00    -0.276 NA 
HETATM   23  C   UNL     1     -10.899  16.586  68.509  1.00  0.00    -0.349 C  
HETATM   24  C   UNL     1      -9.934  18.762  68.590  1.00  0.00    -0.394 C  
ENDBRANCH  21  22
ENDBRANCH  20  21
ENDBRANCH  18  20
ENDBRANCH  14  15
ENDBRANCH  13  14
ENDBRANCH   4  13
BRANCH   8  25
HETATM   25  N   UNL     1      -9.129   8.309  71.018  1.00  0.00    -0.150 N  
HETATM   26  C   UNL     1      -9.452   7.006  71.330  1.00  0.00    -0.164 C  
HETATM   27  H   UNL     1      -9.452   9.058  71.631  1.00  0.00     0.000 HD 
HETATM   28  O   UNL     1      -8.998   6.045  70.710  1.00  0.00    -0.146 OA 
BRANCH  26  29
HETATM   29  C   UNL     1     -10.421   6.846  72.482  1.00  0.00    -0.241 C  
BRANCH  29  30
HETATM   30  C   UNL     1     -11.716   7.519  72.193  1.00  0.00    -0.303 A  
HETATM   31  N   UNL     1     -13.404  10.592  72.190  1.00  0.00    -0.569 NA 
HETATM   32  C   UNL     1     -12.862   6.926  71.698  1.00  0.00    -0.335 A  
HETATM   33  S   UNL     1     -14.092   8.099  71.501  1.00  0.00    -0.355 SA 
HETATM   34  H2  UNL     1     -14.350  10.855  71.914  1.00  0.00     0.000 HD 
HETATM   35  H1  UNL     1     -12.769  11.309  72.538  1.00  0.00     0.000 HD 
HETATM   36  N   UNL     1     -11.818   8.889  72.404  1.00  0.00    -0.295 NA 
HETATM   37  C   UNL     1     -13.022   9.306  72.087  1.00  0.00    -0.424 A  
ENDBRANCH  29  30
ENDBRANCH  26  29
ENDBRANCH   8  25
TORSDOF 9
ENDMDL
MODEL        7
REMARK 921   NORMALIZED FREE ENERGY PREDICTED BY IDOCK:   -6.46 KCAL/MOL
REMARK 922        TOTAL FREE ENERGY PREDICTED BY IDOCK:  -11.79 KCAL/MOL
REMARK 923 INTER-LIGAND FREE ENERGY PREDICTED BY IDOCK:  -10.56 KCAL/MOL
REMARK 924 INTRA-LIGAND FREE ENERGY PREDICTED BY IDOCK:   -1.23 KCAL/MOL
REMARK 927      BINDING AFFINITY PREDICTED BY RF-SCORE:    0.00 PKD
ROOT
HETATM    1  C   UNL     1     -11.209  14.048  68.206  1.00  0.00    -0.268 C  
HETATM    2  S   UNL     1      -9.442  14.083  68.586  1.00  0.00    -0.085 SA 
HETATM    3  C   UNL     1      -9.209  15.756  67.946  1.00  0.00    -0.191 C  
HETATM    4  C   UNL     1      -9.835  16.018  66.582  1.00  0.00    -0.273 C  
HETATM    5  C   UNL     1     -12.043  13.080  66.552  1.00  0.00    -0.341 C  
HETATM    6  CA  UNL     1     -10.835  15.257  66.045  1.00  0.00    -0.330 C  
HETATM    7  C   UNL     1     -11.350  15.554  64.650  1.00  0.00    -0.357 C  
HETATM    8  CA  UNL     1     -11.840  12.629  68.034  1.00  0.00    -0.323 C  
HETATM    9  N   UNL     1     -11.368  14.226  66.774  1.00  0.00    -0.335 N  
HETATM   10  O   UNL     1     -11.986  14.567  63.996  1.00  0.00    -0.362 OA 
HETATM   11  OXT UNL     1     -11.223  16.645  64.112  1.00  0.00    -1.103 OA 
HETATM   12  O   UNL     1     -12.460  12.611  65.514  1.00  0.00    -0.622 OA 
ENDROOT
BRANCH   4  13
HETATM   13  C   UNL     1      -9.088  17.139  65.848  1.00  0.00     0.008 C  
BRANCH  13  14
HETATM   14  S   UNL     1      -7.310  17.209  66.273  1.00  0.00    -0.248 SA 
BRANCH  14  15
HETATM   15  C   UNL     1      -6.824  18.749  65.672  1.00  0.00    -0.254 A  
HETATM   16  N   UNL     1      -6.198  18.971  64.538  1.00  0.00    -0.480 NA 
HETATM   17  N   UNL     1      -5.930  20.314  64.505  1.00  0.00    -0.250 NA 
HETATM   18  N   UNL     1      -6.995  19.947  66.314  1.00  0.00    -0.228 NA 
HETATM   19  N   UNL     1      -6.398  20.917  65.588  1.00  0.00    -0.232 NA 
BRANCH  18  20
HETATM   20  C   UNL     1      -7.701  20.324  67.526  1.00  0.00    -0.305 C  
BRANCH  20  21
HETATM   21  C   UNL     1      -9.119  20.823  67.192  1.00  0.00    -0.180 C  
BRANCH  21  22
HETATM   22  N   UNL     1     -10.242  20.273  67.986  1.00  0.00    -0.351 NA 
HETATM   23  C   UNL     1      -9.692  19.458  69.084  1.00  0.00    -0.341 C  
HETATM   24  C   UNL     1     -11.149  19.426  67.201  1.00  0.00    -0.176 C  
ENDBRANCH  21  22
ENDBRANCH  20  21
ENDBRANCH  18  20
ENDBRANCH  14  15
ENDBRANCH  13  14
ENDBRANCH   4  13
BRANCH   8  25
HETATM   25  N   UNL     1     -10.931  11.459  68.225  1.00  0.00    -0.199 N  
HETATM   26  C   UNL     1     -10.820  10.807  69.434  1.00  0.00    -0.244 C  
HETATM   27  H   UNL     1     -10.375  11.131  67.434  1.00  0.00     0.000 HD 
HETATM   28  O   UNL     1     -11.546  11.065  70.393  1.00  0.00    -0.308 OA 
BRANCH  26  29
HETATM   29  C   UNL     1      -9.727   9.762  69.498  1.00  0.00    -0.228 C  
BRANCH  29  30
HETATM   30  C   UNL     1     -10.260   8.407  69.194  1.00  0.00    -0.211 A  
HETATM   31  N   UNL     1     -11.183   6.208  66.623  1.00  0.00    -0.758 NA 
HETATM   32  C   UNL     1     -10.579   7.420  70.108  1.00  0.00    -0.230 A  
HETATM   33  S   UNL     1     -11.130   6.021  69.292  1.00  0.00    -0.277 SA 
HETATM   34  H2  UNL     1     -11.529   5.249  66.632  1.00  0.00     0.000 HD 
HETATM   35  H1  UNL     1     -11.053   6.683  65.731  1.00  0.00     0.000 HD 
HETATM   36  N   UNL     1     -10.447   8.046  67.864  1.00  0.00    -0.216 NA 
HETATM   37  C   UNL     1     -10.910   6.820  67.790  1.00  0.00    -0.264 A  
ENDBRANCH  29  30
ENDBRANCH  26  29
ENDBRANCH   8  25
TORSDOF 9
ENDMDL
MODEL        8
REMARK 921   NORMALIZED FREE ENERGY PREDICTED BY IDOCK:   -6.43 KCAL/MOL
REMARK 922        TOTAL FREE ENERGY PREDICTED BY IDOCK:  -11.76 KCAL/MOL
REMARK 923 INTER-LIGAND FREE ENERGY PREDICTED BY IDOCK:  -10.67 KCAL/MOL
REMARK 924 INTRA-LIGAND FREE ENERGY PREDICTED BY IDOCK:   -1.08 KCAL/MOL
REMARK 927      BINDING AFFINITY PREDICTED BY RF-SCORE:    0.00 PKD
ROOT
HETATM    1  C   UNL     1     -11.519  13.902  68.190  1.00  0.00    -0.312 C  
HETATM    2  S   UNL     1      -9.805  14.043  68.744  1.00  0.00    -0.076 SA 
HETATM    3  C   UNL     1      -9.624  15.744  68.165  1.00  0.00    -0.199 C  
HETATM    4  C   UNL     1     -10.130  16.002  66.751  1.00  0.00    -0.272 C  
HETATM    5  C   UNL     1     -12.120  12.927  66.442  1.00  0.00    -0.329 C  
HETATM    6  CA  UNL     1     -11.019  15.192  66.102  1.00  0.00    -0.331 C  
HETATM    7  C   UNL     1     -11.415  15.492  64.669  1.00  0.00    -0.324 C  
HETATM    8  CA  UNL     1     -12.033  12.450  67.926  1.00  0.00    -0.196 C  
HETATM    9  N   UNL     1     -11.550  14.109  66.753  1.00  0.00    -0.372 N  
HETATM   10  O   UNL     1     -11.915  14.484  63.935  1.00  0.00    -0.354 OA 
HETATM   11  OXT UNL     1     -11.310  16.604  64.170  1.00  0.00    -1.141 OA 
HETATM   12  O   UNL     1     -12.401  12.461  65.358  1.00  0.00    -0.596 OA 
ENDROOT
BRANCH   4  13
HETATM   13  C   UNL     1      -9.393  17.189  66.119  1.00  0.00    -0.192 C  
BRANCH  13  14
HETATM   14  S   UNL     1      -7.577  17.083  66.306  1.00  0.00    -0.250 SA 
BRANCH  14  15
HETATM   15  C   UNL     1      -7.040  18.643  65.810  1.00  0.00    -0.226 A  
HETATM   16  N   UNL     1      -6.322  18.908  64.742  1.00  0.00    -0.495 NA 
HETATM   17  N   UNL     1      -6.050  20.250  64.785  1.00  0.00    -0.244 NA 
HETATM   18  N   UNL     1      -7.262  19.816  66.485  1.00  0.00    -0.230 NA 
HETATM   19  N   UNL     1      -6.605  20.811  65.850  1.00  0.00    -0.213 NA 
BRANCH  18  20
HETATM   20  C   UNL     1      -8.065  20.148  67.649  1.00  0.00    -0.298 C  
BRANCH  20  21
HETATM   21  C   UNL     1      -7.502  19.461  68.906  1.00  0.00    -0.364 C  
BRANCH  21  22
HETATM   22  N   UNL     1      -6.038  19.522  69.120  1.00  0.00    -0.259 NA 
HETATM   23  C   UNL     1      -5.521  18.147  69.254  1.00  0.00    -0.204 C  
HETATM   24  C   UNL     1      -5.657  20.271  70.324  1.00  0.00    -0.318 C  
ENDBRANCH  21  22
ENDBRANCH  20  21
ENDBRANCH  18  20
ENDBRANCH  14  15
ENDBRANCH  13  14
ENDBRANCH   4  13
BRANCH   8  25
HETATM   25  N   UNL     1     -11.070  11.337  68.182  1.00  0.00    -0.237 N  
HETATM   26  C   UNL     1     -10.902  10.788  69.435  1.00  0.00    -0.244 C  
HETATM   27  H   UNL     1     -10.519  10.972  67.404  1.00  0.00     0.000 HD 
HETATM   28  O   UNL     1     -11.614  11.090  70.391  1.00  0.00    -0.308 OA 
BRANCH  26  29
HETATM   29  C   UNL     1      -9.762   9.797  69.549  1.00  0.00    -0.228 C  
BRANCH  29  30
HETATM   30  C   UNL     1     -10.204   8.425  69.181  1.00  0.00    -0.211 A  
HETATM   31  N   UNL     1     -10.888   6.264  66.506  1.00  0.00    -0.612 NA 
HETATM   32  C   UNL     1     -10.506   7.393  70.049  1.00  0.00    -0.226 A  
HETATM   33  S   UNL     1     -10.941   5.993  69.167  1.00  0.00    -0.318 SA 
HETATM   34  H2  UNL     1     -11.179   5.287  66.470  1.00  0.00     0.000 HD 
HETATM   35  H1  UNL     1     -10.746   6.774  65.635  1.00  0.00     0.000 HD 
HETATM   36  N   UNL     1     -10.312   8.098  67.833  1.00  0.00    -0.220 NA 
HETATM   37  C   UNL     1     -10.701   6.851  67.702  1.00  0.00    -0.274 A  
ENDBRANCH  29  30
ENDBRANCH  26  29
ENDBRANCH   8  25
TORSDOF 9
ENDMDL
MODEL        9
REMARK 921   NORMALIZED FREE ENERGY PREDICTED BY IDOCK:   -6.41 KCAL/MOL
REMARK 922        TOTAL FREE ENERGY PREDICTED BY IDOCK:  -11.72 KCAL/MOL
REMARK 923 INTER-LIGAND FREE ENERGY PREDICTED BY IDOCK:  -10.64 KCAL/MOL
REMARK 924 INTRA-LIGAND FREE ENERGY PREDICTED BY IDOCK:   -1.08 KCAL/MOL
REMARK 927      BINDING AFFINITY PREDICTED BY RF-SCORE:    0.00 PKD
ROOT
HETATM    1  C   UNL     1     -11.697  14.150  67.721  1.00  0.00    -0.373 C  
HETATM    2  S   UNL     1     -10.292  13.058  67.408  1.00  0.00    -0.235 SA 
HETATM    3  C   UNL     1     -11.098  11.607  68.121  1.00  0.00    -0.242 C  
HETATM    4  C   UNL     1     -11.766  11.838  69.471  1.00  0.00    -0.408 C  
HETATM    5  C   UNL     1     -11.807  15.510  69.304  1.00  0.00    -0.353 C  
HETATM    6  CA  UNL     1     -12.125  13.071  69.941  1.00  0.00    -0.277 C  
HETATM    7  C   UNL     1     -12.724  13.211  71.327  1.00  0.00    -0.306 C  
HETATM    8  CA  UNL     1     -11.368  15.674  67.815  1.00  0.00    -0.261 C  
HETATM    9  N   UNL     1     -11.940  14.177  69.153  1.00  0.00    -0.343 N  
HETATM   10  O   UNL     1     -12.657  14.416  71.918  1.00  0.00    -0.333 OA 
HETATM   11  OXT UNL     1     -13.271  12.286  71.911  1.00  0.00    -0.473 OA 
HETATM   12  O   UNL     1     -11.872  16.190  70.307  1.00  0.00    -0.292 OA 
ENDROOT
BRANCH   4  13
HETATM   13  C   UNL     1     -11.832  10.534  70.275  1.00  0.00    -0.331 C  
BRANCH  13  14
HETATM   14  S   UNL     1     -10.225   9.665  70.359  1.00  0.00    -0.285 SA 
BRANCH  14  15
HETATM   15  C   UNL     1     -10.616   8.067  69.849  1.00  0.00    -0.242 A  
HETATM   16  N   UNL     1     -10.294   7.525  68.696  1.00  0.00    -0.198 NA 
HETATM   17  N   UNL     1     -10.879   6.286  68.677  1.00  0.00    -0.303 NA 
HETATM   18  N   UNL     1     -11.346   7.156  70.567  1.00  0.00    -0.288 NA 
HETATM   19  N   UNL     1     -11.534   6.056  69.805  1.00  0.00    -0.305 NA 
BRANCH  18  20
HETATM   20  C   UNL     1     -11.867   7.158  71.923  1.00  0.00    -0.300 C  
BRANCH  20  21
HETATM   21  C   UNL     1     -11.884   5.730  72.496  1.00  0.00    -0.166 C  
BRANCH  21  22
HETATM   22  N   UNL     1     -10.817   5.365  73.456  1.00  0.00    -0.286 NA 
HETATM   23  C   UNL     1     -10.235   6.602  74.010  1.00  0.00    -0.369 C  
HETATM   24  C   UNL     1      -9.732   4.584  72.850  1.00  0.00    -0.137 C  
ENDBRANCH  21  22
ENDBRANCH  20  21
ENDBRANCH  18  20
ENDBRANCH  14  15
ENDBRANCH  13  14
ENDBRANCH   4  13
BRANCH   8  25
HETATM   25  N   UNL     1      -9.941  16.069  67.611  1.00  0.00    -0.236 N  
HETATM   26  C   UNL     1      -9.491  16.599  66.421  1.00  0.00    -0.280 C  
HETATM   27  H   UNL     1      -9.280  15.943  68.377  1.00  0.00     0.000 HD 
HETATM   28  O   UNL     1     -10.250  16.894  65.499  1.00  0.00    -0.580 OA 
BRANCH  26  29
HETATM   29  C   UNL     1      -7.989  16.776  66.328  1.00  0.00    -0.352 C  
BRANCH  29  30
HETATM   30  C   UNL     1      -7.608  18.209  66.438  1.00  0.00    -0.256 A  
HETATM   31  N   UNL     1      -6.613  21.049  64.638  1.00  0.00    -0.531 NA 
HETATM   32  C   UNL     1      -7.573  18.969  67.592  1.00  0.00    -0.237 A  
HETATM   33  S   UNL     1      -7.101  20.572  67.225  1.00  0.00    -0.333 SA 
HETATM   34  H2  UNL     1      -6.409  22.006  64.924  1.00  0.00     0.000 HD 
HETATM   35  H1  UNL     1      -6.538  20.796  63.653  1.00  0.00     0.000 HD 
HETATM   36  N   UNL     1      -7.271  18.900  65.280  1.00  0.00    -0.422 NA 
HETATM   37  C   UNL     1      -6.975  20.147  65.568  1.00  0.00    -0.304 A  
ENDBRANCH  29  30
ENDBRANCH  26  29
ENDBRANCH   8  25
TORSDOF 9
ENDMDL
MODEL       10
REMARK 921   NORMALIZED FREE ENERGY PREDICTED BY IDOCK:   -6.38 KCAL/MOL
REMARK 922        TOTAL FREE ENERGY PREDICTED BY IDOCK:  -11.67 KCAL/MOL
REMARK 923 INTER-LIGAND FREE ENERGY PREDICTED BY IDOCK:   -9.90 KCAL/MOL
REMARK 924 INTRA-LIGAND FREE ENERGY PREDICTED BY IDOCK:   -1.77 KCAL/MOL
REMARK 927      BINDING AFFINITY PREDICTED BY RF-SCORE:    0.00 PKD
ROOT
HETATM    1  C   UNL     1      -8.699   9.108  67.671  1.00  0.00    -0.120 C  
HETATM    2  S   UNL     1      -8.819  10.315  69.010  1.00  0.00    -0.176 SA 
HETATM    3  C   UNL     1      -7.879   9.305  70.175  1.00  0.00    -0.125 C  
HETATM    4  C   UNL     1      -8.303   7.843  70.250  1.00  0.00    -0.126 C  
HETATM    5  C   UNL     1     -10.232   7.797  67.122  1.00  0.00    -0.295 C  
HETATM    6  CA  UNL     1      -9.012   7.206  69.271  1.00  0.00    -0.138 C  
HETATM    7  C   UNL     1      -9.449   5.766  69.463  1.00  0.00    -0.135 C  
HETATM    8  CA  UNL     1      -9.807   9.196  66.573  1.00  0.00    -0.264 C  
HETATM    9  N   UNL     1      -9.324   7.874  68.115  1.00  0.00    -0.142 N  
HETATM   10  O   UNL     1     -10.478   5.322  68.722  1.00  0.00    -0.173 OA 
HETATM   11  OXT UNL     1      -8.897   5.003  70.244  1.00  0.00    -0.110 OA 
HETATM   12  O   UNL     1     -11.104   6.977  66.927  1.00  0.00    -0.359 OA 
ENDROOT
BRANCH   4  13
HETATM   13  C   UNL     1      -7.965   7.249  71.623  1.00  0.00    -0.096 C  
BRANCH  13  14
HETATM   14  S   UNL     1      -9.021   7.905  72.965  1.00  0.00    -0.254 SA 
BRANCH  14  15
HETATM   15  C   UNL     1     -10.610   7.469  72.462  1.00  0.00    -0.270 A  
HETATM   16  N   UNL     1     -11.188   6.306  72.657  1.00  0.00    -0.270 NA 
HETATM   17  N   UNL     1     -12.399   6.367  72.021  1.00  0.00    -0.303 NA 
HETATM   18  N   UNL     1     -11.473   8.269  71.760  1.00  0.00    -0.275 NA 
HETATM   19  N   UNL     1     -12.579   7.553  71.459  1.00  0.00    -0.342 NA 
BRANCH  18  20
HETATM   20  C   UNL     1     -11.422   9.666  71.362  1.00  0.00    -0.385 C  
BRANCH  20  21
HETATM   21  C   UNL     1     -12.700  10.400  71.804  1.00  0.00    -0.421 C  
BRANCH  21  22
HETATM   22  N   UNL     1     -13.084  11.617  71.052  1.00  0.00    -0.107 NA 
HETATM   23  C   UNL     1     -11.975  11.990  70.155  1.00  0.00    -0.321 C  
HETATM   24  C   UNL     1     -13.377  12.767  71.916  1.00  0.00    -0.413 C  
ENDBRANCH  21  22
ENDBRANCH  20  21
ENDBRANCH  18  20
ENDBRANCH  14  15
ENDBRANCH  13  14
ENDBRANCH   4  13
BRANCH   8  25
HETATM   25  N   UNL     1     -10.826  10.278  66.729  1.00  0.00    -0.144 N  
HETATM   26  C   UNL     1     -10.942  11.311  65.825  1.00  0.00    -0.145 C  
HETATM   27  H   UNL     1     -11.457  10.249  67.531  1.00  0.00     0.000 HD 
HETATM   28  O   UNL     1     -10.302  11.346  64.774  1.00  0.00    -0.259 OA 
BRANCH  26  29
HETATM   29  C   UNL     1     -11.902  12.410  66.230  1.00  0.00    -0.431 C  
BRANCH  29  30
HETATM   30  C   UNL     1     -11.329  13.754  65.951  1.00  0.00    -0.307 A  
HETATM   31  N   UNL     1     -11.545  16.582  63.890  1.00  0.00    -1.578 NA 
HETATM   32  C   UNL     1     -10.316  14.382  66.650  1.00  0.00    -0.275 A  
HETATM   33  S   UNL     1     -10.011  15.927  65.982  1.00  0.00    -0.360 SA 
HETATM   34  H2  UNL     1     -11.036  17.466  63.881  1.00  0.00     0.000 HD 
HETATM   35  H1  UNL     1     -12.275  16.420  63.196  1.00  0.00     0.000 HD 
HETATM   36  N   UNL     1     -11.858  14.500  64.903  1.00  0.00    -0.398 NA 
HETATM   37  C   UNL     1     -11.239  15.655  64.815  1.00  0.00    -0.382 A  
ENDBRANCH  29  30
ENDBRANCH  26  29
ENDBRANCH   8  25
TORSDOF 9
ENDMDL
MODEL       11
REMARK 921   NORMALIZED FREE ENERGY PREDICTED BY IDOCK:   -6.37 KCAL/MOL
REMARK 922        TOTAL FREE ENERGY PREDICTED BY IDOCK:  -11.67 KCAL/MOL
REMARK 923 INTER-LIGAND FREE ENERGY PREDICTED BY IDOCK:  -10.23 KCAL/MOL
REMARK 924 INTRA-LIGAND FREE ENERGY PREDICTED BY IDOCK:   -1.44 KCAL/MOL
REMARK 927      BINDING AFFINITY PREDICTED BY RF-SCORE:    0.00 PKD
ROOT
HETATM    1  C   UNL     1      -9.461   9.296  70.669  1.00  0.00    -0.272 C  
HETATM    2  S   UNL     1      -9.502   9.019  68.884  1.00  0.00    -0.153 SA 
HETATM    3  C   UNL     1     -10.046  10.700  68.508  1.00  0.00    -0.172 C  
HETATM    4  C   UNL     1     -11.202  11.209  69.359  1.00  0.00    -0.334 C  
HETATM    5  C   UNL     1     -10.945   8.663  71.997  1.00  0.00    -0.362 C  
HETATM    6  CA  UNL     1     -11.549  10.675  70.568  1.00  0.00    -0.350 C  
HETATM    7  C   UNL     1     -12.759  11.205  71.315  1.00  0.00    -0.426 C  
HETATM    8  CA  UNL     1      -9.591   8.019  71.560  1.00  0.00    -0.163 C  
HETATM    9  N   UNL     1     -10.799   9.660  71.103  1.00  0.00    -0.353 N  
HETATM   10  O   UNL     1     -13.321  10.408  72.239  1.00  0.00    -0.396 OA 
HETATM   11  OXT UNL     1     -13.224  12.319  71.119  1.00  0.00    -0.125 OA 
HETATM   12  O   UNL     1     -11.891   8.385  72.705  1.00  0.00    -0.393 OA 
ENDROOT
BRANCH   4  13
HETATM   13  C   UNL     1     -12.000  12.281  68.606  1.00  0.00    -0.227 C  
BRANCH  13  14
HETATM   14  S   UNL     1     -11.007  13.766  68.214  1.00  0.00    -0.260 SA 
BRANCH  14  15
HETATM   15  C   UNL     1     -11.570  14.212  66.648  1.00  0.00    -0.384 A  
HETATM   16  N   UNL     1     -12.617  13.710  66.033  1.00  0.00    -0.424 NA 
HETATM   17  N   UNL     1     -12.641  14.281  64.788  1.00  0.00    -0.651 NA 
HETATM   18  N   UNL     1     -10.979  15.129  65.818  1.00  0.00    -0.344 NA 
HETATM   19  N   UNL     1     -11.641  15.137  64.640  1.00  0.00    -0.395 NA 
BRANCH  18  20
HETATM   20  C   UNL     1      -9.877  16.058  66.001  1.00  0.00    -0.337 C  
BRANCH  20  21
HETATM   21  C   UNL     1     -10.402  17.498  66.137  1.00  0.00    -0.329 C  
BRANCH  21  22
HETATM   22  N   UNL     1     -10.676  18.000  67.503  1.00  0.00    -0.388 NA 
HETATM   23  C   UNL     1     -10.553  19.469  67.502  1.00  0.00    -0.474 C  
HETATM   24  C   UNL     1      -9.754  17.467  68.514  1.00  0.00    -0.319 C  
ENDBRANCH  21  22
ENDBRANCH  20  21
ENDBRANCH  18  20
ENDBRANCH  14  15
ENDBRANCH  13  14
ENDBRANCH   4  13
BRANCH   8  25
HETATM   25  N   UNL     1      -9.709   6.710  70.849  1.00  0.00    -0.179 N  
HETATM   26  C   UNL     1      -9.907   5.525  71.524  1.00  0.00    -0.171 C  
HETATM   27  H   UNL     1      -9.640   6.694  69.831  1.00  0.00     0.000 HD 
HETATM   28  O   UNL     1     -10.122   5.482  72.735  1.00  0.00    -0.174 OA 
BRANCH  26  29
HETATM   29  C   UNL     1      -9.824   4.280  70.666  1.00  0.00    -0.265 C  
BRANCH  29  30
HETATM   30  C   UNL     1      -9.673   4.627  69.228  1.00  0.00    -0.196 A  
HETATM   31  N   UNL     1     -11.239   6.112  66.464  1.00  0.00    -0.744 NA 
HETATM   32  C   UNL     1      -8.562   4.404  68.437  1.00  0.00    -0.094 A  
HETATM   33  S   UNL     1      -8.839   4.995  66.855  1.00  0.00    -0.106 SA 
HETATM   34  H2  UNL     1     -10.929   6.277  65.507  1.00  0.00     0.000 HD 
HETATM   35  H1  UNL     1     -12.172   6.412  66.746  1.00  0.00     0.000 HD 
HETATM   36  N   UNL     1     -10.725   5.266  68.581  1.00  0.00    -0.033 NA 
HETATM   37  C   UNL     1     -10.408   5.501  67.329  1.00  0.00    -0.236 A  
ENDBRANCH  29  30
ENDBRANCH  26  29
ENDBRANCH   8  25
TORSDOF 9
ENDMDL
MODEL       12
REMARK 921   NORMALIZED FREE ENERGY PREDICTED BY IDOCK:   -6.37 KCAL/MOL
REMARK 922        TOTAL FREE ENERGY PREDICTED BY IDOCK:  -11.67 KCAL/MOL
REMARK 923 INTER-LIGAND FREE ENERGY PREDICTED BY IDOCK:  -10.25 KCAL/MOL
REMARK 924 INTRA-LIGAND FREE ENERGY PREDICTED BY IDOCK:   -1.41 KCAL/MOL
REMARK 927      BINDING AFFINITY PREDICTED BY RF-SCORE:    0.00 PKD
ROOT
HETATM    1  C   UNL     1     -11.034  13.532  67.865  1.00  0.00    -0.256 C  
HETATM    2  S   UNL     1      -9.246  13.269  67.893  1.00  0.00    -0.221 SA 
HETATM    3  C   UNL     1      -8.861  14.982  67.465  1.00  0.00    -0.185 C  
HETATM    4  C   UNL     1      -9.662  15.552  66.302  1.00  0.00    -0.328 C  
HETATM    5  C   UNL     1     -12.285  12.977  66.285  1.00  0.00    -0.320 C  
HETATM    6  CA  UNL     1     -10.849  15.031  65.867  1.00  0.00    -0.337 C  
HETATM    7  C   UNL     1     -11.543  15.626  64.657  1.00  0.00    -0.249 C  
HETATM    8  CA  UNL     1     -11.905  12.258  67.619  1.00  0.00    -0.264 C  
HETATM    9  N   UNL     1     -11.408  13.971  66.532  1.00  0.00    -0.325 N  
HETATM   10  O   UNL     1     -12.432  14.857  64.006  1.00  0.00    -0.807 OA 
HETATM   11  OXT UNL     1     -11.336  16.767  64.267  1.00  0.00    -1.170 OA 
HETATM   12  O   UNL     1     -12.945  12.750  65.293  1.00  0.00    -0.690 OA 
ENDROOT
BRANCH   4  13
HETATM   13  C   UNL     1      -8.883  16.674  65.604  1.00  0.00     0.364 C  
BRANCH  13  14
HETATM   14  S   UNL     1      -7.266  17.014  66.388  1.00  0.00    -0.238 SA 
BRANCH  14  15
HETATM   15  C   UNL     1      -6.886  18.599  65.832  1.00  0.00    -0.277 A  
HETATM   16  N   UNL     1      -6.232  18.894  64.731  1.00  0.00    -0.462 NA 
HETATM   17  N   UNL     1      -6.077  20.255  64.729  1.00  0.00    -0.244 NA 
HETATM   18  N   UNL     1      -7.187  19.768  66.482  1.00  0.00    -0.230 NA 
HETATM   19  N   UNL     1      -6.643  20.797  65.798  1.00  0.00    -0.207 NA 
BRANCH  18  20
HETATM   20  C   UNL     1      -7.976  20.062  67.666  1.00  0.00    -0.303 C  
BRANCH  20  21
HETATM   21  C   UNL     1      -9.279  20.784  67.280  1.00  0.00    -0.230 C  
BRANCH  21  22
HETATM   22  N   UNL     1     -10.491  19.953  67.093  1.00  0.00    -0.444 NA 
HETATM   23  C   UNL     1     -10.377  18.751  67.939  1.00  0.00    -0.406 C  
HETATM   24  C   UNL     1     -10.688  19.517  65.705  1.00  0.00    -0.393 C  
ENDBRANCH  21  22
ENDBRANCH  20  21
ENDBRANCH  18  20
ENDBRANCH  14  15
ENDBRANCH  13  14
ENDBRANCH   4  13
BRANCH   8  25
HETATM   25  N   UNL     1     -11.177  10.963  67.459  1.00  0.00    -0.315 N  
HETATM   26  C   UNL     1     -11.125  10.023  68.466  1.00  0.00    -0.167 C  
HETATM   27  H   UNL     1     -10.703  10.769  66.577  1.00  0.00     0.000 HD 
HETATM   28  O   UNL     1     -11.771  10.133  69.507  1.00  0.00    -0.173 OA 
BRANCH  26  29
HETATM   29  C   UNL     1     -10.200   8.854  68.200  1.00  0.00    -0.245 C  
BRANCH  29  30
HETATM   30  C   UNL     1      -9.236   9.168  67.111  1.00  0.00    -0.133 A  
HETATM   31  N   UNL     1      -8.772   9.237  63.637  1.00  0.00    -0.335 NA 
HETATM   32  C   UNL     1      -7.955   9.664  67.259  1.00  0.00    -0.106 A  
HETATM   33  S   UNL     1      -7.233   9.892  65.726  1.00  0.00    -0.117 SA 
HETATM   34  H2  UNL     1      -7.985   9.527  63.055  1.00  0.00     0.000 HD 
HETATM   35  H1  UNL     1      -9.622   8.894  63.191  1.00  0.00     0.000 HD 
HETATM   36  N   UNL     1      -9.635   8.979  65.793  1.00  0.00    -0.248 NA 
HETATM   37  C   UNL     1      -8.664   9.316  64.976  1.00  0.00    -0.190 A  
ENDBRANCH  29  30
ENDBRANCH  26  29
ENDBRANCH   8  25
TORSDOF 9
ENDMDL
MODEL       13
REMARK 921   NORMALIZED FREE ENERGY PREDICTED BY IDOCK:   -6.37 KCAL/MOL
REMARK 922        TOTAL FREE ENERGY PREDICTED BY IDOCK:  -11.66 KCAL/MOL
REMARK 923 INTER-LIGAND FREE ENERGY PREDICTED BY IDOCK:  -10.68 KCAL/MOL
REMARK 924 INTRA-LIGAND FREE ENERGY PREDICTED BY IDOCK:   -0.98 KCAL/MOL
REMARK 927      BINDING AFFINITY PREDICTED BY RF-SCORE:    0.00 PKD
ROOT
HETATM    1  C   UNL     1     -11.685  13.669  67.795  1.00  0.00    -0.362 C  
HETATM    2  S   UNL     1     -10.190  12.663  67.655  1.00  0.00    -0.221 SA 
HETATM    3  C   UNL     1     -10.925  11.230  68.472  1.00  0.00    -0.220 C  
HETATM    4  C   UNL     1     -11.677  11.537  69.761  1.00  0.00    -0.426 C  
HETATM    5  C   UNL     1     -11.975  15.162  69.229  1.00  0.00    -0.292 C  
HETATM    6  CA  UNL     1     -12.148  12.777  70.090  1.00  0.00    -0.298 C  
HETATM    7  C   UNL     1     -12.827  13.003  71.428  1.00  0.00    -0.292 C  
HETATM    8  CA  UNL     1     -11.473  15.216  67.751  1.00  0.00    -0.318 C  
HETATM    9  N   UNL     1     -12.004  13.814  69.205  1.00  0.00    -0.340 N  
HETATM   10  O   UNL     1     -12.877  14.260  71.898  1.00  0.00    -0.323 OA 
HETATM   11  OXT UNL     1     -13.334  12.098  72.076  1.00  0.00    -0.503 OA 
HETATM   12  O   UNL     1     -12.141  15.927  70.156  1.00  0.00    -0.344 OA 
ENDROOT
BRANCH   4  13
HETATM   13  C   UNL     1     -11.690  10.314  70.687  1.00  0.00    -0.348 C  
BRANCH  13  14
HETATM   14  S   UNL     1     -10.607   8.963  70.099  1.00  0.00    -0.228 SA 
BRANCH  14  15
HETATM   15  C   UNL     1      -9.415   8.847  71.337  1.00  0.00    -0.274 A  
HETATM   16  N   UNL     1      -8.186   9.308  71.271  1.00  0.00    -0.325 NA 
HETATM   17  N   UNL     1      -7.567   8.921  72.429  1.00  0.00    -0.349 NA 
HETATM   18  N   UNL     1      -9.580   8.228  72.549  1.00  0.00    -0.276 NA 
HETATM   19  N   UNL     1      -8.402   8.250  73.210  1.00  0.00    -0.295 NA 
BRANCH  18  20
HETATM   20  C   UNL     1     -10.734   7.643  73.209  1.00  0.00    -0.350 C  
BRANCH  20  21
HETATM   21  C   UNL     1     -10.442   6.188  73.618  1.00  0.00    -0.276 C  
BRANCH  21  22
HETATM   22  N   UNL     1     -10.016   5.251  72.554  1.00  0.00    -0.166 NA 
HETATM   23  C   UNL     1     -10.905   5.420  71.390  1.00  0.00    -0.140 C  
HETATM   24  C   UNL     1     -10.068   3.842  72.965  1.00  0.00    -0.150 C  
ENDBRANCH  21  22
ENDBRANCH  20  21
ENDBRANCH  18  20
ENDBRANCH  14  15
ENDBRANCH  13  14
ENDBRANCH   4  13
BRANCH   8  25
HETATM   25  N   UNL     1     -10.070  15.699  67.573  1.00  0.00    -0.249 N  
HETATM   26  C   UNL     1      -9.629  16.245  66.387  1.00  0.00    -0.291 C  
HETATM   27  H   UNL     1      -9.418  15.621  68.354  1.00  0.00     0.000 HD 
HETATM   28  O   UNL     1     -10.385  16.483  65.446  1.00  0.00    -0.558 OA 
BRANCH  26  29
HETATM   29  C   UNL     1      -8.140  16.515  66.323  1.00  0.00    -0.341 C  
BRANCH  29  30
HETATM   30  C   UNL     1      -7.847  17.960  66.521  1.00  0.00    -0.264 A  
HETATM   31  N   UNL     1      -6.738  20.893  64.951  1.00  0.00    -0.523 NA 
HETATM   32  C   UNL     1      -8.013  18.685  67.685  1.00  0.00    -0.246 A  
HETATM   33  S   UNL     1      -7.569  20.318  67.428  1.00  0.00    -0.323 SA 
HETATM   34  H2  UNL     1      -6.622  21.849  65.286  1.00  0.00     0.000 HD 
HETATM   35  H1  UNL     1      -6.511  20.673  63.982  1.00  0.00     0.000 HD 
HETATM   36  N   UNL     1      -7.379  18.699  65.440  1.00  0.00    -0.460 NA 
HETATM   37  C   UNL     1      -7.187  19.948  65.798  1.00  0.00    -0.311 A  
ENDBRANCH  29  30
ENDBRANCH  26  29
ENDBRANCH   8  25
TORSDOF 9
ENDMDL
MODEL       14
REMARK 921   NORMALIZED FREE ENERGY PREDICTED BY IDOCK:   -6.32 KCAL/MOL
REMARK 922        TOTAL FREE ENERGY PREDICTED BY IDOCK:  -11.59 KCAL/MOL
REMARK 923 INTER-LIGAND FREE ENERGY PREDICTED BY IDOCK:   -9.81 KCAL/MOL
REMARK 924 INTRA-LIGAND FREE ENERGY PREDICTED BY IDOCK:   -1.79 KCAL/MOL
REMARK 927      BINDING AFFINITY PREDICTED BY RF-SCORE:    0.00 PKD
ROOT
HETATM    1  C   UNL     1     -11.937  14.298  68.789  1.00  0.00    -0.311 C  
HETATM    2  S   UNL     1     -10.436  13.329  68.519  1.00  0.00    -0.231 SA 
HETATM    3  C   UNL     1     -11.218  11.761  68.960  1.00  0.00    -0.265 C  
HETATM    4  C   UNL     1     -12.043  11.790  70.240  1.00  0.00    -0.426 C  
HETATM    5  C   UNL     1     -12.310  15.447  70.496  1.00  0.00    -0.408 C  
HETATM    6  CA  UNL     1     -12.533  12.934  70.804  1.00  0.00    -0.286 C  
HETATM    7  C   UNL     1     -13.289  12.871  72.117  1.00  0.00    -0.515 C  
HETATM    8  CA  UNL     1     -11.723  15.816  69.097  1.00  0.00    -0.388 C  
HETATM    9  N   UNL     1     -12.337  14.137  70.176  1.00  0.00    -0.342 N  
HETATM   10  O   UNL     1     -13.367  13.997  72.847  1.00  0.00    -0.601 OA 
HETATM   11  OXT UNL     1     -13.833  11.853  72.522  1.00  0.00     0.031 OA 
HETATM   12  O   UNL     1     -12.530  15.994  71.556  1.00  0.00    -0.449 OA 
ENDROOT
BRANCH   4  13
HETATM   13  C   UNL     1     -12.110  10.395  70.874  1.00  0.00    -0.374 C  
BRANCH  13  14
HETATM   14  S   UNL     1     -10.485   9.557  70.926  1.00  0.00    -0.296 SA 
BRANCH  14  15
HETATM   15  C   UNL     1     -10.765   8.102  70.046  1.00  0.00    -0.243 A  
HETATM   16  N   UNL     1     -11.545   7.113  70.419  1.00  0.00    -0.283 NA 
HETATM   17  N   UNL     1     -11.401   6.133  69.473  1.00  0.00    -0.421 NA 
HETATM   18  N   UNL     1     -10.184   7.768  68.851  1.00  0.00    -0.207 NA 
HETATM   19  N   UNL     1     -10.564   6.514  68.520  1.00  0.00    -0.219 NA 
BRANCH  18  20
HETATM   20  C   UNL     1      -9.334   8.501  67.928  1.00  0.00    -0.135 C  
BRANCH  20  21
HETATM   21  C   UNL     1     -10.183   9.203  66.854  1.00  0.00    -0.266 C  
BRANCH  21  22
HETATM   22  N   UNL     1      -9.596  10.386  66.183  1.00  0.00    -0.187 NA 
HETATM   23  C   UNL     1     -10.360  10.660  64.952  1.00  0.00    -0.277 C  
HETATM   24  C   UNL     1      -8.187  10.205  65.814  1.00  0.00    -0.144 C  
ENDBRANCH  21  22
ENDBRANCH  20  21
ENDBRANCH  18  20
ENDBRANCH  14  15
ENDBRANCH  13  14
ENDBRANCH   4  13
BRANCH   8  25
HETATM   25  N   UNL     1     -10.312  16.308  69.108  1.00  0.00    -0.253 N  
HETATM   26  C   UNL     1      -9.914  17.406  68.378  1.00  0.00    -0.329 C  
HETATM   27  H   UNL     1      -9.622  15.815  69.675  1.00  0.00     0.000 HD 
HETATM   28  O   UNL     1     -10.710  18.121  67.771  1.00  0.00    -0.412 OA 
BRANCH  26  29
HETATM   29  C   UNL     1      -8.420  17.657  68.365  1.00  0.00    -0.287 C  
BRANCH  29  30
HETATM   30  C   UNL     1      -7.660  16.381  68.435  1.00  0.00    -0.178 A  
HETATM   31  N   UNL     1      -6.496  13.860  70.576  1.00  0.00    -0.413 NA 
HETATM   32  C   UNL     1      -7.104  15.691  67.374  1.00  0.00    -0.207 A  
HETATM   33  S   UNL     1      -6.349  14.262  67.935  1.00  0.00    -0.156 SA 
HETATM   34  H2  UNL     1      -5.975  13.000  70.404  1.00  0.00     0.000 HD 
HETATM   35  H1  UNL     1      -6.768  14.096  71.530  1.00  0.00     0.000 HD 
HETATM   36  N   UNL     1      -7.490  15.773  69.674  1.00  0.00    -0.166 NA 
HETATM   37  C   UNL     1      -6.808  14.659  69.539  1.00  0.00    -0.165 A  
ENDBRANCH  29  30
ENDBRANCH  26  29
ENDBRANCH   8  25
TORSDOF 9
ENDMDL
MODEL       15
REMARK 921   NORMALIZED FREE ENERGY PREDICTED BY IDOCK:   -6.30 KCAL/MOL
REMARK 922        TOTAL FREE ENERGY PREDICTED BY IDOCK:  -11.56 KCAL/MOL
REMARK 923 INTER-LIGAND FREE ENERGY PREDICTED BY IDOCK:  -10.09 KCAL/MOL
REMARK 924 INTRA-LIGAND FREE ENERGY PREDICTED BY IDOCK:   -1.47 KCAL/MOL
REMARK 927      BINDING AFFINITY PREDICTED BY RF-SCORE:    0.00 PKD
ROOT
HETATM    1  C   UNL     1     -11.954  14.326  68.606  1.00  0.00    -0.313 C  
HETATM    2  S   UNL     1     -10.446  13.382  68.291  1.00  0.00    -0.254 SA 
HETATM    3  C   UNL     1     -11.205  11.793  68.697  1.00  0.00    -0.257 C  
HETATM    4  C   UNL     1     -12.015  11.777  69.988  1.00  0.00    -0.421 C  
HETATM    5  C   UNL     1     -12.319  15.422  70.349  1.00  0.00    -0.402 C  
HETATM    6  CA  UNL     1     -12.510  12.900  70.590  1.00  0.00    -0.252 C  
HETATM    7  C   UNL     1     -13.249  12.792  71.909  1.00  0.00    -0.412 C  
HETATM    8  CA  UNL     1     -11.752  15.836  68.953  1.00  0.00    -0.394 C  
HETATM    9  N   UNL     1     -12.335  14.122  69.993  1.00  0.00    -0.346 N  
HETATM   10  O   UNL     1     -13.330  13.896  72.672  1.00  0.00    -0.512 OA 
HETATM   11  OXT UNL     1     -13.777  11.757  72.293  1.00  0.00    -0.221 OA 
HETATM   12  O   UNL     1     -12.531  15.937  71.426  1.00  0.00    -0.433 OA 
ENDROOT
BRANCH   4  13
HETATM   13  C   UNL     1     -12.059  10.364  70.583  1.00  0.00    -0.348 C  
BRANCH  13  14
HETATM   14  S   UNL     1     -10.448   9.502  70.495  1.00  0.00    -0.316 SA 
BRANCH  14  15
HETATM   15  C   UNL     1     -10.666   8.153  71.544  1.00  0.00    -0.233 A  
HETATM   16  N   UNL     1     -10.471   8.147  72.843  1.00  0.00    -0.328 NA 
HETATM   17  N   UNL     1     -10.673   6.857  73.256  1.00  0.00    -0.308 NA 
HETATM   18  N   UNL     1     -11.043   6.893  71.157  1.00  0.00    -0.250 NA 
HETATM   19  N   UNL     1     -11.009   6.081  72.236  1.00  0.00    -0.250 NA 
BRANCH  18  20
HETATM   20  C   UNL     1     -11.487   6.343  69.888  1.00  0.00    -0.415 C  
BRANCH  20  21
HETATM   21  C   UNL     1     -10.422   5.394  69.310  1.00  0.00    -0.239 C  
BRANCH  21  22
HETATM   22  N   UNL     1     -10.066   5.555  67.882  1.00  0.00    -0.163 NA 
HETATM   23  C   UNL     1      -8.703   6.112  67.793  1.00  0.00    -0.112 C  
HETATM   24  C   UNL     1     -10.972   6.451  67.154  1.00  0.00    -0.399 C  
ENDBRANCH  21  22
ENDBRANCH  20  21
ENDBRANCH  18  20
ENDBRANCH  14  15
ENDBRANCH  13  14
ENDBRANCH   4  13
BRANCH   8  25
HETATM   25  N   UNL     1     -10.347  16.344  68.962  1.00  0.00    -0.259 N  
HETATM   26  C   UNL     1      -9.963  17.449  68.233  1.00  0.00    -0.320 C  
HETATM   27  H   UNL     1      -9.650  15.856  69.525  1.00  0.00     0.000 HD 
HETATM   28  O   UNL     1     -10.769  18.157  67.631  1.00  0.00    -0.416 OA 
BRANCH  26  29
HETATM   29  C   UNL     1      -8.473  17.716  68.216  1.00  0.00    -0.271 C  
BRANCH  29  30
HETATM   30  C   UNL     1      -7.698  16.449  68.300  1.00  0.00    -0.162 A  
HETATM   31  N   UNL     1      -6.406  14.028  70.483  1.00  0.00    -0.390 NA 
HETATM   32  C   UNL     1      -7.190  15.719  67.243  1.00  0.00    -0.219 A  
HETATM   33  S   UNL     1      -6.395  14.320  67.823  1.00  0.00    -0.117 SA 
HETATM   34  H2  UNL     1      -5.886  13.165  70.321  1.00  0.00     0.000 HD 
HETATM   35  H1  UNL     1      -6.633  14.302  71.438  1.00  0.00     0.000 HD 
HETATM   36  N   UNL     1      -7.461  15.894  69.553  1.00  0.00    -0.205 NA 
HETATM   37  C   UNL     1      -6.777  14.780  69.431  1.00  0.00    -0.149 A  
ENDBRANCH  29  30
ENDBRANCH  26  29
ENDBRANCH   8  25
TORSDOF 9
ENDMDL
MODEL       16
REMARK 921   NORMALIZED FREE ENERGY PREDICTED BY IDOCK:   -6.30 KCAL/MOL
REMARK 922        TOTAL FREE ENERGY PREDICTED BY IDOCK:  -11.56 KCAL/MOL
REMARK 923 INTER-LIGAND FREE ENERGY PREDICTED BY IDOCK:  -10.33 KCAL/MOL
REMARK 924 INTRA-LIGAND FREE ENERGY PREDICTED BY IDOCK:   -1.23 KCAL/MOL
REMARK 927      BINDING AFFINITY PREDICTED BY RF-SCORE:    0.00 PKD
ROOT
HETATM    1  C   UNL     1     -11.447  15.112  67.618  1.00  0.00    -0.309 C  
HETATM    2  S   UNL     1     -10.116  14.097  66.938  1.00  0.00    -0.263 SA 
HETATM    3  C   UNL     1     -10.965  12.537  67.269  1.00  0.00    -0.261 C  
HETATM    4  C   UNL     1     -11.560  12.410  68.666  1.00  0.00    -0.365 C  
HETATM    5  C   UNL     1     -11.416  15.983  69.518  1.00  0.00    -0.326 C  
HETATM    6  CA  UNL     1     -11.833  13.476  69.476  1.00  0.00    -0.334 C  
HETATM    7  C   UNL     1     -12.363  13.249  70.878  1.00  0.00    -0.329 C  
HETATM    8  CA  UNL     1     -11.035  16.537  68.108  1.00  0.00    -0.336 C  
HETATM    9  N   UNL     1     -11.626  14.750  69.013  1.00  0.00    -0.281 N  
HETATM   10  O   UNL     1     -12.207  14.240  71.773  1.00  0.00    -0.319 OA 
HETATM   11  OXT UNL     1     -12.931  12.220  71.215  1.00  0.00    -0.322 OA 
HETATM   12  O   UNL     1     -11.402  16.359  70.671  1.00  0.00    -0.368 OA 
ENDROOT
BRANCH   4  13
HETATM   13  C   UNL     1     -11.659  10.938  69.082  1.00  0.00    -0.319 C  
BRANCH  13  14
HETATM   14  S   UNL     1     -10.042  10.083  69.072  1.00  0.00    -0.214 SA 
BRANCH  14  15
HETATM   15  C   UNL     1     -10.411   8.552  68.373  1.00  0.00    -0.171 A  
HETATM   16  N   UNL     1     -10.501   8.292  67.088  1.00  0.00    -0.318 NA 
HETATM   17  N   UNL     1     -10.899   6.986  66.987  1.00  0.00    -0.370 NA 
HETATM   18  N   UNL     1     -10.694   7.405  69.067  1.00  0.00    -0.187 NA 
HETATM   19  N   UNL     1     -11.034   6.438  68.186  1.00  0.00    -0.310 NA 
BRANCH  18  20
HETATM   20  C   UNL     1     -10.644   7.069  70.480  1.00  0.00    -0.224 C  
BRANCH  20  21
HETATM   21  C   UNL     1     -12.027   6.609  70.975  1.00  0.00    -0.359 C  
BRANCH  21  22
HETATM   22  N   UNL     1     -12.717   7.465  71.967  1.00  0.00    -0.252 NA 
HETATM   23  C   UNL     1     -14.077   7.756  71.478  1.00  0.00    -0.404 C  
HETATM   24  C   UNL     1     -12.036   8.743  72.206  1.00  0.00    -0.353 C  
ENDBRANCH  21  22
ENDBRANCH  20  21
ENDBRANCH  18  20
ENDBRANCH  14  15
ENDBRANCH  13  14
ENDBRANCH   4  13
BRANCH   8  25
HETATM   25  N   UNL     1      -9.600  16.918  67.941  1.00  0.00    -0.240 N  
HETATM   26  C   UNL     1      -9.171  18.223  68.056  1.00  0.00    -0.290 C  
HETATM   27  H   UNL     1      -8.916  16.189  67.736  1.00  0.00     0.000 HD 
HETATM   28  O   UNL     1      -9.913  19.134  68.421  1.00  0.00    -0.370 OA 
BRANCH  26  29
HETATM   29  C   UNL     1      -7.721  18.454  67.681  1.00  0.00    -0.236 C  
BRANCH  29  30
HETATM   30  C   UNL     1      -6.859  18.530  68.891  1.00  0.00    -0.278 A  
HETATM   31  N   UNL     1      -5.822  20.583  71.537  1.00  0.00    -0.634 NA 
HETATM   32  C   UNL     1      -6.068  17.521  69.407  1.00  0.00    -0.245 A  
HETATM   33  S   UNL     1      -5.277  18.063  70.824  1.00  0.00    -0.257 SA 
HETATM   34  H2  UNL     1      -5.196  20.422  72.326  1.00  0.00     0.000 HD 
HETATM   35  H1  UNL     1      -6.272  21.493  71.435  1.00  0.00     0.000 HD 
HETATM   36  N   UNL     1      -6.838  19.713  69.621  1.00  0.00    -0.321 NA 
HETATM   37  C   UNL     1      -6.035  19.592  70.653  1.00  0.00    -0.163 A  
ENDBRANCH  29  30
ENDBRANCH  26  29
ENDBRANCH   8  25
TORSDOF 9
ENDMDL
MODEL       17
REMARK 921   NORMALIZED FREE ENERGY PREDICTED BY IDOCK:   -6.29 KCAL/MOL
REMARK 922        TOTAL FREE ENERGY PREDICTED BY IDOCK:  -11.55 KCAL/MOL
REMARK 923 INTER-LIGAND FREE ENERGY PREDICTED BY IDOCK:  -10.09 KCAL/MOL
REMARK 924 INTRA-LIGAND FREE ENERGY PREDICTED BY IDOCK:   -1.45 KCAL/MOL
REMARK 927      BINDING AFFINITY PREDICTED BY RF-SCORE:    0.00 PKD
ROOT
HETATM    1  C   UNL     1     -11.123  13.589  67.855  1.00  0.00    -0.265 C  
HETATM    2  S   UNL     1      -9.332  13.405  68.008  1.00  0.00    -0.222 SA 
HETATM    3  C   UNL     1      -8.993  15.134  67.610  1.00  0.00    -0.180 C  
HETATM    4  C   UNL     1      -9.734  15.674  66.393  1.00  0.00    -0.302 C  
HETATM    5  C   UNL     1     -12.235  12.987  66.190  1.00  0.00    -0.360 C  
HETATM    6  CA  UNL     1     -10.863  15.104  65.876  1.00  0.00    -0.339 C  
HETATM    7  C   UNL     1     -11.496  15.672  64.620  1.00  0.00    -0.303 C  
HETATM    8  CA  UNL     1     -11.919  12.280  67.546  1.00  0.00    -0.140 C  
HETATM    9  N   UNL     1     -11.421  14.017  66.499  1.00  0.00    -0.342 N  
HETATM   10  O   UNL     1     -12.302  14.868  63.908  1.00  0.00    -0.711 OA 
HETATM   11  OXT UNL     1     -11.312  16.822  64.246  1.00  0.00    -1.170 OA 
HETATM   12  O   UNL     1     -12.812  12.736  65.154  1.00  0.00    -0.726 OA 
ENDROOT
BRANCH   4  13
HETATM   13  C   UNL     1      -8.957  16.830  65.753  1.00  0.00     0.103 C  
BRANCH  13  14
HETATM   14  S   UNL     1      -7.318  17.099  66.518  1.00  0.00    -0.300 SA 
BRANCH  14  15
HETATM   15  C   UNL     1      -6.871  18.663  65.951  1.00  0.00    -0.277 A  
HETATM   16  N   UNL     1      -6.352  18.938  64.776  1.00  0.00    -0.495 NA 
HETATM   17  N   UNL     1      -6.072  20.279  64.785  1.00  0.00    -0.244 NA 
HETATM   18  N   UNL     1      -6.969  19.829  66.665  1.00  0.00    -0.202 NA 
HETATM   19  N   UNL     1      -6.430  20.830  65.935  1.00  0.00    -0.233 NA 
BRANCH  18  20
HETATM   20  C   UNL     1      -7.555  20.150  67.955  1.00  0.00    -0.243 C  
BRANCH  20  21
HETATM   21  C   UNL     1      -8.963  20.745  67.775  1.00  0.00     0.034 C  
BRANCH  21  22
HETATM   22  N   UNL     1     -10.118  19.890  68.132  1.00  0.00    -0.430 NA 
HETATM   23  C   UNL     1      -9.626  18.715  68.876  1.00  0.00    -0.293 C  
HETATM   24  C   UNL     1     -10.867  19.408  66.965  1.00  0.00    -0.432 C  
ENDBRANCH  21  22
ENDBRANCH  20  21
ENDBRANCH  18  20
ENDBRANCH  14  15
ENDBRANCH  13  14
ENDBRANCH   4  13
BRANCH   8  25
HETATM   25  N   UNL     1     -11.126  11.019  67.438  1.00  0.00    -0.296 N  
HETATM   26  C   UNL     1     -10.997  10.142  68.492  1.00  0.00    -0.232 C  
HETATM   27  H   UNL     1     -10.665  10.800  66.554  1.00  0.00     0.000 HD 
HETATM   28  O   UNL     1     -11.620  10.276  69.545  1.00  0.00    -0.228 OA 
BRANCH  26  29
HETATM   29  C   UNL     1     -10.016   9.010  68.266  1.00  0.00    -0.198 C  
BRANCH  29  30
HETATM   30  C   UNL     1      -8.613   9.468  68.454  1.00  0.00    -0.120 A  
HETATM   31  N   UNL     1      -6.437  11.219  70.574  1.00  0.00    -0.504 NA 
HETATM   32  C   UNL     1      -7.543   9.219  67.616  1.00  0.00    -0.088 A  
HETATM   33  S   UNL     1      -6.121   9.923  68.254  1.00  0.00    -0.046 SA 
HETATM   34  H2  UNL     1      -5.437  11.412  70.523  1.00  0.00     0.000 HD 
HETATM   35  H1  UNL     1      -6.973  11.568  71.368  1.00  0.00     0.000 HD 
HETATM   36  N   UNL     1      -8.299  10.204  69.591  1.00  0.00    -0.174 NA 
HETATM   37  C   UNL     1      -7.022  10.510  69.591  1.00  0.00    -0.135 A  
ENDBRANCH  29  30
ENDBRANCH  26  29
ENDBRANCH   8  25
TORSDOF 9
ENDMDL
MODEL       18
REMARK 921   NORMALIZED FREE ENERGY PREDICTED BY IDOCK:   -6.28 KCAL/MOL
REMARK 922        TOTAL FREE ENERGY PREDICTED BY IDOCK:  -11.52 KCAL/MOL
REMARK 923 INTER-LIGAND FREE ENERGY PREDICTED BY IDOCK:  -10.24 KCAL/MOL
REMARK 924 INTRA-LIGAND FREE ENERGY PREDICTED BY IDOCK:   -1.28 KCAL/MOL
REMARK 927      BINDING AFFINITY PREDICTED BY RF-SCORE:    0.00 PKD
ROOT
HETATM    1  C   UNL     1     -10.240  14.076  66.834  1.00  0.00    -0.260 C  
HETATM    2  S   UNL     1      -9.688  12.951  68.136  1.00  0.00    -0.224 SA 
HETATM    3  C   UNL     1      -8.644  11.979  67.029  1.00  0.00    -0.185 C  
HETATM    4  C   UNL     1      -9.300  11.570  65.716  1.00  0.00    -0.238 C  
HETATM    5  C   UNL     1     -12.093  13.954  65.875  1.00  0.00    -0.433 C  
HETATM    6  CA  UNL     1     -10.394  12.195  65.186  1.00  0.00    -0.279 C  
HETATM    7  C   UNL     1     -11.020  11.676  63.905  1.00  0.00    -0.407 C  
HETATM    8  CA  UNL     1     -11.600  14.801  67.091  1.00  0.00    -0.359 C  
HETATM    9  N   UNL     1     -10.920  13.293  65.817  1.00  0.00    -0.270 N  
HETATM   10  O   UNL     1     -12.297  12.010  63.655  1.00  0.00    -0.519 OA 
HETATM   11  OXT UNL     1     -10.409  10.989  63.099  1.00  0.00    -0.325 OA 
HETATM   12  O   UNL     1     -13.125  13.763  65.267  1.00  0.00    -0.756 OA 
ENDROOT
BRANCH   4  13
HETATM   13  C   UNL     1      -8.665  10.287  65.167  1.00  0.00    -0.175 C  
BRANCH  13  14
HETATM   14  S   UNL     1      -7.777   9.327  66.447  1.00  0.00    -0.093 SA 
BRANCH  14  15
HETATM   15  C   UNL     1      -9.039   8.454  67.230  1.00  0.00    -0.137 A  
HETATM   16  N   UNL     1     -10.074   7.900  66.640  1.00  0.00    -0.261 NA 
HETATM   17  N   UNL     1     -10.862   7.396  67.641  1.00  0.00    -0.189 NA 
HETATM   18  N   UNL     1      -9.150   8.250  68.581  1.00  0.00    -0.140 NA 
HETATM   19  N   UNL     1     -10.316   7.615  68.828  1.00  0.00    -0.204 NA 
BRANCH  18  20
HETATM   20  C   UNL     1      -8.265   8.535  69.697  1.00  0.00    -0.115 C  
BRANCH  20  21
HETATM   21  C   UNL     1      -9.014   9.314  70.793  1.00  0.00    -0.232 C  
BRANCH  21  22
HETATM   22  N   UNL     1      -8.859   8.848  72.190  1.00  0.00    -0.380 NA 
HETATM   23  C   UNL     1      -7.470   8.391  72.387  1.00  0.00    -0.088 C  
HETATM   24  C   UNL     1      -9.756   7.738  72.536  1.00  0.00    -0.204 C  
ENDBRANCH  21  22
ENDBRANCH  20  21
ENDBRANCH  18  20
ENDBRANCH  14  15
ENDBRANCH  13  14
ENDBRANCH   4  13
BRANCH   8  25
HETATM   25  N   UNL     1     -12.284  14.511  68.388  1.00  0.00    -0.608 N  
HETATM   26  C   UNL     1     -11.831  15.023  69.584  1.00  0.00    -0.324 C  
HETATM   27  H   UNL     1     -13.112  13.916  68.387  1.00  0.00     0.000 HD 
HETATM   28  O   UNL     1     -10.916  15.844  69.649  1.00  0.00    -0.265 OA 
BRANCH  26  29
HETATM   29  C   UNL     1     -12.533  14.487  70.815  1.00  0.00    -0.420 C  
BRANCH  29  30
HETATM   30  C   UNL     1     -12.592  13.001  70.795  1.00  0.00    -0.241 A  
HETATM   31  N   UNL     1     -11.920  10.138  68.885  1.00  0.00    -0.529 NA 
HETATM   32  C   UNL     1     -13.023  12.177  71.817  1.00  0.00    -0.332 A  
HETATM   33  S   UNL     1     -12.887  10.538  71.348  1.00  0.00    -0.476 SA 
HETATM   34  H2  UNL     1     -12.022   9.142  69.082  1.00  0.00     0.000 HD 
HETATM   35  H1  UNL     1     -11.554  10.432  67.980  1.00  0.00     0.000 HD 
HETATM   36  N   UNL     1     -12.154  12.331  69.657  1.00  0.00    -0.253 NA 
HETATM   37  C   UNL     1     -12.271  11.034  69.826  1.00  0.00    -0.318 A  
ENDBRANCH  29  30
ENDBRANCH  26  29
ENDBRANCH   8  25
TORSDOF 9
ENDMDL
MODEL       19
REMARK 921   NORMALIZED FREE ENERGY PREDICTED BY IDOCK:   -6.25 KCAL/MOL
REMARK 922        TOTAL FREE ENERGY PREDICTED BY IDOCK:  -11.48 KCAL/MOL
REMARK 923 INTER-LIGAND FREE ENERGY PREDICTED BY IDOCK:  -10.02 KCAL/MOL
REMARK 924 INTRA-LIGAND FREE ENERGY PREDICTED BY IDOCK:   -1.46 KCAL/MOL
REMARK 927      BINDING AFFINITY PREDICTED BY RF-SCORE:    0.00 PKD
ROOT
HETATM    1  C   UNL     1     -10.327  10.562  66.063  1.00  0.00    -0.211 C  
HETATM    2  S   UNL     1      -9.310  11.217  67.405  1.00  0.00    -0.165 SA 
HETATM    3  C   UNL     1     -10.691  12.053  68.214  1.00  0.00    -0.224 C  
HETATM    4  C   UNL     1     -11.582  12.872  67.288  1.00  0.00    -0.416 C  
HETATM    5  C   UNL     1     -10.412  11.378  64.140  1.00  0.00    -0.363 C  
HETATM    6  CA  UNL     1     -11.642  12.691  65.934  1.00  0.00    -0.396 C  
HETATM    7  C   UNL     1     -12.508  13.599  65.083  1.00  0.00    -0.449 C  
HETATM    8  CA  UNL     1      -9.568  10.210  64.743  1.00  0.00    -0.314 C  
HETATM    9  N   UNL     1     -10.916  11.684  65.352  1.00  0.00    -0.292 N  
HETATM   10  O   UNL     1     -12.220  13.690  63.774  1.00  0.00    -0.606 OA 
HETATM   11  OXT UNL     1     -13.453  14.231  65.536  1.00  0.00    -0.580 OA 
HETATM   12  O   UNL     1     -10.519  11.962  63.082  1.00  0.00    -0.389 OA 
ENDROOT
BRANCH   4  13
HETATM   13  C   UNL     1     -12.266  14.008  68.057  1.00  0.00    -0.153 C  
BRANCH  13  14
HETATM   14  S   UNL     1     -11.411  14.430  69.618  1.00  0.00    -0.285 SA 
BRANCH  14  15
HETATM   15  C   UNL     1     -12.632  14.192  70.810  1.00  0.00    -0.362 A  
HETATM   16  N   UNL     1     -13.428  15.118  71.295  1.00  0.00    -0.455 NA 
HETATM   17  N   UNL     1     -14.171  14.512  72.273  1.00  0.00    -0.491 NA 
HETATM   18  N   UNL     1     -12.914  13.007  71.439  1.00  0.00    -0.334 NA 
HETATM   19  N   UNL     1     -13.857  13.230  72.380  1.00  0.00    -0.663 NA 
BRANCH  18  20
HETATM   20  C   UNL     1     -12.440  11.648  71.241  1.00  0.00    -0.266 C  
BRANCH  20  21
HETATM   21  C   UNL     1     -13.495  10.633  71.716  1.00  0.00    -0.225 C  
BRANCH  21  22
HETATM   22  N   UNL     1     -13.274   9.208  71.380  1.00  0.00    -0.325 NA 
HETATM   23  C   UNL     1     -14.317   8.398  72.036  1.00  0.00    -0.464 C  
HETATM   24  C   UNL     1     -11.965   8.704  71.815  1.00  0.00    -0.336 C  
ENDBRANCH  21  22
ENDBRANCH  20  21
ENDBRANCH  18  20
ENDBRANCH  14  15
ENDBRANCH  13  14
ENDBRANCH   4  13
BRANCH   8  25
HETATM   25  N   UNL     1      -8.089  10.424  64.737  1.00  0.00    -0.232 N  
HETATM   26  C   UNL     1      -7.202   9.415  65.043  1.00  0.00    -0.105 C  
HETATM   27  H   UNL     1      -7.725  11.347  64.499  1.00  0.00     0.000 HD 
HETATM   28  O   UNL     1      -7.559   8.251  65.219  1.00  0.00    -0.086 OA 
BRANCH  26  29
HETATM   29  C   UNL     1      -5.757   9.850  65.164  1.00  0.00    -0.081 C  
BRANCH  29  30
HETATM   30  C   UNL     1      -5.529  10.618  66.417  1.00  0.00    -0.077 A  
HETATM   31  N   UNL     1      -5.197  13.831  67.782  1.00  0.00    -0.280 NA 
HETATM   32  C   UNL     1      -5.378  10.098  67.689  1.00  0.00    -0.037 A  
HETATM   33  S   UNL     1      -5.165  11.364  68.819  1.00  0.00    -0.042 SA 
HETATM   34  H2  UNL     1      -5.056  14.159  68.737  1.00  0.00     0.000 HD 
HETATM   35  H1  UNL     1      -5.268  14.511  67.026  1.00  0.00     0.000 HD 
HETATM   36  N   UNL     1      -5.481  12.006  66.350  1.00  0.00    -0.213 NA 
HETATM   37  C   UNL     1      -5.284  12.509  67.547  1.00  0.00    -0.103 A  
ENDBRANCH  29  30
ENDBRANCH  26  29
ENDBRANCH   8  25
TORSDOF 9
ENDMDL
MODEL       20
REMARK 921   NORMALIZED FREE ENERGY PREDICTED BY IDOCK:   -6.22 KCAL/MOL
REMARK 922        TOTAL FREE ENERGY PREDICTED BY IDOCK:  -11.43 KCAL/MOL
REMARK 923 INTER-LIGAND FREE ENERGY PREDICTED BY IDOCK:  -10.31 KCAL/MOL
REMARK 924 INTRA-LIGAND FREE ENERGY PREDICTED BY IDOCK:   -1.12 KCAL/MOL
REMARK 927      BINDING AFFINITY PREDICTED BY RF-SCORE:    0.00 PKD
ROOT
HETATM    1  C   UNL     1     -11.514  14.597  68.436  1.00  0.00    -0.311 C  
HETATM    2  S   UNL     1      -9.827  13.962  68.312  1.00  0.00    -0.232 SA 
HETATM    3  C   UNL     1     -10.332  12.234  68.470  1.00  0.00    -0.223 C  
HETATM    4  C   UNL     1     -11.312  11.949  69.601  1.00  0.00    -0.266 C  
HETATM    5  C   UNL     1     -12.337  15.434  70.166  1.00  0.00    -0.361 C  
HETATM    6  CA  UNL     1     -12.092  12.904  70.190  1.00  0.00    -0.302 C  
HETATM    7  C   UNL     1     -12.992  12.539  71.355  1.00  0.00    -0.251 C  
HETATM    8  CA  UNL     1     -11.651  16.077  68.920  1.00  0.00    -0.354 C  
HETATM    9  N   UNL     1     -12.058  14.192  69.721  1.00  0.00    -0.336 N  
HETATM   10  O   UNL     1     -13.391  13.530  72.170  1.00  0.00    -0.424 OA 
HETATM   11  OXT UNL     1     -13.371  11.396  71.569  1.00  0.00    -0.291 OA 
HETATM   12  O   UNL     1     -12.803  15.793  71.227  1.00  0.00    -0.475 OA 
ENDROOT
BRANCH   4  13
HETATM   13  C   UNL     1     -11.184  10.498  70.078  1.00  0.00    -0.315 C  
BRANCH  13  14
HETATM   14  S   UNL     1      -9.824   9.593  69.254  1.00  0.00    -0.201 SA 
BRANCH  14  15
HETATM   15  C   UNL     1      -8.614   9.507  70.477  1.00  0.00    -0.184 A  
HETATM   16  N   UNL     1      -7.447  10.110  70.452  1.00  0.00    -0.260 NA 
HETATM   17  N   UNL     1      -6.775   9.695  71.571  1.00  0.00    -0.312 NA 
HETATM   18  N   UNL     1      -8.693   8.768  71.629  1.00  0.00    -0.277 NA 
HETATM   19  N   UNL     1      -7.519   8.866  72.289  1.00  0.00    -0.344 NA 
BRANCH  18  20
HETATM   20  C   UNL     1      -9.766   7.997  72.234  1.00  0.00    -0.229 C  
BRANCH  20  21
HETATM   21  C   UNL     1      -9.960   6.665  71.489  1.00  0.00    -0.175 C  
BRANCH  21  22
HETATM   22  N   UNL     1     -11.328   6.331  71.029  1.00  0.00    -0.318 NA 
HETATM   23  C   UNL     1     -11.319   6.218  69.558  1.00  0.00    -0.404 C  
HETATM   24  C   UNL     1     -12.329   7.338  71.402  1.00  0.00    -0.368 C  
ENDBRANCH  21  22
ENDBRANCH  20  21
ENDBRANCH  18  20
ENDBRANCH  14  15
ENDBRANCH  13  14
ENDBRANCH   4  13
BRANCH   8  25
HETATM   25  N   UNL     1     -10.382  16.814  69.201  1.00  0.00    -0.313 N  
HETATM   26  C   UNL     1     -10.042  17.970  68.531  1.00  0.00    -0.393 C  
HETATM   27  H   UNL     1      -9.746  16.450  69.911  1.00  0.00     0.000 HD 
HETATM   28  O   UNL     1     -10.811  18.534  67.753  1.00  0.00    -0.388 OA 
BRANCH  26  29
HETATM   29  C   UNL     1      -8.646  18.484  68.813  1.00  0.00    -0.266 C  
BRANCH  29  30
HETATM   30  C   UNL     1      -7.864  18.634  67.556  1.00  0.00    -0.230 A  
HETATM   31  N   UNL     1      -6.949  20.859  65.006  1.00  0.00    -0.527 NA 
HETATM   32  C   UNL     1      -7.083  17.669  66.949  1.00  0.00    -0.185 A  
HETATM   33  S   UNL     1      -6.354  18.305  65.538  1.00  0.00    -0.198 SA 
HETATM   34  H2  UNL     1      -6.344  20.758  64.191  1.00  0.00     0.000 HD 
HETATM   35  H1  UNL     1      -7.408  21.753  65.178  1.00  0.00     0.000 HD 
HETATM   36  N   UNL     1      -7.874  19.863  66.907  1.00  0.00    -0.286 NA 
HETATM   37  C   UNL     1      -7.126  19.810  65.829  1.00  0.00    -0.306 A  
ENDBRANCH  29  30
ENDBRANCH  26  29
ENDBRANCH   8  25
TORSDOF 9
ENDMDL
MODEL       21
REMARK 921   NORMALIZED FREE ENERGY PREDICTED BY IDOCK:   -6.18 KCAL/MOL
REMARK 922        TOTAL FREE ENERGY PREDICTED BY IDOCK:  -11.37 KCAL/MOL
REMARK 923 INTER-LIGAND FREE ENERGY PREDICTED BY IDOCK:  -10.21 KCAL/MOL
REMARK 924 INTRA-LIGAND FREE ENERGY PREDICTED BY IDOCK:   -1.16 KCAL/MOL
REMARK 927      BINDING AFFINITY PREDICTED BY RF-SCORE:    0.00 PKD
ROOT
HETATM    1  C   UNL     1     -10.766   8.107  67.467  1.00  0.00    -0.156 C  
HETATM    2  S   UNL     1     -10.491   9.287  68.807  1.00  0.00    -0.192 SA 
HETATM    3  C   UNL     1     -11.027  10.711  67.834  1.00  0.00    -0.295 C  
HETATM    4  C   UNL     1     -10.432  10.796  66.433  1.00  0.00    -0.293 C  
HETATM    5  C   UNL     1      -9.254   7.319  66.258  1.00  0.00    -0.130 C  
HETATM    6  CA  UNL     1      -9.891   9.730  65.771  1.00  0.00    -0.290 C  
HETATM    7  C   UNL     1      -9.261   9.924  64.405  1.00  0.00    -0.264 C  
HETATM    8  CA  UNL     1      -9.947   6.779  67.549  1.00  0.00    -0.141 C  
HETATM    9  N   UNL     1      -9.921   8.487  66.347  1.00  0.00    -0.270 N  
HETATM   10  O   UNL     1      -8.379   9.001  63.988  1.00  0.00    -0.167 OA 
HETATM   11  OXT UNL     1      -9.534  10.867  63.675  1.00  0.00    -0.235 OA 
HETATM   12  O   UNL     1      -8.359   6.990  65.508  1.00  0.00    -0.135 OA 
ENDROOT
BRANCH   4  13
HETATM   13  C   UNL     1     -10.388  12.250  65.950  1.00  0.00    -0.252 C  
BRANCH  13  14
HETATM   14  S   UNL     1     -11.893  13.194  66.385  1.00  0.00    -0.404 SA 
BRANCH  14  15
HETATM   15  C   UNL     1     -11.798  14.578  65.364  1.00  0.00    -0.344 A  
HETATM   16  N   UNL     1     -12.508  14.786  64.278  1.00  0.00    -0.738 NA 
HETATM   17  N   UNL     1     -12.047  15.956  63.736  1.00  0.00    -0.687 NA 
HETATM   18  N   UNL     1     -10.942  15.636  65.530  1.00  0.00    -0.325 NA 
HETATM   19  N   UNL     1     -11.084  16.476  64.482  1.00  0.00    -0.866 NA 
BRANCH  18  20
HETATM   20  C   UNL     1     -10.017  15.999  66.589  1.00  0.00    -0.267 C  
BRANCH  20  21
HETATM   21  C   UNL     1      -9.540  17.452  66.415  1.00  0.00    -0.276 C  
BRANCH  21  22
HETATM   22  N   UNL     1     -10.424  18.527  66.921  1.00  0.00    -0.393 NA 
HETATM   23  C   UNL     1     -10.291  19.703  66.041  1.00  0.00    -0.523 C  
HETATM   24  C   UNL     1     -10.105  18.945  68.291  1.00  0.00    -0.388 C  
ENDBRANCH  21  22
ENDBRANCH  20  21
ENDBRANCH  18  20
ENDBRANCH  14  15
ENDBRANCH  13  14
ENDBRANCH   4  13
BRANCH   8  25
HETATM   25  N   UNL     1      -9.049   6.613  68.732  1.00  0.00    -0.131 N  
HETATM   26  C   UNL     1      -9.004   5.443  69.459  1.00  0.00    -0.105 C  
HETATM   27  H   UNL     1      -8.450   7.391  69.009  1.00  0.00     0.000 HD 
HETATM   28  O   UNL     1      -9.604   4.426  69.113  1.00  0.00    -0.160 OA 
BRANCH  26  29
HETATM   29  C   UNL     1      -8.176   5.510  70.725  1.00  0.00    -0.117 C  
BRANCH  29  30
HETATM   30  C   UNL     1      -8.988   5.990  71.875  1.00  0.00    -0.138 A  
HETATM   31  N   UNL     1     -11.874   7.755  72.797  1.00  0.00    -0.598 NA 
HETATM   32  C   UNL     1      -8.735   5.770  73.215  1.00  0.00    -0.118 A  
HETATM   33  S   UNL     1      -9.956   6.492  74.170  1.00  0.00    -0.350 SA 
HETATM   34  H2  UNL     1     -12.289   7.967  73.704  1.00  0.00     0.000 HD 
HETATM   35  H1  UNL     1     -12.335   8.085  71.949  1.00  0.00     0.000 HD 
HETATM   36  N   UNL     1     -10.144   6.719  71.616  1.00  0.00    -0.184 NA 
HETATM   37  C   UNL     1     -10.731   7.047  72.744  1.00  0.00    -0.274 A  
ENDBRANCH  29  30
ENDBRANCH  26  29
ENDBRANCH   8  25
TORSDOF 9
ENDMDL
MODEL       22
REMARK 921   NORMALIZED FREE ENERGY PREDICTED BY IDOCK:   -6.16 KCAL/MOL
REMARK 922        TOTAL FREE ENERGY PREDICTED BY IDOCK:  -11.34 KCAL/MOL
REMARK 923 INTER-LIGAND FREE ENERGY PREDICTED BY IDOCK:   -9.35 KCAL/MOL
REMARK 924 INTRA-LIGAND FREE ENERGY PREDICTED BY IDOCK:   -1.99 KCAL/MOL
REMARK 927      BINDING AFFINITY PREDICTED BY RF-SCORE:    0.00 PKD
ROOT
HETATM    1  C   UNL     1     -11.838  14.316  68.568  1.00  0.00    -0.347 C  
HETATM    2  S   UNL     1     -10.273  13.442  68.346  1.00  0.00    -0.238 SA 
HETATM    3  C   UNL     1     -10.962  11.833  68.793  1.00  0.00    -0.234 C  
HETATM    4  C   UNL     1     -11.817  11.825  70.053  1.00  0.00    -0.422 C  
HETATM    5  C   UNL     1     -12.324  15.460  70.249  1.00  0.00    -0.388 C  
HETATM    6  CA  UNL     1     -12.392  12.943  70.589  1.00  0.00    -0.302 C  
HETATM    7  C   UNL     1     -13.173  12.849  71.886  1.00  0.00    -0.423 C  
HETATM    8  CA  UNL     1     -11.729  15.848  68.858  1.00  0.00    -0.370 C  
HETATM    9  N   UNL     1     -12.260  14.148  69.949  1.00  0.00    -0.346 N  
HETATM   10  O   UNL     1     -13.341  13.977  72.597  1.00  0.00    -0.494 OA 
HETATM   11  OXT UNL     1     -13.661  11.804  72.294  1.00  0.00    -0.328 OA 
HETATM   12  O   UNL     1     -12.603  16.006  71.295  1.00  0.00    -0.428 OA 
ENDROOT
BRANCH   4  13
HETATM   13  C   UNL     1     -11.809  10.438  70.707  1.00  0.00    -0.368 C  
BRANCH  13  14
HETATM   14  S   UNL     1     -10.719   9.249  69.844  1.00  0.00    -0.238 SA 
BRANCH  14  15
HETATM   15  C   UNL     1      -9.452   8.982  70.980  1.00  0.00    -0.274 A  
HETATM   16  N   UNL     1      -9.566   8.352  72.128  1.00  0.00    -0.268 NA 
HETATM   17  N   UNL     1      -8.346   8.451  72.742  1.00  0.00    -0.323 NA 
HETATM   18  N   UNL     1      -8.160   9.421  70.853  1.00  0.00    -0.303 NA 
HETATM   19  N   UNL     1      -7.485   9.112  71.982  1.00  0.00    -0.309 NA 
BRANCH  18  20
HETATM   20  C   UNL     1      -7.440  10.067  69.770  1.00  0.00    -0.151 C  
BRANCH  20  21
HETATM   21  C   UNL     1      -6.726   9.020  68.896  1.00  0.00    -0.053 C  
BRANCH  21  22
HETATM   22  N   UNL     1      -7.314   8.720  67.571  1.00  0.00    -0.081 NA 
HETATM   23  C   UNL     1      -8.097   9.887  67.125  1.00  0.00    -0.117 C  
HETATM   24  C   UNL     1      -8.202   7.552  67.579  1.00  0.00    -0.113 C  
ENDBRANCH  21  22
ENDBRANCH  20  21
ENDBRANCH  18  20
ENDBRANCH  14  15
ENDBRANCH  13  14
ENDBRANCH   4  13
BRANCH   8  25
HETATM   25  N   UNL     1     -10.353  16.430  68.894  1.00  0.00    -0.252 N  
HETATM   26  C   UNL     1      -9.986  17.490  68.094  1.00  0.00    -0.321 C  
HETATM   27  H   UNL     1      -9.664  16.030  69.531  1.00  0.00     0.000 HD 
HETATM   28  O   UNL     1     -10.792  18.101  67.393  1.00  0.00    -0.374 OA 
BRANCH  26  29
HETATM   29  C   UNL     1      -8.512  17.836  68.129  1.00  0.00    -0.262 C  
BRANCH  29  30
HETATM   30  C   UNL     1      -7.675  16.611  68.241  1.00  0.00    -0.183 A  
HETATM   31  N   UNL     1      -6.560  14.098  70.417  1.00  0.00    -0.403 NA 
HETATM   32  C   UNL     1      -6.968  15.998  67.224  1.00  0.00    -0.205 A  
HETATM   33  S   UNL     1      -6.174  14.604  67.818  1.00  0.00    -0.095 SA 
HETATM   34  H2  UNL     1      -5.965  13.282  70.276  1.00  0.00     0.000 HD 
HETATM   35  H1  UNL     1      -6.943  14.281  71.344  1.00  0.00     0.000 HD 
HETATM   36  N   UNL     1      -7.589  15.972  69.473  1.00  0.00    -0.178 NA 
HETATM   37  C   UNL     1      -6.820  14.911  69.377  1.00  0.00    -0.164 A  
ENDBRANCH  29  30
ENDBRANCH  26  29
ENDBRANCH   8  25
TORSDOF 9
ENDMDL
MODEL       23
REMARK 921   NORMALIZED FREE ENERGY PREDICTED BY IDOCK:   -6.16 KCAL/MOL
REMARK 922        TOTAL FREE ENERGY PREDICTED BY IDOCK:  -11.34 KCAL/MOL
REMARK 923 INTER-LIGAND FREE ENERGY PREDICTED BY IDOCK:   -8.97 KCAL/MOL
REMARK 924 INTRA-LIGAND FREE ENERGY PREDICTED BY IDOCK:   -2.37 KCAL/MOL
REMARK 927      BINDING AFFINITY PREDICTED BY RF-SCORE:    0.00 PKD
ROOT
HETATM    1  C   UNL     1     -10.389  10.191  66.123  1.00  0.00    -0.167 C  
HETATM    2  S   UNL     1      -9.378  10.817  67.483  1.00  0.00    -0.147 SA 
HETATM    3  C   UNL     1     -10.719  11.794  68.197  1.00  0.00    -0.214 C  
HETATM    4  C   UNL     1     -11.500  12.643  67.201  1.00  0.00    -0.406 C  
HETATM    5  C   UNL     1     -10.328  10.929  64.168  1.00  0.00    -0.364 C  
HETATM    6  CA  UNL     1     -11.519  12.411  65.854  1.00  0.00    -0.374 C  
HETATM    7  C   UNL     1     -12.272  13.349  64.931  1.00  0.00    -0.408 C  
HETATM    8  CA  UNL     1      -9.608   9.723  64.852  1.00  0.00    -0.246 C  
HETATM    9  N   UNL     1     -10.855  11.325  65.344  1.00  0.00    -0.231 N  
HETATM   10  O   UNL     1     -11.924  13.362  63.634  1.00  0.00    -0.480 OA 
HETATM   11  OXT UNL     1     -13.180  14.073  65.317  1.00  0.00    -0.782 OA 
HETATM   12  O   UNL     1     -10.343  11.475  63.085  1.00  0.00    -0.361 OA 
ENDROOT
BRANCH   4  13
HETATM   13  C   UNL     1     -12.120  13.862  67.895  1.00  0.00    -0.283 C  
BRANCH  13  14
HETATM   14  S   UNL     1     -10.961  14.702  69.033  1.00  0.00    -0.267 SA 
BRANCH  14  15
HETATM   15  C   UNL     1      -9.786  15.377  67.968  1.00  0.00    -0.216 A  
HETATM   16  N   UNL     1      -8.770  14.737  67.434  1.00  0.00    -0.186 NA 
HETATM   17  N   UNL     1      -8.053  15.670  66.735  1.00  0.00    -0.250 NA 
HETATM   18  N   UNL     1      -9.736  16.685  67.560  1.00  0.00    -0.244 NA 
HETATM   19  N   UNL     1      -8.623  16.864  66.815  1.00  0.00    -0.208 NA 
BRANCH  18  20
HETATM   20  C   UNL     1     -10.638  17.809  67.739  1.00  0.00    -0.386 C  
BRANCH  20  21
HETATM   21  C   UNL     1      -9.887  19.013  68.336  1.00  0.00    -0.392 C  
BRANCH  21  22
HETATM   22  N   UNL     1      -9.669  20.186  67.458  1.00  0.00    -0.398 NA 
HETATM   23  C   UNL     1     -10.332  19.940  66.165  1.00  0.00    -0.494 C  
HETATM   24  C   UNL     1      -8.251  20.462  67.198  1.00  0.00    -0.320 C  
ENDBRANCH  21  22
ENDBRANCH  20  21
ENDBRANCH  18  20
ENDBRANCH  14  15
ENDBRANCH  13  14
ENDBRANCH   4  13
BRANCH   8  25
HETATM   25  N   UNL     1      -8.118   9.818  64.905  1.00  0.00    -0.133 N  
HETATM   26  C   UNL     1      -7.322   8.713  65.116  1.00  0.00    -0.088 C  
HETATM   27  H   UNL     1      -7.677  10.729  64.779  1.00  0.00     0.000 HD 
HETATM   28  O   UNL     1      -7.773   7.569  65.153  1.00  0.00    -0.096 OA 
BRANCH  26  29
HETATM   29  C   UNL     1      -5.851   9.015  65.318  1.00  0.00    -0.055 C  
BRANCH  29  30
HETATM   30  C   UNL     1      -5.653  10.038  66.379  1.00  0.00    -0.046 A  
HETATM   31  N   UNL     1      -5.859  13.457  67.131  1.00  0.00    -0.377 NA 
HETATM   32  C   UNL     1      -5.255   9.809  67.683  1.00  0.00    -0.036 A  
HETATM   33  S   UNL     1      -5.189  11.286  68.544  1.00  0.00    -0.042 SA 
HETATM   34  H2  UNL     1      -5.686  13.983  67.987  1.00  0.00     0.000 HD 
HETATM   35  H1  UNL     1      -6.156  13.954  66.292  1.00  0.00     0.000 HD 
HETATM   36  N   UNL     1      -5.909  11.371  66.078  1.00  0.00    -0.143 NA 
HETATM   37  C   UNL     1      -5.690  12.122  67.133  1.00  0.00    -0.131 A  
ENDBRANCH  29  30
ENDBRANCH  26  29
ENDBRANCH   8  25
TORSDOF 9
ENDMDL
MODEL       24
REMARK 921   NORMALIZED FREE ENERGY PREDICTED BY IDOCK:   -6.14 KCAL/MOL
REMARK 922        TOTAL FREE ENERGY PREDICTED BY IDOCK:  -11.31 KCAL/MOL
REMARK 923 INTER-LIGAND FREE ENERGY PREDICTED BY IDOCK:  -10.02 KCAL/MOL
REMARK 924 INTRA-LIGAND FREE ENERGY PREDICTED BY IDOCK:   -1.29 KCAL/MOL
REMARK 927      BINDING AFFINITY PREDICTED BY RF-SCORE:    0.00 PKD
ROOT
HETATM    1  C   UNL     1     -11.623  12.622  68.048  1.00  0.00    -0.343 C  
HETATM    2  S   UNL     1      -9.958  11.930  68.177  1.00  0.00    -0.201 SA 
HETATM    3  C   UNL     1     -10.498  10.470  69.092  1.00  0.00    -0.228 C  
HETATM    4  C   UNL     1     -11.441  10.750  70.256  1.00  0.00    -0.406 C  
HETATM    5  C   UNL     1     -12.357  14.165  69.251  1.00  0.00    -0.169 C  
HETATM    6  CA  UNL     1     -12.174  11.897  70.382  1.00  0.00    -0.314 C  
HETATM    7  C   UNL     1     -13.036  12.117  71.610  1.00  0.00    -0.321 C  
HETATM    8  CA  UNL     1     -11.704  14.167  67.833  1.00  0.00    -0.367 C  
HETATM    9  N   UNL     1     -12.126  12.844  69.393  1.00  0.00    -0.245 N  
HETATM   10  O   UNL     1     -13.379  13.380  71.914  1.00  0.00    -0.407 OA 
HETATM   11  OXT UNL     1     -13.435  11.201  72.315  1.00  0.00    -0.337 OA 
HETATM   12  O   UNL     1     -12.773  14.973  70.055  1.00  0.00    -0.261 OA 
ENDROOT
BRANCH   4  13
HETATM   13  C   UNL     1     -11.330   9.653  71.321  1.00  0.00    -0.388 C  
BRANCH  13  14
HETATM   14  S   UNL     1      -9.695   8.834  71.334  1.00  0.00    -0.304 SA 
BRANCH  14  15
HETATM   15  C   UNL     1     -10.059   7.239  71.877  1.00  0.00    -0.178 A  
HETATM   16  N   UNL     1      -9.705   6.717  73.030  1.00  0.00    -0.157 NA 
HETATM   17  N   UNL     1     -10.122   5.413  73.005  1.00  0.00    -0.171 NA 
HETATM   18  N   UNL     1     -10.740   6.288  71.162  1.00  0.00    -0.238 NA 
HETATM   19  N   UNL     1     -10.741   5.136  71.867  1.00  0.00    -0.189 NA 
BRANCH  18  20
HETATM   20  C   UNL     1     -11.448   6.327  69.894  1.00  0.00    -0.389 C  
BRANCH  20  21
HETATM   21  C   UNL     1     -10.507   5.946  68.738  1.00  0.00    -0.249 C  
BRANCH  21  22
HETATM   22  N   UNL     1     -10.951   6.262  67.362  1.00  0.00    -0.355 NA 
HETATM   23  C   UNL     1     -10.424   5.234  66.445  1.00  0.00    -0.292 C  
HETATM   24  C   UNL     1     -10.491   7.573  66.888  1.00  0.00    -0.315 C  
ENDBRANCH  21  22
ENDBRANCH  20  21
ENDBRANCH  18  20
ENDBRANCH  14  15
ENDBRANCH  13  14
ENDBRANCH   4  13
BRANCH   8  25
HETATM   25  N   UNL     1     -10.408  14.902  67.729  1.00  0.00    -0.243 N  
HETATM   26  C   UNL     1      -9.989  15.486  66.554  1.00  0.00    -0.269 C  
HETATM   27  H   UNL     1      -9.814  14.975  68.556  1.00  0.00     0.000 HD 
HETATM   28  O   UNL     1     -10.703  15.546  65.553  1.00  0.00    -0.337 OA 
BRANCH  26  29
HETATM   29  C   UNL     1      -8.577  16.033  66.580  1.00  0.00    -0.344 C  
BRANCH  29  30
HETATM   30  C   UNL     1      -8.537  17.391  67.185  1.00  0.00    -0.219 A  
HETATM   31  N   UNL     1     -10.225  19.637  69.283  1.00  0.00    -0.628 NA 
HETATM   32  C   UNL     1      -7.535  18.332  67.038  1.00  0.00    -0.213 A  
HETATM   33  S   UNL     1      -7.912  19.736  67.940  1.00  0.00    -0.288 SA 
HETATM   34  H2  UNL     1      -9.997  20.577  69.607  1.00  0.00     0.000 HD 
HETATM   35  H1  UNL     1     -11.093  19.200  69.591  1.00  0.00     0.000 HD 
HETATM   36  N   UNL     1      -9.584  17.784  68.011  1.00  0.00    -0.281 NA 
HETATM   37  C   UNL     1      -9.373  19.001  68.458  1.00  0.00    -0.375 A  
ENDBRANCH  29  30
ENDBRANCH  26  29
ENDBRANCH   8  25
TORSDOF 9
ENDMDL
MODEL       25
REMARK 921   NORMALIZED FREE ENERGY PREDICTED BY IDOCK:   -6.12 KCAL/MOL
REMARK 922        TOTAL FREE ENERGY PREDICTED BY IDOCK:  -11.28 KCAL/MOL
REMARK 923 INTER-LIGAND FREE ENERGY PREDICTED BY IDOCK:   -9.75 KCAL/MOL
REMARK 924 INTRA-LIGAND FREE ENERGY PREDICTED BY IDOCK:   -1.53 KCAL/MOL
REMARK 927      BINDING AFFINITY PREDICTED BY RF-SCORE:    0.00 PKD
ROOT
HETATM    1  C   UNL     1     -11.907  14.334  68.686  1.00  0.00    -0.344 C  
HETATM    2  S   UNL     1     -10.354  13.470  68.359  1.00  0.00    -0.245 SA 
HETATM    3  C   UNL     1     -11.053  11.834  68.674  1.00  0.00    -0.238 C  
HETATM    4  C   UNL     1     -11.887  11.722  69.944  1.00  0.00    -0.423 C  
HETATM    5  C   UNL     1     -12.352  15.330  70.469  1.00  0.00    -0.387 C  
HETATM    6  CA  UNL     1     -12.441  12.793  70.587  1.00  0.00    -0.246 C  
HETATM    7  C   UNL     1     -13.201  12.592  71.884  1.00  0.00    -0.403 C  
HETATM    8  CA  UNL     1     -11.776  15.834  69.107  1.00  0.00    -0.388 C  
HETATM    9  N   UNL     1     -12.307  14.049  70.053  1.00  0.00    -0.345 N  
HETATM   10  O   UNL     1     -13.344  13.654  72.695  1.00  0.00    -0.536 OA 
HETATM   11  OXT UNL     1     -13.692  11.519  72.207  1.00  0.00    -0.158 OA 
HETATM   12  O   UNL     1     -12.608  15.784  71.565  1.00  0.00    -0.420 OA 
ENDROOT
BRANCH   4  13
HETATM   13  C   UNL     1     -11.882  10.282  70.472  1.00  0.00    -0.329 C  
BRANCH  13  14
HETATM   14  S   UNL     1     -10.245   9.478  70.339  1.00  0.00    -0.295 SA 
BRANCH  14  15
HETATM   15  C   UNL     1     -10.513   8.232  69.180  1.00  0.00    -0.206 A  
HETATM   16  N   UNL     1     -10.342   8.336  67.881  1.00  0.00    -0.219 NA 
HETATM   17  N   UNL     1     -10.755   7.147  67.342  1.00  0.00    -0.289 NA 
HETATM   18  N   UNL     1     -10.974   6.971  69.455  1.00  0.00    -0.238 NA 
HETATM   19  N   UNL     1     -11.155   6.312  68.290  1.00  0.00    -0.325 NA 
BRANCH  18  20
HETATM   20  C   UNL     1     -11.231   6.264  70.699  1.00  0.00    -0.337 C  
BRANCH  20  21
HETATM   21  C   UNL     1      -9.919   5.720  71.291  1.00  0.00    -0.191 C  
BRANCH  21  22
HETATM   22  N   UNL     1      -9.912   5.364  72.728  1.00  0.00    -0.167 NA 
HETATM   23  C   UNL     1      -8.891   4.326  72.956  1.00  0.00    -0.106 C  
HETATM   24  C   UNL     1     -11.201   4.848  73.205  1.00  0.00    -0.345 C  
ENDBRANCH  21  22
ENDBRANCH  20  21
ENDBRANCH  18  20
ENDBRANCH  14  15
ENDBRANCH  13  14
ENDBRANCH   4  13
BRANCH   8  25
HETATM   25  N   UNL     1     -10.394  16.398  69.170  1.00  0.00    -0.269 N  
HETATM   26  C   UNL     1      -9.985  17.426  68.349  1.00  0.00    -0.329 C  
HETATM   27  H   UNL     1      -9.733  16.010  69.844  1.00  0.00     0.000 HD 
HETATM   28  O   UNL     1     -10.758  18.023  67.601  1.00  0.00    -0.415 OA 
BRANCH  26  29
HETATM   29  C   UNL     1      -8.508  17.752  68.422  1.00  0.00    -0.295 C  
BRANCH  29  30
HETATM   30  C   UNL     1      -7.684  16.514  68.446  1.00  0.00    -0.189 A  
HETATM   31  N   UNL     1      -6.556  13.870  70.454  1.00  0.00    -0.404 NA 
HETATM   32  C   UNL     1      -7.005  15.952  67.382  1.00  0.00    -0.200 A  
HETATM   33  S   UNL     1      -6.217  14.517  67.880  1.00  0.00    -0.140 SA 
HETATM   34  H2  UNL     1      -5.974  13.056  70.254  1.00  0.00     0.000 HD 
HETATM   35  H1  UNL     1      -6.918  14.004  71.397  1.00  0.00     0.000 HD 
HETATM   36  N   UNL     1      -7.581  15.805  69.638  1.00  0.00    -0.158 NA 
HETATM   37  C   UNL     1      -6.828  14.743  69.467  1.00  0.00    -0.169 A  
ENDBRANCH  29  30
ENDBRANCH  26  29
ENDBRANCH   8  25
TORSDOF 9
ENDMDL
MODEL       26
REMARK 921   NORMALIZED FREE ENERGY PREDICTED BY IDOCK:   -6.09 KCAL/MOL
REMARK 922        TOTAL FREE ENERGY PREDICTED BY IDOCK:  -11.24 KCAL/MOL
REMARK 923 INTER-LIGAND FREE ENERGY PREDICTED BY IDOCK:   -9.95 KCAL/MOL
REMARK 924 INTRA-LIGAND FREE ENERGY PREDICTED BY IDOCK:   -1.29 KCAL/MOL
REMARK 927      BINDING AFFINITY PREDICTED BY RF-SCORE:    0.00 PKD
ROOT
HETATM    1  C   UNL     1     -10.707   8.387  67.287  1.00  0.00    -0.160 C  
HETATM    2  S   UNL     1     -10.552   9.799  68.404  1.00  0.00    -0.221 SA 
HETATM    3  C   UNL     1     -11.122  10.994  67.175  1.00  0.00    -0.267 C  
HETATM    4  C   UNL     1     -10.473  10.867  65.802  1.00  0.00    -0.275 C  
HETATM    5  C   UNL     1      -9.104   7.491  66.287  1.00  0.00    -0.157 C  
HETATM    6  CA  UNL     1      -9.848   9.736  65.358  1.00  0.00    -0.295 C  
HETATM    7  C   UNL     1      -9.171   9.724  64.001  1.00  0.00    -0.215 C  
HETATM    8  CA  UNL     1      -9.822   7.146  67.631  1.00  0.00    -0.147 C  
HETATM    9  N   UNL     1      -9.836   8.614  66.146  1.00  0.00    -0.244 N  
HETATM   10  O   UNL     1      -8.224   8.797  63.784  1.00  0.00    -0.163 OA 
HETATM   11  OXT UNL     1      -9.463  10.506  63.107  1.00  0.00    -0.281 OA 
HETATM   12  O   UNL     1      -8.162   7.089  65.638  1.00  0.00    -0.123 OA 
ENDROOT
BRANCH   4  13
HETATM   13  C   UNL     1     -10.486  12.214  65.069  1.00  0.00    -0.290 C  
BRANCH  13  14
HETATM   14  S   UNL     1     -10.390  13.645  66.204  1.00  0.00    -0.303 SA 
BRANCH  14  15
HETATM   15  C   UNL     1     -10.988  14.946  65.245  1.00  0.00    -0.380 A  
HETATM   16  N   UNL     1     -11.855  14.846  64.263  1.00  0.00    -0.353 NA 
HETATM   17  N   UNL     1     -11.974  16.100  63.726  1.00  0.00    -0.787 NA 
HETATM   18  N   UNL     1     -10.612  16.260  65.358  1.00  0.00    -0.515 NA 
HETATM   19  N   UNL     1     -11.212  16.967  64.376  1.00  0.00    -1.077 NA 
BRANCH  18  20
HETATM   20  C   UNL     1      -9.781  16.969  66.316  1.00  0.00    -0.283 C  
BRANCH  20  21
HETATM   21  C   UNL     1     -10.631  17.479  67.494  1.00  0.00    -0.333 C  
BRANCH  21  22
HETATM   22  N   UNL     1     -10.194  17.114  68.861  1.00  0.00    -0.317 NA 
HETATM   23  C   UNL     1      -8.800  16.638  68.802  1.00  0.00    -0.264 C  
HETATM   24  C   UNL     1     -11.011  16.057  69.470  1.00  0.00    -0.326 C  
ENDBRANCH  21  22
ENDBRANCH  20  21
ENDBRANCH  18  20
ENDBRANCH  14  15
ENDBRANCH  13  14
ENDBRANCH   4  13
BRANCH   8  25
HETATM   25  N   UNL     1      -8.968   7.245  68.853  1.00  0.00    -0.134 N  
HETATM   26  C   UNL     1      -8.556   6.130  69.551  1.00  0.00    -0.127 C  
HETATM   27  H   UNL     1      -8.680   8.168  69.180  1.00  0.00     0.000 HD 
HETATM   28  O   UNL     1      -8.759   4.985  69.149  1.00  0.00    -0.091 OA 
BRANCH  26  29
HETATM   29  C   UNL     1      -7.849   6.421  70.858  1.00  0.00    -0.107 C  
BRANCH  29  30
HETATM   30  C   UNL     1      -8.821   6.549  71.978  1.00  0.00    -0.133 A  
HETATM   31  N   UNL     1     -11.935   7.851  72.926  1.00  0.00    -0.619 NA 
HETATM   32  C   UNL     1      -8.695   6.015  73.246  1.00  0.00    -0.120 A  
HETATM   33  S   UNL     1     -10.072   6.401  74.185  1.00  0.00    -0.349 SA 
HETATM   34  H2  UNL     1     -12.462   7.804  73.797  1.00  0.00     0.000 HD 
HETATM   35  H1  UNL     1     -12.329   8.355  72.131  1.00  0.00     0.000 HD 
HETATM   36  N   UNL     1     -10.002   7.249  71.759  1.00  0.00    -0.172 NA 
HETATM   37  C   UNL     1     -10.734   7.248  72.849  1.00  0.00    -0.322 A  
ENDBRANCH  29  30
ENDBRANCH  26  29
ENDBRANCH   8  25
TORSDOF 9
ENDMDL
MODEL       27
REMARK 921   NORMALIZED FREE ENERGY PREDICTED BY IDOCK:   -6.07 KCAL/MOL
REMARK 922        TOTAL FREE ENERGY PREDICTED BY IDOCK:  -11.21 KCAL/MOL
REMARK 923 INTER-LIGAND FREE ENERGY PREDICTED BY IDOCK:   -9.57 KCAL/MOL
REMARK 924 INTRA-LIGAND FREE ENERGY PREDICTED BY IDOCK:   -1.65 KCAL/MOL
REMARK 927      BINDING AFFINITY PREDICTED BY RF-SCORE:    0.00 PKD
ROOT
HETATM    1  C   UNL     1      -9.545   9.438  68.129  1.00  0.00    -0.142 C  
HETATM    2  S   UNL     1     -10.950  10.365  68.786  1.00  0.00    -0.252 SA 
HETATM    3  C   UNL     1     -10.706  11.768  67.675  1.00  0.00    -0.214 C  
HETATM    4  C   UNL     1      -9.272  12.272  67.577  1.00  0.00    -0.181 C  
HETATM    5  C   UNL     1      -7.676   9.310  69.057  1.00  0.00    -0.075 C  
HETATM    6  CA  UNL     1      -8.179  11.528  67.924  1.00  0.00    -0.134 C  
HETATM    7  C   UNL     1      -6.792  12.137  67.855  1.00  0.00    -0.095 C  
HETATM    8  CA  UNL     1      -8.924   8.371  69.087  1.00  0.00    -0.147 C  
HETATM    9  N   UNL     1      -8.344  10.230  68.332  1.00  0.00    -0.115 N  
HETATM   10  O   UNL     1      -5.822  11.567  68.591  1.00  0.00    -0.043 OA 
HETATM   11  OXT UNL     1      -6.524  13.103  67.155  1.00  0.00    -0.227 OA 
HETATM   12  O   UNL     1      -6.579   9.371  69.570  1.00  0.00    -0.042 OA 
ENDROOT
BRANCH   4  13
HETATM   13  C   UNL     1      -9.242  13.756  67.190  1.00  0.00    -0.243 C  
BRANCH  13  14
HETATM   14  S   UNL     1     -10.846  14.594  67.453  1.00  0.00    -0.307 SA 
BRANCH  14  15
HETATM   15  C   UNL     1     -10.954  15.666  66.109  1.00  0.00    -0.206 A  
HETATM   16  N   UNL     1     -10.591  16.929  66.099  1.00  0.00    -0.248 NA 
HETATM   17  N   UNL     1     -10.933  17.417  64.866  1.00  0.00    -0.851 NA 
HETATM   18  N   UNL     1     -11.466  15.353  64.876  1.00  0.00    -0.346 NA 
HETATM   19  N   UNL     1     -11.480  16.470  64.117  1.00  0.00    -1.092 NA 
BRANCH  18  20
HETATM   20  C   UNL     1     -11.913  14.105  64.282  1.00  0.00    -0.435 C  
BRANCH  20  21
HETATM   21  C   UNL     1     -10.714  13.180  64.005  1.00  0.00    -0.302 C  
BRANCH  21  22
HETATM   22  N   UNL     1     -10.996  11.860  63.395  1.00  0.00    -0.407 NA 
HETATM   23  C   UNL     1     -12.454  11.644  63.383  1.00  0.00    -0.210 C  
HETATM   24  C   UNL     1     -10.376  10.742  64.115  1.00  0.00    -0.311 C  
ENDBRANCH  21  22
ENDBRANCH  20  21
ENDBRANCH  18  20
ENDBRANCH  14  15
ENDBRANCH  13  14
ENDBRANCH   4  13
BRANCH   8  25
HETATM   25  N   UNL     1      -9.568   8.212  70.426  1.00  0.00    -0.170 N  
HETATM   26  C   UNL     1      -9.477   7.041  71.148  1.00  0.00    -0.165 C  
HETATM   27  H   UNL     1     -10.092   8.995  70.818  1.00  0.00     0.000 HD 
HETATM   28  O   UNL     1      -8.763   6.102  70.798  1.00  0.00    -0.133 OA 
BRANCH  26  29
HETATM   29  C   UNL     1     -10.334   6.992  72.395  1.00  0.00    -0.227 C  
BRANCH  29  30
HETATM   30  C   UNL     1     -11.632   7.687  72.184  1.00  0.00    -0.308 A  
HETATM   31  N   UNL     1     -13.232  10.807  72.150  1.00  0.00    -0.591 NA 
HETATM   32  C   UNL     1     -12.834   7.104  71.831  1.00  0.00    -0.260 A  
HETATM   33  S   UNL     1     -14.045   8.302  71.676  1.00  0.00    -0.405 SA 
HETATM   34  H2  UNL     1     -14.192  11.084  71.946  1.00  0.00     0.000 HD 
HETATM   35  H1  UNL     1     -12.548  11.522  72.397  1.00  0.00     0.000 HD 
HETATM   36  N   UNL     1     -11.678   9.070  72.322  1.00  0.00    -0.291 NA 
HETATM   37  C   UNL     1     -12.895   9.506  72.090  1.00  0.00    -0.389 A  
ENDBRANCH  29  30
ENDBRANCH  26  29
ENDBRANCH   8  25
TORSDOF 9
ENDMDL
MODEL       28
REMARK 921   NORMALIZED FREE ENERGY PREDICTED BY IDOCK:   -6.07 KCAL/MOL
REMARK 922        TOTAL FREE ENERGY PREDICTED BY IDOCK:  -11.20 KCAL/MOL
REMARK 923 INTER-LIGAND FREE ENERGY PREDICTED BY IDOCK:   -9.66 KCAL/MOL
REMARK 924 INTRA-LIGAND FREE ENERGY PREDICTED BY IDOCK:   -1.54 KCAL/MOL
REMARK 927      BINDING AFFINITY PREDICTED BY RF-SCORE:    0.00 PKD
ROOT
HETATM    1  C   UNL     1     -10.771  12.991  67.404  1.00  0.00    -0.245 C  
HETATM    2  S   UNL     1      -8.995  12.715  67.221  1.00  0.00    -0.202 SA 
HETATM    3  C   UNL     1      -8.612  14.471  67.043  1.00  0.00    -0.217 C  
HETATM    4  C   UNL     1      -9.503  15.230  66.067  1.00  0.00    -0.372 C  
HETATM    5  C   UNL     1     -12.173  12.711  65.880  1.00  0.00    -0.307 C  
HETATM    6  CA  UNL     1     -10.736  14.795  65.667  1.00  0.00    -0.336 C  
HETATM    7  C   UNL     1     -11.524  15.585  64.639  1.00  0.00    -0.324 C  
HETATM    8  CA  UNL     1     -11.690  11.781  67.038  1.00  0.00    -0.167 C  
HETATM    9  N   UNL     1     -11.255  13.644  66.201  1.00  0.00    -0.300 N  
HETATM   10  O   UNL     1     -12.485  14.938  63.959  1.00  0.00    -0.807 OA 
HETATM   11  OXT UNL     1     -11.328  16.772  64.421  1.00  0.00    -1.089 OA 
HETATM   12  O   UNL     1     -12.926  12.654  64.930  1.00  0.00    -0.830 OA 
ENDROOT
BRANCH   4  13
HETATM   13  C   UNL     1      -8.766  16.444  65.490  1.00  0.00     0.793 C  
BRANCH  13  14
HETATM   14  S   UNL     1      -7.809  17.362  66.750  1.00  0.00    -0.261 SA 
BRANCH  14  15
HETATM   15  C   UNL     1      -8.815  18.718  67.096  1.00  0.00    -0.278 A  
HETATM   16  N   UNL     1      -8.527  19.975  66.845  1.00  0.00    -0.317 NA 
HETATM   17  N   UNL     1      -9.558  20.715  67.361  1.00  0.00    -0.444 NA 
HETATM   18  N   UNL     1     -10.039  18.668  67.711  1.00  0.00    -0.351 NA 
HETATM   19  N   UNL     1     -10.478  19.931  67.904  1.00  0.00    -0.400 NA 
BRANCH  18  20
HETATM   20  C   UNL     1     -10.896  17.567  68.112  1.00  0.00    -0.243 C  
BRANCH  20  21
HETATM   21  C   UNL     1     -10.300  16.834  69.327  1.00  0.00    -0.309 C  
BRANCH  21  22
HETATM   22  N   UNL     1     -11.081  15.713  69.900  1.00  0.00    -0.288 NA 
HETATM   23  C   UNL     1     -12.254  15.465  69.042  1.00  0.00    -0.136 C  
HETATM   24  C   UNL     1     -11.561  15.975  71.263  1.00  0.00    -0.449 C  
ENDBRANCH  21  22
ENDBRANCH  20  21
ENDBRANCH  18  20
ENDBRANCH  14  15
ENDBRANCH  13  14
ENDBRANCH   4  13
BRANCH   8  25
HETATM   25  N   UNL     1     -11.008  10.524  66.603  1.00  0.00    -0.104 N  
HETATM   26  C   UNL     1     -10.537   9.597  67.506  1.00  0.00    -0.277 C  
HETATM   27  H   UNL     1     -10.888  10.348  65.605  1.00  0.00     0.000 HD 
HETATM   28  O   UNL     1     -10.753   9.681  68.715  1.00  0.00    -0.221 OA 
BRANCH  26  29
HETATM   29  C   UNL     1      -9.718   8.475  66.902  1.00  0.00    -0.286 C  
BRANCH  29  30
HETATM   30  C   UNL     1      -8.694   9.003  65.962  1.00  0.00    -0.160 A  
HETATM   31  N   UNL     1      -8.174  10.396  62.786  1.00  0.00    -0.153 NA 
HETATM   32  C   UNL     1      -7.337   9.123  66.200  1.00  0.00    -0.095 A  
HETATM   33  S   UNL     1      -6.561   9.807  64.838  1.00  0.00    -0.114 SA 
HETATM   34  H2  UNL     1      -7.335  10.731  62.312  1.00  0.00     0.000 HD 
HETATM   35  H1  UNL     1      -9.072  10.447  62.306  1.00  0.00     0.000 HD 
HETATM   36  N   UNL     1      -9.105   9.459  64.714  1.00  0.00    -0.219 NA 
HETATM   37  C   UNL     1      -8.072   9.894  64.030  1.00  0.00    -0.152 A  
ENDBRANCH  29  30
ENDBRANCH  26  29
ENDBRANCH   8  25
TORSDOF 9
ENDMDL
MODEL       29
REMARK 921   NORMALIZED FREE ENERGY PREDICTED BY IDOCK:   -6.00 KCAL/MOL
REMARK 922        TOTAL FREE ENERGY PREDICTED BY IDOCK:  -11.10 KCAL/MOL
REMARK 923 INTER-LIGAND FREE ENERGY PREDICTED BY IDOCK:   -9.61 KCAL/MOL
REMARK 924 INTRA-LIGAND FREE ENERGY PREDICTED BY IDOCK:   -1.49 KCAL/MOL
REMARK 927      BINDING AFFINITY PREDICTED BY RF-SCORE:    0.00 PKD
ROOT
HETATM    1  C   UNL     1     -11.666  12.768  67.014  1.00  0.00    -0.374 C  
HETATM    2  S   UNL     1     -10.010  12.194  66.573  1.00  0.00    -0.218 SA 
HETATM    3  C   UNL     1     -10.334  10.486  67.065  1.00  0.00    -0.237 C  
HETATM    4  C   UNL     1     -11.004  10.322  68.424  1.00  0.00    -0.308 C  
HETATM    5  C   UNL     1     -12.129  13.804  68.769  1.00  0.00    -0.309 C  
HETATM    6  CA  UNL     1     -11.697  11.316  69.055  1.00  0.00    -0.342 C  
HETATM    7  C   UNL     1     -12.274  11.081  70.438  1.00  0.00    -0.373 C  
HETATM    8  CA  UNL     1     -11.798  14.294  67.324  1.00  0.00    -0.413 C  
HETATM    9  N   UNL     1     -11.868  12.525  68.432  1.00  0.00    -0.327 N  
HETATM   10  O   UNL     1     -12.549  12.159  71.192  1.00  0.00    -0.365 OA 
HETATM   11  OXT UNL     1     -12.507   9.964  70.879  1.00  0.00    -0.308 OA 
HETATM   12  O   UNL     1     -12.365  14.289  69.856  1.00  0.00    -0.332 OA 
ENDROOT
BRANCH   4  13
HETATM   13  C   UNL     1     -10.661   8.959  69.037  1.00  0.00    -0.183 C  
BRANCH  13  14
HETATM   14  S   UNL     1      -8.944   8.431  68.689  1.00  0.00    -0.139 SA 
BRANCH  14  15
HETATM   15  C   UNL     1      -8.212   8.424  70.249  1.00  0.00    -0.121 A  
HETATM   16  N   UNL     1      -7.925   9.483  70.971  1.00  0.00    -0.309 NA 
HETATM   17  N   UNL     1      -7.278   9.022  72.087  1.00  0.00    -0.331 NA 
HETATM   18  N   UNL     1      -7.800   7.309  70.932  1.00  0.00    -0.093 NA 
HETATM   19  N   UNL     1      -7.183   7.701  72.068  1.00  0.00    -0.067 NA 
BRANCH  18  20
HETATM   20  C   UNL     1      -7.951   5.886  70.680  1.00  0.00    -0.110 C  
BRANCH  20  21
HETATM   21  C   UNL     1      -8.992   5.276  71.636  1.00  0.00    -0.135 C  
BRANCH  21  22
HETATM   22  N   UNL     1     -10.391   5.188  71.156  1.00  0.00    -0.221 NA 
HETATM   23  C   UNL     1     -10.383   5.111  69.683  1.00  0.00    -0.246 C  
HETATM   24  C   UNL     1     -11.214   6.338  71.547  1.00  0.00    -0.290 C  
ENDBRANCH  21  22
ENDBRANCH  20  21
ENDBRANCH  18  20
ENDBRANCH  14  15
ENDBRANCH  13  14
ENDBRANCH   4  13
BRANCH   8  25
HETATM   25  N   UNL     1     -10.558  15.117  67.199  1.00  0.00    -0.289 N  
HETATM   26  C   UNL     1     -10.214  15.751  66.024  1.00  0.00    -0.333 C  
HETATM   27  H   UNL     1      -9.946  15.213  68.010  1.00  0.00     0.000 HD 
HETATM   28  O   UNL     1     -10.961  15.782  65.047  1.00  0.00    -0.410 OA 
BRANCH  26  29
HETATM   29  C   UNL     1      -8.842  16.391  66.022  1.00  0.00    -0.296 C  
BRANCH  29  30
HETATM   30  C   UNL     1      -8.879  17.745  66.637  1.00  0.00    -0.264 A  
HETATM   31  N   UNL     1     -10.251  19.674  69.223  1.00  0.00    -0.628 NA 
HETATM   32  C   UNL     1      -8.163  18.856  66.232  1.00  0.00    -0.268 A  
HETATM   33  S   UNL     1      -8.509  20.181  67.256  1.00  0.00    -0.347 SA 
HETATM   34  H2  UNL     1     -10.118  20.647  69.498  1.00  0.00     0.000 HD 
HETATM   35  H1  UNL     1     -10.889  19.086  69.760  1.00  0.00     0.000 HD 
HETATM   36  N   UNL     1      -9.685  17.949  67.751  1.00  0.00    -0.275 NA 
HETATM   37  C   UNL     1      -9.582  19.193  68.159  1.00  0.00    -0.348 A  
ENDBRANCH  29  30
ENDBRANCH  26  29
ENDBRANCH   8  25
TORSDOF 9
ENDMDL
MODEL       30
REMARK 921   NORMALIZED FREE ENERGY PREDICTED BY IDOCK:   -6.00 KCAL/MOL
REMARK 922        TOTAL FREE ENERGY PREDICTED BY IDOCK:  -11.10 KCAL/MOL
REMARK 923 INTER-LIGAND FREE ENERGY PREDICTED BY IDOCK:   -9.29 KCAL/MOL
REMARK 924 INTRA-LIGAND FREE ENERGY PREDICTED BY IDOCK:   -1.80 KCAL/MOL
REMARK 927      BINDING AFFINITY PREDICTED BY RF-SCORE:    0.00 PKD
ROOT
HETATM    1  C   UNL     1     -11.383  14.915  68.725  1.00  0.00    -0.287 C  
HETATM    2  S   UNL     1      -9.742  15.311  69.368  1.00  0.00    -0.224 SA 
HETATM    3  C   UNL     1      -9.689  16.939  68.586  1.00  0.00    -0.267 C  
HETATM    4  C   UNL     1     -10.103  16.963  67.120  1.00  0.00    -0.287 C  
HETATM    5  C   UNL     1     -11.740  13.673  67.083  1.00  0.00    -0.383 C  
HETATM    6  CA  UNL     1     -10.850  15.986  66.524  1.00  0.00    -0.167 C  
HETATM    7  C   UNL     1     -11.159  16.063  65.041  1.00  0.00    -0.336 C  
HETATM    8  CA  UNL     1     -11.725  13.394  68.620  1.00  0.00    -0.349 C  
HETATM    9  N   UNL     1     -11.320  14.939  67.274  1.00  0.00    -0.346 N  
HETATM   10  O   UNL     1     -11.494  14.923  64.414  1.00  0.00    -0.334 OA 
HETATM   11  OXT UNL     1     -11.127  17.109  64.409  1.00  0.00    -1.100 OA 
HETATM   12  O   UNL     1     -11.885  13.048  66.053  1.00  0.00    -0.374 OA 
ENDROOT
BRANCH   4  13
HETATM   13  C   UNL     1      -9.442  18.138  66.388  1.00  0.00    -0.278 C  
BRANCH  13  14
HETATM   14  S   UNL     1      -9.348  19.652  67.410  1.00  0.00    -0.342 SA 
BRANCH  14  15
HETATM   15  C   UNL     1      -7.726  20.184  67.175  1.00  0.00    -0.308 A  
HETATM   16  N   UNL     1      -7.271  20.833  66.127  1.00  0.00    -0.066 NA 
HETATM   17  N   UNL     1      -5.922  20.973  66.318  1.00  0.00    -0.250 NA 
HETATM   18  N   UNL     1      -6.683  19.970  68.038  1.00  0.00    -0.269 NA 
HETATM   19  N   UNL     1      -5.549  20.439  67.472  1.00  0.00    -0.177 NA 
BRANCH  18  20
HETATM   20  C   UNL     1      -6.609  19.412  69.377  1.00  0.00    -0.329 C  
BRANCH  20  21
HETATM   21  C   UNL     1      -5.627  18.227  69.415  1.00  0.00    -0.218 C  
BRANCH  21  22
HETATM   22  N   UNL     1      -6.155  16.890  69.059  1.00  0.00    -0.169 NA 
HETATM   23  C   UNL     1      -5.377  15.866  69.780  1.00  0.00    -0.121 C  
HETATM   24  C   UNL     1      -6.073  16.596  67.623  1.00  0.00    -0.142 C  
ENDBRANCH  21  22
ENDBRANCH  20  21
ENDBRANCH  18  20
ENDBRANCH  14  15
ENDBRANCH  13  14
ENDBRANCH   4  13
BRANCH   8  25
HETATM   25  N   UNL     1     -10.677  12.434  69.082  1.00  0.00    -0.433 N  
HETATM   26  C   UNL     1     -10.804  11.073  68.910  1.00  0.00    -0.217 C  
HETATM   27  H   UNL     1      -9.842  12.799  69.540  1.00  0.00     0.000 HD 
HETATM   28  O   UNL     1     -11.720  10.571  68.260  1.00  0.00    -0.401 OA 
BRANCH  26  29
HETATM   29  C   UNL     1      -9.740  10.241  69.594  1.00  0.00    -0.216 C  
BRANCH  29  30
HETATM   30  C   UNL     1      -8.403  10.467  68.981  1.00  0.00    -0.150 A  
HETATM   31  N   UNL     1      -6.708  11.132  65.985  1.00  0.00    -0.354 NA 
HETATM   32  C   UNL     1      -7.188  10.500  69.638  1.00  0.00    -0.148 A  
HETATM   33  S   UNL     1      -5.928  10.816  68.525  1.00  0.00    -0.042 SA 
HETATM   34  H2  UNL     1      -5.721  11.282  65.773  1.00  0.00     0.000 HD 
HETATM   35  H1  UNL     1      -7.392  11.172  65.230  1.00  0.00     0.000 HD 
HETATM   36  N   UNL     1      -8.328  10.698  67.612  1.00  0.00    -0.114 NA 
HETATM   37  C   UNL     1      -7.078  10.885  67.255  1.00  0.00    -0.097 A  
ENDBRANCH  29  30
ENDBRANCH  26  29
ENDBRANCH   8  25
TORSDOF 9
ENDMDL
MODEL       31
REMARK 921   NORMALIZED FREE ENERGY PREDICTED BY IDOCK:   -5.98 KCAL/MOL
REMARK 922        TOTAL FREE ENERGY PREDICTED BY IDOCK:  -11.06 KCAL/MOL
REMARK 923 INTER-LIGAND FREE ENERGY PREDICTED BY IDOCK:   -9.29 KCAL/MOL
REMARK 924 INTRA-LIGAND FREE ENERGY PREDICTED BY IDOCK:   -1.77 KCAL/MOL
REMARK 927      BINDING AFFINITY PREDICTED BY RF-SCORE:    0.00 PKD
ROOT
HETATM    1  C   UNL     1      -9.280  12.961  66.686  1.00  0.00    -0.221 C  
HETATM    2  S   UNL     1      -7.849  13.135  67.776  1.00  0.00    -0.168 SA 
HETATM    3  C   UNL     1      -6.914  11.818  66.967  1.00  0.00    -0.135 C  
HETATM    4  C   UNL     1      -7.694  10.534  66.717  1.00  0.00    -0.118 C  
HETATM    5  C   UNL     1     -11.044  11.966  67.203  1.00  0.00    -0.293 C  
HETATM    6  CA  UNL     1      -9.059  10.466  66.687  1.00  0.00    -0.151 C  
HETATM    7  C   UNL     1      -9.750   9.129  66.497  1.00  0.00    -0.241 C  
HETATM    8  CA  UNL     1     -10.640  13.473  67.261  1.00  0.00    -0.263 C  
HETATM    9  N   UNL     1      -9.798  11.611  66.830  1.00  0.00    -0.196 N  
HETATM   10  O   UNL     1     -11.027   9.023  66.901  1.00  0.00    -0.059 OA 
HETATM   11  OXT UNL     1      -9.200   8.164  65.984  1.00  0.00    -0.189 OA 
HETATM   12  O   UNL     1     -11.992  11.273  67.506  1.00  0.00    -0.612 OA 
ENDROOT
BRANCH   4  13
HETATM   13  C   UNL     1      -6.750   9.327  66.660  1.00  0.00    -0.076 C  
BRANCH  13  14
HETATM   14  S   UNL     1      -6.210   8.765  68.315  1.00  0.00    -0.055 SA 
BRANCH  14  15
HETATM   15  C   UNL     1      -7.459   7.676  68.787  1.00  0.00    -0.100 A  
HETATM   16  N   UNL     1      -7.580   6.427  68.398  1.00  0.00    -0.098 NA 
HETATM   17  N   UNL     1      -8.753   5.969  68.938  1.00  0.00    -0.121 NA 
HETATM   18  N   UNL     1      -8.515   7.979  69.607  1.00  0.00    -0.129 NA 
HETATM   19  N   UNL     1      -9.338   6.909  69.665  1.00  0.00    -0.146 NA 
BRANCH  18  20
HETATM   20  C   UNL     1      -8.842   9.150  70.403  1.00  0.00    -0.220 C  
BRANCH  20  21
HETATM   21  C   UNL     1     -10.283   9.608  70.120  1.00  0.00    -0.264 C  
BRANCH  21  22
HETATM   22  N   UNL     1     -11.159   9.869  71.285  1.00  0.00    -0.312 NA 
HETATM   23  C   UNL     1     -11.175   8.670  72.143  1.00  0.00    -0.367 C  
HETATM   24  C   UNL     1     -12.544  10.181  70.913  1.00  0.00    -0.360 C  
ENDBRANCH  21  22
ENDBRANCH  20  21
ENDBRANCH  18  20
ENDBRANCH  14  15
ENDBRANCH  13  14
ENDBRANCH   4  13
BRANCH   8  25
HETATM   25  N   UNL     1     -10.611  14.073  68.629  1.00  0.00    -0.253 N  
HETATM   26  C   UNL     1     -10.821  15.418  68.844  1.00  0.00    -0.251 C  
HETATM   27  H   UNL     1     -10.431  13.467  69.429  1.00  0.00     0.000 HD 
HETATM   28  O   UNL     1     -11.164  16.186  67.945  1.00  0.00    -0.325 OA 
BRANCH  26  29
HETATM   29  C   UNL     1     -10.580  15.883  70.264  1.00  0.00    -0.260 C  
BRANCH  29  30
HETATM   30  C   UNL     1     -11.790  15.686  71.107  1.00  0.00    -0.408 A  
HETATM   31  N   UNL     1     -13.175  16.203  74.287  1.00  0.00    -0.861 NA 
HETATM   32  C   UNL     1     -12.987  15.118  70.714  1.00  0.00    -0.414 A  
HETATM   33  S   UNL     1     -14.096  15.128  72.016  1.00  0.00    -0.604 SA 
HETATM   34  H2  UNL     1     -14.094  15.996  74.677  1.00  0.00     0.000 HD 
HETATM   35  H1  UNL     1     -12.472  16.650  74.875  1.00  0.00     0.000 HD 
HETATM   36  N   UNL     1     -11.764  16.128  72.425  1.00  0.00    -0.490 NA 
HETATM   37  C   UNL     1     -12.915  15.880  73.006  1.00  0.00    -0.530 A  
ENDBRANCH  29  30
ENDBRANCH  26  29
ENDBRANCH   8  25
TORSDOF 9
ENDMDL
MODEL       32
REMARK 921   NORMALIZED FREE ENERGY PREDICTED BY IDOCK:   -5.97 KCAL/MOL
REMARK 922        TOTAL FREE ENERGY PREDICTED BY IDOCK:  -11.06 KCAL/MOL
REMARK 923 INTER-LIGAND FREE ENERGY PREDICTED BY IDOCK:   -9.97 KCAL/MOL
REMARK 924 INTRA-LIGAND FREE ENERGY PREDICTED BY IDOCK:   -1.08 KCAL/MOL
REMARK 927      BINDING AFFINITY PREDICTED BY RF-SCORE:    0.00 PKD
ROOT
HETATM    1  C   UNL     1     -12.014  14.242  68.366  1.00  0.00    -0.309 C  
HETATM    2  S   UNL     1     -10.671  13.105  67.957  1.00  0.00    -0.240 SA 
HETATM    3  C   UNL     1     -11.562  11.644  68.536  1.00  0.00    -0.317 C  
HETATM    4  C   UNL     1     -12.224  11.791  69.900  1.00  0.00    -0.293 C  
HETATM    5  C   UNL     1     -12.057  15.459  70.065  1.00  0.00    -0.359 C  
HETATM    6  CA  UNL     1     -12.516  12.994  70.479  1.00  0.00    -0.231 C  
HETATM    7  C   UNL     1     -13.115  13.043  71.871  1.00  0.00    -0.384 C  
HETATM    8  CA  UNL     1     -11.600  15.731  68.597  1.00  0.00    -0.386 C  
HETATM    9  N   UNL     1     -12.264  14.155  69.794  1.00  0.00    -0.341 N  
HETATM   10  O   UNL     1     -12.983  14.184  72.568  1.00  0.00    -0.401 OA 
HETATM   11  OXT UNL     1     -13.716  12.101  72.369  1.00  0.00    -0.303 OA 
HETATM   12  O   UNL     1     -12.090  16.048  71.125  1.00  0.00    -0.413 OA 
ENDROOT
BRANCH   4  13
HETATM   13  C   UNL     1     -12.368  10.425  70.583  1.00  0.00    -0.346 C  
BRANCH  13  14
HETATM   14  S   UNL     1     -10.759   9.641  70.958  1.00  0.00    -0.274 SA 
BRANCH  14  15
HETATM   15  C   UNL     1     -10.790   8.206  70.005  1.00  0.00    -0.233 A  
HETATM   16  N   UNL     1     -10.361   8.091  68.769  1.00  0.00    -0.210 NA 
HETATM   17  N   UNL     1     -10.659   6.814  68.375  1.00  0.00    -0.210 NA 
HETATM   18  N   UNL     1     -11.300   6.996  70.400  1.00  0.00    -0.300 NA 
HETATM   19  N   UNL     1     -11.244   6.141  69.355  1.00  0.00    -0.415 NA 
BRANCH  18  20
HETATM   20  C   UNL     1     -11.804   6.506  71.671  1.00  0.00    -0.333 C  
BRANCH  20  21
HETATM   21  C   UNL     1     -10.921   5.360  72.196  1.00  0.00    -0.201 C  
BRANCH  21  22
HETATM   22  N   UNL     1     -10.053   5.644  73.361  1.00  0.00    -0.178 NA 
HETATM   23  C   UNL     1     -10.297   7.027  73.808  1.00  0.00    -0.369 C  
HETATM   24  C   UNL     1      -8.621   5.506  73.066  1.00  0.00    -0.121 C  
ENDBRANCH  21  22
ENDBRANCH  20  21
ENDBRANCH  18  20
ENDBRANCH  14  15
ENDBRANCH  13  14
ENDBRANCH   4  13
BRANCH   8  25
HETATM   25  N   UNL     1     -10.152  16.062  68.431  1.00  0.00    -0.225 N  
HETATM   26  C   UNL     1      -9.693  16.841  67.391  1.00  0.00    -0.245 C  
HETATM   27  H   UNL     1      -9.483  15.699  69.110  1.00  0.00     0.000 HD 
HETATM   28  O   UNL     1     -10.451  17.412  66.608  1.00  0.00    -0.310 OA 
BRANCH  26  29
HETATM   29  C   UNL     1      -8.186  16.927  67.275  1.00  0.00    -0.205 C  
BRANCH  29  30
HETATM   30  C   UNL     1      -7.703  18.305  67.555  1.00  0.00    -0.223 A  
HETATM   31  N   UNL     1      -6.303  20.405  69.989  1.00  0.00    -0.350 NA 
HETATM   32  C   UNL     1      -7.660  19.362  66.666  1.00  0.00    -0.254 A  
HETATM   33  S   UNL     1      -7.002  20.745  67.429  1.00  0.00    -0.369 SA 
HETATM   34  H2  UNL     1      -6.008  21.381  69.966  1.00  0.00     0.000 HD 
HETATM   35  H1  UNL     1      -6.197  19.872  70.852  1.00  0.00     0.000 HD 
HETATM   36  N   UNL     1      -7.211  18.595  68.823  1.00  0.00    -0.299 NA 
HETATM   37  C   UNL     1      -6.824  19.849  68.880  1.00  0.00    -0.324 A  
ENDBRANCH  29  30
ENDBRANCH  26  29
ENDBRANCH   8  25
TORSDOF 9
ENDMDL
MODEL       33
REMARK 921   NORMALIZED FREE ENERGY PREDICTED BY IDOCK:   -5.93 KCAL/MOL
REMARK 922        TOTAL FREE ENERGY PREDICTED BY IDOCK:  -10.99 KCAL/MOL
REMARK 923 INTER-LIGAND FREE ENERGY PREDICTED BY IDOCK:   -8.90 KCAL/MOL
REMARK 924 INTRA-LIGAND FREE ENERGY PREDICTED BY IDOCK:   -2.09 KCAL/MOL
REMARK 927      BINDING AFFINITY PREDICTED BY RF-SCORE:    0.00 PKD
ROOT
HETATM    1  C   UNL     1      -8.875   9.753  67.779  1.00  0.00    -0.129 C  
HETATM    2  S   UNL     1     -10.673   9.910  67.699  1.00  0.00    -0.255 SA 
HETATM    3  C   UNL     1     -10.629  11.261  66.501  1.00  0.00    -0.266 C  
HETATM    4  C   UNL     1      -9.649  12.381  66.828  1.00  0.00    -0.224 C  
HETATM    5  C   UNL     1      -7.690  10.520  69.321  1.00  0.00    -0.144 C  
HETATM    6  CA  UNL     1      -8.589  12.240  67.680  1.00  0.00    -0.169 C  
HETATM    7  C   UNL     1      -7.704  13.430  67.997  1.00  0.00    -0.147 C  
HETATM    8  CA  UNL     1      -8.305   9.105  69.082  1.00  0.00    -0.123 C  
HETATM    9  N   UNL     1      -8.330  11.017  68.243  1.00  0.00    -0.126 N  
HETATM   10  O   UNL     1      -6.977  13.385  69.126  1.00  0.00    -0.104 OA 
HETATM   11  OXT UNL     1      -7.620  14.408  67.267  1.00  0.00    -0.188 OA 
HETATM   12  O   UNL     1      -7.040  11.091  70.171  1.00  0.00    -0.125 OA 
ENDROOT
BRANCH   4  13
HETATM   13  C   UNL     1     -10.106  13.703  66.201  1.00  0.00    -0.306 C  
BRANCH  13  14
HETATM   14  S   UNL     1     -11.800  14.181  66.698  1.00  0.00    -0.438 SA 
BRANCH  14  15
HETATM   15  C   UNL     1     -11.655  14.431  68.397  1.00  0.00    -0.319 A  
HETATM   16  N   UNL     1     -12.242  13.722  69.334  1.00  0.00    -0.320 NA 
HETATM   17  N   UNL     1     -11.924  14.320  70.524  1.00  0.00    -0.318 NA 
HETATM   18  N   UNL     1     -10.930  15.428  68.998  1.00  0.00    -0.238 NA 
HETATM   19  N   UNL     1     -11.137  15.368  70.332  1.00  0.00    -0.305 NA 
BRANCH  18  20
HETATM   20  C   UNL     1     -10.010  16.427  68.482  1.00  0.00    -0.239 C  
BRANCH  20  21
HETATM   21  C   UNL     1     -10.783  17.602  67.859  1.00  0.00    -0.337 C  
BRANCH  21  22
HETATM   22  N   UNL     1     -10.329  18.096  66.539  1.00  0.00    -0.385 NA 
HETATM   23  C   UNL     1      -8.910  17.735  66.360  1.00  0.00    -0.231 C  
HETATM   24  C   UNL     1     -10.451  19.551  66.388  1.00  0.00    -0.498 C  
ENDBRANCH  21  22
ENDBRANCH  20  21
ENDBRANCH  18  20
ENDBRANCH  14  15
ENDBRANCH  13  14
ENDBRANCH   4  13
BRANCH   8  25
HETATM   25  N   UNL     1      -9.300   8.662  70.105  1.00  0.00    -0.160 N  
HETATM   26  C   UNL     1      -8.959   8.482  71.428  1.00  0.00    -0.204 C  
HETATM   27  H   UNL     1     -10.262   8.487  69.815  1.00  0.00     0.000 HD 
HETATM   28  O   UNL     1      -7.854   8.789  71.874  1.00  0.00    -0.271 OA 
BRANCH  26  29
HETATM   29  C   UNL     1     -10.040   7.862  72.288  1.00  0.00    -0.297 C  
BRANCH  29  30
HETATM   30  C   UNL     1     -11.364   8.484  72.018  1.00  0.00    -0.355 A  
HETATM   31  N   UNL     1     -12.997  11.446  71.097  1.00  0.00    -0.316 NA 
HETATM   32  C   UNL     1     -12.595   7.856  72.056  1.00  0.00    -0.296 A  
HETATM   33  S   UNL     1     -13.832   8.965  71.650  1.00  0.00    -0.340 SA 
HETATM   34  H2  UNL     1     -13.980  11.667  70.937  1.00  0.00     0.000 HD 
HETATM   35  H1  UNL     1     -12.296  12.178  70.982  1.00  0.00     0.000 HD 
HETATM   36  N   UNL     1     -11.410   9.827  71.664  1.00  0.00    -0.290 NA 
HETATM   37  C   UNL     1     -12.653  10.196  71.456  1.00  0.00    -0.434 A  
ENDBRANCH  29  30
ENDBRANCH  26  29
ENDBRANCH   8  25
TORSDOF 9
ENDMDL
MODEL       34
REMARK 921   NORMALIZED FREE ENERGY PREDICTED BY IDOCK:   -5.89 KCAL/MOL
REMARK 922        TOTAL FREE ENERGY PREDICTED BY IDOCK:  -10.92 KCAL/MOL
REMARK 923 INTER-LIGAND FREE ENERGY PREDICTED BY IDOCK:   -9.51 KCAL/MOL
REMARK 924 INTRA-LIGAND FREE ENERGY PREDICTED BY IDOCK:   -1.42 KCAL/MOL
REMARK 927      BINDING AFFINITY PREDICTED BY RF-SCORE:    0.00 PKD
ROOT
HETATM    1  C   UNL     1      -8.672  13.828  66.943  1.00  0.00    -0.154 C  
HETATM    2  S   UNL     1      -8.417  12.612  68.255  1.00  0.00    -0.135 SA 
HETATM    3  C   UNL     1      -8.137  11.245  67.108  1.00  0.00    -0.150 C  
HETATM    4  C   UNL     1      -9.149  11.136  65.975  1.00  0.00    -0.217 C  
HETATM    5  C   UNL     1     -10.544  14.519  66.321  1.00  0.00    -0.304 C  
HETATM    6  CA  UNL     1      -9.945  12.168  65.564  1.00  0.00    -0.246 C  
HETATM    7  C   UNL     1     -10.973  11.947  64.470  1.00  0.00    -0.322 C  
HETATM    8  CA  UNL     1      -9.505  15.090  67.336  1.00  0.00    -0.201 C  
HETATM    9  N   UNL     1      -9.810  13.402  66.145  1.00  0.00    -0.289 N  
HETATM   10  O   UNL     1     -12.002  12.808  64.397  1.00  0.00    -0.355 OA 
HETATM   11  OXT UNL     1     -10.892  11.037  63.657  1.00  0.00    -0.319 OA 
HETATM   12  O   UNL     1     -11.654  14.791  65.915  1.00  0.00    -0.348 OA 
ENDROOT
BRANCH   4  13
HETATM   13  C   UNL     1      -9.254   9.689  65.478  1.00  0.00    -0.234 C  
BRANCH  13  14
HETATM   14  S   UNL     1     -10.155   8.600  66.639  1.00  0.00    -0.269 SA 
BRANCH  14  15
HETATM   15  C   UNL     1     -10.851   9.709  67.758  1.00  0.00    -0.217 A  
HETATM   16  N   UNL     1     -11.746  10.629  67.477  1.00  0.00    -0.316 NA 
HETATM   17  N   UNL     1     -11.947  11.335  68.633  1.00  0.00    -0.537 NA 
HETATM   18  N   UNL     1     -10.538   9.802  69.089  1.00  0.00    -0.211 NA 
HETATM   19  N   UNL     1     -11.207  10.850  69.619  1.00  0.00    -0.262 NA 
BRANCH  18  20
HETATM   20  C   UNL     1      -9.711   8.993  69.967  1.00  0.00    -0.185 C  
BRANCH  20  21
HETATM   21  C   UNL     1     -10.538   8.467  71.155  1.00  0.00    -0.220 C  
BRANCH  21  22
HETATM   22  N   UNL     1     -10.817   7.014  71.203  1.00  0.00    -0.234 NA 
HETATM   23  C   UNL     1     -10.426   6.412  69.915  1.00  0.00    -0.213 C  
HETATM   24  C   UNL     1     -12.232   6.701  71.441  1.00  0.00    -0.324 C  
ENDBRANCH  21  22
ENDBRANCH  20  21
ENDBRANCH  18  20
ENDBRANCH  14  15
ENDBRANCH  13  14
ENDBRANCH   4  13
BRANCH   8  25
HETATM   25  N   UNL     1      -9.976  15.173  68.752  1.00  0.00    -0.221 N  
HETATM   26  C   UNL     1     -10.845  16.154  69.178  1.00  0.00    -0.298 C  
HETATM   27  H   UNL     1      -9.644  14.480  69.423  1.00  0.00     0.000 HD 
HETATM   28  O   UNL     1     -11.381  16.945  68.403  1.00  0.00    -0.230 OA 
BRANCH  26  29
HETATM   29  C   UNL     1     -11.076  16.196  70.674  1.00  0.00    -0.318 C  
BRANCH  29  30
HETATM   30  C   UNL     1     -12.179  15.281  71.073  1.00  0.00    -0.350 A  
HETATM   31  N   UNL     1     -13.052  11.933  71.641  1.00  0.00    -0.407 NA 
HETATM   32  C   UNL     1     -13.462  15.643  71.437  1.00  0.00    -0.391 A  
HETATM   33  S   UNL     1     -14.373  14.251  71.840  1.00  0.00    -0.468 SA 
HETATM   34  H2  UNL     1     -13.918  11.492  71.953  1.00  0.00     0.000 HD 
HETATM   35  H1  UNL     1     -12.240  11.349  71.441  1.00  0.00     0.000 HD 
HETATM   36  N   UNL     1     -11.927  13.914  71.124  1.00  0.00    -0.225 NA 
HETATM   37  C   UNL     1     -13.007  13.270  71.503  1.00  0.00    -0.337 A  
ENDBRANCH  29  30
ENDBRANCH  26  29
ENDBRANCH   8  25
TORSDOF 9
ENDMDL
MODEL       35
REMARK 921   NORMALIZED FREE ENERGY PREDICTED BY IDOCK:   -5.87 KCAL/MOL
REMARK 922        TOTAL FREE ENERGY PREDICTED BY IDOCK:  -10.90 KCAL/MOL
REMARK 923 INTER-LIGAND FREE ENERGY PREDICTED BY IDOCK:   -8.81 KCAL/MOL
REMARK 924 INTRA-LIGAND FREE ENERGY PREDICTED BY IDOCK:   -2.09 KCAL/MOL
REMARK 927      BINDING AFFINITY PREDICTED BY RF-SCORE:    0.00 PKD
ROOT
HETATM    1  C   UNL     1      -9.678  11.093  67.480  1.00  0.00    -0.176 C  
HETATM    2  S   UNL     1      -9.431   9.352  67.897  1.00  0.00    -0.133 SA 
HETATM    3  C   UNL     1      -8.372   9.030  66.470  1.00  0.00    -0.115 C  
HETATM    4  C   UNL     1      -8.897   9.564  65.143  1.00  0.00    -0.223 C  
HETATM    5  C   UNL     1     -11.394  11.857  66.564  1.00  0.00    -0.341 C  
HETATM    6  CA  UNL     1      -9.834  10.553  65.039  1.00  0.00    -0.306 C  
HETATM    7  C   UNL     1     -10.346  10.975  63.675  1.00  0.00    -0.352 C  
HETATM    8  CA  UNL     1     -10.967  11.758  68.063  1.00  0.00    -0.225 C  
HETATM    9  N   UNL     1     -10.307  11.162  66.173  1.00  0.00    -0.244 N  
HETATM   10  O   UNL     1     -11.534  11.601  63.620  1.00  0.00    -0.418 OA 
HETATM   11  OXT UNL     1      -9.721  10.782  62.642  1.00  0.00    -0.280 OA 
HETATM   12  O   UNL     1     -12.355  12.226  65.921  1.00  0.00    -0.618 OA 
ENDROOT
BRANCH   4  13
HETATM   13  C   UNL     1      -8.350   8.741  63.971  1.00  0.00    -0.141 C  
BRANCH  13  14
HETATM   14  S   UNL     1      -7.222   7.402  64.504  1.00  0.00    -0.079 SA 
BRANCH  14  15
HETATM   15  C   UNL     1      -8.155   5.977  64.245  1.00  0.00    -0.109 A  
HETATM   16  N   UNL     1      -8.483   5.472  63.078  1.00  0.00    -0.092 NA 
HETATM   17  N   UNL     1      -9.295   4.400  63.338  1.00  0.00    -0.133 NA 
HETATM   18  N   UNL     1      -8.709   5.196  65.226  1.00  0.00    -0.148 NA 
HETATM   19  N   UNL     1      -9.452   4.230  64.642  1.00  0.00    -0.161 NA 
BRANCH  18  20
HETATM   20  C   UNL     1      -8.596   5.204  66.675  1.00  0.00    -0.110 C  
BRANCH  20  21
HETATM   21  C   UNL     1      -9.958   5.517  67.320  1.00  0.00    -0.165 C  
BRANCH  21  22
HETATM   22  N   UNL     1     -10.052   5.427  68.795  1.00  0.00    -0.177 NA 
HETATM   23  C   UNL     1     -11.187   6.253  69.248  1.00  0.00    -0.389 C  
HETATM   24  C   UNL     1      -8.844   5.896  69.484  1.00  0.00    -0.123 C  
ENDBRANCH  21  22
ENDBRANCH  20  21
ENDBRANCH  18  20
ENDBRANCH  14  15
ENDBRANCH  13  14
ENDBRANCH   4  13
BRANCH   8  25
HETATM   25  N   UNL     1     -11.840  10.899  68.918  1.00  0.00    -0.434 N  
HETATM   26  C   UNL     1     -12.317  11.325  70.139  1.00  0.00    -0.276 C  
HETATM   27  H   UNL     1     -12.092   9.967  68.587  1.00  0.00     0.000 HD 
HETATM   28  O   UNL     1     -12.157  12.475  70.546  1.00  0.00    -0.365 OA 
BRANCH  26  29
HETATM   29  C   UNL     1     -13.035  10.266  70.949  1.00  0.00    -0.456 C  
BRANCH  29  30
HETATM   30  C   UNL     1     -12.072   9.318  71.570  1.00  0.00    -0.361 A  
HETATM   31  N   UNL     1      -8.674   8.614  72.072  1.00  0.00    -0.311 NA 
HETATM   32  C   UNL     1     -12.381   8.200  72.322  1.00  0.00    -0.323 A  
HETATM   33  S   UNL     1     -10.946   7.433  72.849  1.00  0.00    -0.365 SA 
HETATM   34  H2  UNL     1      -8.195   7.872  72.582  1.00  0.00     0.000 HD 
HETATM   35  H1  UNL     1      -8.123   9.326  71.593  1.00  0.00     0.000 HD 
HETATM   36  N   UNL     1     -10.710   9.560  71.425  1.00  0.00    -0.334 NA 
HETATM   37  C   UNL     1     -10.019   8.631  72.044  1.00  0.00    -0.329 A  
ENDBRANCH  29  30
ENDBRANCH  26  29
ENDBRANCH   8  25
TORSDOF 9
ENDMDL
MODEL       36
REMARK 921   NORMALIZED FREE ENERGY PREDICTED BY IDOCK:   -5.87 KCAL/MOL
REMARK 922        TOTAL FREE ENERGY PREDICTED BY IDOCK:  -10.90 KCAL/MOL
REMARK 923 INTER-LIGAND FREE ENERGY PREDICTED BY IDOCK:   -9.46 KCAL/MOL
REMARK 924 INTRA-LIGAND FREE ENERGY PREDICTED BY IDOCK:   -1.44 KCAL/MOL
REMARK 927      BINDING AFFINITY PREDICTED BY RF-SCORE:    0.00 PKD
ROOT
HETATM    1  C   UNL     1     -11.130  10.310  67.671  1.00  0.00    -0.251 C  
HETATM    2  S   UNL     1     -10.601  11.613  68.806  1.00  0.00    -0.195 SA 
HETATM    3  C   UNL     1     -11.293  12.944  67.800  1.00  0.00    -0.299 C  
HETATM    4  C   UNL     1     -10.965  12.867  66.314  1.00  0.00    -0.305 C  
HETATM    5  C   UNL     1      -9.874   9.357  66.299  1.00  0.00    -0.281 C  
HETATM    6  CA  UNL     1     -10.565  11.723  65.682  1.00  0.00    -0.268 C  
HETATM    7  C   UNL     1     -10.195  11.757  64.211  1.00  0.00    -0.302 C  
HETATM    8  CA  UNL     1     -10.323   8.973  67.745  1.00  0.00    -0.246 C  
HETATM    9  N   UNL     1     -10.502  10.547  66.383  1.00  0.00    -0.220 N  
HETATM   10  O   UNL     1      -9.414  10.770  63.741  1.00  0.00    -0.233 OA 
HETATM   11  OXT UNL     1     -10.588  12.628  63.447  1.00  0.00    -0.360 OA 
HETATM   12  O   UNL     1      -9.136   8.926  65.438  1.00  0.00    -0.206 OA 
ENDROOT
BRANCH   4  13
HETATM   13  C   UNL     1     -10.995  14.262  65.678  1.00  0.00    -0.309 C  
BRANCH  13  14
HETATM   14  S   UNL     1      -9.459  15.213  65.970  1.00  0.00    -0.290 SA 
BRANCH  14  15
HETATM   15  C   UNL     1     -10.041  16.742  66.511  1.00  0.00    -0.315 A  
HETATM   16  N   UNL     1     -10.292  17.784  65.751  1.00  0.00    -0.609 NA 
HETATM   17  N   UNL     1     -10.644  18.801  66.599  1.00  0.00    -0.409 NA 
HETATM   18  N   UNL     1     -10.289  17.086  67.814  1.00  0.00    -0.322 NA 
HETATM   19  N   UNL     1     -10.633  18.392  67.859  1.00  0.00    -0.384 NA 
BRANCH  18  20
HETATM   20  C   UNL     1     -10.293  16.325  69.052  1.00  0.00    -0.264 C  
BRANCH  20  21
HETATM   21  C   UNL     1     -11.730  15.933  69.440  1.00  0.00    -0.343 C  
BRANCH  21  22
HETATM   22  N   UNL     1     -11.939  15.341  70.781  1.00  0.00    -0.307 NA 
HETATM   23  C   UNL     1     -13.279  14.728  70.825  1.00  0.00    -0.305 C  
HETATM   24  C   UNL     1     -11.850  16.320  71.870  1.00  0.00    -0.462 C  
ENDBRANCH  21  22
ENDBRANCH  20  21
ENDBRANCH  18  20
ENDBRANCH  14  15
ENDBRANCH  13  14
ENDBRANCH   4  13
BRANCH   8  25
HETATM   25  N   UNL     1      -9.225   8.904  68.755  1.00  0.00    -0.140 N  
HETATM   26  C   UNL     1      -8.634   7.711  69.114  1.00  0.00    -0.139 C  
HETATM   27  H   UNL     1      -8.902   9.767  69.193  1.00  0.00     0.000 HD 
HETATM   28  O   UNL     1      -8.885   6.651  68.542  1.00  0.00    -0.123 OA 
BRANCH  26  29
HETATM   29  C   UNL     1      -7.667   7.802  70.276  1.00  0.00    -0.089 C  
BRANCH  29  30
HETATM   30  C   UNL     1      -8.379   7.697  71.577  1.00  0.00    -0.107 A  
HETATM   31  N   UNL     1     -11.523   7.747  73.129  1.00  0.00    -0.605 NA 
HETATM   32  C   UNL     1      -7.809   7.467  72.815  1.00  0.00    -0.099 A  
HETATM   33  S   UNL     1      -9.024   7.401  74.018  1.00  0.00    -0.234 SA 
HETATM   34  H2  UNL     1     -11.812   7.627  74.100  1.00  0.00     0.000 HD 
HETATM   35  H1  UNL     1     -12.232   7.915  72.415  1.00  0.00     0.000 HD 
HETATM   36  N   UNL     1      -9.765   7.810  71.591  1.00  0.00    -0.160 NA 
HETATM   37  C   UNL     1     -10.216   7.683  72.817  1.00  0.00    -0.279 A  
ENDBRANCH  29  30
ENDBRANCH  26  29
ENDBRANCH   8  25
TORSDOF 9
ENDMDL
MODEL       37
REMARK 921   NORMALIZED FREE ENERGY PREDICTED BY IDOCK:   -5.87 KCAL/MOL
REMARK 922        TOTAL FREE ENERGY PREDICTED BY IDOCK:  -10.89 KCAL/MOL
REMARK 923 INTER-LIGAND FREE ENERGY PREDICTED BY IDOCK:   -9.51 KCAL/MOL
REMARK 924 INTRA-LIGAND FREE ENERGY PREDICTED BY IDOCK:   -1.39 KCAL/MOL
REMARK 927      BINDING AFFINITY PREDICTED BY RF-SCORE:    0.00 PKD
ROOT
HETATM    1  C   UNL     1     -10.845  10.176  67.871  1.00  0.00    -0.284 C  
HETATM    2  S   UNL     1     -11.971  11.193  68.852  1.00  0.00    -0.203 SA 
HETATM    3  C   UNL     1     -11.413  12.745  68.116  1.00  0.00    -0.314 C  
HETATM    4  C   UNL     1      -9.901  12.913  68.032  1.00  0.00    -0.223 C  
HETATM    5  C   UNL     1      -9.047   9.380  68.582  1.00  0.00    -0.132 C  
HETATM    6  CA  UNL     1      -9.015  11.873  68.091  1.00  0.00    -0.185 C  
HETATM    7  C   UNL     1      -7.523  12.142  68.067  1.00  0.00    -0.116 C  
HETATM    8  CA  UNL     1     -10.485   8.780  68.475  1.00  0.00    -0.175 C  
HETATM    9  N   UNL     1      -9.484  10.587  68.170  1.00  0.00    -0.148 N  
HETATM   10  O   UNL     1      -6.709  11.191  68.555  1.00  0.00    -0.058 OA 
HETATM   11  OXT UNL     1      -7.041  13.171  67.614  1.00  0.00    -0.132 OA 
HETATM   12  O   UNL     1      -7.960   9.049  69.004  1.00  0.00    -0.098 OA 
ENDROOT
BRANCH   4  13
HETATM   13  C   UNL     1      -9.518  14.398  68.032  1.00  0.00    -0.209 C  
BRANCH  13  14
HETATM   14  S   UNL     1     -10.969  15.508  68.114  1.00  0.00    -0.325 SA 
BRANCH  14  15
HETATM   15  C   UNL     1     -10.940  16.305  66.587  1.00  0.00    -0.016 A  
HETATM   16  N   UNL     1     -10.475  17.512  66.356  1.00  0.00    -0.315 NA 
HETATM   17  N   UNL     1     -10.731  17.776  65.037  1.00  0.00    -0.561 NA 
HETATM   18  N   UNL     1     -11.430  15.798  65.412  1.00  0.00    -0.009 NA 
HETATM   19  N   UNL     1     -11.326  16.745  64.454  1.00  0.00    -1.077 NA 
BRANCH  18  20
HETATM   20  C   UNL     1     -11.956  14.494  65.043  1.00  0.00    -0.399 C  
BRANCH  20  21
HETATM   21  C   UNL     1     -10.857  13.634  64.394  1.00  0.00    -0.361 C  
BRANCH  21  22
HETATM   22  N   UNL     1     -11.105  12.178  64.283  1.00  0.00    -0.322 NA 
HETATM   23  C   UNL     1     -10.239  11.629  63.224  1.00  0.00    -0.407 C  
HETATM   24  C   UNL     1     -12.496  11.849  63.949  1.00  0.00    -0.371 C  
ENDBRANCH  21  22
ENDBRANCH  20  21
ENDBRANCH  18  20
ENDBRANCH  14  15
ENDBRANCH  13  14
ENDBRANCH   4  13
BRANCH   8  25
HETATM   25  N   UNL     1     -11.125   8.424  69.777  1.00  0.00    -0.433 N  
HETATM   26  C   UNL     1     -11.513   7.135  70.075  1.00  0.00    -0.161 C  
HETATM   27  H   UNL     1     -11.280   9.159  70.468  1.00  0.00     0.000 HD 
HETATM   28  O   UNL     1     -11.249   6.180  69.346  1.00  0.00    -0.391 OA 
BRANCH  26  29
HETATM   29  C   UNL     1     -12.303   6.987  71.358  1.00  0.00    -0.419 C  
BRANCH  29  30
HETATM   30  C   UNL     1     -11.429   6.553  72.481  1.00  0.00    -0.239 A  
HETATM   31  N   UNL     1     -10.241   3.785  74.275  1.00  0.00    -0.167 NA 
HETATM   32  C   UNL     1     -10.649   7.366  73.281  1.00  0.00    -0.392 A  
HETATM   33  S   UNL     1      -9.796   6.419  74.423  1.00  0.00    -0.345 SA 
HETATM   34  H2  UNL     1      -9.585   3.701  75.051  1.00  0.00     0.000 HD 
HETATM   35  H1  UNL     1     -10.672   2.944  73.893  1.00  0.00     0.000 HD 
HETATM   36  N   UNL     1     -11.340   5.196  72.771  1.00  0.00    -0.264 NA 
HETATM   37  C   UNL     1     -10.520   5.004  73.779  1.00  0.00    -0.257 A  
ENDBRANCH  29  30
ENDBRANCH  26  29
ENDBRANCH   8  25
TORSDOF 9
ENDMDL
MODEL       38
REMARK 921   NORMALIZED FREE ENERGY PREDICTED BY IDOCK:   -5.85 KCAL/MOL
REMARK 922        TOTAL FREE ENERGY PREDICTED BY IDOCK:  -10.87 KCAL/MOL
REMARK 923 INTER-LIGAND FREE ENERGY PREDICTED BY IDOCK:   -9.56 KCAL/MOL
REMARK 924 INTRA-LIGAND FREE ENERGY PREDICTED BY IDOCK:   -1.31 KCAL/MOL
REMARK 927      BINDING AFFINITY PREDICTED BY RF-SCORE:    0.00 PKD
ROOT
HETATM    1  C   UNL     1     -12.011  13.722  68.318  1.00  0.00    -0.357 C  
HETATM    2  S   UNL     1     -10.787  12.401  68.175  1.00  0.00    -0.234 SA 
HETATM    3  C   UNL     1     -11.740  11.236  69.172  1.00  0.00    -0.341 C  
HETATM    4  C   UNL     1     -12.294  11.803  70.474  1.00  0.00    -0.387 C  
HETATM    5  C   UNL     1     -11.846  15.350  69.619  1.00  0.00    -0.347 C  
HETATM    6  CA  UNL     1     -12.455  13.138  70.714  1.00  0.00    -0.308 C  
HETATM    7  C   UNL     1     -12.952  13.614  72.066  1.00  0.00    -0.334 C  
HETATM    8  CA  UNL     1     -11.474  15.175  68.113  1.00  0.00    -0.342 C  
HETATM    9  N   UNL     1     -12.168  14.045  69.726  1.00  0.00    -0.342 N  
HETATM   10  O   UNL     1     -12.688  14.884  72.416  1.00  0.00    -0.315 OA 
HETATM   11  OXT UNL     1     -13.585  12.898  72.830  1.00  0.00    -0.508 OA 
HETATM   12  O   UNL     1     -11.762  16.203  70.477  1.00  0.00    -0.352 OA 
ENDROOT
BRANCH   4  13
HETATM   13  C   UNL     1     -12.490  10.690  71.510  1.00  0.00    -0.366 C  
BRANCH  13  14
HETATM   14  S   UNL     1     -11.999   9.041  70.889  1.00  0.00    -0.173 SA 
BRANCH  14  15
HETATM   15  C   UNL     1     -10.611   8.663  71.838  1.00  0.00    -0.340 A  
HETATM   16  N   UNL     1     -10.615   8.043  72.997  1.00  0.00    -0.334 NA 
HETATM   17  N   UNL     1      -9.316   8.035  73.432  1.00  0.00    -0.274 NA 
HETATM   18  N   UNL     1      -9.317   8.988  71.525  1.00  0.00    -0.285 NA 
HETATM   19  N   UNL     1      -8.518   8.620  72.551  1.00  0.00    -0.403 NA 
BRANCH  18  20
HETATM   20  C   UNL     1      -8.704   9.570  70.343  1.00  0.00    -0.223 C  
BRANCH  20  21
HETATM   21  C   UNL     1      -7.182   9.696  70.531  1.00  0.00    -0.136 C  
BRANCH  21  22
HETATM   22  N   UNL     1      -6.439  10.525  69.555  1.00  0.00    -0.061 NA 
HETATM   23  C   UNL     1      -5.660  11.539  70.288  1.00  0.00    -0.135 C  
HETATM   24  C   UNL     1      -7.310  11.221  68.601  1.00  0.00    -0.109 C  
ENDBRANCH  21  22
ENDBRANCH  20  21
ENDBRANCH  18  20
ENDBRANCH  14  15
ENDBRANCH  13  14
ENDBRANCH   4  13
BRANCH   8  25
HETATM   25  N   UNL     1     -10.021  15.318  67.796  1.00  0.00    -0.224 N  
HETATM   26  C   UNL     1      -9.565  15.475  66.505  1.00  0.00    -0.272 C  
HETATM   27  H   UNL     1      -9.345  15.298  68.560  1.00  0.00     0.000 HD 
HETATM   28  O   UNL     1     -10.324  15.630  65.549  1.00  0.00    -0.342 OA 
BRANCH  26  29
HETATM   29  C   UNL     1      -8.059  15.425  66.348  1.00  0.00     0.139 C  
BRANCH  29  30
HETATM   30  C   UNL     1      -7.462  16.782  66.461  1.00  0.00    -0.287 A  
HETATM   31  N   UNL     1      -8.105  20.220  66.208  1.00  0.00    -0.520 NA 
HETATM   32  C   UNL     1      -6.160  17.085  66.812  1.00  0.00    -0.204 A  
HETATM   33  S   UNL     1      -5.937  18.781  66.834  1.00  0.00    -0.158 SA 
HETATM   34  H2  UNL     1      -7.518  21.040  66.356  1.00  0.00     0.000 HD 
HETATM   35  H1  UNL     1      -9.079  20.346  65.935  1.00  0.00     0.000 HD 
HETATM   36  N   UNL     1      -8.269  17.888  66.220  1.00  0.00    -0.423 NA 
HETATM   37  C   UNL     1      -7.576  18.994  66.375  1.00  0.00    -0.263 A  
ENDBRANCH  29  30
ENDBRANCH  26  29
ENDBRANCH   8  25
TORSDOF 9
ENDMDL
MODEL       39
REMARK 921   NORMALIZED FREE ENERGY PREDICTED BY IDOCK:   -5.85 KCAL/MOL
REMARK 922        TOTAL FREE ENERGY PREDICTED BY IDOCK:  -10.87 KCAL/MOL
REMARK 923 INTER-LIGAND FREE ENERGY PREDICTED BY IDOCK:   -9.21 KCAL/MOL
REMARK 924 INTRA-LIGAND FREE ENERGY PREDICTED BY IDOCK:   -1.66 KCAL/MOL
REMARK 927      BINDING AFFINITY PREDICTED BY RF-SCORE:    0.00 PKD
ROOT
HETATM    1  C   UNL     1      -9.176  11.536  68.261  1.00  0.00    -0.186 C  
HETATM    2  S   UNL     1     -10.525  10.976  67.198  1.00  0.00    -0.245 SA 
HETATM    3  C   UNL     1     -10.431   9.264  67.765  1.00  0.00    -0.255 C  
HETATM    4  C   UNL     1      -9.026   8.676  67.809  1.00  0.00    -0.140 C  
HETATM    5  C   UNL     1      -7.218  11.870  67.609  1.00  0.00    -0.112 C  
HETATM    6  CA  UNL     1      -7.887   9.429  67.844  1.00  0.00    -0.091 C  
HETATM    7  C   UNL     1      -6.528   8.756  67.819  1.00  0.00    -0.061 C  
HETATM    8  CA  UNL     1      -8.435  12.831  67.797  1.00  0.00    -0.177 C  
HETATM    9  N   UNL     1      -7.979  10.796  67.902  1.00  0.00    -0.109 N  
HETATM   10  O   UNL     1      -5.475   9.488  67.419  1.00  0.00    -0.037 OA 
HETATM   11  OXT UNL     1      -6.357   7.593  68.158  1.00  0.00    -0.045 OA 
HETATM   12  O   UNL     1      -6.075  11.927  67.207  1.00  0.00    -0.109 OA 
ENDROOT
BRANCH   4  13
HETATM   13  C   UNL     1      -9.071   7.151  67.653  1.00  0.00    -0.127 C  
BRANCH  13  14
HETATM   14  S   UNL     1     -10.715   6.443  68.030  1.00  0.00    -0.315 SA 
BRANCH  14  15
HETATM   15  C   UNL     1     -10.560   5.945  69.673  1.00  0.00    -0.313 A  
HETATM   16  N   UNL     1     -10.075   4.797  70.088  1.00  0.00    -0.252 NA 
HETATM   17  N   UNL     1     -10.223   4.788  71.450  1.00  0.00    -0.191 NA 
HETATM   18  N   UNL     1     -10.954   6.671  70.767  1.00  0.00    -0.254 NA 
HETATM   19  N   UNL     1     -10.770   5.918  71.874  1.00  0.00    -0.231 NA 
BRANCH  18  20
HETATM   20  C   UNL     1     -11.451   8.027  70.925  1.00  0.00    -0.276 C  
BRANCH  20  21
HETATM   21  C   UNL     1     -11.929   8.261  72.369  1.00  0.00    -0.384 C  
BRANCH  21  22
HETATM   22  N   UNL     1     -13.045   9.213  72.574  1.00  0.00    -0.420 NA 
HETATM   23  C   UNL     1     -14.314   8.531  72.260  1.00  0.00    -0.390 C  
HETATM   24  C   UNL     1     -12.951  10.410  71.728  1.00  0.00    -0.475 C  
ENDBRANCH  21  22
ENDBRANCH  20  21
ENDBRANCH  18  20
ENDBRANCH  14  15
ENDBRANCH  13  14
ENDBRANCH   4  13
BRANCH   8  25
HETATM   25  N   UNL     1      -8.932  13.481  66.547  1.00  0.00    -0.447 N  
HETATM   26  C   UNL     1      -9.644  14.661  66.568  1.00  0.00    -0.289 C  
HETATM   27  H   UNL     1      -8.738  13.037  65.649  1.00  0.00     0.000 HD 
HETATM   28  O   UNL     1      -9.810  15.315  67.597  1.00  0.00    -0.216 OA 
BRANCH  26  29
HETATM   29  C   UNL     1     -10.222  15.082  65.233  1.00  0.00    -0.409 C  
BRANCH  29  30
HETATM   30  C   UNL     1     -10.929  13.952  64.572  1.00  0.00    -0.369 A  
HETATM   31  N   UNL     1     -10.504  10.999  62.731  1.00  0.00    -0.786 NA 
HETATM   32  C   UNL     1     -12.293  13.733  64.546  1.00  0.00    -0.358 A  
HETATM   33  S   UNL     1     -12.640  12.294  63.690  1.00  0.00    -0.411 SA 
HETATM   34  H2  UNL     1     -11.168  10.313  62.370  1.00  0.00     0.000 HD 
HETATM   35  H1  UNL     1      -9.507  10.862  62.566  1.00  0.00     0.000 HD 
HETATM   36  N   UNL     1     -10.174  12.980  63.925  1.00  0.00    -0.329 NA 
HETATM   37  C   UNL     1     -10.963  12.063  63.414  1.00  0.00    -0.403 A  
ENDBRANCH  29  30
ENDBRANCH  26  29
ENDBRANCH   8  25
TORSDOF 9
ENDMDL
MODEL       40
REMARK 921   NORMALIZED FREE ENERGY PREDICTED BY IDOCK:   -5.81 KCAL/MOL
REMARK 922        TOTAL FREE ENERGY PREDICTED BY IDOCK:  -10.81 KCAL/MOL
REMARK 923 INTER-LIGAND FREE ENERGY PREDICTED BY IDOCK:   -8.49 KCAL/MOL
REMARK 924 INTRA-LIGAND FREE ENERGY PREDICTED BY IDOCK:   -2.31 KCAL/MOL
REMARK 927      BINDING AFFINITY PREDICTED BY RF-SCORE:    0.00 PKD
ROOT
HETATM    1  C   UNL     1      -8.623   7.994  68.088  1.00  0.00    -0.126 C  
HETATM    2  S   UNL     1     -10.322   7.937  67.477  1.00  0.00    -0.267 SA 
HETATM    3  C   UNL     1     -10.014   9.112  66.140  1.00  0.00    -0.268 C  
HETATM    4  C   UNL     1      -9.254  10.368  66.548  1.00  0.00    -0.184 C  
HETATM    5  C   UNL     1      -8.004   9.088  69.758  1.00  0.00    -0.099 C  
HETATM    6  CA  UNL     1      -8.488  10.461  67.676  1.00  0.00    -0.114 C  
HETATM    7  C   UNL     1      -7.820  11.774  68.035  1.00  0.00    -0.134 C  
HETATM    8  CA  UNL     1      -8.423   7.593  69.586  1.00  0.00    -0.135 C  
HETATM    9  N   UNL     1      -8.326   9.361  68.478  1.00  0.00    -0.117 N  
HETATM   10  O   UNL     1      -7.459  11.961  69.316  1.00  0.00    -0.002 OA 
HETATM   11  OXT UNL     1      -7.588  12.649  67.212  1.00  0.00    -0.153 OA 
HETATM   12  O   UNL     1      -7.676   9.836  70.655  1.00  0.00    -0.270 OA 
ENDROOT
BRANCH   4  13
HETATM   13  C   UNL     1      -9.591  11.535  65.612  1.00  0.00    -0.231 C  
BRANCH  13  14
HETATM   14  S   UNL     1     -11.365  11.983  65.642  1.00  0.00    -0.301 SA 
BRANCH  14  15
HETATM   15  C   UNL     1     -11.649  12.351  67.301  1.00  0.00    -0.365 A  
HETATM   16  N   UNL     1     -11.904  11.481  68.251  1.00  0.00    -0.542 NA 
HETATM   17  N   UNL     1     -12.151  12.211  69.384  1.00  0.00    -0.237 NA 
HETATM   18  N   UNL     1     -11.680  13.609  67.845  1.00  0.00    -0.340 NA 
HETATM   19  N   UNL     1     -12.031  13.508  69.146  1.00  0.00    -0.337 NA 
BRANCH  18  20
HETATM   20  C   UNL     1     -11.371  14.924  67.310  1.00  0.00    -0.349 C  
BRANCH  20  21
HETATM   21  C   UNL     1      -9.861  15.204  67.405  1.00  0.00    -0.224 C  
BRANCH  21  22
HETATM   22  N   UNL     1      -9.427  16.323  68.273  1.00  0.00    -0.211 NA 
HETATM   23  C   UNL     1      -8.516  15.796  69.306  1.00  0.00    -0.258 C  
HETATM   24  C   UNL     1     -10.540  16.999  68.950  1.00  0.00    -0.328 C  
ENDBRANCH  21  22
ENDBRANCH  20  21
ENDBRANCH  18  20
ENDBRANCH  14  15
ENDBRANCH  13  14
ENDBRANCH   4  13
BRANCH   8  25
HETATM   25  N   UNL     1      -9.645   7.184  70.342  1.00  0.00    -0.169 N  
HETATM   26  C   UNL     1      -9.628   6.978  71.705  1.00  0.00    -0.156 C  
HETATM   27  H   UNL     1     -10.520   7.052  69.833  1.00  0.00     0.000 HD 
HETATM   28  O   UNL     1      -8.646   7.235  72.400  1.00  0.00    -0.114 OA 
BRANCH  26  29
HETATM   29  C   UNL     1     -10.903   6.396  72.279  1.00  0.00    -0.272 C  
BRANCH  29  30
HETATM   30  C   UNL     1     -12.057   7.309  72.060  1.00  0.00    -0.290 A  
HETATM   31  N   UNL     1     -13.052  10.666  71.873  1.00  0.00    -0.487 NA 
HETATM   32  C   UNL     1     -13.359   6.942  71.777  1.00  0.00    -0.187 A  
HETATM   33  S   UNL     1     -14.332   8.335  71.581  1.00  0.00    -0.446 SA 
HETATM   34  H2  UNL     1     -13.951  11.106  71.678  1.00  0.00     0.000 HD 
HETATM   35  H1  UNL     1     -12.239  11.254  72.054  1.00  0.00     0.000 HD 
HETATM   36  N   UNL     1     -11.841   8.682  72.111  1.00  0.00    -0.367 NA 
HETATM   37  C   UNL     1     -12.964   9.323  71.885  1.00  0.00    -0.411 A  
ENDBRANCH  29  30
ENDBRANCH  26  29
ENDBRANCH   8  25
TORSDOF 9
ENDMDL
MODEL       41
REMARK 921   NORMALIZED FREE ENERGY PREDICTED BY IDOCK:   -5.80 KCAL/MOL
REMARK 922        TOTAL FREE ENERGY PREDICTED BY IDOCK:  -10.79 KCAL/MOL
REMARK 923 INTER-LIGAND FREE ENERGY PREDICTED BY IDOCK:   -9.47 KCAL/MOL
REMARK 924 INTRA-LIGAND FREE ENERGY PREDICTED BY IDOCK:   -1.32 KCAL/MOL
REMARK 927      BINDING AFFINITY PREDICTED BY RF-SCORE:    0.00 PKD
ROOT
HETATM    1  C   UNL     1     -12.022  11.664  68.173  1.00  0.00    -0.144 C  
HETATM    2  S   UNL     1     -11.480  12.309  69.772  1.00  0.00    -0.097 SA 
HETATM    3  C   UNL     1     -12.076  13.981  69.442  1.00  0.00    -0.340 C  
HETATM    4  C   UNL     1     -11.697  14.544  68.078  1.00  0.00    -0.373 C  
HETATM    5  C   UNL     1     -10.757  11.341  66.541  1.00  0.00    -0.271 C  
HETATM    6  CA  UNL     1     -11.324  13.772  67.014  1.00  0.00    -0.326 C  
HETATM    7  C   UNL     1     -10.899  14.425  65.713  1.00  0.00    -0.307 C  
HETATM    8  CA  UNL     1     -11.275  10.388  67.665  1.00  0.00    -0.213 C  
HETATM    9  N   UNL     1     -11.336  12.406  67.129  1.00  0.00    -0.308 N  
HETATM   10  O   UNL     1     -10.143  13.702  64.869  1.00  0.00    -0.343 OA 
HETATM   11  OXT UNL     1     -11.226  15.562  65.402  1.00  0.00    -0.307 OA 
HETATM   12  O   UNL     1     -10.006  11.290  65.589  1.00  0.00    -0.225 OA 
ENDROOT
BRANCH   4  13
HETATM   13  C   UNL     1     -11.645  16.076  68.118  1.00  0.00    -0.183 C  
BRANCH  13  14
HETATM   14  S   UNL     1      -9.959  16.725  68.408  1.00  0.00    -0.283 SA 
BRANCH  14  15
HETATM   15  C   UNL     1      -9.898  18.121  67.400  1.00  0.00    -0.313 A  
HETATM   16  N   UNL     1     -10.814  19.060  67.326  1.00  0.00    -0.468 NA 
HETATM   17  N   UNL     1     -10.403  19.921  66.344  1.00  0.00    -0.483 NA 
HETATM   18  N   UNL     1      -8.896  18.424  66.514  1.00  0.00    -0.288 NA 
HETATM   19  N   UNL     1      -9.243  19.537  65.832  1.00  0.00    -0.406 NA 
BRANCH  18  20
HETATM   20  C   UNL     1      -7.602  17.820  66.245  1.00  0.00    -0.287 C  
BRANCH  20  21
HETATM   21  C   UNL     1      -6.477  18.647  66.892  1.00  0.00    -0.187 C  
BRANCH  21  22
HETATM   22  N   UNL     1      -5.636  19.475  65.998  1.00  0.00    -0.155 NA 
HETATM   23  C   UNL     1      -6.028  20.888  66.154  1.00  0.00    -0.248 C  
HETATM   24  C   UNL     1      -5.770  19.120  64.580  1.00  0.00    -0.284 C  
ENDBRANCH  21  22
ENDBRANCH  20  21
ENDBRANCH  18  20
ENDBRANCH  14  15
ENDBRANCH  13  14
ENDBRANCH   4  13
BRANCH   8  25
HETATM   25  N   UNL     1     -10.219   9.824  68.558  1.00  0.00    -0.179 N  
HETATM   26  C   UNL     1      -9.983   8.470  68.648  1.00  0.00    -0.184 C  
HETATM   27  H   UNL     1      -9.655  10.463  69.120  1.00  0.00     0.000 HD 
HETATM   28  O   UNL     1     -10.536   7.651  67.915  1.00  0.00    -0.212 OA 
BRANCH  26  29
HETATM   29  C   UNL     1      -9.004   8.063  69.729  1.00  0.00    -0.145 C  
BRANCH  29  30
HETATM   30  C   UNL     1      -9.694   7.856  71.031  1.00  0.00    -0.159 A  
HETATM   31  N   UNL     1     -12.665   8.407  72.810  1.00  0.00    -0.623 NA 
HETATM   32  C   UNL     1      -9.193   7.196  72.136  1.00  0.00    -0.129 A  
HETATM   33  S   UNL     1     -10.356   7.187  73.391  1.00  0.00    -0.373 SA 
HETATM   34  H2  UNL     1     -12.960   8.147  73.751  1.00  0.00     0.000 HD 
HETATM   35  H1  UNL     1     -13.307   8.926  72.211  1.00  0.00     0.000 HD 
HETATM   36  N   UNL     1     -10.989   8.341  71.183  1.00  0.00    -0.239 NA 
HETATM   37  C   UNL     1     -11.437   8.059  72.385  1.00  0.00    -0.389 A  
ENDBRANCH  29  30
ENDBRANCH  26  29
ENDBRANCH   8  25
TORSDOF 9
ENDMDL
MODEL       42
REMARK 921   NORMALIZED FREE ENERGY PREDICTED BY IDOCK:   -5.79 KCAL/MOL
REMARK 922        TOTAL FREE ENERGY PREDICTED BY IDOCK:  -10.78 KCAL/MOL
REMARK 923 INTER-LIGAND FREE ENERGY PREDICTED BY IDOCK:   -9.16 KCAL/MOL
REMARK 924 INTRA-LIGAND FREE ENERGY PREDICTED BY IDOCK:   -1.62 KCAL/MOL
REMARK 927      BINDING AFFINITY PREDICTED BY RF-SCORE:    0.00 PKD
ROOT
HETATM    1  C   UNL     1      -8.812   9.170  68.110  1.00  0.00    -0.129 C  
HETATM    2  S   UNL     1      -9.495  10.223  69.410  1.00  0.00    -0.177 SA 
HETATM    3  C   UNL     1      -8.849   9.201  70.752  1.00  0.00    -0.239 C  
HETATM    4  C   UNL     1      -9.090   7.705  70.597  1.00  0.00    -0.158 C  
HETATM    5  C   UNL     1      -9.920   7.775  67.017  1.00  0.00    -0.244 C  
HETATM    6  CA  UNL     1      -9.371   7.099  69.404  1.00  0.00    -0.147 C  
HETATM    7  C   UNL     1      -9.663   5.612  69.356  1.00  0.00    -0.157 C  
HETATM    8  CA  UNL     1      -9.522   9.256  66.721  1.00  0.00    -0.175 C  
HETATM    9  N   UNL     1      -9.386   7.843  68.253  1.00  0.00    -0.143 N  
HETATM   10  O   UNL     1     -10.344   5.142  68.298  1.00  0.00    -0.146 OA 
HETATM   11  OXT UNL     1      -9.294   4.834  70.226  1.00  0.00    -0.129 OA 
HETATM   12  O   UNL     1     -10.578   6.896  66.501  1.00  0.00    -0.159 OA 
ENDROOT
BRANCH   4  13
HETATM   13  C   UNL     1      -9.128   7.015  71.966  1.00  0.00    -0.131 C  
BRANCH  13  14
HETATM   14  S   UNL     1     -10.335   7.772  73.113  1.00  0.00    -0.288 SA 
BRANCH  14  15
HETATM   15  C   UNL     1     -11.841   7.536  72.309  1.00  0.00    -0.289 A  
HETATM   16  N   UNL     1     -12.302   6.393  71.856  1.00  0.00    -0.312 NA 
HETATM   17  N   UNL     1     -13.478   6.680  71.215  1.00  0.00     0.059 NA 
HETATM   18  N   UNL     1     -12.746   8.520  72.006  1.00  0.00    -0.355 NA 
HETATM   19  N   UNL     1     -13.752   7.975  71.287  1.00  0.00    -0.212 NA 
BRANCH  18  20
HETATM   20  C   UNL     1     -12.822   9.930  72.345  1.00  0.00    -0.136 C  
BRANCH  20  21
HETATM   21  C   UNL     1     -12.794  10.794  71.072  1.00  0.00    -0.385 C  
BRANCH  21  22
HETATM   22  N   UNL     1     -12.289  12.180  71.197  1.00  0.00    -0.252 NA 
HETATM   23  C   UNL     1     -13.272  12.977  71.955  1.00  0.00    -0.430 C  
HETATM   24  C   UNL     1     -12.069  12.839  69.904  1.00  0.00    -0.259 C  
ENDBRANCH  21  22
ENDBRANCH  20  21
ENDBRANCH  18  20
ENDBRANCH  14  15
ENDBRANCH  13  14
ENDBRANCH   4  13
BRANCH   8  25
HETATM   25  N   UNL     1     -10.665  10.211  66.606  1.00  0.00    -0.138 N  
HETATM   26  C   UNL     1     -10.745  11.139  65.590  1.00  0.00    -0.185 C  
HETATM   27  H   UNL     1     -11.411  10.175  67.302  1.00  0.00     0.000 HD 
HETATM   28  O   UNL     1      -9.952  11.160  64.650  1.00  0.00    -0.249 OA 
BRANCH  26  29
HETATM   29  C   UNL     1     -11.873  12.140  65.727  1.00  0.00    -0.342 C  
BRANCH  29  30
HETATM   30  C   UNL     1     -11.373  13.535  65.590  1.00  0.00    -0.298 A  
HETATM   31  N   UNL     1     -11.749  16.547  63.836  1.00  0.00    -1.484 NA 
HETATM   32  C   UNL     1     -10.390  14.138  66.350  1.00  0.00    -0.287 A  
HETATM   33  S   UNL     1     -10.170  15.758  65.847  1.00  0.00    -0.380 SA 
HETATM   34  H2  UNL     1     -11.287  17.453  63.920  1.00  0.00     0.000 HD 
HETATM   35  H1  UNL     1     -12.473  16.421  63.129  1.00  0.00     0.000 HD 
HETATM   36  N   UNL     1     -11.946  14.357  64.626  1.00  0.00    -0.442 NA 
HETATM   37  C   UNL     1     -11.389  15.546  64.659  1.00  0.00    -0.357 A  
ENDBRANCH  29  30
ENDBRANCH  26  29
ENDBRANCH   8  25
TORSDOF 9
ENDMDL
MODEL       43
REMARK 921   NORMALIZED FREE ENERGY PREDICTED BY IDOCK:   -5.78 KCAL/MOL
REMARK 922        TOTAL FREE ENERGY PREDICTED BY IDOCK:  -10.76 KCAL/MOL
REMARK 923 INTER-LIGAND FREE ENERGY PREDICTED BY IDOCK:   -8.46 KCAL/MOL
REMARK 924 INTRA-LIGAND FREE ENERGY PREDICTED BY IDOCK:   -2.30 KCAL/MOL
REMARK 927      BINDING AFFINITY PREDICTED BY RF-SCORE:    0.00 PKD
ROOT
HETATM    1  C   UNL     1      -8.699   9.178  67.824  1.00  0.00    -0.121 C  
HETATM    2  S   UNL     1      -8.965  10.384  69.143  1.00  0.00    -0.161 SA 
HETATM    3  C   UNL     1      -8.147   9.379  70.401  1.00  0.00    -0.175 C  
HETATM    4  C   UNL     1      -8.568   7.915  70.432  1.00  0.00    -0.132 C  
HETATM    5  C   UNL     1     -10.157   7.858  67.118  1.00  0.00    -0.258 C  
HETATM    6  CA  UNL     1      -9.166   7.274  69.384  1.00  0.00    -0.148 C  
HETATM    7  C   UNL     1      -9.611   5.831  69.529  1.00  0.00    -0.141 C  
HETATM    8  CA  UNL     1      -9.686   9.259  66.616  1.00  0.00    -0.219 C  
HETATM    9  N   UNL     1      -9.359   7.940  68.201  1.00  0.00    -0.142 N  
HETATM   10  O   UNL     1     -10.554   5.380  68.685  1.00  0.00    -0.179 OA 
HETATM   11  OXT UNL     1      -9.141   5.072  70.365  1.00  0.00    -0.122 OA 
HETATM   12  O   UNL     1     -10.999   7.032  66.833  1.00  0.00    -0.371 OA 
ENDROOT
BRANCH   4  13
HETATM   13  C   UNL     1      -8.372   7.323  71.833  1.00  0.00    -0.107 C  
BRANCH  13  14
HETATM   14  S   UNL     1      -9.506   8.040  73.076  1.00  0.00    -0.268 SA 
BRANCH  14  15
HETATM   15  C   UNL     1     -11.065   7.642  72.460  1.00  0.00    -0.336 A  
HETATM   16  N   UNL     1     -11.660   6.475  72.565  1.00  0.00    -0.244 NA 
HETATM   17  N   UNL     1     -12.831   6.577  71.862  1.00  0.00    -0.209 NA 
HETATM   18  N   UNL     1     -11.881   8.482  71.748  1.00  0.00    -0.308 NA 
HETATM   19  N   UNL     1     -12.971   7.790  71.348  1.00  0.00    -0.316 NA 
BRANCH  18  20
HETATM   20  C   UNL     1     -11.798   9.895  71.422  1.00  0.00    -0.394 C  
BRANCH  20  21
HETATM   21  C   UNL     1     -13.054  10.637  71.915  1.00  0.00    -0.458 C  
BRANCH  21  22
HETATM   22  N   UNL     1     -13.334  11.969  71.332  1.00  0.00    -0.057 NA 
HETATM   23  C   UNL     1     -12.192  12.367  70.488  1.00  0.00    -0.295 C  
HETATM   24  C   UNL     1     -13.539  13.014  72.342  1.00  0.00    -0.529 C  
ENDBRANCH  21  22
ENDBRANCH  20  21
ENDBRANCH  18  20
ENDBRANCH  14  15
ENDBRANCH  13  14
ENDBRANCH   4  13
BRANCH   8  25
HETATM   25  N   UNL     1     -10.722  10.334  66.664  1.00  0.00    -0.162 N  
HETATM   26  C   UNL     1     -10.811  11.310  65.694  1.00  0.00    -0.177 C  
HETATM   27  H   UNL     1     -11.386  10.346  67.439  1.00  0.00     0.000 HD 
HETATM   28  O   UNL     1     -10.128  11.289  64.671  1.00  0.00    -0.250 OA 
BRANCH  26  29
HETATM   29  C   UNL     1     -11.799  12.418  65.992  1.00  0.00    -0.459 C  
BRANCH  29  30
HETATM   30  C   UNL     1     -11.222  13.415  66.933  1.00  0.00    -0.308 A  
HETATM   31  N   UNL     1      -8.407  14.237  68.855  1.00  0.00    -0.309 NA 
HETATM   32  C   UNL     1     -11.819  14.583  67.369  1.00  0.00    -0.388 A  
HETATM   33  S   UNL     1     -10.767  15.422  68.423  1.00  0.00    -0.266 SA 
HETATM   34  H2  UNL     1      -8.194  15.034  69.455  1.00  0.00     0.000 HD 
HETATM   35  H1  UNL     1      -7.712  13.500  68.741  1.00  0.00     0.000 HD 
HETATM   36  N   UNL     1      -9.941  13.200  67.430  1.00  0.00    -0.226 NA 
HETATM   37  C   UNL     1      -9.598  14.182  68.231  1.00  0.00    -0.226 A  
ENDBRANCH  29  30
ENDBRANCH  26  29
ENDBRANCH   8  25
TORSDOF 9
ENDMDL
MODEL       44
REMARK 921   NORMALIZED FREE ENERGY PREDICTED BY IDOCK:   -5.76 KCAL/MOL
REMARK 922        TOTAL FREE ENERGY PREDICTED BY IDOCK:  -10.73 KCAL/MOL
REMARK 923 INTER-LIGAND FREE ENERGY PREDICTED BY IDOCK:   -8.35 KCAL/MOL
REMARK 924 INTRA-LIGAND FREE ENERGY PREDICTED BY IDOCK:   -2.38 KCAL/MOL
REMARK 927      BINDING AFFINITY PREDICTED BY RF-SCORE:    0.00 PKD
ROOT
HETATM    1  C   UNL     1      -8.407  12.351  67.433  1.00  0.00    -0.180 C  
HETATM    2  S   UNL     1      -8.173  11.118  68.733  1.00  0.00    -0.106 SA 
HETATM    3  C   UNL     1      -7.279   9.972  67.660  1.00  0.00    -0.088 C  
HETATM    4  C   UNL     1      -7.923   9.725  66.301  1.00  0.00    -0.109 C  
HETATM    5  C   UNL     1     -10.186  12.621  66.368  1.00  0.00    -0.251 C  
HETATM    6  CA  UNL     1      -8.835  10.566  65.727  1.00  0.00    -0.175 C  
HETATM    7  C   UNL     1      -9.473  10.205  64.400  1.00  0.00    -0.308 C  
HETATM    8  CA  UNL     1      -9.607  13.332  67.633  1.00  0.00    -0.213 C  
HETATM    9  N   UNL     1      -9.168  11.737  66.358  1.00  0.00    -0.214 N  
HETATM   10  O   UNL     1     -10.640  10.793  64.087  1.00  0.00    -0.347 OA 
HETATM   11  OXT UNL     1      -8.966   9.420  63.610  1.00  0.00    -0.218 OA 
HETATM   12  O   UNL     1     -11.196  12.652  65.697  1.00  0.00    -0.290 OA 
ENDROOT
BRANCH   4  13
HETATM   13  C   UNL     1      -7.527   8.348  65.754  1.00  0.00    -0.077 C  
BRANCH  13  14
HETATM   14  S   UNL     1      -7.445   7.062  67.052  1.00  0.00    -0.096 SA 
BRANCH  14  15
HETATM   15  C   UNL     1      -9.101   6.801  67.452  1.00  0.00    -0.117 A  
HETATM   16  N   UNL     1     -10.120   6.919  66.631  1.00  0.00    -0.174 NA 
HETATM   17  N   UNL     1     -11.245   6.712  67.384  1.00  0.00    -0.310 NA 
HETATM   18  N   UNL     1      -9.580   6.467  68.692  1.00  0.00    -0.125 NA 
HETATM   19  N   UNL     1     -10.930   6.450  68.644  1.00  0.00    -0.321 NA 
BRANCH  18  20
HETATM   20  C   UNL     1      -8.926   6.108  69.938  1.00  0.00    -0.139 C  
BRANCH  20  21
HETATM   21  C   UNL     1      -9.929   6.148  71.105  1.00  0.00    -0.183 C  
BRANCH  21  22
HETATM   22  N   UNL     1     -10.070   7.425  71.842  1.00  0.00    -0.178 NA 
HETATM   23  C   UNL     1      -8.726   7.957  72.130  1.00  0.00    -0.142 C  
HETATM   24  C   UNL     1     -10.787   7.285  73.115  1.00  0.00    -0.357 C  
ENDBRANCH  21  22
ENDBRANCH  20  21
ENDBRANCH  18  20
ENDBRANCH  14  15
ENDBRANCH  13  14
ENDBRANCH   4  13
BRANCH   8  25
HETATM   25  N   UNL     1     -10.412  13.166  68.880  1.00  0.00    -0.412 N  
HETATM   26  C   UNL     1     -11.593  13.847  69.086  1.00  0.00    -0.313 C  
HETATM   27  H   UNL     1     -10.077  12.529  69.603  1.00  0.00     0.000 HD 
HETATM   28  O   UNL     1     -12.120  14.535  68.213  1.00  0.00    -0.292 OA 
BRANCH  26  29
HETATM   29  C   UNL     1     -12.183  13.698  70.472  1.00  0.00    -0.438 C  
BRANCH  29  30
HETATM   30  C   UNL     1     -12.390  12.266  70.817  1.00  0.00    -0.290 A  
HETATM   31  N   UNL     1     -11.635   8.966  69.903  1.00  0.00    -0.438 NA 
HETATM   32  C   UNL     1     -13.106  11.770  71.890  1.00  0.00    -0.376 A  
HETATM   33  S   UNL     1     -13.046  10.060  71.896  1.00  0.00    -0.449 SA 
HETATM   34  H2  UNL     1     -11.878   8.067  70.317  1.00  0.00     0.000 HD 
HETATM   35  H1  UNL     1     -11.061   8.989  69.060  1.00  0.00     0.000 HD 
HETATM   36  N   UNL     1     -11.797  11.295  70.018  1.00  0.00    -0.337 NA 
HETATM   37  C   UNL     1     -12.080  10.098  70.479  1.00  0.00    -0.291 A  
ENDBRANCH  29  30
ENDBRANCH  26  29
ENDBRANCH   8  25
TORSDOF 9
ENDMDL
MODEL       45
REMARK 921   NORMALIZED FREE ENERGY PREDICTED BY IDOCK:   -5.76 KCAL/MOL
REMARK 922        TOTAL FREE ENERGY PREDICTED BY IDOCK:  -10.73 KCAL/MOL
REMARK 923 INTER-LIGAND FREE ENERGY PREDICTED BY IDOCK:   -8.86 KCAL/MOL
REMARK 924 INTRA-LIGAND FREE ENERGY PREDICTED BY IDOCK:   -1.87 KCAL/MOL
REMARK 927      BINDING AFFINITY PREDICTED BY RF-SCORE:    0.00 PKD
ROOT
HETATM    1  C   UNL     1      -9.655   8.725  70.966  1.00  0.00    -0.229 C  
HETATM    2  S   UNL     1      -9.574   8.671  69.161  1.00  0.00    -0.165 SA 
HETATM    3  C   UNL     1      -9.998  10.416  68.964  1.00  0.00    -0.214 C  
HETATM    4  C   UNL     1     -11.188  10.888  69.790  1.00  0.00    -0.351 C  
HETATM    5  C   UNL     1     -11.268   8.027  72.097  1.00  0.00    -0.319 C  
HETATM    6  CA  UNL     1     -11.654  10.233  70.895  1.00  0.00    -0.365 C  
HETATM    7  C   UNL     1     -12.888  10.741  71.617  1.00  0.00    -0.457 C  
HETATM    8  CA  UNL     1      -9.921   7.359  71.677  1.00  0.00    -0.176 C  
HETATM    9  N   UNL     1     -11.001   9.115  71.348  1.00  0.00    -0.316 N  
HETATM   10  O   UNL     1     -13.560   9.873  72.391  1.00  0.00    -0.378 OA 
HETATM   11  OXT UNL     1     -13.278  11.897  71.532  1.00  0.00    -0.358 OA 
HETATM   12  O   UNL     1     -12.278   7.724  72.696  1.00  0.00    -0.210 OA 
ENDROOT
BRANCH   4  13
HETATM   13  C   UNL     1     -11.868  12.090  69.125  1.00  0.00    -0.311 C  
BRANCH  13  14
HETATM   14  S   UNL     1     -10.758  13.003  67.994  1.00  0.00    -0.240 SA 
BRANCH  14  15
HETATM   15  C   UNL     1     -11.715  13.196  66.575  1.00  0.00    -0.382 A  
HETATM   16  N   UNL     1     -12.508  14.210  66.312  1.00  0.00    -0.439 NA 
HETATM   17  N   UNL     1     -13.136  13.910  65.132  1.00  0.00    -0.764 NA 
HETATM   18  N   UNL     1     -11.803  12.298  65.543  1.00  0.00    -0.433 NA 
HETATM   19  N   UNL     1     -12.725  12.742  64.661  1.00  0.00    -0.707 NA 
BRANCH  18  20
HETATM   20  C   UNL     1     -11.088  11.071  65.240  1.00  0.00     0.062 C  
BRANCH  20  21
HETATM   21  C   UNL     1      -9.638  11.379  64.826  1.00  0.00    -0.210 C  
BRANCH  21  22
HETATM   22  N   UNL     1      -8.631  10.310  65.014  1.00  0.00    -0.172 NA 
HETATM   23  C   UNL     1      -9.328   9.054  65.345  1.00  0.00    -0.144 C  
HETATM   24  C   UNL     1      -7.673  10.596  66.089  1.00  0.00    -0.145 C  
ENDBRANCH  21  22
ENDBRANCH  20  21
ENDBRANCH  18  20
ENDBRANCH  14  15
ENDBRANCH  13  14
ENDBRANCH   4  13
BRANCH   8  25
HETATM   25  N   UNL     1     -10.052   6.157  70.799  1.00  0.00    -0.188 N  
HETATM   26  C   UNL     1      -9.371   4.986  71.054  1.00  0.00    -0.152 C  
HETATM   27  H   UNL     1     -10.666   6.204  69.986  1.00  0.00     0.000 HD 
HETATM   28  O   UNL     1      -8.712   4.814  72.079  1.00  0.00    -0.121 OA 
BRANCH  26  29
HETATM   29  C   UNL     1      -9.481   3.934  69.970  1.00  0.00    -0.263 C  
BRANCH  29  30
HETATM   30  C   UNL     1      -9.082   4.483  68.646  1.00  0.00    -0.120 A  
HETATM   31  N   UNL     1      -7.070   6.849  67.021  1.00  0.00    -0.074 NA 
HETATM   32  C   UNL     1      -9.514   4.048  67.408  1.00  0.00    -0.192 A  
HETATM   33  S   UNL     1      -8.765   4.962  66.171  1.00  0.00    -0.120 SA 
HETATM   34  H2  UNL     1      -6.918   7.060  66.034  1.00  0.00     0.000 HD 
HETATM   35  H1  UNL     1      -6.571   7.388  67.728  1.00  0.00     0.000 HD 
HETATM   36  N   UNL     1      -8.161   5.524  68.606  1.00  0.00    -0.102 NA 
HETATM   37  C   UNL     1      -7.924   5.867  67.360  1.00  0.00    -0.102 A  
ENDBRANCH  29  30
ENDBRANCH  26  29
ENDBRANCH   8  25
TORSDOF 9
ENDMDL
MODEL       46
REMARK 921   NORMALIZED FREE ENERGY PREDICTED BY IDOCK:   -5.76 KCAL/MOL
REMARK 922        TOTAL FREE ENERGY PREDICTED BY IDOCK:  -10.73 KCAL/MOL
REMARK 923 INTER-LIGAND FREE ENERGY PREDICTED BY IDOCK:   -9.61 KCAL/MOL
REMARK 924 INTRA-LIGAND FREE ENERGY PREDICTED BY IDOCK:   -1.12 KCAL/MOL
REMARK 927      BINDING AFFINITY PREDICTED BY RF-SCORE:    0.00 PKD
ROOT
HETATM    1  C   UNL     1     -11.509  12.418  67.800  1.00  0.00    -0.324 C  
HETATM    2  S   UNL     1      -9.810  11.803  67.810  1.00  0.00    -0.186 SA 
HETATM    3  C   UNL     1     -10.237  10.269  68.662  1.00  0.00    -0.180 C  
HETATM    4  C   UNL     1     -11.134  10.436  69.882  1.00  0.00    -0.367 C  
HETATM    5  C   UNL     1     -12.255  13.853  69.124  1.00  0.00    -0.267 C  
HETATM    6  CA  UNL     1     -11.912  11.536  70.109  1.00  0.00    -0.369 C  
HETATM    7  C   UNL     1     -12.723  11.644  71.387  1.00  0.00    -0.339 C  
HETATM    8  CA  UNL     1     -11.672  13.968  67.680  1.00  0.00    -0.377 C  
HETATM    9  N   UNL     1     -11.957  12.540  69.176  1.00  0.00    -0.270 N  
HETATM   10  O   UNL     1     -13.109  12.869  71.780  1.00  0.00    -0.399 OA 
HETATM   11  OXT UNL     1     -13.044  10.670  72.054  1.00  0.00    -0.481 OA 
HETATM   12  O   UNL     1     -12.668  14.592  69.993  1.00  0.00    -0.278 OA 
ENDROOT
BRANCH   4  13
HETATM   13  C   UNL     1     -10.921   9.286  70.875  1.00  0.00    -0.299 C  
BRANCH  13  14
HETATM   14  S   UNL     1     -10.780   7.656  70.058  1.00  0.00    -0.236 SA 
BRANCH  14  15
HETATM   15  C   UNL     1     -10.891   6.547  71.372  1.00  0.00    -0.245 A  
HETATM   16  N   UNL     1     -11.999   6.163  71.965  1.00  0.00    -0.304 NA 
HETATM   17  N   UNL     1     -11.619   5.356  73.004  1.00  0.00    -0.267 NA 
HETATM   18  N   UNL     1      -9.833   5.942  71.998  1.00  0.00    -0.157 NA 
HETATM   19  N   UNL     1     -10.301   5.225  73.044  1.00  0.00    -0.182 NA 
BRANCH  18  20
HETATM   20  C   UNL     1      -8.408   5.906  71.715  1.00  0.00    -0.119 C  
BRANCH  20  21
HETATM   21  C   UNL     1      -7.620   6.631  72.820  1.00  0.00    -0.096 C  
BRANCH  21  22
HETATM   22  N   UNL     1      -6.678   7.694  72.403  1.00  0.00    -0.056 NA 
HETATM   23  C   UNL     1      -6.245   8.440  73.599  1.00  0.00    -0.116 C  
HETATM   24  C   UNL     1      -7.263   8.652  71.457  1.00  0.00    -0.098 C  
ENDBRANCH  21  22
ENDBRANCH  20  21
ENDBRANCH  18  20
ENDBRANCH  14  15
ENDBRANCH  13  14
ENDBRANCH   4  13
BRANCH   8  25
HETATM   25  N   UNL     1     -10.417  14.770  67.561  1.00  0.00    -0.243 N  
HETATM   26  C   UNL     1      -9.950  15.223  66.346  1.00  0.00    -0.275 C  
HETATM   27  H   UNL     1      -9.890  14.990  68.406  1.00  0.00     0.000 HD 
HETATM   28  O   UNL     1     -10.593  15.104  65.304  1.00  0.00    -0.348 OA 
BRANCH  26  29
HETATM   29  C   UNL     1      -8.578  15.864  66.388  1.00  0.00    -0.364 C  
BRANCH  29  30
HETATM   30  C   UNL     1      -8.647  17.246  66.934  1.00  0.00    -0.240 A  
HETATM   31  N   UNL     1      -9.564  20.556  66.232  1.00  0.00    -0.657 NA 
HETATM   32  C   UNL     1      -8.287  17.650  68.206  1.00  0.00    -0.274 A  
HETATM   33  S   UNL     1      -8.563  19.328  68.388  1.00  0.00    -0.360 SA 
HETATM   34  H2  UNL     1      -9.547  21.407  66.794  1.00  0.00     0.000 HD 
HETATM   35  H1  UNL     1      -9.904  20.599  65.272  1.00  0.00     0.000 HD 
HETATM   36  N   UNL     1      -9.142  18.260  66.123  1.00  0.00    -0.502 NA 
HETATM   37  C   UNL     1      -9.136  19.401  66.773  1.00  0.00    -0.334 A  
ENDBRANCH  29  30
ENDBRANCH  26  29
ENDBRANCH   8  25
TORSDOF 9
ENDMDL
MODEL       47
REMARK 921   NORMALIZED FREE ENERGY PREDICTED BY IDOCK:   -5.73 KCAL/MOL
REMARK 922        TOTAL FREE ENERGY PREDICTED BY IDOCK:  -10.68 KCAL/MOL
REMARK 923 INTER-LIGAND FREE ENERGY PREDICTED BY IDOCK:   -9.45 KCAL/MOL
REMARK 924 INTRA-LIGAND FREE ENERGY PREDICTED BY IDOCK:   -1.23 KCAL/MOL
REMARK 927      BINDING AFFINITY PREDICTED BY RF-SCORE:    0.00 PKD
ROOT
HETATM    1  C   UNL     1      -9.096   9.323  68.765  1.00  0.00    -0.136 C  
HETATM    2  S   UNL     1     -10.853   9.567  69.111  1.00  0.00    -0.125 SA 
HETATM    3  C   UNL     1     -11.076  10.772  67.784  1.00  0.00    -0.318 C  
HETATM    4  C   UNL     1     -10.018  11.867  67.722  1.00  0.00    -0.191 C  
HETATM    5  C   UNL     1      -7.544  10.192  69.862  1.00  0.00    -0.166 C  
HETATM    6  CA  UNL     1      -8.783  11.764  68.297  1.00  0.00    -0.167 C  
HETATM    7  C   UNL     1      -7.818  12.932  68.240  1.00  0.00    -0.142 C  
HETATM    8  CA  UNL     1      -8.234   8.794  69.956  1.00  0.00    -0.120 C  
HETATM    9  N   UNL     1      -8.421  10.599  68.923  1.00  0.00    -0.148 N  
HETATM   10  O   UNL     1      -6.832  12.974  69.152  1.00  0.00    -0.104 OA 
HETATM   11  OXT UNL     1      -7.895  13.817  67.398  1.00  0.00    -0.168 OA 
HETATM   12  O   UNL     1      -6.688  10.818  70.451  1.00  0.00    -0.279 OA 
ENDROOT
BRANCH   4  13
HETATM   13  C   UNL     1     -10.585  13.134  67.070  1.00  0.00    -0.258 C  
BRANCH  13  14
HETATM   14  S   UNL     1     -10.484  13.104  65.244  1.00  0.00    -0.314 SA 
BRANCH  14  15
HETATM   15  C   UNL     1     -11.210  14.598  64.786  1.00  0.00    -0.389 A  
HETATM   16  N   UNL     1     -12.317  14.737  64.092  1.00  0.00    -0.752 NA 
HETATM   17  N   UNL     1     -12.473  16.081  63.883  1.00  0.00    -0.612 NA 
HETATM   18  N   UNL     1     -10.710  15.845  65.058  1.00  0.00    -0.543 NA 
HETATM   19  N   UNL     1     -11.493  16.766  64.455  1.00  0.00    -1.005 NA 
BRANCH  18  20
HETATM   20  C   UNL     1      -9.594  16.306  65.867  1.00  0.00    -0.301 C  
BRANCH  20  21
HETATM   21  C   UNL     1      -9.738  17.806  66.180  1.00  0.00    -0.217 C  
BRANCH  21  22
HETATM   22  N   UNL     1      -9.708  18.213  67.603  1.00  0.00    -0.285 NA 
HETATM   23  C   UNL     1     -10.370  17.170  68.409  1.00  0.00    -0.362 C  
HETATM   24  C   UNL     1     -10.391  19.487  67.858  1.00  0.00    -0.444 C  
ENDBRANCH  21  22
ENDBRANCH  20  21
ENDBRANCH  18  20
ENDBRANCH  14  15
ENDBRANCH  13  14
ENDBRANCH   4  13
BRANCH   8  25
HETATM   25  N   UNL     1      -8.951   8.522  71.238  1.00  0.00    -0.173 N  
HETATM   26  C   UNL     1      -8.290   8.099  72.371  1.00  0.00    -0.170 C  
HETATM   27  H   UNL     1      -9.962   8.655  71.276  1.00  0.00     0.000 HD 
HETATM   28  O   UNL     1      -7.063   8.036  72.437  1.00  0.00    -0.077 OA 
BRANCH  26  29
HETATM   29  C   UNL     1      -9.189   7.702  73.524  1.00  0.00    -0.331 C  
BRANCH  29  30
HETATM   30  C   UNL     1      -9.706   6.318  73.349  1.00  0.00    -0.162 A  
HETATM   31  N   UNL     1      -9.914   3.599  71.145  1.00  0.00    -0.125 NA 
HETATM   32  C   UNL     1     -10.395   5.569  74.285  1.00  0.00    -0.271 A  
HETATM   33  S   UNL     1     -10.764   4.026  73.646  1.00  0.00    -0.257 SA 
HETATM   34  H2  UNL     1     -10.325   2.670  71.238  1.00  0.00     0.000 HD 
HETATM   35  H1  UNL     1      -9.454   3.856  70.272  1.00  0.00     0.000 HD 
HETATM   36  N   UNL     1      -9.473   5.665  72.144  1.00  0.00    -0.149 NA 
HETATM   37  C   UNL     1      -9.990   4.459  72.177  1.00  0.00    -0.185 A  
ENDBRANCH  29  30
ENDBRANCH  26  29
ENDBRANCH   8  25
TORSDOF 9
ENDMDL
MODEL       48
REMARK 921   NORMALIZED FREE ENERGY PREDICTED BY IDOCK:   -5.72 KCAL/MOL
REMARK 922        TOTAL FREE ENERGY PREDICTED BY IDOCK:  -10.66 KCAL/MOL
REMARK 923 INTER-LIGAND FREE ENERGY PREDICTED BY IDOCK:   -9.62 KCAL/MOL
REMARK 924 INTRA-LIGAND FREE ENERGY PREDICTED BY IDOCK:   -1.05 KCAL/MOL
REMARK 927      BINDING AFFINITY PREDICTED BY RF-SCORE:    0.00 PKD
ROOT
HETATM    1  C   UNL     1     -11.716  13.528  67.902  1.00  0.00    -0.357 C  
HETATM    2  S   UNL     1     -10.243  12.487  67.794  1.00  0.00    -0.222 SA 
HETATM    3  C   UNL     1     -11.007  11.097  68.658  1.00  0.00    -0.220 C  
HETATM    4  C   UNL     1     -11.750  11.462  69.937  1.00  0.00    -0.424 C  
HETATM    5  C   UNL     1     -11.971  15.073  69.287  1.00  0.00    -0.289 C  
HETATM    6  CA  UNL     1     -12.193  12.722  70.226  1.00  0.00    -0.277 C  
HETATM    7  C   UNL     1     -12.865  13.005  71.555  1.00  0.00    -0.290 C  
HETATM    8  CA  UNL     1     -11.470  15.068  67.808  1.00  0.00    -0.334 C  
HETATM    9  N   UNL     1     -12.029  13.726  69.307  1.00  0.00    -0.340 N  
HETATM   10  O   UNL     1     -12.889  14.278  71.984  1.00  0.00    -0.328 OA 
HETATM   11  OXT UNL     1     -13.391  12.133  72.233  1.00  0.00    -0.500 OA 
HETATM   12  O   UNL     1     -12.120  15.871  70.188  1.00  0.00    -0.344 OA 
ENDROOT
BRANCH   4  13
HETATM   13  C   UNL     1     -11.787  10.271  70.902  1.00  0.00    -0.377 C  
BRANCH  13  14
HETATM   14  S   UNL     1     -10.256   9.270  70.860  1.00  0.00    -0.309 SA 
BRANCH  14  15
HETATM   15  C   UNL     1     -10.800   7.701  71.319  1.00  0.00    -0.231 A  
HETATM   16  N   UNL     1     -11.707   7.436  72.232  1.00  0.00    -0.292 NA 
HETATM   17  N   UNL     1     -11.762   6.071  72.334  1.00  0.00    -0.305 NA 
HETATM   18  N   UNL     1     -10.335   6.515  70.814  1.00  0.00    -0.201 NA 
HETATM   19  N   UNL     1     -10.921   5.499  71.485  1.00  0.00    -0.198 NA 
BRANCH  18  20
HETATM   20  C   UNL     1      -9.424   6.195  69.728  1.00  0.00    -0.150 C  
BRANCH  20  21
HETATM   21  C   UNL     1     -10.164   5.441  68.609  1.00  0.00    -0.176 C  
BRANCH  21  22
HETATM   22  N   UNL     1      -9.905   5.862  67.213  1.00  0.00    -0.128 NA 
HETATM   23  C   UNL     1     -10.619   7.127  66.959  1.00  0.00    -0.343 C  
HETATM   24  C   UNL     1     -10.350   4.880  66.217  1.00  0.00    -0.298 C  
ENDBRANCH  21  22
ENDBRANCH  20  21
ENDBRANCH  18  20
ENDBRANCH  14  15
ENDBRANCH  13  14
ENDBRANCH   4  13
BRANCH   8  25
HETATM   25  N   UNL     1     -10.058  15.515  67.612  1.00  0.00    -0.241 N  
HETATM   26  C   UNL     1      -9.685  16.327  66.563  1.00  0.00    -0.263 C  
HETATM   27  H   UNL     1      -9.347  15.209  68.278  1.00  0.00     0.000 HD 
HETATM   28  O   UNL     1     -10.502  16.833  65.795  1.00  0.00    -0.389 OA 
BRANCH  26  29
HETATM   29  C   UNL     1      -8.192  16.535  66.416  1.00  0.00    -0.364 C  
BRANCH  29  30
HETATM   30  C   UNL     1      -7.665  17.421  67.487  1.00  0.00    -0.192 A  
HETATM   31  N   UNL     1      -5.397  17.649  70.151  1.00  0.00    -0.220 NA 
HETATM   32  C   UNL     1      -8.032  18.731  67.731  1.00  0.00    -0.254 A  
HETATM   33  S   UNL     1      -7.139  19.355  69.050  1.00  0.00    -0.358 SA 
HETATM   34  H2  UNL     1      -5.161  18.409  70.789  1.00  0.00     0.000 HD 
HETATM   35  H1  UNL     1      -4.918  16.753  70.245  1.00  0.00     0.000 HD 
HETATM   36  N   UNL     1      -6.681  16.928  68.337  1.00  0.00    -0.158 NA 
HETATM   37  C   UNL     1      -6.333  17.849  69.206  1.00  0.00    -0.244 A  
ENDBRANCH  29  30
ENDBRANCH  26  29
ENDBRANCH   8  25
TORSDOF 9
ENDMDL
MODEL       49
REMARK 921   NORMALIZED FREE ENERGY PREDICTED BY IDOCK:   -5.70 KCAL/MOL
REMARK 922        TOTAL FREE ENERGY PREDICTED BY IDOCK:  -10.64 KCAL/MOL
REMARK 923 INTER-LIGAND FREE ENERGY PREDICTED BY IDOCK:   -8.85 KCAL/MOL
REMARK 924 INTRA-LIGAND FREE ENERGY PREDICTED BY IDOCK:   -1.79 KCAL/MOL
REMARK 927      BINDING AFFINITY PREDICTED BY RF-SCORE:    0.00 PKD
ROOT
HETATM    1  C   UNL     1      -8.682  13.681  67.054  1.00  0.00    -0.192 C  
HETATM    2  S   UNL     1      -8.433  12.406  68.310  1.00  0.00    -0.146 SA 
HETATM    3  C   UNL     1      -8.103  11.103  67.103  1.00  0.00    -0.138 C  
HETATM    4  C   UNL     1      -9.089  11.034  65.943  1.00  0.00    -0.214 C  
HETATM    5  C   UNL     1     -10.553  14.371  66.425  1.00  0.00    -0.297 C  
HETATM    6  CA  UNL     1      -9.895  12.071  65.567  1.00  0.00    -0.229 C  
HETATM    7  C   UNL     1     -10.894  11.888  64.441  1.00  0.00    -0.332 C  
HETATM    8  CA  UNL     1      -9.546  14.908  67.491  1.00  0.00    -0.204 C  
HETATM    9  N   UNL     1      -9.794  13.277  66.211  1.00  0.00    -0.282 N  
HETATM   10  O   UNL     1     -11.937  12.734  64.387  1.00  0.00    -0.355 OA 
HETATM   11  OXT UNL     1     -10.779  11.021  63.585  1.00  0.00    -0.348 OA 
HETATM   12  O   UNL     1     -11.659  14.644  66.009  1.00  0.00    -0.356 OA 
ENDROOT
BRANCH   4  13
HETATM   13  C   UNL     1      -9.157   9.612  65.373  1.00  0.00    -0.215 C  
BRANCH  13  14
HETATM   14  S   UNL     1      -8.225   8.397  66.374  1.00  0.00    -0.113 SA 
BRANCH  14  15
HETATM   15  C   UNL     1      -9.432   7.250  66.822  1.00  0.00    -0.171 A  
HETATM   16  N   UNL     1      -9.715   6.139  66.181  1.00  0.00    -0.059 NA 
HETATM   17  N   UNL     1     -10.788   5.586  66.828  1.00  0.00    -0.245 NA 
HETATM   18  N   UNL     1     -10.282   7.363  67.891  1.00  0.00    -0.184 NA 
HETATM   19  N   UNL     1     -11.152   6.329  67.863  1.00  0.00    -0.327 NA 
BRANCH  18  20
HETATM   20  C   UNL     1     -10.363   8.308  68.992  1.00  0.00    -0.221 C  
BRANCH  20  21
HETATM   21  C   UNL     1     -10.606   7.569  70.320  1.00  0.00    -0.229 C  
BRANCH  21  22
HETATM   22  N   UNL     1     -11.240   8.331  71.420  1.00  0.00    -0.246 NA 
HETATM   23  C   UNL     1     -10.468   8.109  72.657  1.00  0.00    -0.330 C  
HETATM   24  C   UNL     1     -12.631   7.936  71.674  1.00  0.00    -0.321 C  
ENDBRANCH  21  22
ENDBRANCH  20  21
ENDBRANCH  18  20
ENDBRANCH  14  15
ENDBRANCH  13  14
ENDBRANCH   4  13
BRANCH   8  25
HETATM   25  N   UNL     1     -10.049  14.912  68.898  1.00  0.00    -0.231 N  
HETATM   26  C   UNL     1     -10.951  15.850  69.351  1.00  0.00    -0.309 C  
HETATM   27  H   UNL     1      -9.714  14.196  69.544  1.00  0.00     0.000 HD 
HETATM   28  O   UNL     1     -11.490  16.665  68.602  1.00  0.00    -0.255 OA 
BRANCH  26  29
HETATM   29  C   UNL     1     -11.215  15.815  70.841  1.00  0.00    -0.404 C  
BRANCH  29  30
HETATM   30  C   UNL     1     -12.031  14.629  71.215  1.00  0.00    -0.343 A  
HETATM   31  N   UNL     1     -12.588  11.226  70.578  1.00  0.00    -0.274 NA 
HETATM   32  C   UNL     1     -13.013  14.574  72.186  1.00  0.00    -0.346 A  
HETATM   33  S   UNL     1     -13.659  12.993  72.279  1.00  0.00    -0.445 SA 
HETATM   34  H2  UNL     1     -13.227  10.547  70.991  1.00  0.00     0.000 HD 
HETATM   35  H1  UNL     1     -11.957  10.930  69.834  1.00  0.00     0.000 HD 
HETATM   36  N   UNL     1     -11.795  13.424  70.562  1.00  0.00    -0.231 NA 
HETATM   37  C   UNL     1     -12.597  12.495  71.028  1.00  0.00    -0.256 A  
ENDBRANCH  29  30
ENDBRANCH  26  29
ENDBRANCH   8  25
TORSDOF 9
ENDMDL
MODEL       50
REMARK 921   NORMALIZED FREE ENERGY PREDICTED BY IDOCK:   -5.67 KCAL/MOL
REMARK 922        TOTAL FREE ENERGY PREDICTED BY IDOCK:  -10.60 KCAL/MOL
REMARK 923 INTER-LIGAND FREE ENERGY PREDICTED BY IDOCK:   -9.14 KCAL/MOL
REMARK 924 INTRA-LIGAND FREE ENERGY PREDICTED BY IDOCK:   -1.46 KCAL/MOL
REMARK 927      BINDING AFFINITY PREDICTED BY RF-SCORE:    0.00 PKD
ROOT
HETATM    1  C   UNL     1      -8.708   9.849  67.714  1.00  0.00    -0.129 C  
HETATM    2  S   UNL     1     -10.514   9.773  67.697  1.00  0.00    -0.267 SA 
HETATM    3  C   UNL     1     -10.682  11.062  66.443  1.00  0.00    -0.227 C  
HETATM    4  C   UNL     1      -9.844  12.311  66.685  1.00  0.00    -0.230 C  
HETATM    5  C   UNL     1      -7.581  10.831  69.176  1.00  0.00    -0.133 C  
HETATM    6  CA  UNL     1      -8.747  12.345  67.500  1.00  0.00    -0.179 C  
HETATM    7  C   UNL     1      -8.012  13.651  67.733  1.00  0.00    -0.172 C  
HETATM    8  CA  UNL     1      -8.017   9.339  69.020  1.00  0.00    -0.097 C  
HETATM    9  N   UNL     1      -8.315  11.192  68.104  1.00  0.00    -0.130 N  
HETATM   10  O   UNL     1      -7.249  13.750  68.834  1.00  0.00    -0.109 OA 
HETATM   11  OXT UNL     1      -8.078  14.597  66.960  1.00  0.00    -0.201 OA 
HETATM   12  O   UNL     1      -6.983  11.518  69.976  1.00  0.00     0.008 OA 
ENDROOT
BRANCH   4  13
HETATM   13  C   UNL     1     -10.487  13.535  66.021  1.00  0.00    -0.299 C  
BRANCH  13  14
HETATM   14  S   UNL     1     -12.049  14.044  66.825  1.00  0.00    -0.414 SA 
BRANCH  14  15
HETATM   15  C   UNL     1     -11.557  15.333  67.857  1.00  0.00    -0.289 A  
HETATM   16  N   UNL     1     -10.789  16.343  67.516  1.00  0.00    -0.290 NA 
HETATM   17  N   UNL     1     -10.583  17.072  68.658  1.00  0.00    -0.357 NA 
HETATM   18  N   UNL     1     -11.876  15.460  69.184  1.00  0.00    -0.341 NA 
HETATM   19  N   UNL     1     -11.229  16.536  69.683  1.00  0.00    -0.235 NA 
BRANCH  18  20
HETATM   20  C   UNL     1     -12.765  14.717  70.060  1.00  0.00    -0.152 C  
BRANCH  20  21
HETATM   21  C   UNL     1     -12.108  14.497  71.434  1.00  0.00    -0.354 C  
BRANCH  21  22
HETATM   22  N   UNL     1     -12.994  14.474  72.620  1.00  0.00    -0.424 NA 
HETATM   23  C   UNL     1     -14.234  13.756  72.272  1.00  0.00    -0.467 C  
HETATM   24  C   UNL     1     -13.362  15.813  73.097  1.00  0.00    -0.587 C  
ENDBRANCH  21  22
ENDBRANCH  20  21
ENDBRANCH  18  20
ENDBRANCH  14  15
ENDBRANCH  13  14
ENDBRANCH   4  13
BRANCH   8  25
HETATM   25  N   UNL     1      -8.913   8.822  70.098  1.00  0.00    -0.157 N  
HETATM   26  C   UNL     1      -8.477   8.657  71.396  1.00  0.00    -0.188 C  
HETATM   27  H   UNL     1      -9.877   8.583  69.867  1.00  0.00     0.000 HD 
HETATM   28  O   UNL     1      -7.370   9.037  71.775  1.00  0.00    -0.301 OA 
BRANCH  26  29
HETATM   29  C   UNL     1      -9.457   7.958  72.314  1.00  0.00    -0.248 C  
BRANCH  29  30
HETATM   30  C   UNL     1     -10.831   8.507  72.154  1.00  0.00    -0.357 A  
HETATM   31  N   UNL     1     -12.737  11.054  70.681  1.00  0.00    -0.313 NA 
HETATM   32  C   UNL     1     -11.997   7.979  72.673  1.00  0.00    -0.277 A  
HETATM   33  S   UNL     1     -13.335   8.938  72.205  1.00  0.00    -0.465 SA 
HETATM   34  H2  UNL     1     -13.739  11.249  70.680  1.00  0.00     0.000 HD 
HETATM   35  H1  UNL     1     -12.108  11.676  70.175  1.00  0.00     0.000 HD 
HETATM   36  N   UNL     1     -11.005   9.655  71.389  1.00  0.00    -0.344 NA 
HETATM   37  C   UNL     1     -12.276   9.983  71.352  1.00  0.00    -0.416 A  
ENDBRANCH  29  30
ENDBRANCH  26  29
ENDBRANCH   8  25
TORSDOF 9
ENDMDL
MODEL       51
REMARK 921   NORMALIZED FREE ENERGY PREDICTED BY IDOCK:   -5.66 KCAL/MOL
REMARK 922        TOTAL FREE ENERGY PREDICTED BY IDOCK:  -10.58 KCAL/MOL
REMARK 923 INTER-LIGAND FREE ENERGY PREDICTED BY IDOCK:   -8.99 KCAL/MOL
REMARK 924 INTRA-LIGAND FREE ENERGY PREDICTED BY IDOCK:   -1.60 KCAL/MOL
REMARK 927      BINDING AFFINITY PREDICTED BY RF-SCORE:    0.00 PKD
ROOT
HETATM    1  C   UNL     1      -8.058   8.632  69.103  1.00  0.00    -0.116 C  
HETATM    2  S   UNL     1      -9.839   8.736  68.815  1.00  0.00    -0.176 SA 
HETATM    3  C   UNL     1      -9.660   9.495  67.186  1.00  0.00    -0.160 C  
HETATM    4  C   UNL     1      -8.676  10.657  67.120  1.00  0.00    -0.130 C  
HETATM    5  C   UNL     1      -6.976   9.958  70.303  1.00  0.00    -0.146 C  
HETATM    6  CA  UNL     1      -7.691  10.873  68.043  1.00  0.00    -0.101 C  
HETATM    7  C   UNL     1      -6.800  12.094  67.932  1.00  0.00    -0.095 C  
HETATM    8  CA  UNL     1      -7.612   8.563  70.599  1.00  0.00    -0.076 C  
HETATM    9  N   UNL     1      -7.514   9.979  69.067  1.00  0.00    -0.081 N  
HETATM   10  O   UNL     1      -6.166  12.508  69.042  1.00  0.00    -0.074 OA 
HETATM   11  OXT UNL     1      -6.629  12.699  66.882  1.00  0.00    -0.095 OA 
HETATM   12  O   UNL     1      -6.379  10.825  70.907  1.00  0.00    -0.351 OA 
ENDROOT
BRANCH   4  13
HETATM   13  C   UNL     1      -9.043  11.615  65.980  1.00  0.00    -0.182 C  
BRANCH  13  14
HETATM   14  S   UNL     1     -10.178  10.868  64.757  1.00  0.00    -0.334 SA 
BRANCH  14  15
HETATM   15  C   UNL     1     -11.287  12.143  64.420  1.00  0.00    -0.344 A  
HETATM   16  N   UNL     1     -11.629  12.572  63.226  1.00  0.00    -0.446 NA 
HETATM   17  N   UNL     1     -12.455  13.646  63.427  1.00  0.00    -0.800 NA 
HETATM   18  N   UNL     1     -11.937  12.904  65.357  1.00  0.00    -0.399 NA 
HETATM   19  N   UNL     1     -12.639  13.867  64.720  1.00  0.00    -0.654 NA 
BRANCH  18  20
HETATM   20  C   UNL     1     -12.028  12.821  66.804  1.00  0.00    -0.319 C  
BRANCH  20  21
HETATM   21  C   UNL     1     -12.160  14.226  67.418  1.00  0.00    -0.336 C  
BRANCH  21  22
HETATM   22  N   UNL     1     -10.957  14.810  68.054  1.00  0.00    -0.263 NA 
HETATM   23  C   UNL     1     -11.308  15.255  69.415  1.00  0.00    -0.294 C  
HETATM   24  C   UNL     1     -10.416  15.963  67.324  1.00  0.00    -0.310 C  
ENDBRANCH  21  22
ENDBRANCH  20  21
ENDBRANCH  18  20
ENDBRANCH  14  15
ENDBRANCH  13  14
ENDBRANCH   4  13
BRANCH   8  25
HETATM   25  N   UNL     1      -8.697   8.562  71.626  1.00  0.00    -0.182 N  
HETATM   26  C   UNL     1      -8.807   7.568  72.575  1.00  0.00    -0.132 C  
HETATM   27  H   UNL     1      -9.379   9.322  71.625  1.00  0.00     0.000 HD 
HETATM   28  O   UNL     1      -7.956   6.691  72.715  1.00  0.00    -0.101 OA 
BRANCH  26  29
HETATM   29  C   UNL     1     -10.062   7.628  73.420  1.00  0.00    -0.379 C  
BRANCH  29  30
HETATM   30  C   UNL     1     -11.280   7.710  72.569  1.00  0.00    -0.346 A  
HETATM   31  N   UNL     1     -13.362   9.873  70.758  1.00  0.00    -0.605 NA 
HETATM   32  C   UNL     1     -12.078   6.657  72.165  1.00  0.00    -0.259 A  
HETATM   33  S   UNL     1     -13.350   7.230  71.176  1.00  0.00    -0.056 SA 
HETATM   34  H2  UNL     1     -14.192   9.710  70.188  1.00  0.00     0.000 HD 
HETATM   35  H1  UNL     1     -13.010  10.824  70.865  1.00  0.00     0.000 HD 
HETATM   36  N   UNL     1     -11.676   8.954  72.089  1.00  0.00    -0.362 NA 
HETATM   37  C   UNL     1     -12.757   8.830  71.354  1.00  0.00    -0.283 A  
ENDBRANCH  29  30
ENDBRANCH  26  29
ENDBRANCH   8  25
TORSDOF 9
ENDMDL
MODEL       52
REMARK 921   NORMALIZED FREE ENERGY PREDICTED BY IDOCK:   -5.63 KCAL/MOL
REMARK 922        TOTAL FREE ENERGY PREDICTED BY IDOCK:  -10.53 KCAL/MOL
REMARK 923 INTER-LIGAND FREE ENERGY PREDICTED BY IDOCK:   -8.60 KCAL/MOL
REMARK 924 INTRA-LIGAND FREE ENERGY PREDICTED BY IDOCK:   -1.93 KCAL/MOL
REMARK 927      BINDING AFFINITY PREDICTED BY RF-SCORE:    0.00 PKD
ROOT
HETATM    1  C   UNL     1      -9.967   9.609  69.528  1.00  0.00    -0.209 C  
HETATM    2  S   UNL     1     -11.411  10.178  70.453  1.00  0.00    -0.342 SA 
HETATM    3  C   UNL     1     -11.315   8.847  71.670  1.00  0.00    -0.337 C  
HETATM    4  C   UNL     1     -11.121   7.452  71.087  1.00  0.00    -0.271 C  
HETATM    5  C   UNL     1     -10.059   8.534  67.738  1.00  0.00    -0.211 C  
HETATM    6  CA  UNL     1     -10.636   7.214  69.832  1.00  0.00    -0.230 C  
HETATM    7  C   UNL     1     -10.540   5.793  69.311  1.00  0.00    -0.306 C  
HETATM    8  CA  UNL     1      -9.895  10.058  68.033  1.00  0.00    -0.142 C  
HETATM    9  N   UNL     1     -10.237   8.265  69.047  1.00  0.00    -0.214 N  
HETATM   10  O   UNL     1     -10.488   5.617  67.980  1.00  0.00    -0.205 OA 
HETATM   11  OXT UNL     1     -10.494   4.817  70.048  1.00  0.00    -0.194 OA 
HETATM   12  O   UNL     1     -10.169   7.807  66.773  1.00  0.00    -0.273 OA 
ENDROOT
BRANCH   4  13
HETATM   13  C   UNL     1     -11.683   6.385  72.033  1.00  0.00    -0.329 C  
BRANCH  13  14
HETATM   14  S   UNL     1     -10.709   6.209  73.571  1.00  0.00    -0.193 SA 
BRANCH  14  15
HETATM   15  C   UNL     1      -9.437   5.143  73.110  1.00  0.00    -0.134 A  
HETATM   16  N   UNL     1      -9.452   3.833  73.216  1.00  0.00    -0.104 NA 
HETATM   17  N   UNL     1      -8.214   3.401  72.821  1.00  0.00    -0.079 NA 
HETATM   18  N   UNL     1      -8.222   5.521  72.600  1.00  0.00    -0.113 NA 
HETATM   19  N   UNL     1      -7.451   4.422  72.457  1.00  0.00    -0.076 NA 
BRANCH  18  20
HETATM   20  C   UNL     1      -7.687   6.804  72.175  1.00  0.00    -0.095 C  
BRANCH  20  21
HETATM   21  C   UNL     1      -6.641   6.609  71.062  1.00  0.00    -0.053 C  
BRANCH  21  22
HETATM   22  N   UNL     1      -7.121   6.626  69.662  1.00  0.00    -0.067 NA 
HETATM   23  C   UNL     1      -6.763   5.346  69.023  1.00  0.00    -0.053 C  
HETATM   24  C   UNL     1      -6.543   7.712  68.861  1.00  0.00    -0.049 C  
ENDBRANCH  21  22
ENDBRANCH  20  21
ENDBRANCH  18  20
ENDBRANCH  14  15
ENDBRANCH  13  14
ENDBRANCH   4  13
BRANCH   8  25
HETATM   25  N   UNL     1     -11.004  10.927  67.536  1.00  0.00    -0.274 N  
HETATM   26  C   UNL     1     -10.990  11.483  66.275  1.00  0.00    -0.275 C  
HETATM   27  H   UNL     1     -11.797  11.114  68.150  1.00  0.00     0.000 HD 
HETATM   28  O   UNL     1     -10.132  11.204  65.439  1.00  0.00    -0.238 OA 
BRANCH  26  29
HETATM   29  C   UNL     1     -12.101  12.475  66.002  1.00  0.00    -0.390 C  
BRANCH  29  30
HETATM   30  C   UNL     1     -11.569  13.859  65.884  1.00  0.00    -0.340 A  
HETATM   31  N   UNL     1     -11.444  16.710  63.847  1.00  0.00    -1.469 NA 
HETATM   32  C   UNL     1     -10.811  14.536  66.821  1.00  0.00    -0.305 A  
HETATM   33  S   UNL     1     -10.452  16.111  66.258  1.00  0.00    -0.296 SA 
HETATM   34  H2  UNL     1     -11.011  17.624  63.972  1.00  0.00     0.000 HD 
HETATM   35  H1  UNL     1     -11.961  16.516  62.989  1.00  0.00     0.000 HD 
HETATM   36  N   UNL     1     -11.863  14.591  64.739  1.00  0.00    -0.420 NA 
HETATM   37  C   UNL     1     -11.321  15.785  64.816  1.00  0.00    -0.314 A  
ENDBRANCH  29  30
ENDBRANCH  26  29
ENDBRANCH   8  25
TORSDOF 9
ENDMDL
MODEL       53
REMARK 921   NORMALIZED FREE ENERGY PREDICTED BY IDOCK:   -5.62 KCAL/MOL
REMARK 922        TOTAL FREE ENERGY PREDICTED BY IDOCK:  -10.52 KCAL/MOL
REMARK 923 INTER-LIGAND FREE ENERGY PREDICTED BY IDOCK:   -9.30 KCAL/MOL
REMARK 924 INTRA-LIGAND FREE ENERGY PREDICTED BY IDOCK:   -1.22 KCAL/MOL
REMARK 927      BINDING AFFINITY PREDICTED BY RF-SCORE:    0.00 PKD
ROOT
HETATM    1  C   UNL     1     -11.770  14.413  67.814  1.00  0.00    -0.376 C  
HETATM    2  S   UNL     1     -10.264  14.509  68.808  1.00  0.00    -0.238 SA 
HETATM    3  C   UNL     1     -10.225  16.315  68.804  1.00  0.00    -0.249 C  
HETATM    4  C   UNL     1     -10.437  16.961  67.440  1.00  0.00    -0.310 C  
HETATM    5  C   UNL     1     -11.810  13.990  65.767  1.00  0.00    -0.383 C  
HETATM    6  CA  UNL     1     -11.023  16.328  66.381  1.00  0.00     0.004 C  
HETATM    7  C   UNL     1     -11.132  17.029  65.040  1.00  0.00     0.098 C  
HETATM    8  CA  UNL     1     -11.983  13.081  67.025  1.00  0.00    -0.347 C  
HETATM    9  N   UNL     1     -11.512  15.056  66.537  1.00  0.00    -0.293 N  
HETATM   10  O   UNL     1     -11.295  16.265  63.947  1.00  0.00    -0.834 OA 
HETATM   11  OXT UNL     1     -11.091  18.246  64.922  1.00  0.00    -0.615 OA 
HETATM   12  O   UNL     1     -11.767  13.865  64.562  1.00  0.00    -0.376 OA 
ENDROOT
BRANCH   4  13
HETATM   13  C   UNL     1      -9.770  18.341  67.384  1.00  0.00    -0.296 C  
BRANCH  13  14
HETATM   14  S   UNL     1      -8.010  18.263  66.890  1.00  0.00    -0.243 SA 
BRANCH  14  15
HETATM   15  C   UNL     1      -7.177  18.649  68.348  1.00  0.00    -0.280 A  
HETATM   16  N   UNL     1      -6.978  19.857  68.826  1.00  0.00    -0.328 NA 
HETATM   17  N   UNL     1      -6.201  19.704  69.944  1.00  0.00    -0.312 NA 
HETATM   18  N   UNL     1      -6.579  17.746  69.189  1.00  0.00    -0.243 NA 
HETATM   19  N   UNL     1      -5.940  18.424  70.168  1.00  0.00    -0.185 NA 
BRANCH  18  20
HETATM   20  C   UNL     1      -6.564  16.294  69.228  1.00  0.00    -0.197 C  
BRANCH  20  21
HETATM   21  C   UNL     1      -5.256  15.785  69.859  1.00  0.00    -0.119 C  
BRANCH  21  22
HETATM   22  N   UNL     1      -5.166  14.341  70.173  1.00  0.00    -0.090 NA 
HETATM   23  C   UNL     1      -5.873  13.582  69.125  1.00  0.00    -0.085 C  
HETATM   24  C   UNL     1      -5.760  13.989  71.469  1.00  0.00    -0.225 C  
ENDBRANCH  21  22
ENDBRANCH  20  21
ENDBRANCH  18  20
ENDBRANCH  14  15
ENDBRANCH  13  14
ENDBRANCH   4  13
BRANCH   8  25
HETATM   25  N   UNL     1     -10.940  12.024  67.195  1.00  0.00    -0.255 N  
HETATM   26  C   UNL     1     -11.117  10.951  68.041  1.00  0.00    -0.293 C  
HETATM   27  H   UNL     1     -10.070  12.099  66.667  1.00  0.00     0.000 HD 
HETATM   28  O   UNL     1     -12.183  10.728  68.614  1.00  0.00    -0.472 OA 
BRANCH  26  29
HETATM   29  C   UNL     1      -9.895  10.076  68.226  1.00  0.00    -0.163 C  
BRANCH  29  30
HETATM   30  C   UNL     1     -10.258   8.633  68.205  1.00  0.00    -0.198 A  
HETATM   31  N   UNL     1     -11.366   5.934  70.150  1.00  0.00    -0.280 NA 
HETATM   32  C   UNL     1     -10.269   7.800  67.102  1.00  0.00    -0.295 A  
HETATM   33  S   UNL     1     -10.779   6.232  67.556  1.00  0.00    -0.354 SA 
HETATM   34  H2  UNL     1     -11.588   4.966  69.918  1.00  0.00     0.000 HD 
HETATM   35  H1  UNL     1     -11.465   6.251  71.114  1.00  0.00     0.000 HD 
HETATM   36  N   UNL     1     -10.659   8.028  69.391  1.00  0.00    -0.226 NA 
HETATM   37  C   UNL     1     -10.947   6.765  69.178  1.00  0.00    -0.244 A  
ENDBRANCH  29  30
ENDBRANCH  26  29
ENDBRANCH   8  25
TORSDOF 9
ENDMDL
MODEL       54
REMARK 921   NORMALIZED FREE ENERGY PREDICTED BY IDOCK:   -5.61 KCAL/MOL
REMARK 922        TOTAL FREE ENERGY PREDICTED BY IDOCK:  -10.51 KCAL/MOL
REMARK 923 INTER-LIGAND FREE ENERGY PREDICTED BY IDOCK:   -8.92 KCAL/MOL
REMARK 924 INTRA-LIGAND FREE ENERGY PREDICTED BY IDOCK:   -1.59 KCAL/MOL
REMARK 927      BINDING AFFINITY PREDICTED BY RF-SCORE:    0.00 PKD
ROOT
HETATM    1  C   UNL     1      -9.951   9.523  67.525  1.00  0.00    -0.186 C  
HETATM    2  S   UNL     1      -8.234  10.071  67.655  1.00  0.00    -0.114 SA 
HETATM    3  C   UNL     1      -7.879   9.033  69.090  1.00  0.00    -0.093 C  
HETATM    4  C   UNL     1      -8.920   9.089  70.201  1.00  0.00    -0.200 C  
HETATM    5  C   UNL     1     -11.596  10.621  68.201  1.00  0.00    -0.136 C  
HETATM    6  CA  UNL     1     -10.205   9.516  70.018  1.00  0.00    -0.244 C  
HETATM    7  C   UNL     1     -11.154   9.600  71.198  1.00  0.00    -0.374 C  
HETATM    8  CA  UNL     1     -10.926  10.502  66.795  1.00  0.00    -0.080 C  
HETATM    9  N   UNL     1     -10.632   9.865  68.762  1.00  0.00    -0.214 N  
HETATM   10  O   UNL     1     -12.222  10.408  71.084  1.00  0.00    -0.336 OA 
HETATM   11  OXT UNL     1     -10.993   8.960  72.227  1.00  0.00    -0.337 OA 
HETATM   12  O   UNL     1     -12.501  11.240  68.720  1.00  0.00    -0.444 OA 
ENDROOT
BRANCH   4  13
HETATM   13  C   UNL     1      -8.287   8.754  71.557  1.00  0.00    -0.152 C  
BRANCH  13  14
HETATM   14  S   UNL     1      -7.765   7.006  71.688  1.00  0.00    -0.094 SA 
BRANCH  14  15
HETATM   15  C   UNL     1      -9.123   6.246  72.427  1.00  0.00    -0.138 A  
HETATM   16  N   UNL     1      -9.554   6.456  73.650  1.00  0.00    -0.154 NA 
HETATM   17  N   UNL     1     -10.591   5.583  73.847  1.00  0.00    -0.277 NA 
HETATM   18  N   UNL     1      -9.918   5.292  71.845  1.00  0.00    -0.181 NA 
HETATM   19  N   UNL     1     -10.813   4.859  72.760  1.00  0.00    -0.227 NA 
BRANCH  18  20
HETATM   20  C   UNL     1      -9.984   4.749  70.499  1.00  0.00    -0.236 C  
BRANCH  20  21
HETATM   21  C   UNL     1     -10.557   5.793  69.525  1.00  0.00    -0.319 C  
BRANCH  21  22
HETATM   22  N   UNL     1      -9.798   6.057  68.281  1.00  0.00    -0.127 NA 
HETATM   23  C   UNL     1     -10.553   5.508  67.139  1.00  0.00    -0.240 C  
HETATM   24  C   UNL     1      -8.461   5.451  68.276  1.00  0.00    -0.097 C  
ENDBRANCH  21  22
ENDBRANCH  20  21
ENDBRANCH  18  20
ENDBRANCH  14  15
ENDBRANCH  13  14
ENDBRANCH   4  13
BRANCH   8  25
HETATM   25  N   UNL     1     -10.336  11.767  66.262  1.00  0.00    -0.218 N  
HETATM   26  C   UNL     1     -11.102  12.723  65.631  1.00  0.00    -0.279 C  
HETATM   27  H   UNL     1      -9.334  11.927  66.368  1.00  0.00     0.000 HD 
HETATM   28  O   UNL     1     -12.330  12.656  65.576  1.00  0.00    -0.563 OA 
BRANCH  26  29
HETATM   29  C   UNL     1     -10.319  13.853  64.998  1.00  0.00    -0.418 C  
BRANCH  29  30
HETATM   30  C   UNL     1     -10.389  15.087  65.826  1.00  0.00    -0.335 A  
HETATM   31  N   UNL     1     -10.316  18.592  65.747  1.00  0.00    -0.609 NA 
HETATM   32  C   UNL     1     -10.576  15.154  67.194  1.00  0.00    -0.295 A  
HETATM   33  S   UNL     1     -10.615  16.788  67.701  1.00  0.00    -0.300 SA 
HETATM   34  H2  UNL     1     -10.409  19.297  66.478  1.00  0.00     0.000 HD 
HETATM   35  H1  UNL     1     -10.176  18.889  64.782  1.00  0.00     0.000 HD 
HETATM   36  N   UNL     1     -10.286  16.321  65.194  1.00  0.00    -0.603 NA 
HETATM   37  C   UNL     1     -10.380  17.289  66.077  1.00  0.00    -0.305 A  
ENDBRANCH  29  30
ENDBRANCH  26  29
ENDBRANCH   8  25
TORSDOF 9
ENDMDL
MODEL       55
REMARK 921   NORMALIZED FREE ENERGY PREDICTED BY IDOCK:   -5.61 KCAL/MOL
REMARK 922        TOTAL FREE ENERGY PREDICTED BY IDOCK:  -10.50 KCAL/MOL
REMARK 923 INTER-LIGAND FREE ENERGY PREDICTED BY IDOCK:   -9.04 KCAL/MOL
REMARK 924 INTRA-LIGAND FREE ENERGY PREDICTED BY IDOCK:   -1.46 KCAL/MOL
REMARK 927      BINDING AFFINITY PREDICTED BY RF-SCORE:    0.00 PKD
ROOT
HETATM    1  C   UNL     1     -11.682  10.847  68.020  1.00  0.00    -0.124 C  
HETATM    2  S   UNL     1     -11.318  12.350  68.954  1.00  0.00    -0.314 SA 
HETATM    3  C   UNL     1     -12.159  13.435  67.780  1.00  0.00    -0.259 C  
HETATM    4  C   UNL     1     -11.818  13.189  66.316  1.00  0.00    -0.455 C  
HETATM    5  C   UNL     1     -10.315   9.867  66.779  1.00  0.00    -0.217 C  
HETATM    6  CA  UNL     1     -11.281  12.023  65.845  1.00  0.00    -0.337 C  
HETATM    7  C   UNL     1     -10.911  11.894  64.380  1.00  0.00    -0.337 C  
HETATM    8  CA  UNL     1     -10.721   9.640  68.270  1.00  0.00    -0.217 C  
HETATM    9  N   UNL     1     -11.080  10.974  66.704  1.00  0.00    -0.199 N  
HETATM   10  O   UNL     1     -10.015  10.951  64.043  1.00  0.00    -0.286 OA 
HETATM   11  OXT UNL     1     -11.402  12.595  63.506  1.00  0.00    -0.458 OA 
HETATM   12  O   UNL     1      -9.526   9.411  65.978  1.00  0.00    -0.200 OA 
ENDROOT
BRANCH   4  13
HETATM   13  C   UNL     1     -12.012  14.467  65.491  1.00  0.00    -0.358 C  
BRANCH  13  14
HETATM   14  S   UNL     1     -10.444  15.349  65.162  1.00  0.00    -0.385 SA 
BRANCH  14  15
HETATM   15  C   UNL     1      -9.616  15.254  66.670  1.00  0.00    -0.257 A  
HETATM   16  N   UNL     1      -8.619  14.446  66.953  1.00  0.00    -0.199 NA 
HETATM   17  N   UNL     1      -8.331  14.641  68.278  1.00  0.00    -0.141 NA 
HETATM   18  N   UNL     1      -9.911  15.987  67.791  1.00  0.00    -0.232 NA 
HETATM   19  N   UNL     1      -9.120  15.567  68.803  1.00  0.00    -0.193 NA 
BRANCH  18  20
HETATM   20  C   UNL     1     -10.826  17.088  68.036  1.00  0.00    -0.330 C  
BRANCH  20  21
HETATM   21  C   UNL     1     -10.046  18.376  68.356  1.00  0.00    -0.390 C  
BRANCH  21  22
HETATM   22  N   UNL     1      -8.908  18.723  67.474  1.00  0.00    -0.273 NA 
HETATM   23  C   UNL     1      -7.731  19.019  68.312  1.00  0.00    -0.311 C  
HETATM   24  C   UNL     1      -9.167  19.891  66.624  1.00  0.00    -0.385 C  
ENDBRANCH  21  22
ENDBRANCH  20  21
ENDBRANCH  18  20
ENDBRANCH  14  15
ENDBRANCH  13  14
ENDBRANCH   4  13
BRANCH   8  25
HETATM   25  N   UNL     1      -9.627   9.845  69.267  1.00  0.00    -0.193 N  
HETATM   26  C   UNL     1      -8.681   8.876  69.525  1.00  0.00    -0.142 C  
HETATM   27  H   UNL     1      -9.579  10.730  69.772  1.00  0.00     0.000 HD 
HETATM   28  O   UNL     1      -8.602   7.837  68.870  1.00  0.00    -0.131 OA 
BRANCH  26  29
HETATM   29  C   UNL     1      -7.757   9.180  70.686  1.00  0.00    -0.152 C  
BRANCH  29  30
HETATM   30  C   UNL     1      -8.240   8.539  71.939  1.00  0.00    -0.142 A  
HETATM   31  N   UNL     1     -11.082   7.474  73.693  1.00  0.00    -0.513 NA 
HETATM   32  C   UNL     1      -7.461   8.063  72.976  1.00  0.00    -0.127 A  
HETATM   33  S   UNL     1      -8.455   7.387  74.194  1.00  0.00    -0.220 SA 
HETATM   34  H2  UNL     1     -11.199   7.006  74.592  1.00  0.00     0.000 HD 
HETATM   35  H1  UNL     1     -11.908   7.704  73.141  1.00  0.00     0.000 HD 
HETATM   36  N   UNL     1      -9.608   8.360  72.112  1.00  0.00    -0.268 NA 
HETATM   37  C   UNL     1      -9.843   7.774  73.263  1.00  0.00    -0.299 A  
ENDBRANCH  29  30
ENDBRANCH  26  29
ENDBRANCH   8  25
TORSDOF 9
ENDMDL
MODEL       56
REMARK 921   NORMALIZED FREE ENERGY PREDICTED BY IDOCK:   -5.59 KCAL/MOL
REMARK 922        TOTAL FREE ENERGY PREDICTED BY IDOCK:  -10.47 KCAL/MOL
REMARK 923 INTER-LIGAND FREE ENERGY PREDICTED BY IDOCK:   -9.21 KCAL/MOL
REMARK 924 INTRA-LIGAND FREE ENERGY PREDICTED BY IDOCK:   -1.26 KCAL/MOL
REMARK 927      BINDING AFFINITY PREDICTED BY RF-SCORE:    0.00 PKD
ROOT
HETATM    1  C   UNL     1     -11.837  11.784  67.813  1.00  0.00    -0.196 C  
HETATM    2  S   UNL     1     -11.186  12.436  69.368  1.00  0.00    -0.101 SA 
HETATM    3  C   UNL     1     -11.605  14.148  68.971  1.00  0.00    -0.304 C  
HETATM    4  C   UNL     1     -11.203  14.604  67.574  1.00  0.00    -0.343 C  
HETATM    5  C   UNL     1     -10.658  11.251  66.171  1.00  0.00    -0.258 C  
HETATM    6  CA  UNL     1     -10.944  13.749  66.540  1.00  0.00    -0.299 C  
HETATM    7  C   UNL     1     -10.485  14.292  65.201  1.00  0.00    -0.411 C  
HETATM    8  CA  UNL     1     -11.247  10.413  67.350  1.00  0.00    -0.129 C  
HETATM    9  N   UNL     1     -11.102  12.399  66.721  1.00  0.00    -0.270 N  
HETATM   10  O   UNL     1      -9.835  13.453  64.376  1.00  0.00    -0.168 OA 
HETATM   11  OXT UNL     1     -10.694  15.443  64.843  1.00  0.00    -0.420 OA 
HETATM   12  O   UNL     1      -9.943  11.075  65.207  1.00  0.00    -0.234 OA 
ENDROOT
BRANCH   4  13
HETATM   13  C   UNL     1     -10.983  16.121  67.540  1.00  0.00    -0.238 C  
BRANCH  13  14
HETATM   14  S   UNL     1      -9.820  16.702  68.826  1.00  0.00    -0.263 SA 
BRANCH  14  15
HETATM   15  C   UNL     1      -8.319  16.794  67.986  1.00  0.00    -0.200 A  
HETATM   16  N   UNL     1      -7.730  15.807  67.349  1.00  0.00    -0.165 NA 
HETATM   17  N   UNL     1      -6.528  16.296  66.910  1.00  0.00    -0.286 NA 
HETATM   18  N   UNL     1      -7.520  17.904  67.897  1.00  0.00    -0.212 NA 
HETATM   19  N   UNL     1      -6.383  17.568  67.250  1.00  0.00    -0.141 NA 
BRANCH  18  20
HETATM   20  C   UNL     1      -7.702  19.286  68.307  1.00  0.00    -0.316 C  
BRANCH  20  21
HETATM   21  C   UNL     1      -8.207  20.137  67.127  1.00  0.00    -0.332 C  
BRANCH  21  22
HETATM   22  N   UNL     1      -9.649  20.471  67.092  1.00  0.00    -0.441 NA 
HETATM   23  C   UNL     1     -10.285  19.953  68.318  1.00  0.00    -0.434 C  
HETATM   24  C   UNL     1     -10.351  19.897  65.938  1.00  0.00    -0.464 C  
ENDBRANCH  21  22
ENDBRANCH  20  21
ENDBRANCH  18  20
ENDBRANCH  14  15
ENDBRANCH  13  14
ENDBRANCH   4  13
BRANCH   8  25
HETATM   25  N   UNL     1     -10.236   9.777  68.247  1.00  0.00    -0.175 N  
HETATM   26  C   UNL     1     -10.142   8.409  68.392  1.00  0.00    -0.198 C  
HETATM   27  H   UNL     1      -9.593  10.374  68.768  1.00  0.00     0.000 HD 
HETATM   28  O   UNL     1     -10.797   7.625  67.706  1.00  0.00    -0.170 OA 
BRANCH  26  29
HETATM   29  C   UNL     1      -9.186   7.945  69.470  1.00  0.00    -0.152 C  
BRANCH  29  30
HETATM   30  C   UNL     1      -9.866   7.855  70.790  1.00  0.00    -0.180 A  
HETATM   31  N   UNL     1     -12.869   8.438  72.504  1.00  0.00    -0.587 NA 
HETATM   32  C   UNL     1      -9.330   7.362  71.964  1.00  0.00    -0.132 A  
HETATM   33  S   UNL     1     -10.493   7.434  73.217  1.00  0.00    -0.375 SA 
HETATM   34  H2  UNL     1     -13.150   8.275  73.471  1.00  0.00     0.000 HD 
HETATM   35  H1  UNL     1     -13.539   8.843  71.852  1.00  0.00     0.000 HD 
HETATM   36  N   UNL     1     -11.187   8.278  70.889  1.00  0.00    -0.262 NA 
HETATM   37  C   UNL     1     -11.621   8.115  72.118  1.00  0.00    -0.357 A  
ENDBRANCH  29  30
ENDBRANCH  26  29
ENDBRANCH   8  25
TORSDOF 9
ENDMDL
MODEL       57
REMARK 921   NORMALIZED FREE ENERGY PREDICTED BY IDOCK:   -5.56 KCAL/MOL
REMARK 922        TOTAL FREE ENERGY PREDICTED BY IDOCK:  -10.43 KCAL/MOL
REMARK 923 INTER-LIGAND FREE ENERGY PREDICTED BY IDOCK:   -9.15 KCAL/MOL
REMARK 924 INTRA-LIGAND FREE ENERGY PREDICTED BY IDOCK:   -1.27 KCAL/MOL
REMARK 927      BINDING AFFINITY PREDICTED BY RF-SCORE:    0.00 PKD
ROOT
HETATM    1  C   UNL     1     -10.894  13.281  67.453  1.00  0.00    -0.267 C  
HETATM    2  S   UNL     1      -9.107  13.024  67.375  1.00  0.00    -0.211 SA 
HETATM    3  C   UNL     1      -8.732  14.787  67.254  1.00  0.00    -0.210 C  
HETATM    4  C   UNL     1      -9.568  15.557  66.240  1.00  0.00    -0.338 C  
HETATM    5  C   UNL     1     -12.197  13.019  65.839  1.00  0.00    -0.432 C  
HETATM    6  CA  UNL     1     -10.769  15.119  65.756  1.00  0.00    -0.351 C  
HETATM    7  C   UNL     1     -11.500  15.922  64.697  1.00  0.00    -0.263 C  
HETATM    8  CA  UNL     1     -11.777  12.071  67.007  1.00  0.00    -0.267 C  
HETATM    9  N   UNL     1     -11.309  13.953  66.234  1.00  0.00    -0.317 N  
HETATM   10  O   UNL     1     -12.412  15.281  63.945  1.00  0.00    -0.737 OA 
HETATM   11  OXT UNL     1     -11.303  17.115  64.514  1.00  0.00    -1.034 OA 
HETATM   12  O   UNL     1     -12.888  12.974  64.844  1.00  0.00    -0.706 OA 
ENDROOT
BRANCH   4  13
HETATM   13  C   UNL     1      -8.809  16.789  65.733  1.00  0.00     0.129 C  
BRANCH  13  14
HETATM   14  S   UNL     1      -7.169  16.988  66.517  1.00  0.00    -0.277 SA 
BRANCH  14  15
HETATM   15  C   UNL     1      -6.534  18.393  65.746  1.00  0.00    -0.270 A  
HETATM   16  N   UNL     1      -6.289  18.524  64.462  1.00  0.00    -0.175 NA 
HETATM   17  N   UNL     1      -5.712  19.756  64.305  1.00  0.00    -0.234 NA 
HETATM   18  N   UNL     1      -6.167  19.553  66.377  1.00  0.00    -0.172 NA 
HETATM   19  N   UNL     1      -5.620  20.387  65.466  1.00  0.00    -0.176 NA 
BRANCH  18  20
HETATM   20  C   UNL     1      -6.306  20.017  67.747  1.00  0.00    -0.218 C  
BRANCH  20  21
HETATM   21  C   UNL     1      -5.477  19.137  68.701  1.00  0.00    -0.196 C  
BRANCH  21  22
HETATM   22  N   UNL     1      -6.071  18.806  70.016  1.00  0.00    -0.221 NA 
HETATM   23  C   UNL     1      -6.466  20.059  70.687  1.00  0.00    -0.135 C  
HETATM   24  C   UNL     1      -5.152  18.085  70.904  1.00  0.00    -0.263 C  
ENDBRANCH  21  22
ENDBRANCH  20  21
ENDBRANCH  18  20
ENDBRANCH  14  15
ENDBRANCH  13  14
ENDBRANCH   4  13
BRANCH   8  25
HETATM   25  N   UNL     1     -11.057  10.829  66.592  1.00  0.00    -0.121 N  
HETATM   26  C   UNL     1     -10.770   9.817  67.481  1.00  0.00    -0.264 C  
HETATM   27  H   UNL     1     -10.770  10.727  65.618  1.00  0.00     0.000 HD 
HETATM   28  O   UNL     1     -11.190   9.813  68.638  1.00  0.00    -0.141 OA 
BRANCH  26  29
HETATM   29  C   UNL     1      -9.883   8.718  66.934  1.00  0.00    -0.295 C  
BRANCH  29  30
HETATM   30  C   UNL     1      -8.670   9.280  66.282  1.00  0.00    -0.142 A  
HETATM   31  N   UNL     1      -7.377  10.594  63.299  1.00  0.00    -0.347 NA 
HETATM   32  C   UNL     1      -7.440   9.497  66.872  1.00  0.00    -0.094 A  
HETATM   33  S   UNL     1      -6.358  10.184  65.739  1.00  0.00    -0.111 SA 
HETATM   34  H2  UNL     1      -6.460  10.967  63.055  1.00  0.00     0.000 HD 
HETATM   35  H1  UNL     1      -8.110  10.569  62.591  1.00  0.00     0.000 HD 
HETATM   36  N   UNL     1      -8.748   9.664  64.947  1.00  0.00    -0.167 NA 
HETATM   37  C   UNL     1      -7.592  10.143  64.549  1.00  0.00    -0.130 A  
ENDBRANCH  29  30
ENDBRANCH  26  29
ENDBRANCH   8  25
TORSDOF 9
ENDMDL
MODEL       58
REMARK 921   NORMALIZED FREE ENERGY PREDICTED BY IDOCK:   -5.55 KCAL/MOL
REMARK 922        TOTAL FREE ENERGY PREDICTED BY IDOCK:  -10.41 KCAL/MOL
REMARK 923 INTER-LIGAND FREE ENERGY PREDICTED BY IDOCK:   -9.34 KCAL/MOL
REMARK 924 INTRA-LIGAND FREE ENERGY PREDICTED BY IDOCK:   -1.07 KCAL/MOL
REMARK 927      BINDING AFFINITY PREDICTED BY RF-SCORE:    0.00 PKD
ROOT
HETATM    1  C   UNL     1     -10.331   8.638  68.039  1.00  0.00    -0.223 C  
HETATM    2  S   UNL     1     -10.114   9.920  69.293  1.00  0.00    -0.218 SA 
HETATM    3  C   UNL     1     -11.296  11.050  68.525  1.00  0.00    -0.287 C  
HETATM    4  C   UNL     1     -11.129  11.234  67.022  1.00  0.00    -0.356 C  
HETATM    5  C   UNL     1      -9.002   8.289  66.464  1.00  0.00    -0.156 C  
HETATM    6  CA  UNL     1     -10.465  10.352  66.217  1.00  0.00    -0.159 C  
HETATM    7  C   UNL     1     -10.291  10.652  64.740  1.00  0.00    -0.283 C  
HETATM    8  CA  UNL     1      -9.143   7.636  67.875  1.00  0.00    -0.134 C  
HETATM    9  N   UNL     1      -9.957   9.196  66.750  1.00  0.00    -0.231 N  
HETATM   10  O   UNL     1      -9.298  10.026  64.088  1.00  0.00    -0.262 OA 
HETATM   11  OXT UNL     1     -11.021  11.421  64.129  1.00  0.00    -0.357 OA 
HETATM   12  O   UNL     1      -8.267   8.211  65.502  1.00  0.00    -0.127 OA 
ENDROOT
BRANCH   4  13
HETATM   13  C   UNL     1     -11.666  12.600  66.579  1.00  0.00    -0.400 C  
BRANCH  13  14
HETATM   14  S   UNL     1     -10.391  13.911  66.607  1.00  0.00    -0.283 SA 
BRANCH  14  15
HETATM   15  C   UNL     1     -10.988  15.063  65.473  1.00  0.00    -0.358 A  
HETATM   16  N   UNL     1     -11.929  14.851  64.581  1.00  0.00    -0.427 NA 
HETATM   17  N   UNL     1     -12.020  15.998  63.838  1.00  0.00    -0.814 NA 
HETATM   18  N   UNL     1     -10.535  16.349  65.327  1.00  0.00    -0.627 NA 
HETATM   19  N   UNL     1     -11.166  16.913  64.274  1.00  0.00    -1.099 NA 
BRANCH  18  20
HETATM   20  C   UNL     1      -9.599  17.157  66.089  1.00  0.00    -0.218 C  
BRANCH  20  21
HETATM   21  C   UNL     1     -10.323  18.348  66.743  1.00  0.00    -0.394 C  
BRANCH  21  22
HETATM   22  N   UNL     1     -10.360  18.397  68.222  1.00  0.00    -0.374 NA 
HETATM   23  C   UNL     1      -9.966  19.748  68.662  1.00  0.00    -0.434 C  
HETATM   24  C   UNL     1      -9.458  17.430  68.859  1.00  0.00    -0.201 C  
ENDBRANCH  21  22
ENDBRANCH  20  21
ENDBRANCH  18  20
ENDBRANCH  14  15
ENDBRANCH  13  14
ENDBRANCH   4  13
BRANCH   8  25
HETATM   25  N   UNL     1      -7.972   7.825  68.784  1.00  0.00    -0.123 N  
HETATM   26  C   UNL     1      -7.155   6.778  69.152  1.00  0.00    -0.088 C  
HETATM   27  H   UNL     1      -7.772   8.759  69.143  1.00  0.00     0.000 HD 
HETATM   28  O   UNL     1      -7.260   5.654  68.665  1.00  0.00    -0.073 OA 
BRANCH  26  29
HETATM   29  C   UNL     1      -6.128   7.113  70.215  1.00  0.00    -0.024 C  
BRANCH  29  30
HETATM   30  C   UNL     1      -6.754   7.187  71.562  1.00  0.00    -0.051 A  
HETATM   31  N   UNL     1      -7.980   5.303  74.253  1.00  0.00    -0.099 NA 
HETATM   32  C   UNL     1      -7.058   8.335  72.270  1.00  0.00    -0.095 A  
HETATM   33  S   UNL     1      -7.742   7.927  73.784  1.00  0.00    -0.183 SA 
HETATM   34  H2  UNL     1      -8.375   5.571  75.155  1.00  0.00     0.000 HD 
HETATM   35  H1  UNL     1      -7.890   4.315  74.022  1.00  0.00     0.000 HD 
HETATM   36  N   UNL     1      -7.057   6.002  72.223  1.00  0.00    -0.082 NA 
HETATM   37  C   UNL     1      -7.590   6.263  73.395  1.00  0.00    -0.095 A  
ENDBRANCH  29  30
ENDBRANCH  26  29
ENDBRANCH   8  25
TORSDOF 9
ENDMDL
MODEL       59
REMARK 921   NORMALIZED FREE ENERGY PREDICTED BY IDOCK:   -5.55 KCAL/MOL
REMARK 922        TOTAL FREE ENERGY PREDICTED BY IDOCK:  -10.41 KCAL/MOL
REMARK 923 INTER-LIGAND FREE ENERGY PREDICTED BY IDOCK:   -9.42 KCAL/MOL
REMARK 924 INTRA-LIGAND FREE ENERGY PREDICTED BY IDOCK:   -0.98 KCAL/MOL
REMARK 927      BINDING AFFINITY PREDICTED BY RF-SCORE:    0.00 PKD
ROOT
HETATM    1  C   UNL     1     -11.541  12.110  68.300  1.00  0.00    -0.325 C  
HETATM    2  S   UNL     1      -9.841  11.502  68.348  1.00  0.00    -0.204 SA 
HETATM    3  C   UNL     1     -10.306   9.876  68.984  1.00  0.00    -0.209 C  
HETATM    4  C   UNL     1     -11.280   9.897  70.156  1.00  0.00    -0.347 C  
HETATM    5  C   UNL     1     -12.383  13.377  69.734  1.00  0.00    -0.159 C  
HETATM    6  CA  UNL     1     -12.082  10.961  70.460  1.00  0.00    -0.371 C  
HETATM    7  C   UNL     1     -12.973  10.916  71.686  1.00  0.00    -0.464 C  
HETATM    8  CA  UNL     1     -11.711  13.663  68.353  1.00  0.00    -0.358 C  
HETATM    9  N   UNL     1     -12.076  12.067  69.650  1.00  0.00    -0.264 N  
HETATM   10  O   UNL     1     -13.395  12.085  72.195  1.00  0.00    -0.510 OA 
HETATM   11  OXT UNL     1     -13.326   9.869  72.212  1.00  0.00    -0.435 OA 
HETATM   12  O   UNL     1     -12.858  14.008  70.655  1.00  0.00    -0.316 OA 
ENDROOT
BRANCH   4  13
HETATM   13  C   UNL     1     -11.119   8.639  71.017  1.00  0.00    -0.264 C  
BRANCH  13  14
HETATM   14  S   UNL     1      -9.549   8.612  71.954  1.00  0.00    -0.311 SA 
BRANCH  14  15
HETATM   15  C   UNL     1      -9.673   7.168  72.887  1.00  0.00    -0.165 A  
HETATM   16  N   UNL     1     -10.560   6.931  73.826  1.00  0.00    -0.359 NA 
HETATM   17  N   UNL     1     -10.237   5.711  74.360  1.00  0.00    -0.271 NA 
HETATM   18  N   UNL     1      -8.839   6.084  72.795  1.00  0.00    -0.124 NA 
HETATM   19  N   UNL     1      -9.182   5.192  73.750  1.00  0.00    -0.125 NA 
BRANCH  18  20
HETATM   20  C   UNL     1      -7.764   5.741  71.879  1.00  0.00    -0.105 C  
BRANCH  20  21
HETATM   21  C   UNL     1      -8.315   4.972  70.665  1.00  0.00    -0.106 C  
BRANCH  21  22
HETATM   22  N   UNL     1      -9.011   5.756  69.618  1.00  0.00    -0.127 NA 
HETATM   23  C   UNL     1     -10.410   5.298  69.534  1.00  0.00    -0.263 C  
HETATM   24  C   UNL     1      -8.405   5.617  68.288  1.00  0.00    -0.102 C  
ENDBRANCH  21  22
ENDBRANCH  20  21
ENDBRANCH  18  20
ENDBRANCH  14  15
ENDBRANCH  13  14
ENDBRANCH   4  13
BRANCH   8  25
HETATM   25  N   UNL     1     -10.460  14.476  68.410  1.00  0.00    -0.240 N  
HETATM   26  C   UNL     1     -10.479  15.836  68.631  1.00  0.00    -0.231 C  
HETATM   27  H   UNL     1      -9.561  14.010  68.282  1.00  0.00     0.000 HD 
HETATM   28  O   UNL     1     -11.510  16.445  68.916  1.00  0.00    -0.311 OA 
BRANCH  26  29
HETATM   29  C   UNL     1      -9.141  16.528  68.480  1.00  0.00    -0.231 C  
BRANCH  29  30
HETATM   30  C   UNL     1      -9.293  17.861  67.838  1.00  0.00    -0.271 A  
HETATM   31  N   UNL     1     -10.823  19.612  65.214  1.00  0.00    -0.361 NA 
HETATM   32  C   UNL     1      -8.729  19.050  68.259  1.00  0.00    -0.331 A  
HETATM   33  S   UNL     1      -9.205  20.325  67.223  1.00  0.00    -0.395 SA 
HETATM   34  H2  UNL     1     -10.811  20.596  64.947  1.00  0.00     0.000 HD 
HETATM   35  H1  UNL     1     -11.367  18.951  64.660  1.00  0.00     0.000 HD 
HETATM   36  N   UNL     1     -10.098  17.969  66.710  1.00  0.00    -0.337 NA 
HETATM   37  C   UNL     1     -10.121  19.213  66.291  1.00  0.00    -0.431 A  
ENDBRANCH  29  30
ENDBRANCH  26  29
ENDBRANCH   8  25
TORSDOF 9
ENDMDL
MODEL       60
REMARK 921   NORMALIZED FREE ENERGY PREDICTED BY IDOCK:   -5.52 KCAL/MOL
REMARK 922        TOTAL FREE ENERGY PREDICTED BY IDOCK:  -10.36 KCAL/MOL
REMARK 923 INTER-LIGAND FREE ENERGY PREDICTED BY IDOCK:   -9.21 KCAL/MOL
REMARK 924 INTRA-LIGAND FREE ENERGY PREDICTED BY IDOCK:   -1.14 KCAL/MOL
REMARK 927      BINDING AFFINITY PREDICTED BY RF-SCORE:    0.00 PKD
ROOT
HETATM    1  C   UNL     1      -8.919   8.972  66.299  1.00  0.00    -0.162 C  
HETATM    2  S   UNL     1     -10.644   9.406  66.618  1.00  0.00    -0.020 SA 
HETATM    3  C   UNL     1     -10.450  11.113  66.059  1.00  0.00    -0.256 C  
HETATM    4  C   UNL     1      -9.230  11.838  66.613  1.00  0.00    -0.201 C  
HETATM    5  C   UNL     1      -7.441   8.843  67.772  1.00  0.00    -0.093 C  
HETATM    6  CA  UNL     1      -8.136  11.202  67.130  1.00  0.00    -0.138 C  
HETATM    7  C   UNL     1      -6.995  12.008  67.720  1.00  0.00    -0.103 C  
HETATM    8  CA  UNL     1      -8.358   7.763  67.116  1.00  0.00    -0.118 C  
HETATM    9  N   UNL     1      -8.077   9.832  67.112  1.00  0.00    -0.116 N  
HETATM   10  O   UNL     1      -6.176  11.390  68.587  1.00  0.00    -0.046 OA 
HETATM   11  OXT UNL     1      -6.789  13.179  67.429  1.00  0.00    -0.163 OA 
HETATM   12  O   UNL     1      -6.600   8.905  68.643  1.00  0.00    -0.053 OA 
ENDROOT
BRANCH   4  13
HETATM   13  C   UNL     1      -9.468  13.353  66.649  1.00  0.00    -0.260 C  
BRANCH  13  14
HETATM   14  S   UNL     1     -11.226  13.792  66.899  1.00  0.00    -0.324 SA 
BRANCH  14  15
HETATM   15  C   UNL     1     -11.554  14.860  65.587  1.00  0.00    -0.245 A  
HETATM   16  N   UNL     1     -12.502  14.711  64.691  1.00  0.00    -0.559 NA 
HETATM   17  N   UNL     1     -12.344  15.732  63.791  1.00  0.00    -0.560 NA 
HETATM   18  N   UNL     1     -10.845  15.994  65.284  1.00  0.00    -0.384 NA 
HETATM   19  N   UNL     1     -11.329  16.512  64.134  1.00  0.00    -1.047 NA 
BRANCH  18  20
HETATM   20  C   UNL     1      -9.777  16.703  65.969  1.00  0.00    -0.278 C  
BRANCH  20  21
HETATM   21  C   UNL     1     -10.359  17.721  66.966  1.00  0.00    -0.344 C  
BRANCH  21  22
HETATM   22  N   UNL     1      -9.410  18.642  67.633  1.00  0.00    -0.286 NA 
HETATM   23  C   UNL     1      -8.426  17.844  68.388  1.00  0.00    -0.297 C  
HETATM   24  C   UNL     1     -10.060  19.568  68.569  1.00  0.00    -0.445 C  
ENDBRANCH  21  22
ENDBRANCH  20  21
ENDBRANCH  18  20
ENDBRANCH  14  15
ENDBRANCH  13  14
ENDBRANCH   4  13
BRANCH   8  25
HETATM   25  N   UNL     1      -9.307   7.081  68.047  1.00  0.00    -0.128 N  
HETATM   26  C   UNL     1      -8.918   6.027  68.846  1.00  0.00    -0.123 C  
HETATM   27  H   UNL     1     -10.273   7.407  68.094  1.00  0.00     0.000 HD 
HETATM   28  O   UNL     1      -7.747   5.661  68.934  1.00  0.00    -0.086 OA 
BRANCH  26  29
HETATM   29  C   UNL     1     -10.044   5.343  69.593  1.00  0.00    -0.319 C  
BRANCH  29  30
HETATM   30  C   UNL     1     -10.696   6.274  70.553  1.00  0.00    -0.269 A  
HETATM   31  N   UNL     1     -13.623   8.072  71.253  1.00  0.00    -0.557 NA 
HETATM   32  C   UNL     1     -10.156   6.758  71.730  1.00  0.00    -0.182 A  
HETATM   33  S   UNL     1     -11.283   7.776  72.516  1.00  0.00    -0.389 SA 
HETATM   34  H2  UNL     1     -13.889   8.675  72.031  1.00  0.00     0.000 HD 
HETATM   35  H1  UNL     1     -14.288   7.911  70.497  1.00  0.00     0.000 HD 
HETATM   36  N   UNL     1     -11.991   6.704  70.290  1.00  0.00    -0.338 NA 
HETATM   37  C   UNL     1     -12.403   7.506  71.245  1.00  0.00    -0.327 A  
ENDBRANCH  29  30
ENDBRANCH  26  29
ENDBRANCH   8  25
TORSDOF 9
ENDMDL
MODEL       61
REMARK 921   NORMALIZED FREE ENERGY PREDICTED BY IDOCK:   -5.50 KCAL/MOL
REMARK 922        TOTAL FREE ENERGY PREDICTED BY IDOCK:  -10.34 KCAL/MOL
REMARK 923 INTER-LIGAND FREE ENERGY PREDICTED BY IDOCK:   -8.07 KCAL/MOL
REMARK 924 INTRA-LIGAND FREE ENERGY PREDICTED BY IDOCK:   -2.27 KCAL/MOL
REMARK 927      BINDING AFFINITY PREDICTED BY RF-SCORE:    0.00 PKD
ROOT
HETATM    1  C   UNL     1      -6.921   9.644  68.069  1.00  0.00    -0.078 C  
HETATM    2  S   UNL     1      -8.596   9.790  67.407  1.00  0.00    -0.128 SA 
HETATM    3  C   UNL     1      -8.329  11.454  66.755  1.00  0.00    -0.163 C  
HETATM    4  C   UNL     1      -7.662  12.426  67.721  1.00  0.00    -0.139 C  
HETATM    5  C   UNL     1      -6.420   9.898  70.083  1.00  0.00    -0.093 C  
HETATM    6  CA  UNL     1      -6.935  12.037  68.811  1.00  0.00    -0.101 C  
HETATM    7  C   UNL     1      -6.364  13.077  69.755  1.00  0.00    -0.063 C  
HETATM    8  CA  UNL     1      -6.737   8.623  69.238  1.00  0.00    -0.050 C  
HETATM    9  N   UNL     1      -6.725  10.702  69.045  1.00  0.00    -0.061 N  
HETATM   10  O   UNL     1      -6.052  12.685  71.002  1.00  0.00    -0.206 OA 
HETATM   11  OXT UNL     1      -6.167  14.238  69.423  1.00  0.00    -0.098 OA 
HETATM   12  O   UNL     1      -6.167  10.177  71.236  1.00  0.00    -0.309 OA 
ENDROOT
BRANCH   4  13
HETATM   13  C   UNL     1      -8.049  13.872  67.390  1.00  0.00    -0.178 C  
BRANCH  13  14
HETATM   14  S   UNL     1      -9.510  14.452  68.325  1.00  0.00    -0.211 SA 
BRANCH  14  15
HETATM   15  C   UNL     1     -10.686  13.233  68.012  1.00  0.00    -0.240 A  
HETATM   16  N   UNL     1     -11.021  12.258  68.827  1.00  0.00    -0.228 NA 
HETATM   17  N   UNL     1     -11.918  11.478  68.144  1.00  0.00    -0.610 NA 
HETATM   18  N   UNL     1     -11.407  13.097  66.854  1.00  0.00    -0.304 NA 
HETATM   19  N   UNL     1     -12.150  11.972  66.936  1.00  0.00    -0.545 NA 
BRANCH  18  20
HETATM   20  C   UNL     1     -11.533  13.926  65.668  1.00  0.00    -0.318 C  
BRANCH  20  21
HETATM   21  C   UNL     1     -10.440  13.572  64.644  1.00  0.00    -0.421 C  
BRANCH  21  22
HETATM   22  N   UNL     1     -10.812  12.665  63.534  1.00  0.00    -0.400 NA 
HETATM   23  C   UNL     1     -12.282  12.611  63.438  1.00  0.00    -0.517 C  
HETATM   24  C   UNL     1     -10.317  11.295  63.712  1.00  0.00    -0.395 C  
ENDBRANCH  21  22
ENDBRANCH  20  21
ENDBRANCH  18  20
ENDBRANCH  14  15
ENDBRANCH  13  14
ENDBRANCH   4  13
BRANCH   8  25
HETATM   25  N   UNL     1      -7.950   7.862  69.665  1.00  0.00    -0.115 N  
HETATM   26  C   UNL     1      -8.189   6.571  69.246  1.00  0.00    -0.123 C  
HETATM   27  H   UNL     1      -8.622   8.312  70.286  1.00  0.00     0.000 HD 
HETATM   28  O   UNL     1      -7.368   5.922  68.600  1.00  0.00    -0.080 OA 
BRANCH  26  29
HETATM   29  C   UNL     1      -9.546   6.017  69.628  1.00  0.00    -0.177 C  
BRANCH  29  30
HETATM   30  C   UNL     1     -10.300   6.978  70.476  1.00  0.00    -0.201 A  
HETATM   31  N   UNL     1     -12.274   9.876  70.451  1.00  0.00    -0.462 NA 
HETATM   32  C   UNL     1     -10.461   6.920  71.848  1.00  0.00    -0.201 A  
HETATM   33  S   UNL     1     -11.429   8.226  72.381  1.00  0.00    -0.384 SA 
HETATM   34  H2  UNL     1     -12.742  10.394  71.195  1.00  0.00     0.000 HD 
HETATM   35  H1  UNL     1     -12.354  10.203  69.489  1.00  0.00     0.000 HD 
HETATM   36  N   UNL     1     -10.946   8.045  69.862  1.00  0.00    -0.216 NA 
HETATM   37  C   UNL     1     -11.564   8.776  70.762  1.00  0.00    -0.251 A  
ENDBRANCH  29  30
ENDBRANCH  26  29
ENDBRANCH   8  25
TORSDOF 9
ENDMDL
MODEL       62
REMARK 921   NORMALIZED FREE ENERGY PREDICTED BY IDOCK:   -5.46 KCAL/MOL
REMARK 922        TOTAL FREE ENERGY PREDICTED BY IDOCK:  -10.27 KCAL/MOL
REMARK 923 INTER-LIGAND FREE ENERGY PREDICTED BY IDOCK:   -8.50 KCAL/MOL
REMARK 924 INTRA-LIGAND FREE ENERGY PREDICTED BY IDOCK:   -1.77 KCAL/MOL
REMARK 927      BINDING AFFINITY PREDICTED BY RF-SCORE:    0.00 PKD
ROOT
HETATM    1  C   UNL     1     -11.031  15.682  66.998  1.00  0.00    -0.261 C  
HETATM    2  S   UNL     1      -9.423  15.279  66.278  1.00  0.00    -0.329 SA 
HETATM    3  C   UNL     1      -9.917  13.612  65.791  1.00  0.00    -0.261 C  
HETATM    4  C   UNL     1     -10.639  12.812  66.869  1.00  0.00    -0.257 C  
HETATM    5  C   UNL     1     -11.447  15.661  69.046  1.00  0.00    -0.363 C  
HETATM    6  CA  UNL     1     -11.255  13.376  67.951  1.00  0.00    -0.275 C  
HETATM    7  C   UNL     1     -11.891  12.496  69.009  1.00  0.00    -0.296 C  
HETATM    8  CA  UNL     1     -11.030  16.813  68.077  1.00  0.00    -0.296 C  
HETATM    9  N   UNL     1     -11.295  14.741  68.073  1.00  0.00    -0.302 N  
HETATM   10  O   UNL     1     -12.087  13.026  70.228  1.00  0.00    -0.348 OA 
HETATM   11  OXT UNL     1     -12.240  11.343  68.792  1.00  0.00    -0.502 OA 
HETATM   12  O   UNL     1     -11.668  15.512  70.230  1.00  0.00    -0.290 OA 
ENDROOT
BRANCH   4  13
HETATM   13  C   UNL     1     -10.441  11.307  66.653  1.00  0.00    -0.247 C  
BRANCH  13  14
HETATM   14  S   UNL     1      -8.804  10.714  67.212  1.00  0.00    -0.136 SA 
BRANCH  14  15
HETATM   15  C   UNL     1      -9.169   9.867  68.667  1.00  0.00    -0.139 A  
HETATM   16  N   UNL     1      -8.922  10.289  69.887  1.00  0.00    -0.061 NA 
HETATM   17  N   UNL     1      -9.289   9.271  70.726  1.00  0.00    -0.259 NA 
HETATM   18  N   UNL     1      -9.738   8.623  68.746  1.00  0.00    -0.163 NA 
HETATM   19  N   UNL     1      -9.775   8.245  70.043  1.00  0.00    -0.175 NA 
BRANCH  18  20
HETATM   20  C   UNL     1     -10.308   7.734  67.748  1.00  0.00    -0.221 C  
BRANCH  20  21
HETATM   21  C   UNL     1     -10.880   6.471  68.415  1.00  0.00    -0.289 C  
BRANCH  21  22
HETATM   22  N   UNL     1     -10.407   5.159  67.915  1.00  0.00    -0.125 NA 
HETATM   23  C   UNL     1      -9.166   4.801  68.626  1.00  0.00    -0.124 C  
HETATM   24  C   UNL     1     -10.125   5.154  66.475  1.00  0.00    -0.239 C  
ENDBRANCH  21  22
ENDBRANCH  20  21
ENDBRANCH  18  20
ENDBRANCH  14  15
ENDBRANCH  13  14
ENDBRANCH   4  13
BRANCH   8  25
HETATM   25  N   UNL     1      -9.715  17.455  68.380  1.00  0.00    -0.290 N  
HETATM   26  C   UNL     1      -9.550  18.823  68.375  1.00  0.00    -0.365 C  
HETATM   27  H   UNL     1      -8.914  16.862  68.597  1.00  0.00     0.000 HD 
HETATM   28  O   UNL     1     -10.493  19.603  68.243  1.00  0.00    -0.424 OA 
BRANCH  26  29
HETATM   29  C   UNL     1      -8.119  19.295  68.526  1.00  0.00    -0.401 C  
BRANCH  29  30
HETATM   30  C   UNL     1      -7.223  18.614  67.553  1.00  0.00    -0.211 A  
HETATM   31  N   UNL     1      -5.291  15.747  66.967  1.00  0.00    -0.265 NA 
HETATM   32  C   UNL     1      -6.867  19.070  66.298  1.00  0.00    -0.219 A  
HETATM   33  S   UNL     1      -5.839  17.938  65.532  1.00  0.00    -0.023 SA 
HETATM   34  H2  UNL     1      -4.732  15.448  66.168  1.00  0.00     0.000 HD 
HETATM   35  H1  UNL     1      -5.348  15.146  67.789  1.00  0.00     0.000 HD 
HETATM   36  N   UNL     1      -6.688  17.376  67.892  1.00  0.00    -0.170 NA 
HETATM   37  C   UNL     1      -5.936  16.927  66.914  1.00  0.00    -0.179 A  
ENDBRANCH  29  30
ENDBRANCH  26  29
ENDBRANCH   8  25
TORSDOF 9
ENDMDL
MODEL       63
REMARK 921   NORMALIZED FREE ENERGY PREDICTED BY IDOCK:   -5.46 KCAL/MOL
REMARK 922        TOTAL FREE ENERGY PREDICTED BY IDOCK:  -10.27 KCAL/MOL
REMARK 923 INTER-LIGAND FREE ENERGY PREDICTED BY IDOCK:   -8.42 KCAL/MOL
REMARK 924 INTRA-LIGAND FREE ENERGY PREDICTED BY IDOCK:   -1.85 KCAL/MOL
REMARK 927      BINDING AFFINITY PREDICTED BY RF-SCORE:    0.00 PKD
ROOT
HETATM    1  C   UNL     1     -10.466   9.893  67.096  1.00  0.00    -0.242 C  
HETATM    2  S   UNL     1     -11.409  10.126  68.620  1.00  0.00    -0.039 SA 
HETATM    3  C   UNL     1     -11.383  11.929  68.509  1.00  0.00    -0.276 C  
HETATM    4  C   UNL     1     -10.021  12.537  68.200  1.00  0.00    -0.224 C  
HETATM    5  C   UNL     1      -8.426   9.440  67.027  1.00  0.00    -0.127 C  
HETATM    6  CA  UNL     1      -8.988  11.843  67.636  1.00  0.00    -0.169 C  
HETATM    7  C   UNL     1      -7.644  12.514  67.427  1.00  0.00    -0.156 C  
HETATM    8  CA  UNL     1      -9.699   8.537  66.971  1.00  0.00    -0.204 C  
HETATM    9  N   UNL     1      -9.174  10.538  67.259  1.00  0.00    -0.143 N  
HETATM   10  O   UNL     1      -6.566  11.725  67.293  1.00  0.00    -0.104 OA 
HETATM   11  OXT UNL     1      -7.512  13.729  67.362  1.00  0.00    -0.174 OA 
HETATM   12  O   UNL     1      -7.221   9.303  67.042  1.00  0.00    -0.085 OA 
ENDROOT
BRANCH   4  13
HETATM   13  C   UNL     1      -9.927  13.967  68.748  1.00  0.00    -0.135 C  
BRANCH  13  14
HETATM   14  S   UNL     1     -11.385  14.988  68.328  1.00  0.00    -0.330 SA 
BRANCH  14  15
HETATM   15  C   UNL     1     -10.879  15.830  66.912  1.00  0.00    -0.265 A  
HETATM   16  N   UNL     1     -10.201  16.955  66.885  1.00  0.00    -0.290 NA 
HETATM   17  N   UNL     1     -10.097  17.309  65.566  1.00  0.00    -0.588 NA 
HETATM   18  N   UNL     1     -11.147  15.454  65.621  1.00  0.00    -0.304 NA 
HETATM   19  N   UNL     1     -10.681  16.410  64.787  1.00  0.00    -0.701 NA 
BRANCH  18  20
HETATM   20  C   UNL     1     -11.755  14.267  65.045  1.00  0.00    -0.383 C  
BRANCH  20  21
HETATM   21  C   UNL     1     -10.674  13.248  64.644  1.00  0.00    -0.400 C  
BRANCH  21  22
HETATM   22  N   UNL     1     -10.950  12.382  63.475  1.00  0.00    -0.460 NA 
HETATM   23  C   UNL     1     -12.391  12.068  63.447  1.00  0.00    -0.523 C  
HETATM   24  C   UNL     1     -10.209  11.115  63.501  1.00  0.00    -0.390 C  
ENDBRANCH  21  22
ENDBRANCH  20  21
ENDBRANCH  18  20
ENDBRANCH  14  15
ENDBRANCH  13  14
ENDBRANCH   4  13
BRANCH   8  25
HETATM   25  N   UNL     1      -9.846   7.572  68.102  1.00  0.00    -0.154 N  
HETATM   26  C   UNL     1      -9.840   6.208  67.906  1.00  0.00    -0.123 C  
HETATM   27  H   UNL     1      -9.953   7.935  69.049  1.00  0.00     0.000 HD 
HETATM   28  O   UNL     1      -9.594   5.697  66.815  1.00  0.00    -0.133 OA 
BRANCH  26  29
HETATM   29  C   UNL     1     -10.178   5.386  69.132  1.00  0.00    -0.302 C  
BRANCH  29  30
HETATM   30  C   UNL     1      -9.524   5.939  70.348  1.00  0.00    -0.163 A  
HETATM   31  N   UNL     1      -9.953   8.044  73.120  1.00  0.00    -0.289 NA 
HETATM   32  C   UNL     1      -8.251   5.653  70.805  1.00  0.00    -0.118 A  
HETATM   33  S   UNL     1      -7.942   6.505  72.255  1.00  0.00    -0.101 SA 
HETATM   34  H2  UNL     1      -9.342   8.285  73.900  1.00  0.00     0.000 HD 
HETATM   35  H1  UNL     1     -10.886   8.454  73.072  1.00  0.00     0.000 HD 
HETATM   36  N   UNL     1     -10.242   6.820  71.150  1.00  0.00    -0.193 NA 
HETATM   37  C   UNL     1      -9.511   7.193  72.175  1.00  0.00    -0.135 A  
ENDBRANCH  29  30
ENDBRANCH  26  29
ENDBRANCH   8  25
TORSDOF 9
ENDMDL
MODEL       64
REMARK 921   NORMALIZED FREE ENERGY PREDICTED BY IDOCK:   -5.46 KCAL/MOL
REMARK 922        TOTAL FREE ENERGY PREDICTED BY IDOCK:  -10.27 KCAL/MOL
REMARK 923 INTER-LIGAND FREE ENERGY PREDICTED BY IDOCK:   -8.11 KCAL/MOL
REMARK 924 INTRA-LIGAND FREE ENERGY PREDICTED BY IDOCK:   -2.16 KCAL/MOL
REMARK 927      BINDING AFFINITY PREDICTED BY RF-SCORE:    0.00 PKD
ROOT
HETATM    1  C   UNL     1      -9.759   7.184  68.833  1.00  0.00    -0.146 C  
HETATM    2  S   UNL     1     -10.611   7.925  67.422  1.00  0.00    -0.228 SA 
HETATM    3  C   UNL     1      -9.229   7.661  66.288  1.00  0.00    -0.154 C  
HETATM    4  C   UNL     1      -7.865   8.075  66.826  1.00  0.00    -0.103 C  
HETATM    5  C   UNL     1      -8.842   8.273  70.364  1.00  0.00    -0.141 C  
HETATM    6  CA  UNL     1      -7.587   8.232  68.154  1.00  0.00    -0.098 C  
HETATM    7  C   UNL     1      -6.217   8.712  68.593  1.00  0.00    -0.046 C  
HETATM    8  CA  UNL     1     -10.261   7.632  70.243  1.00  0.00    -0.205 C  
HETATM    9  N   UNL     1      -8.552   7.951  69.087  1.00  0.00    -0.137 N  
HETATM   10  O   UNL     1      -6.110   9.264  69.814  1.00  0.00    -0.037 OA 
HETATM   11  OXT UNL     1      -5.220   8.605  67.893  1.00  0.00    -0.034 OA 
HETATM   12  O   UNL     1      -8.221   8.949  71.156  1.00  0.00    -0.157 OA 
ENDROOT
BRANCH   4  13
HETATM   13  C   UNL     1      -6.916   8.437  65.677  1.00  0.00    -0.067 C  
BRANCH  13  14
HETATM   14  S   UNL     1      -6.947  10.217  65.258  1.00  0.00    -0.106 SA 
BRANCH  14  15
HETATM   15  C   UNL     1      -8.378  10.372  64.311  1.00  0.00    -0.138 A  
HETATM   16  N   UNL     1      -8.541   9.933  63.083  1.00  0.00    -0.179 NA 
HETATM   17  N   UNL     1      -9.785  10.348  62.689  1.00  0.00    -0.245 NA 
HETATM   18  N   UNL     1      -9.530  11.005  64.700  1.00  0.00    -0.227 NA 
HETATM   19  N   UNL     1     -10.392  11.014  63.660  1.00  0.00    -0.361 NA 
BRANCH  18  20
HETATM   20  C   UNL     1      -9.961  11.577  65.964  1.00  0.00    -0.224 C  
BRANCH  20  21
HETATM   21  C   UNL     1     -11.334  12.255  65.808  1.00  0.00    -0.355 C  
BRANCH  21  22
HETATM   22  N   UNL     1     -11.383  13.732  65.911  1.00  0.00    -0.304 NA 
HETATM   23  C   UNL     1     -12.741  14.187  65.560  1.00  0.00    -0.443 C  
HETATM   24  C   UNL     1     -10.432  14.409  65.020  1.00  0.00    -0.430 C  
ENDBRANCH  21  22
ENDBRANCH  20  21
ENDBRANCH  18  20
ENDBRANCH  14  15
ENDBRANCH  13  14
ENDBRANCH   4  13
BRANCH   8  25
HETATM   25  N   UNL     1     -11.401   8.597  70.278  1.00  0.00    -0.415 N  
HETATM   26  C   UNL     1     -11.941   9.051  71.462  1.00  0.00    -0.344 C  
HETATM   27  H   UNL     1     -11.792   8.932  69.396  1.00  0.00     0.000 HD 
HETATM   28  O   UNL     1     -11.447   8.789  72.557  1.00  0.00    -0.306 OA 
BRANCH  26  29
HETATM   29  C   UNL     1     -13.199   9.881  71.313  1.00  0.00    -0.465 C  
BRANCH  29  30
HETATM   30  C   UNL     1     -12.875  11.319  71.113  1.00  0.00    -0.352 A  
HETATM   31  N   UNL     1     -11.310  13.628  68.989  1.00  0.00    -0.271 NA 
HETATM   32  C   UNL     1     -13.237  12.369  71.935  1.00  0.00    -0.382 A  
HETATM   33  S   UNL     1     -12.662  13.845  71.288  1.00  0.00    -0.373 SA 
HETATM   34  H2  UNL     1     -11.214  14.643  69.030  1.00  0.00     0.000 HD 
HETATM   35  H1  UNL     1     -10.901  13.120  68.206  1.00  0.00     0.000 HD 
HETATM   36  N   UNL     1     -12.156  11.689  69.982  1.00  0.00    -0.324 NA 
HETATM   37  C   UNL     1     -11.974  12.990  69.970  1.00  0.00    -0.312 A  
ENDBRANCH  29  30
ENDBRANCH  26  29
ENDBRANCH   8  25
TORSDOF 9
ENDMDL
MODEL       65
REMARK 921   NORMALIZED FREE ENERGY PREDICTED BY IDOCK:   -5.45 KCAL/MOL
REMARK 922        TOTAL FREE ENERGY PREDICTED BY IDOCK:  -10.25 KCAL/MOL
REMARK 923 INTER-LIGAND FREE ENERGY PREDICTED BY IDOCK:   -8.22 KCAL/MOL
REMARK 924 INTRA-LIGAND FREE ENERGY PREDICTED BY IDOCK:   -2.03 KCAL/MOL
REMARK 927      BINDING AFFINITY PREDICTED BY RF-SCORE:    0.00 PKD
ROOT
HETATM    1  C   UNL     1     -11.511  11.228  68.397  1.00  0.00    -0.307 C  
HETATM    2  S   UNL     1     -11.542  13.014  68.122  1.00  0.00    -0.362 SA 
HETATM    3  C   UNL     1     -10.165  12.985  66.953  1.00  0.00    -0.244 C  
HETATM    4  C   UNL     1      -8.957  12.172  67.400  1.00  0.00    -0.180 C  
HETATM    5  C   UNL     1     -10.661  10.305  70.069  1.00  0.00    -0.269 C  
HETATM    6  CA  UNL     1      -9.006  11.201  68.360  1.00  0.00    -0.165 C  
HETATM    7  C   UNL     1      -7.738  10.488  68.787  1.00  0.00    -0.109 C  
HETATM    8  CA  UNL     1     -12.127  10.736  69.746  1.00  0.00    -0.318 C  
HETATM    9  N   UNL     1     -10.208  10.875  68.934  1.00  0.00    -0.192 N  
HETATM   10  O   UNL     1      -7.734   9.886  69.989  1.00  0.00    -0.151 OA 
HETATM   11  OXT UNL     1      -6.739  10.430  68.083  1.00  0.00    -0.060 OA 
HETATM   12  O   UNL     1     -10.046   9.816  70.992  1.00  0.00    -0.216 OA 
ENDROOT
BRANCH   4  13
HETATM   13  C   UNL     1      -7.675  12.697  66.742  1.00  0.00     0.221 C  
BRANCH  13  14
HETATM   14  S   UNL     1      -6.768  13.886  67.796  1.00  0.00    -0.176 SA 
BRANCH  14  15
HETATM   15  C   UNL     1      -8.009  14.945  68.349  1.00  0.00    -0.134 A  
HETATM   16  N   UNL     1      -8.501  14.988  69.567  1.00  0.00    -0.143 NA 
HETATM   17  N   UNL     1      -9.519  15.904  69.539  1.00  0.00    -0.254 NA 
HETATM   18  N   UNL     1      -8.675  15.866  67.582  1.00  0.00    -0.166 NA 
HETATM   19  N   UNL     1      -9.644  16.435  68.331  1.00  0.00    -0.213 NA 
BRANCH  18  20
HETATM   20  C   UNL     1      -8.491  16.330  66.217  1.00  0.00    -0.334 C  
BRANCH  20  21
HETATM   21  C   UNL     1      -7.327  17.334  66.141  1.00  0.00    -0.281 C  
BRANCH  21  22
HETATM   22  N   UNL     1      -7.535  18.668  66.748  1.00  0.00    -0.218 NA 
HETATM   23  C   UNL     1      -8.780  19.246  66.210  1.00  0.00    -0.321 C  
HETATM   24  C   UNL     1      -6.441  19.609  66.475  1.00  0.00    -0.182 C  
ENDBRANCH  21  22
ENDBRANCH  20  21
ENDBRANCH  18  20
ENDBRANCH  14  15
ENDBRANCH  13  14
ENDBRANCH   4  13
BRANCH   8  25
HETATM   25  N   UNL     1     -12.696  11.782  70.649  1.00  0.00    -0.169 N  
HETATM   26  C   UNL     1     -13.314  11.465  71.839  1.00  0.00    -0.304 C  
HETATM   27  H   UNL     1     -12.624  12.762  70.375  1.00  0.00     0.000 HD 
HETATM   28  O   UNL     1     -13.330  10.321  72.292  1.00  0.00    -0.407 OA 
BRANCH  26  29
HETATM   29  C   UNL     1     -13.988  12.627  72.538  1.00  0.00    -0.007 C  
BRANCH  29  30
HETATM   30  C   UNL     1     -13.294  13.909  72.241  1.00  0.00    -0.503 A  
HETATM   31  N   UNL     1     -12.572  16.255  69.737  1.00  0.00    -0.359 NA 
HETATM   32  C   UNL     1     -12.604  14.702  73.137  1.00  0.00    -0.382 A  
HETATM   33  S   UNL     1     -11.997  16.092  72.346  1.00  0.00    -0.541 SA 
HETATM   34  H2  UNL     1     -12.062  17.138  69.751  1.00  0.00     0.000 HD 
HETATM   35  H1  UNL     1     -12.983  15.930  68.863  1.00  0.00     0.000 HD 
HETATM   36  N   UNL     1     -13.343  14.409  70.944  1.00  0.00    -0.310 NA 
HETATM   37  C   UNL     1     -12.689  15.545  70.874  1.00  0.00    -0.468 A  
ENDBRANCH  29  30
ENDBRANCH  26  29
ENDBRANCH   8  25
TORSDOF 9
ENDMDL
MODEL       66
REMARK 921   NORMALIZED FREE ENERGY PREDICTED BY IDOCK:   -5.44 KCAL/MOL
REMARK 922        TOTAL FREE ENERGY PREDICTED BY IDOCK:  -10.25 KCAL/MOL
REMARK 923 INTER-LIGAND FREE ENERGY PREDICTED BY IDOCK:   -9.03 KCAL/MOL
REMARK 924 INTRA-LIGAND FREE ENERGY PREDICTED BY IDOCK:   -1.22 KCAL/MOL
REMARK 927      BINDING AFFINITY PREDICTED BY RF-SCORE:    0.00 PKD
ROOT
HETATM    1  C   UNL     1     -11.815   7.794  70.581  1.00  0.00    -0.124 C  
HETATM    2  S   UNL     1     -11.120   9.055  71.672  1.00  0.00    -0.379 SA 
HETATM    3  C   UNL     1     -11.305  10.384  70.463  1.00  0.00    -0.341 C  
HETATM    4  C   UNL     1     -10.817  10.051  69.058  1.00  0.00    -0.253 C  
HETATM    5  C   UNL     1     -10.680   6.405  69.508  1.00  0.00    -0.289 C  
HETATM    6  CA  UNL     1     -10.648   8.776  68.594  1.00  0.00    -0.139 C  
HETATM    7  C   UNL     1     -10.093   8.541  67.203  1.00  0.00    -0.262 C  
HETATM    8  CA  UNL     1     -11.399   6.320  70.892  1.00  0.00    -0.325 C  
HETATM    9  N   UNL     1     -10.984   7.714  69.393  1.00  0.00    -0.125 N  
HETATM   10  O   UNL     1      -9.539   7.344  66.945  1.00  0.00    -0.166 OA 
HETATM   11  OXT UNL     1     -10.143   9.382  66.316  1.00  0.00    -0.276 OA 
HETATM   12  O   UNL     1      -9.973   5.707  68.813  1.00  0.00    -0.144 OA 
ENDROOT
BRANCH   4  13
HETATM   13  C   UNL     1     -10.401  11.324  68.311  1.00  0.00    -0.183 C  
BRANCH  13  14
HETATM   14  S   UNL     1     -11.661  12.647  68.401  1.00  0.00    -0.347 SA 
BRANCH  14  15
HETATM   15  C   UNL     1     -11.756  13.208  66.775  1.00  0.00    -0.385 A  
HETATM   16  N   UNL     1     -12.353  12.592  65.780  1.00  0.00    -0.626 NA 
HETATM   17  N   UNL     1     -12.106  13.342  64.660  1.00  0.00    -0.392 NA 
HETATM   18  N   UNL     1     -11.192  14.361  66.294  1.00  0.00    -0.332 NA 
HETATM   19  N   UNL     1     -11.388  14.415  64.958  1.00  0.00    -0.355 NA 
BRANCH  18  20
HETATM   20  C   UNL     1     -10.514  15.472  66.940  1.00  0.00    -0.301 C  
BRANCH  20  21
HETATM   21  C   UNL     1      -9.293  15.914  66.114  1.00  0.00    -0.350 C  
BRANCH  21  22
HETATM   22  N   UNL     1      -9.097  17.367  65.908  1.00  0.00    -0.523 NA 
HETATM   23  C   UNL     1      -8.126  17.860  66.902  1.00  0.00    -0.229 C  
HETATM   24  C   UNL     1     -10.332  18.147  66.051  1.00  0.00    -0.353 C  
ENDBRANCH  21  22
ENDBRANCH  20  21
ENDBRANCH  18  20
ENDBRANCH  14  15
ENDBRANCH  13  14
ENDBRANCH   4  13
BRANCH   8  25
HETATM   25  N   UNL     1     -10.498   6.107  72.065  1.00  0.00    -0.206 N  
HETATM   26  C   UNL     1     -10.882   5.358  73.156  1.00  0.00    -0.285 C  
HETATM   27  H   UNL     1      -9.569   6.529  72.057  1.00  0.00     0.000 HD 
HETATM   28  O   UNL     1     -11.933   4.720  73.184  1.00  0.00    -0.204 OA 
BRANCH  26  29
HETATM   29  C   UNL     1      -9.920   5.394  74.325  1.00  0.00    -0.240 C  
BRANCH  29  30
HETATM   30  C   UNL     1      -8.660   6.098  73.964  1.00  0.00    -0.119 A  
HETATM   31  N   UNL     1      -6.995   9.183  74.008  1.00  0.00    -0.270 NA 
HETATM   32  C   UNL     1      -7.535   5.536  73.390  1.00  0.00    -0.095 A  
HETATM   33  S   UNL     1      -6.326   6.728  73.181  1.00  0.00    -0.063 SA 
HETATM   34  H2  UNL     1      -6.062   9.464  73.708  1.00  0.00     0.000 HD 
HETATM   35  H1  UNL     1      -7.620   9.880  74.412  1.00  0.00     0.000 HD 
HETATM   36  N   UNL     1      -8.553   7.457  74.238  1.00  0.00    -0.205 NA 
HETATM   37  C   UNL     1      -7.376   7.901  73.862  1.00  0.00    -0.144 A  
ENDBRANCH  29  30
ENDBRANCH  26  29
ENDBRANCH   8  25
TORSDOF 9
ENDMDL
MODEL       67
REMARK 921   NORMALIZED FREE ENERGY PREDICTED BY IDOCK:   -5.43 KCAL/MOL
REMARK 922        TOTAL FREE ENERGY PREDICTED BY IDOCK:  -10.23 KCAL/MOL
REMARK 923 INTER-LIGAND FREE ENERGY PREDICTED BY IDOCK:   -8.69 KCAL/MOL
REMARK 924 INTRA-LIGAND FREE ENERGY PREDICTED BY IDOCK:   -1.53 KCAL/MOL
REMARK 927      BINDING AFFINITY PREDICTED BY RF-SCORE:    0.00 PKD
ROOT
HETATM    1  C   UNL     1      -8.826   8.805  70.772  1.00  0.00    -0.191 C  
HETATM    2  S   UNL     1      -8.661   9.210  69.019  1.00  0.00    -0.136 SA 
HETATM    3  C   UNL     1      -9.574  10.762  69.161  1.00  0.00    -0.151 C  
HETATM    4  C   UNL     1     -10.882  10.672  69.937  1.00  0.00    -0.301 C  
HETATM    5  C   UNL     1     -10.205   7.436  71.543  1.00  0.00    -0.192 C  
HETATM    6  CA  UNL     1     -11.178   9.668  70.816  1.00  0.00    -0.336 C  
HETATM    7  C   UNL     1     -12.534   9.625  71.493  1.00  0.00    -0.386 C  
HETATM    8  CA  UNL     1      -8.704   7.290  71.136  1.00  0.00    -0.135 C  
HETATM    9  N   UNL     1     -10.242   8.702  71.082  1.00  0.00    -0.212 N  
HETATM   10  O   UNL     1     -12.951   8.445  71.983  1.00  0.00    -0.335 OA 
HETATM   11  OXT UNL     1     -13.245  10.612  71.620  1.00  0.00    -0.412 OA 
HETATM   12  O   UNL     1     -11.103   6.729  71.949  1.00  0.00    -0.233 OA 
ENDROOT
BRANCH   4  13
HETATM   13  C   UNL     1     -11.861  11.761  69.480  1.00  0.00    -0.337 C  
BRANCH  13  14
HETATM   14  S   UNL     1     -11.633  12.236  67.729  1.00  0.00    -0.346 SA 
BRANCH  14  15
HETATM   15  C   UNL     1     -11.388  13.939  67.813  1.00  0.00    -0.308 A  
HETATM   16  N   UNL     1     -11.551  14.690  68.879  1.00  0.00    -0.294 NA 
HETATM   17  N   UNL     1     -11.339  15.981  68.475  1.00  0.00    -0.378 NA 
HETATM   18  N   UNL     1     -11.022  14.746  66.767  1.00  0.00    -0.321 NA 
HETATM   19  N   UNL     1     -11.030  16.030  67.188  1.00  0.00    -0.244 NA 
BRANCH  18  20
HETATM   20  C   UNL     1     -10.611  14.466  65.402  1.00  0.00    -0.365 C  
BRANCH  20  21
HETATM   21  C   UNL     1     -11.841  14.246  64.503  1.00  0.00    -0.442 C  
BRANCH  21  22
HETATM   22  N   UNL     1     -11.790  13.123  63.539  1.00  0.00    -0.503 NA 
HETATM   23  C   UNL     1     -12.982  12.276  63.734  1.00  0.00    -0.196 C  
HETATM   24  C   UNL     1     -10.601  12.277  63.693  1.00  0.00    -0.462 C  
ENDBRANCH  21  22
ENDBRANCH  20  21
ENDBRANCH  18  20
ENDBRANCH  14  15
ENDBRANCH  13  14
ENDBRANCH   4  13
BRANCH   8  25
HETATM   25  N   UNL     1      -8.439   6.346  70.009  1.00  0.00    -0.133 N  
HETATM   26  C   UNL     1      -8.219   5.001  70.217  1.00  0.00    -0.088 C  
HETATM   27  H   UNL     1      -8.420   6.708  69.056  1.00  0.00     0.000 HD 
HETATM   28  O   UNL     1      -8.348   4.473  71.320  1.00  0.00    -0.098 OA 
BRANCH  26  29
HETATM   29  C   UNL     1      -7.791   4.227  68.988  1.00  0.00    -0.061 C  
BRANCH  29  30
HETATM   30  C   UNL     1      -8.606   4.606  67.803  1.00  0.00    -0.103 A  
HETATM   31  N   UNL     1      -9.028   6.989  65.266  1.00  0.00    -0.355 NA 
HETATM   32  C   UNL     1      -9.663   3.895  67.265  1.00  0.00    -0.131 A  
HETATM   33  S   UNL     1     -10.277   4.706  65.890  1.00  0.00    -0.253 SA 
HETATM   34  H2  UNL     1      -9.682   7.053  64.486  1.00  0.00     0.000 HD 
HETATM   35  H1  UNL     1      -8.332   7.723  65.394  1.00  0.00     0.000 HD 
HETATM   36  N   UNL     1      -8.289   5.776  67.121  1.00  0.00    -0.105 NA 
HETATM   37  C   UNL     1      -9.104   5.940  66.105  1.00  0.00    -0.150 A  
ENDBRANCH  29  30
ENDBRANCH  26  29
ENDBRANCH   8  25
TORSDOF 9
ENDMDL
MODEL       68
REMARK 921   NORMALIZED FREE ENERGY PREDICTED BY IDOCK:   -5.42 KCAL/MOL
REMARK 922        TOTAL FREE ENERGY PREDICTED BY IDOCK:  -10.21 KCAL/MOL
REMARK 923 INTER-LIGAND FREE ENERGY PREDICTED BY IDOCK:   -8.55 KCAL/MOL
REMARK 924 INTRA-LIGAND FREE ENERGY PREDICTED BY IDOCK:   -1.66 KCAL/MOL
REMARK 927      BINDING AFFINITY PREDICTED BY RF-SCORE:    0.00 PKD
ROOT
HETATM    1  C   UNL     1     -10.154  12.698  66.393  1.00  0.00    -0.253 C  
HETATM    2  S   UNL     1     -11.569  12.213  67.408  1.00  0.00    -0.316 SA 
HETATM    3  C   UNL     1     -11.747  13.844  68.163  1.00  0.00    -0.353 C  
HETATM    4  C   UNL     1     -10.453  14.463  68.674  1.00  0.00    -0.247 C  
HETATM    5  C   UNL     1      -8.165  12.243  66.845  1.00  0.00    -0.112 C  
HETATM    6  CA  UNL     1      -9.209  14.080  68.256  1.00  0.00    -0.200 C  
HETATM    7  C   UNL     1      -7.973  14.708  68.871  1.00  0.00    -0.149 C  
HETATM    8  CA  UNL     1      -9.216  11.536  65.932  1.00  0.00    -0.210 C  
HETATM    9  N   UNL     1      -9.086  13.126  67.279  1.00  0.00    -0.208 N  
HETATM   10  O   UNL     1      -6.816  14.032  68.776  1.00  0.00    -0.091 OA 
HETATM   11  OXT UNL     1      -7.989  15.797  69.429  1.00  0.00    -0.229 OA 
HETATM   12  O   UNL     1      -7.025  12.061  67.217  1.00  0.00    -0.126 OA 
ENDROOT
BRANCH   4  13
HETATM   13  C   UNL     1     -10.735  15.448  69.815  1.00  0.00    -0.291 C  
BRANCH  13  14
HETATM   14  S   UNL     1     -12.515  15.587  70.214  1.00  0.00    -0.296 SA 
BRANCH  14  15
HETATM   15  C   UNL     1     -12.545  15.448  71.931  1.00  0.00    -0.380 A  
HETATM   16  N   UNL     1     -12.073  16.329  72.784  1.00  0.00    -0.539 NA 
HETATM   17  N   UNL     1     -12.223  15.776  74.028  1.00  0.00    -0.552 NA 
HETATM   18  N   UNL     1     -13.036  14.381  72.637  1.00  0.00    -0.448 NA 
HETATM   19  N   UNL     1     -12.796  14.583  73.951  1.00  0.00    -0.326 NA 
BRANCH  18  20
HETATM   20  C   UNL     1     -13.761  13.186  72.241  1.00  0.00    -0.551 C  
BRANCH  20  21
HETATM   21  C   UNL     1     -12.794  12.001  72.066  1.00  0.00    -0.146 C  
BRANCH  21  22
HETATM   22  N   UNL     1     -13.355  10.732  71.549  1.00  0.00    -0.297 NA 
HETATM   23  C   UNL     1     -13.048   9.653  72.507  1.00  0.00    -0.191 C  
HETATM   24  C   UNL     1     -12.812  10.346  70.241  1.00  0.00    -0.105 C  
ENDBRANCH  21  22
ENDBRANCH  20  21
ENDBRANCH  18  20
ENDBRANCH  14  15
ENDBRANCH  13  14
ENDBRANCH   4  13
BRANCH   8  25
HETATM   25  N   UNL     1      -9.598  10.154  66.352  1.00  0.00    -0.182 N  
HETATM   26  C   UNL     1      -8.839   9.052  66.023  1.00  0.00    -0.175 C  
HETATM   27  H   UNL     1     -10.449  10.022  66.900  1.00  0.00     0.000 HD 
HETATM   28  O   UNL     1      -7.743   9.145  65.472  1.00  0.00    -0.092 OA 
BRANCH  26  29
HETATM   29  C   UNL     1      -9.463   7.718  66.374  1.00  0.00    -0.245 C  
BRANCH  29  30
HETATM   30  C   UNL     1      -9.832   7.659  67.814  1.00  0.00    -0.158 A  
HETATM   31  N   UNL     1      -9.429   9.208  70.934  1.00  0.00    -0.263 NA 
HETATM   32  C   UNL     1     -10.669   6.740  68.416  1.00  0.00    -0.232 A  
HETATM   33  S   UNL     1     -10.816   7.083  70.085  1.00  0.00    -0.267 SA 
HETATM   34  H2  UNL     1      -9.814   9.004  71.856  1.00  0.00     0.000 HD 
HETATM   35  H1  UNL     1      -8.801  10.004  70.820  1.00  0.00     0.000 HD 
HETATM   36  N   UNL     1      -9.322   8.627  68.673  1.00  0.00    -0.142 NA 
HETATM   37  C   UNL     1      -9.761   8.422  69.894  1.00  0.00    -0.179 A  
ENDBRANCH  29  30
ENDBRANCH  26  29
ENDBRANCH   8  25
TORSDOF 9
ENDMDL
MODEL       69
REMARK 921   NORMALIZED FREE ENERGY PREDICTED BY IDOCK:   -5.41 KCAL/MOL
REMARK 922        TOTAL FREE ENERGY PREDICTED BY IDOCK:  -10.20 KCAL/MOL
REMARK 923 INTER-LIGAND FREE ENERGY PREDICTED BY IDOCK:   -9.05 KCAL/MOL
REMARK 924 INTRA-LIGAND FREE ENERGY PREDICTED BY IDOCK:   -1.15 KCAL/MOL
REMARK 927      BINDING AFFINITY PREDICTED BY RF-SCORE:    0.00 PKD
ROOT
HETATM    1  C   UNL     1      -9.547  13.166  67.455  1.00  0.00    -0.219 C  
HETATM    2  S   UNL     1     -10.600  12.278  68.624  1.00  0.00    -0.199 SA 
HETATM    3  C   UNL     1     -10.019  10.649  68.104  1.00  0.00    -0.158 C  
HETATM    4  C   UNL     1      -9.976  10.429  66.597  1.00  0.00    -0.262 C  
HETATM    5  C   UNL     1     -10.210  13.971  65.643  1.00  0.00    -0.334 C  
HETATM    6  CA  UNL     1      -9.952  11.444  65.681  1.00  0.00    -0.240 C  
HETATM    7  C   UNL     1      -9.977  11.130  64.198  1.00  0.00    -0.316 C  
HETATM    8  CA  UNL     1     -10.025  14.601  67.061  1.00  0.00    -0.246 C  
HETATM    9  N   UNL     1      -9.904  12.744  66.111  1.00  0.00    -0.266 N  
HETATM   10  O   UNL     1     -10.388  12.098  63.361  1.00  0.00    -0.437 OA 
HETATM   11  OXT UNL     1      -9.629  10.049  63.742  1.00  0.00    -0.280 OA 
HETATM   12  O   UNL     1     -10.617  14.308  64.552  1.00  0.00    -0.388 OA 
ENDROOT
BRANCH   4  13
HETATM   13  C   UNL     1     -10.119   8.940  66.260  1.00  0.00    -0.214 C  
BRANCH  13  14
HETATM   14  S   UNL     1      -8.668   7.951  66.770  1.00  0.00    -0.140 SA 
BRANCH  14  15
HETATM   15  C   UNL     1      -9.315   6.890  67.963  1.00  0.00    -0.123 A  
HETATM   16  N   UNL     1     -10.266   6.002  67.772  1.00  0.00    -0.159 NA 
HETATM   17  N   UNL     1     -10.528   5.451  68.998  1.00  0.00    -0.209 NA 
HETATM   18  N   UNL     1      -8.947   6.852  69.283  1.00  0.00    -0.138 NA 
HETATM   19  N   UNL     1      -9.741   5.970  69.929  1.00  0.00    -0.160 NA 
BRANCH  18  20
HETATM   20  C   UNL     1      -7.894   7.515  70.033  1.00  0.00    -0.099 C  
BRANCH  20  21
HETATM   21  C   UNL     1      -8.409   8.836  70.632  1.00  0.00    -0.154 C  
BRANCH  21  22
HETATM   22  N   UNL     1      -8.896   8.809  72.030  1.00  0.00    -0.370 NA 
HETATM   23  C   UNL     1      -8.213   7.717  72.749  1.00  0.00    -0.126 C  
HETATM   24  C   UNL     1     -10.343   8.589  72.138  1.00  0.00    -0.339 C  
ENDBRANCH  21  22
ENDBRANCH  20  21
ENDBRANCH  18  20
ENDBRANCH  14  15
ENDBRANCH  13  14
ENDBRANCH   4  13
BRANCH   8  25
HETATM   25  N   UNL     1     -11.278  15.095  67.707  1.00  0.00    -0.314 N  
HETATM   26  C   UNL     1     -11.276  15.688  68.950  1.00  0.00    -0.311 C  
HETATM   27  H   UNL     1     -12.164  14.989  67.211  1.00  0.00     0.000 HD 
HETATM   28  O   UNL     1     -10.238  15.959  69.552  1.00  0.00    -0.244 OA 
BRANCH  26  29
HETATM   29  C   UNL     1     -12.648  15.965  69.528  1.00  0.00     0.328 C  
BRANCH  29  30
HETATM   30  C   UNL     1     -12.771  15.423  70.908  1.00  0.00    -0.461 A  
HETATM   31  N   UNL     1     -13.727  12.638  72.812  1.00  0.00    -0.654 NA 
HETATM   32  C   UNL     1     -12.413  16.061  72.081  1.00  0.00    -0.454 A  
HETATM   33  S   UNL     1     -12.711  15.038  73.419  1.00  0.00    -0.519 SA 
HETATM   34  H2  UNL     1     -13.710  12.454  73.815  1.00  0.00     0.000 HD 
HETATM   35  H1  UNL     1     -14.074  11.919  72.178  1.00  0.00     0.000 HD 
HETATM   36  N   UNL     1     -13.268  14.136  71.077  1.00  0.00    -0.312 NA 
HETATM   37  C   UNL     1     -13.293  13.827  72.353  1.00  0.00    -0.535 A  
ENDBRANCH  29  30
ENDBRANCH  26  29
ENDBRANCH   8  25
TORSDOF 9
ENDMDL
MODEL       70
REMARK 921   NORMALIZED FREE ENERGY PREDICTED BY IDOCK:   -5.39 KCAL/MOL
REMARK 922        TOTAL FREE ENERGY PREDICTED BY IDOCK:  -10.17 KCAL/MOL
REMARK 923 INTER-LIGAND FREE ENERGY PREDICTED BY IDOCK:   -8.76 KCAL/MOL
REMARK 924 INTRA-LIGAND FREE ENERGY PREDICTED BY IDOCK:   -1.41 KCAL/MOL
REMARK 927      BINDING AFFINITY PREDICTED BY RF-SCORE:    0.00 PKD
ROOT
HETATM    1  C   UNL     1      -9.752   7.659  71.136  1.00  0.00    -0.162 C  
HETATM    2  S   UNL     1      -9.218   7.847  69.421  1.00  0.00    -0.144 SA 
HETATM    3  C   UNL     1      -9.507   9.629  69.393  1.00  0.00    -0.192 C  
HETATM    4  C   UNL     1     -10.848  10.074  69.964  1.00  0.00    -0.352 C  
HETATM    5  C   UNL     1     -11.627   6.939  71.717  1.00  0.00    -0.286 C  
HETATM    6  CA  UNL     1     -11.606   9.312  70.808  1.00  0.00    -0.285 C  
HETATM    7  C   UNL     1     -12.960   9.810  71.273  1.00  0.00    -0.380 C  
HETATM    8  CA  UNL     1     -10.245   6.233  71.544  1.00  0.00    -0.200 C  
HETATM    9  N   UNL     1     -11.134   8.096  71.231  1.00  0.00    -0.243 N  
HETATM   10  O   UNL     1     -13.842   8.899  71.718  1.00  0.00    -0.393 OA 
HETATM   11  OXT UNL     1     -13.269  10.994  71.272  1.00  0.00    -0.321 OA 
HETATM   12  O   UNL     1     -12.767   6.636  71.997  1.00  0.00    -0.301 OA 
ENDROOT
BRANCH   4  13
HETATM   13  C   UNL     1     -11.288  11.406  69.343  1.00  0.00    -0.297 C  
BRANCH  13  14
HETATM   14  S   UNL     1     -10.053  12.095  68.184  1.00  0.00    -0.209 SA 
BRANCH  14  15
HETATM   15  C   UNL     1     -11.025  12.850  66.978  1.00  0.00    -0.262 A  
HETATM   16  N   UNL     1     -12.078  12.324  66.395  1.00  0.00    -0.612 NA 
HETATM   17  N   UNL     1     -12.483  13.226  65.448  1.00  0.00    -0.479 NA 
HETATM   18  N   UNL     1     -10.808  14.093  66.441  1.00  0.00    -0.301 NA 
HETATM   19  N   UNL     1     -11.710  14.302  65.457  1.00  0.00    -0.344 NA 
BRANCH  18  20
HETATM   20  C   UNL     1      -9.876  15.159  66.765  1.00  0.00    -0.241 C  
BRANCH  20  21
HETATM   21  C   UNL     1     -10.634  16.459  67.086  1.00  0.00    -0.276 C  
BRANCH  21  22
HETATM   22  N   UNL     1     -10.188  17.237  68.265  1.00  0.00    -0.326 NA 
HETATM   23  C   UNL     1      -8.715  17.206  68.325  1.00  0.00    -0.241 C  
HETATM   24  C   UNL     1     -10.706  16.715  69.535  1.00  0.00    -0.306 C  
ENDBRANCH  21  22
ENDBRANCH  20  21
ENDBRANCH  18  20
ENDBRANCH  14  15
ENDBRANCH  13  14
ENDBRANCH   4  13
BRANCH   8  25
HETATM   25  N   UNL     1     -10.197   5.176  70.489  1.00  0.00    -0.256 N  
HETATM   26  C   UNL     1      -9.573   3.965  70.694  1.00  0.00    -0.189 C  
HETATM   27  H   UNL     1     -10.642   5.357  69.589  1.00  0.00     0.000 HD 
HETATM   28  O   UNL     1      -9.124   3.628  71.789  1.00  0.00    -0.102 OA 
BRANCH  26  29
HETATM   29  C   UNL     1      -9.465   3.086  69.465  1.00  0.00    -0.173 C  
BRANCH  29  30
HETATM   30  C   UNL     1      -8.949   3.853  68.299  1.00  0.00    -0.121 A  
HETATM   31  N   UNL     1      -9.861   5.721  65.476  1.00  0.00    -0.295 NA 
HETATM   32  C   UNL     1      -7.624   4.093  67.989  1.00  0.00    -0.068 A  
HETATM   33  S   UNL     1      -7.516   5.043  66.570  1.00  0.00    -0.088 SA 
HETATM   34  H2  UNL     1      -9.312   6.212  64.771  1.00  0.00     0.000 HD 
HETATM   35  H1  UNL     1     -10.879   5.736  65.414  1.00  0.00     0.000 HD 
HETATM   36  N   UNL     1      -9.862   4.426  67.421  1.00  0.00    -0.172 NA 
HETATM   37  C   UNL     1      -9.228   5.068  66.467  1.00  0.00    -0.135 A  
ENDBRANCH  29  30
ENDBRANCH  26  29
ENDBRANCH   8  25
TORSDOF 9
ENDMDL
MODEL       71
REMARK 921   NORMALIZED FREE ENERGY PREDICTED BY IDOCK:   -5.38 KCAL/MOL
REMARK 922        TOTAL FREE ENERGY PREDICTED BY IDOCK:  -10.15 KCAL/MOL
REMARK 923 INTER-LIGAND FREE ENERGY PREDICTED BY IDOCK:   -8.66 KCAL/MOL
REMARK 924 INTRA-LIGAND FREE ENERGY PREDICTED BY IDOCK:   -1.48 KCAL/MOL
REMARK 927      BINDING AFFINITY PREDICTED BY RF-SCORE:    0.00 PKD
ROOT
HETATM    1  C   UNL     1     -11.429  10.849  68.661  1.00  0.00    -0.311 C  
HETATM    2  S   UNL     1      -9.653  10.810  68.327  1.00  0.00    -0.172 SA 
HETATM    3  C   UNL     1      -9.566   9.006  68.319  1.00  0.00    -0.145 C  
HETATM    4  C   UNL     1     -10.271   8.321  69.484  1.00  0.00    -0.210 C  
HETATM    5  C   UNL     1     -12.270  11.219  70.538  1.00  0.00    -0.383 C  
HETATM    6  CA  UNL     1     -11.240   8.915  70.242  1.00  0.00    -0.197 C  
HETATM    7  C   UNL     1     -11.839   8.178  71.425  1.00  0.00    -0.295 C  
HETATM    8  CA  UNL     1     -11.969  12.156  69.326  1.00  0.00    -0.262 C  
HETATM    9  N   UNL     1     -11.667  10.179  69.928  1.00  0.00    -0.214 N  
HETATM   10  O   UNL     1     -12.434   8.911  72.381  1.00  0.00    -0.375 OA 
HETATM   11  OXT UNL     1     -11.812   6.960  71.531  1.00  0.00    -0.286 OA 
HETATM   12  O   UNL     1     -12.701  11.314  71.668  1.00  0.00    -0.387 OA 
ENDROOT
BRANCH   4  13
HETATM   13  C   UNL     1      -9.638   6.954  69.773  1.00  0.00    -0.154 C  
BRANCH  13  14
HETATM   14  S   UNL     1      -7.917   7.079  70.381  1.00  0.00    -0.115 SA 
BRANCH  14  15
HETATM   15  C   UNL     1      -8.118   7.438  72.055  1.00  0.00    -0.094 A  
HETATM   16  N   UNL     1      -8.493   8.593  72.556  1.00  0.00    -0.403 NA 
HETATM   17  N   UNL     1      -8.432   8.458  73.918  1.00  0.00    -0.317 NA 
HETATM   18  N   UNL     1      -7.880   6.572  73.091  1.00  0.00    -0.100 NA 
HETATM   19  N   UNL     1      -8.046   7.236  74.256  1.00  0.00    -0.145 NA 
BRANCH  18  20
HETATM   20  C   UNL     1      -7.553   5.158  73.139  1.00  0.00    -0.096 C  
BRANCH  20  21
HETATM   21  C   UNL     1      -8.734   4.351  73.708  1.00  0.00    -0.105 C  
BRANCH  21  22
HETATM   22  N   UNL     1      -9.984   4.319  72.915  1.00  0.00    -0.142 NA 
HETATM   23  C   UNL     1     -10.915   3.358  73.536  1.00  0.00    -0.233 C  
HETATM   24  C   UNL     1      -9.778   3.915  71.519  1.00  0.00    -0.177 C  
ENDBRANCH  21  22
ENDBRANCH  20  21
ENDBRANCH  18  20
ENDBRANCH  14  15
ENDBRANCH  13  14
ENDBRANCH   4  13
BRANCH   8  25
HETATM   25  N   UNL     1     -10.973  13.239  69.590  1.00  0.00    -0.454 N  
HETATM   26  C   UNL     1     -11.346  14.558  69.730  1.00  0.00    -0.260 C  
HETATM   27  H   UNL     1      -9.986  12.993  69.669  1.00  0.00     0.000 HD 
HETATM   28  O   UNL     1     -12.524  14.912  69.769  1.00  0.00    -0.270 OA 
BRANCH  26  29
HETATM   29  C   UNL     1     -10.197  15.541  69.814  1.00  0.00    -0.301 C  
BRANCH  29  30
HETATM   30  C   UNL     1     -10.218  16.492  68.671  1.00  0.00    -0.264 A  
HETATM   31  N   UNL     1     -10.305  19.880  67.772  1.00  0.00    -0.418 NA 
HETATM   32  C   UNL     1     -10.170  16.171  67.328  1.00  0.00    -0.277 A  
HETATM   33  S   UNL     1     -10.192  17.596  66.382  1.00  0.00    -0.348 SA 
HETATM   34  H2  UNL     1     -10.291  20.351  66.867  1.00  0.00     0.000 HD 
HETATM   35  H1  UNL     1     -10.350  20.439  68.624  1.00  0.00     0.000 HD 
HETATM   36  N   UNL     1     -10.265  17.856  68.939  1.00  0.00    -0.373 NA 
HETATM   37  C   UNL     1     -10.266  18.536  67.815  1.00  0.00    -0.382 A  
ENDBRANCH  29  30
ENDBRANCH  26  29
ENDBRANCH   8  25
TORSDOF 9
ENDMDL
MODEL       72
REMARK 921   NORMALIZED FREE ENERGY PREDICTED BY IDOCK:   -5.38 KCAL/MOL
REMARK 922        TOTAL FREE ENERGY PREDICTED BY IDOCK:  -10.15 KCAL/MOL
REMARK 923 INTER-LIGAND FREE ENERGY PREDICTED BY IDOCK:   -8.53 KCAL/MOL
REMARK 924 INTRA-LIGAND FREE ENERGY PREDICTED BY IDOCK:   -1.62 KCAL/MOL
REMARK 927      BINDING AFFINITY PREDICTED BY RF-SCORE:    0.00 PKD
ROOT
HETATM    1  C   UNL     1      -8.218  10.598  67.517  1.00  0.00    -0.111 C  
HETATM    2  S   UNL     1      -9.318  10.462  68.944  1.00  0.00    -0.194 SA 
HETATM    3  C   UNL     1      -8.612   8.895  69.499  1.00  0.00    -0.134 C  
HETATM    4  C   UNL     1      -8.431   7.847  68.407  1.00  0.00    -0.128 C  
HETATM    5  C   UNL     1      -8.768  10.138  65.553  1.00  0.00    -0.158 C  
HETATM    6  CA  UNL     1      -8.383   8.138  67.073  1.00  0.00    -0.116 C  
HETATM    7  C   UNL     1      -8.268   7.021  66.054  1.00  0.00    -0.129 C  
HETATM    8  CA  UNL     1      -8.735  11.487  66.340  1.00  0.00    -0.179 C  
HETATM    9  N   UNL     1      -8.439   9.445  66.662  1.00  0.00    -0.125 N  
HETATM   10  O   UNL     1      -8.656   7.282  64.795  1.00  0.00     0.039 OA 
HETATM   11  OXT UNL     1      -7.827   5.913  66.330  1.00  0.00    -0.098 OA 
HETATM   12  O   UNL     1      -9.099   9.740  64.457  1.00  0.00    -0.224 OA 
ENDROOT
BRANCH   4  13
HETATM   13  C   UNL     1      -8.468   6.433  69.001  1.00  0.00    -0.124 C  
BRANCH  13  14
HETATM   14  S   UNL     1     -10.151   5.715  69.028  1.00  0.00    -0.215 SA 
BRANCH  14  15
HETATM   15  C   UNL     1     -10.449   5.478  70.708  1.00  0.00    -0.260 A  
HETATM   16  N   UNL     1      -9.813   4.638  71.494  1.00  0.00    -0.182 NA 
HETATM   17  N   UNL     1     -10.429   4.713  72.714  1.00  0.00    -0.195 NA 
HETATM   18  N   UNL     1     -11.415   6.112  71.445  1.00  0.00    -0.283 NA 
HETATM   19  N   UNL     1     -11.415   5.597  72.694  1.00  0.00    -0.306 NA 
BRANCH  18  20
HETATM   20  C   UNL     1     -12.332   7.198  71.143  1.00  0.00    -0.364 C  
BRANCH  20  21
HETATM   21  C   UNL     1     -11.880   8.495  71.836  1.00  0.00    -0.341 C  
BRANCH  21  22
HETATM   22  N   UNL     1     -12.934   9.390  72.366  1.00  0.00    -0.384 NA 
HETATM   23  C   UNL     1     -14.240   8.722  72.223  1.00  0.00    -0.420 C  
HETATM   24  C   UNL     1     -13.005  10.681  71.670  1.00  0.00    -0.477 C  
ENDBRANCH  21  22
ENDBRANCH  20  21
ENDBRANCH  18  20
ENDBRANCH  14  15
ENDBRANCH  13  14
ENDBRANCH   4  13
BRANCH   8  25
HETATM   25  N   UNL     1     -10.062  12.147  66.527  1.00  0.00    -0.206 N  
HETATM   26  C   UNL     1     -10.593  13.003  65.587  1.00  0.00    -0.282 C  
HETATM   27  H   UNL     1     -10.592  11.958  67.379  1.00  0.00     0.000 HD 
HETATM   28  O   UNL     1     -10.072  13.183  64.487  1.00  0.00    -0.321 OA 
BRANCH  26  29
HETATM   29  C   UNL     1     -11.857  13.719  66.016  1.00  0.00    -0.415 C  
BRANCH  29  30
HETATM   30  C   UNL     1     -11.693  14.343  67.356  1.00  0.00    -0.397 A  
HETATM   31  N   UNL     1     -11.972  13.813  70.811  1.00  0.00    -0.494 NA 
HETATM   32  C   UNL     1     -11.244  15.623  67.622  1.00  0.00    -0.274 A  
HETATM   33  S   UNL     1     -11.196  15.889  69.311  1.00  0.00    -0.358 SA 
HETATM   34  H2  UNL     1     -11.775  14.409  71.615  1.00  0.00     0.000 HD 
HETATM   35  H1  UNL     1     -12.315  12.865  70.965  1.00  0.00     0.000 HD 
HETATM   36  N   UNL     1     -11.985  13.586  68.485  1.00  0.00    -0.363 NA 
HETATM   37  C   UNL     1     -11.773  14.294  69.570  1.00  0.00    -0.316 A  
ENDBRANCH  29  30
ENDBRANCH  26  29
ENDBRANCH   8  25
TORSDOF 9
ENDMDL
MODEL       73
REMARK 921   NORMALIZED FREE ENERGY PREDICTED BY IDOCK:   -5.38 KCAL/MOL
REMARK 922        TOTAL FREE ENERGY PREDICTED BY IDOCK:  -10.14 KCAL/MOL
REMARK 923 INTER-LIGAND FREE ENERGY PREDICTED BY IDOCK:   -9.08 KCAL/MOL
REMARK 924 INTRA-LIGAND FREE ENERGY PREDICTED BY IDOCK:   -1.06 KCAL/MOL
REMARK 927      BINDING AFFINITY PREDICTED BY RF-SCORE:    0.00 PKD
ROOT
HETATM    1  C   UNL     1     -10.143  10.072  66.782  1.00  0.00    -0.226 C  
HETATM    2  S   UNL     1     -11.276  11.035  67.808  1.00  0.00    -0.300 SA 
HETATM    3  C   UNL     1     -10.630  12.627  67.249  1.00  0.00    -0.228 C  
HETATM    4  C   UNL     1      -9.111  12.742  67.246  1.00  0.00    -0.200 C  
HETATM    5  C   UNL     1      -8.409   9.142  67.489  1.00  0.00    -0.116 C  
HETATM    6  CA  UNL     1      -8.267  11.667  67.242  1.00  0.00    -0.159 C  
HETATM    7  C   UNL     1      -6.766  11.878  67.307  1.00  0.00    -0.138 C  
HETATM    8  CA  UNL     1      -9.861   8.612  67.263  1.00  0.00    -0.197 C  
HETATM    9  N   UNL     1      -8.783  10.399  67.177  1.00  0.00    -0.130 N  
HETATM   10  O   UNL     1      -6.009  10.854  67.735  1.00  0.00    -0.043 OA 
HETATM   11  OXT UNL     1      -6.228  12.926  66.977  1.00  0.00    -0.242 OA 
HETATM   12  O   UNL     1      -7.354   8.729  67.923  1.00  0.00    -0.086 OA 
ENDROOT
BRANCH   4  13
HETATM   13  C   UNL     1      -8.676  14.204  67.406  1.00  0.00    -0.210 C  
BRANCH  13  14
HETATM   14  S   UNL     1     -10.032  15.293  67.971  1.00  0.00    -0.225 SA 
BRANCH  14  15
HETATM   15  C   UNL     1     -10.537  16.077  66.522  1.00  0.00    -0.284 A  
HETATM   16  N   UNL     1     -10.838  15.484  65.389  1.00  0.00    -0.374 NA 
HETATM   17  N   UNL     1     -11.095  16.483  64.489  1.00  0.00    -0.866 NA 
HETATM   18  N   UNL     1     -10.659  17.431  66.348  1.00  0.00    -0.252 NA 
HETATM   19  N   UNL     1     -10.975  17.674  65.057  1.00  0.00    -0.733 NA 
BRANCH  18  20
HETATM   20  C   UNL     1     -10.562  18.556  67.262  1.00  0.00    -0.413 C  
BRANCH  20  21
HETATM   21  C   UNL     1      -9.544  19.588  66.741  1.00  0.00    -0.357 C  
BRANCH  21  22
HETATM   22  N   UNL     1      -8.235  19.664  67.429  1.00  0.00    -0.288 NA 
HETATM   23  C   UNL     1      -7.218  20.120  66.464  1.00  0.00    -0.262 C  
HETATM   24  C   UNL     1      -7.793  18.378  67.983  1.00  0.00    -0.274 C  
ENDBRANCH  21  22
ENDBRANCH  20  21
ENDBRANCH  18  20
ENDBRANCH  14  15
ENDBRANCH  13  14
ENDBRANCH   4  13
BRANCH   8  25
HETATM   25  N   UNL     1     -10.573   8.160  68.497  1.00  0.00    -0.372 N  
HETATM   26  C   UNL     1     -10.757   6.826  68.789  1.00  0.00    -0.239 C  
HETATM   27  H   UNL     1     -10.933   8.862  69.144  1.00  0.00     0.000 HD 
HETATM   28  O   UNL     1     -10.247   5.926  68.123  1.00  0.00    -0.152 OA 
BRANCH  26  29
HETATM   29  C   UNL     1     -11.650   6.551  69.980  1.00  0.00    -0.455 C  
BRANCH  29  30
HETATM   30  C   UNL     1     -10.888   6.639  71.255  1.00  0.00    -0.238 A  
HETATM   31  N   UNL     1      -7.720   6.309  72.721  1.00  0.00    -0.104 NA 
HETATM   32  C   UNL     1     -11.388   6.993  72.494  1.00  0.00    -0.263 A  
HETATM   33  S   UNL     1     -10.135   6.981  73.658  1.00  0.00    -0.361 SA 
HETATM   34  H2  UNL     1      -7.388   6.444  73.676  1.00  0.00     0.000 HD 
HETATM   35  H1  UNL     1      -7.059   6.027  71.998  1.00  0.00     0.000 HD 
HETATM   36  N   UNL     1      -9.524   6.369  71.237  1.00  0.00    -0.166 NA 
HETATM   37  C   UNL     1      -9.022   6.506  72.442  1.00  0.00    -0.133 A  
ENDBRANCH  29  30
ENDBRANCH  26  29
ENDBRANCH   8  25
TORSDOF 9
ENDMDL
MODEL       74
REMARK 921   NORMALIZED FREE ENERGY PREDICTED BY IDOCK:   -5.37 KCAL/MOL
REMARK 922        TOTAL FREE ENERGY PREDICTED BY IDOCK:  -10.13 KCAL/MOL
REMARK 923 INTER-LIGAND FREE ENERGY PREDICTED BY IDOCK:   -7.67 KCAL/MOL
REMARK 924 INTRA-LIGAND FREE ENERGY PREDICTED BY IDOCK:   -2.46 KCAL/MOL
REMARK 927      BINDING AFFINITY PREDICTED BY RF-SCORE:    0.00 PKD
ROOT
HETATM    1  C   UNL     1      -8.245  10.188  68.652  1.00  0.00    -0.111 C  
HETATM    2  S   UNL     1      -7.714   9.758  70.324  1.00  0.00    -0.132 SA 
HETATM    3  C   UNL     1      -6.413   8.639  69.759  1.00  0.00    -0.038 C  
HETATM    4  C   UNL     1      -6.835   7.655  68.675  1.00  0.00    -0.066 C  
HETATM    5  C   UNL     1      -9.927   9.388  67.704  1.00  0.00    -0.190 C  
HETATM    6  CA  UNL     1      -7.928   7.828  67.874  1.00  0.00    -0.125 C  
HETATM    7  C   UNL     1      -8.309   6.761  66.866  1.00  0.00    -0.114 C  
HETATM    8  CA  UNL     1      -9.714  10.705  68.515  1.00  0.00    -0.174 C  
HETATM    9  N   UNL     1      -8.676   8.972  67.985  1.00  0.00    -0.129 N  
HETATM   10  O   UNL     1      -9.578   6.744  66.424  1.00  0.00    -0.163 OA 
HETATM   11  OXT UNL     1      -7.513   5.938  66.436  1.00  0.00    -0.080 OA 
HETATM   12  O   UNL     1     -10.837   8.802  67.156  1.00  0.00    -0.209 OA 
ENDROOT
BRANCH   4  13
HETATM   13  C   UNL     1      -5.966   6.392  68.720  1.00  0.00    -0.021 C  
BRANCH  13  14
HETATM   14  S   UNL     1      -6.329   5.326  70.162  1.00  0.00    -0.031 SA 
BRANCH  14  15
HETATM   15  C   UNL     1      -7.840   4.609  69.749  1.00  0.00    -0.061 A  
HETATM   16  N   UNL     1      -8.007   3.521  69.031  1.00  0.00    -0.057 NA 
HETATM   17  N   UNL     1      -9.359   3.367  68.876  1.00  0.00    -0.165 NA 
HETATM   18  N   UNL     1      -9.075   5.098  70.087  1.00  0.00    -0.125 NA 
HETATM   19  N   UNL     1     -10.020   4.329  69.503  1.00  0.00    -0.152 NA 
BRANCH  18  20
HETATM   20  C   UNL     1      -9.502   6.190  70.944  1.00  0.00    -0.172 C  
BRANCH  20  21
HETATM   21  C   UNL     1     -10.612   7.009  70.262  1.00  0.00    -0.226 C  
BRANCH  21  22
HETATM   22  N   UNL     1     -11.446   7.881  71.121  1.00  0.00    -0.270 NA 
HETATM   23  C   UNL     1     -10.731   8.122  72.387  1.00  0.00    -0.334 C  
HETATM   24  C   UNL     1     -12.755   7.300  71.442  1.00  0.00    -0.389 C  
ENDBRANCH  21  22
ENDBRANCH  20  21
ENDBRANCH  18  20
ENDBRANCH  14  15
ENDBRANCH  13  14
ENDBRANCH   4  13
BRANCH   8  25
HETATM   25  N   UNL     1     -10.510  10.814  69.774  1.00  0.00    -0.436 N  
HETATM   26  C   UNL     1     -11.847  11.147  69.769  1.00  0.00    -0.349 C  
HETATM   27  H   UNL     1     -10.049  10.635  70.667  1.00  0.00     0.000 HD 
HETATM   28  O   UNL     1     -12.497  11.256  68.730  1.00  0.00    -0.444 OA 
BRANCH  26  29
HETATM   29  C   UNL     1     -12.451  11.386  71.137  1.00  0.00    -0.465 C  
BRANCH  29  30
HETATM   30  C   UNL     1     -12.787  12.822  71.333  1.00  0.00    -0.275 A  
HETATM   31  N   UNL     1     -12.002  16.100  70.366  1.00  0.00    -0.423 NA 
HETATM   32  C   UNL     1     -13.776  13.335  72.150  1.00  0.00    -0.526 A  
HETATM   33  S   UNL     1     -13.808  15.041  72.033  1.00  0.00    -0.531 SA 
HETATM   34  H2  UNL     1     -12.396  17.004  70.624  1.00  0.00     0.000 HD 
HETATM   35  H1  UNL     1     -11.231  16.063  69.700  1.00  0.00     0.000 HD 
HETATM   36  N   UNL     1     -12.072  13.778  70.620  1.00  0.00    -0.344 NA 
HETATM   37  C   UNL     1     -12.511  14.980  70.912  1.00  0.00    -0.345 A  
ENDBRANCH  29  30
ENDBRANCH  26  29
ENDBRANCH   8  25
TORSDOF 9
ENDMDL
MODEL       75
REMARK 921   NORMALIZED FREE ENERGY PREDICTED BY IDOCK:   -5.32 KCAL/MOL
REMARK 922        TOTAL FREE ENERGY PREDICTED BY IDOCK:  -10.05 KCAL/MOL
REMARK 923 INTER-LIGAND FREE ENERGY PREDICTED BY IDOCK:   -8.77 KCAL/MOL
REMARK 924 INTRA-LIGAND FREE ENERGY PREDICTED BY IDOCK:   -1.29 KCAL/MOL
REMARK 927      BINDING AFFINITY PREDICTED BY RF-SCORE:    0.00 PKD
ROOT
HETATM    1  C   UNL     1     -10.727  15.328  67.810  1.00  0.00    -0.286 C  
HETATM    2  S   UNL     1     -10.827  15.482  66.013  1.00  0.00    -0.265 SA 
HETATM    3  C   UNL     1     -10.770  13.699  65.730  1.00  0.00    -0.280 C  
HETATM    4  C   UNL     1      -9.686  12.958  66.504  1.00  0.00    -0.257 C  
HETATM    5  C   UNL     1      -8.986  15.632  68.927  1.00  0.00    -0.221 C  
HETATM    6  CA  UNL     1      -9.077  13.453  67.623  1.00  0.00    -0.203 C  
HETATM    7  C   UNL     1      -7.960  12.672  68.289  1.00  0.00    -0.153 C  
HETATM    8  CA  UNL     1     -10.177  16.577  68.571  1.00  0.00    -0.266 C  
HETATM    9  N   UNL     1      -9.482  14.656  68.139  1.00  0.00    -0.206 N  
HETATM   10  O   UNL     1      -7.112  13.349  69.081  1.00  0.00    -0.092 OA 
HETATM   11  OXT UNL     1      -7.815  11.466  68.145  1.00  0.00    -0.115 OA 
HETATM   12  O   UNL     1      -7.925  15.696  69.511  1.00  0.00    -0.230 OA 
ENDROOT
BRANCH   4  13
HETATM   13  C   UNL     1      -9.276  11.675  65.771  1.00  0.00    -0.173 C  
BRANCH  13  14
HETATM   14  S   UNL     1     -10.409  10.276  66.093  1.00  0.00    -0.139 SA 
BRANCH  14  15
HETATM   15  C   UNL     1      -9.387   8.898  65.932  1.00  0.00    -0.236 A  
HETATM   16  N   UNL     1      -8.189   8.885  65.392  1.00  0.00    -0.122 NA 
HETATM   17  N   UNL     1      -7.782   7.578  65.391  1.00  0.00    -0.102 NA 
HETATM   18  N   UNL     1      -9.701   7.620  66.317  1.00  0.00    -0.117 NA 
HETATM   19  N   UNL     1      -8.700   6.796  65.939  1.00  0.00    -0.153 NA 
BRANCH  18  20
HETATM   20  C   UNL     1     -10.823   7.059  67.051  1.00  0.00    -0.343 C  
BRANCH  20  21
HETATM   21  C   UNL     1     -10.585   7.172  68.567  1.00  0.00    -0.187 C  
BRANCH  21  22
HETATM   22  N   UNL     1     -11.163   6.116  69.430  1.00  0.00    -0.415 NA 
HETATM   23  C   UNL     1     -11.737   6.748  70.632  1.00  0.00    -0.386 C  
HETATM   24  C   UNL     1     -10.179   5.118  69.866  1.00  0.00    -0.291 C  
ENDBRANCH  21  22
ENDBRANCH  20  21
ENDBRANCH  18  20
ENDBRANCH  14  15
ENDBRANCH  13  14
ENDBRANCH   4  13
BRANCH   8  25
HETATM   25  N   UNL     1      -9.820  17.768  67.742  1.00  0.00    -0.284 N  
HETATM   26  C   UNL     1      -9.827  19.047  68.256  1.00  0.00    -0.378 C  
HETATM   27  H   UNL     1      -9.562  17.630  66.765  1.00  0.00     0.000 HD 
HETATM   28  O   UNL     1     -10.006  19.279  69.451  1.00  0.00    -0.316 OA 
BRANCH  26  29
HETATM   29  C   UNL     1      -9.614  20.146  67.237  1.00  0.00    -0.555 C  
BRANCH  29  30
HETATM   30  C   UNL     1      -8.209  20.162  66.749  1.00  0.00    -0.304 A  
HETATM   31  N   UNL     1      -6.032  18.994  64.261  1.00  0.00    -0.447 NA 
HETATM   32  C   UNL     1      -7.149  20.854  67.305  1.00  0.00    -0.370 A  
HETATM   33  S   UNL     1      -5.730  20.591  66.386  1.00  0.00    -0.186 SA 
HETATM   34  H2  UNL     1      -5.040  19.153  64.087  1.00  0.00     0.000 HD 
HETATM   35  H1  UNL     1      -6.559  18.393  63.628  1.00  0.00     0.000 HD 
HETATM   36  N   UNL     1      -7.892  19.441  65.603  1.00  0.00    -0.415 NA 
HETATM   37  C   UNL     1      -6.617  19.581  65.321  1.00  0.00    -0.275 A  
ENDBRANCH  29  30
ENDBRANCH  26  29
ENDBRANCH   8  25
TORSDOF 9
ENDMDL
MODEL       76
REMARK 921   NORMALIZED FREE ENERGY PREDICTED BY IDOCK:   -5.30 KCAL/MOL
REMARK 922        TOTAL FREE ENERGY PREDICTED BY IDOCK:  -10.03 KCAL/MOL
REMARK 923 INTER-LIGAND FREE ENERGY PREDICTED BY IDOCK:   -8.52 KCAL/MOL
REMARK 924 INTRA-LIGAND FREE ENERGY PREDICTED BY IDOCK:   -1.51 KCAL/MOL
REMARK 927      BINDING AFFINITY PREDICTED BY RF-SCORE:    0.00 PKD
ROOT
HETATM    1  C   UNL     1      -8.070   9.984  67.130  1.00  0.00    -0.117 C  
HETATM    2  S   UNL     1      -9.254  10.626  68.335  1.00  0.00    -0.166 SA 
HETATM    3  C   UNL     1      -8.640   9.589  69.680  1.00  0.00    -0.183 C  
HETATM    4  C   UNL     1      -8.436   8.122  69.323  1.00  0.00    -0.134 C  
HETATM    5  C   UNL     1      -8.524   8.554  65.674  1.00  0.00    -0.155 C  
HETATM    6  CA  UNL     1      -8.301   7.662  68.043  1.00  0.00    -0.124 C  
HETATM    7  C   UNL     1      -8.169   6.175  67.779  1.00  0.00    -0.117 C  
HETATM    8  CA  UNL     1      -8.486  10.115  65.630  1.00  0.00    -0.153 C  
HETATM    9  N   UNL     1      -8.285   8.553  67.001  1.00  0.00    -0.106 N  
HETATM   10  O   UNL     1      -8.475   5.729  66.549  1.00  0.00    -0.113 OA 
HETATM   11  OXT UNL     1      -7.787   5.381  68.628  1.00  0.00    -0.086 OA 
HETATM   12  O   UNL     1      -8.806   7.636  64.934  1.00  0.00     0.127 OA 
ENDROOT
BRANCH   4  13
HETATM   13  C   UNL     1      -8.560   7.237  70.570  1.00  0.00    -0.143 C  
BRANCH  13  14
HETATM   14  S   UNL     1      -9.294   8.114  71.997  1.00  0.00    -0.227 SA 
BRANCH  14  15
HETATM   15  C   UNL     1     -10.979   7.794  71.831  1.00  0.00    -0.249 A  
HETATM   16  N   UNL     1     -11.570   6.642  72.055  1.00  0.00    -0.287 NA 
HETATM   17  N   UNL     1     -12.886   6.813  71.714  1.00  0.00    -0.327 NA 
HETATM   18  N   UNL     1     -11.925   8.691  71.409  1.00  0.00    -0.294 NA 
HETATM   19  N   UNL     1     -13.111   8.053  71.306  1.00  0.00    -0.220 NA 
BRANCH  18  20
HETATM   20  C   UNL     1     -11.876  10.115  71.125  1.00  0.00    -0.381 C  
BRANCH  20  21
HETATM   21  C   UNL     1     -13.151  10.811  71.634  1.00  0.00    -0.446 C  
BRANCH  21  22
HETATM   22  N   UNL     1     -13.345  12.233  71.272  1.00  0.00     0.032 NA 
HETATM   23  C   UNL     1     -12.145  12.709  70.559  1.00  0.00    -0.275 C  
HETATM   24  C   UNL     1     -13.559  13.105  72.433  1.00  0.00    -0.567 C  
ENDBRANCH  21  22
ENDBRANCH  20  21
ENDBRANCH  18  20
ENDBRANCH  14  15
ENDBRANCH  13  14
ENDBRANCH   4  13
BRANCH   8  25
HETATM   25  N   UNL     1      -9.796  10.776  65.348  1.00  0.00    -0.243 N  
HETATM   26  C   UNL     1     -10.216  11.052  64.065  1.00  0.00    -0.358 C  
HETATM   27  H   UNL     1     -10.399  11.030  66.132  1.00  0.00     0.000 HD 
HETATM   28  O   UNL     1      -9.603  10.666  63.071  1.00  0.00    -0.299 OA 
BRANCH  26  29
HETATM   29  C   UNL     1     -11.480  11.881  63.972  1.00  0.00    -0.480 C  
BRANCH  29  30
HETATM   30  C   UNL     1     -11.400  13.084  64.845  1.00  0.00    -0.303 A  
HETATM   31  N   UNL     1     -12.385  14.458  67.917  1.00  0.00    -0.599 NA 
HETATM   32  C   UNL     1     -10.707  14.250  64.583  1.00  0.00    -0.365 A  
HETATM   33  S   UNL     1     -10.884  15.343  65.886  1.00  0.00    -0.306 SA 
HETATM   34  H2  UNL     1     -12.189  15.354  68.361  1.00  0.00     0.000 HD 
HETATM   35  H1  UNL     1     -12.969  13.777  68.401  1.00  0.00     0.000 HD 
HETATM   36  N   UNL     1     -12.056  13.063  66.071  1.00  0.00    -0.432 NA 
HETATM   37  C   UNL     1     -11.866  14.198  66.702  1.00  0.00    -0.424 A  
ENDBRANCH  29  30
ENDBRANCH  26  29
ENDBRANCH   8  25
TORSDOF 9
ENDMDL
MODEL       77
REMARK 921   NORMALIZED FREE ENERGY PREDICTED BY IDOCK:   -5.30 KCAL/MOL
REMARK 922        TOTAL FREE ENERGY PREDICTED BY IDOCK:  -10.03 KCAL/MOL
REMARK 923 INTER-LIGAND FREE ENERGY PREDICTED BY IDOCK:   -8.26 KCAL/MOL
REMARK 924 INTRA-LIGAND FREE ENERGY PREDICTED BY IDOCK:   -1.77 KCAL/MOL
REMARK 927      BINDING AFFINITY PREDICTED BY RF-SCORE:    0.00 PKD
ROOT
HETATM    1  C   UNL     1      -9.486  10.891  66.979  1.00  0.00    -0.164 C  
HETATM    2  S   UNL     1     -10.469  11.072  68.485  1.00  0.00    -0.201 SA 
HETATM    3  C   UNL     1     -10.550  12.872  68.366  1.00  0.00    -0.253 C  
HETATM    4  C   UNL     1      -9.222  13.561  68.080  1.00  0.00    -0.209 C  
HETATM    5  C   UNL     1      -7.422  10.563  66.949  1.00  0.00    -0.110 C  
HETATM    6  CA  UNL     1      -8.139  12.929  67.536  1.00  0.00    -0.181 C  
HETATM    7  C   UNL     1      -6.835  13.679  67.348  1.00  0.00    -0.033 C  
HETATM    8  CA  UNL     1      -8.636   9.584  66.873  1.00  0.00    -0.128 C  
HETATM    9  N   UNL     1      -8.239  11.613  67.162  1.00  0.00    -0.158 N  
HETATM   10  O   UNL     1      -5.708  12.956  67.237  1.00  0.00    -0.317 OA 
HETATM   11  OXT UNL     1      -6.775  14.899  67.281  1.00  0.00    -0.277 OA 
HETATM   12  O   UNL     1      -6.211  10.498  66.985  1.00  0.00    -0.060 OA 
ENDROOT
BRANCH   4  13
HETATM   13  C   UNL     1      -9.225  14.995  68.622  1.00  0.00    -0.198 C  
BRANCH  13  14
HETATM   14  S   UNL     1     -10.859  15.806  68.487  1.00  0.00    -0.307 SA 
BRANCH  14  15
HETATM   15  C   UNL     1     -10.856  16.429  66.881  1.00  0.00    -0.118 A  
HETATM   16  N   UNL     1     -10.947  15.720  65.778  1.00  0.00    -0.263 NA 
HETATM   17  N   UNL     1     -10.814  16.604  64.741  1.00  0.00    -0.760 NA 
HETATM   18  N   UNL     1     -10.726  17.749  66.537  1.00  0.00    -0.192 NA 
HETATM   19  N   UNL     1     -10.665  17.842  65.190  1.00  0.00    -0.605 NA 
BRANCH  18  20
HETATM   20  C   UNL     1     -10.696  18.974  67.318  1.00  0.00    -0.470 C  
BRANCH  20  21
HETATM   21  C   UNL     1      -9.246  19.450  67.520  1.00  0.00    -0.308 C  
BRANCH  21  22
HETATM   22  N   UNL     1      -8.170  18.442  67.380  1.00  0.00    -0.242 NA 
HETATM   23  C   UNL     1      -7.428  18.362  68.652  1.00  0.00    -0.296 C  
HETATM   24  C   UNL     1      -7.213  18.757  66.314  1.00  0.00    -0.251 C  
ENDBRANCH  21  22
ENDBRANCH  20  21
ENDBRANCH  18  20
ENDBRANCH  14  15
ENDBRANCH  13  14
ENDBRANCH   4  13
BRANCH   8  25
HETATM   25  N   UNL     1      -8.745   8.615  68.006  1.00  0.00    -0.140 N  
HETATM   26  C   UNL     1      -8.662   7.253  67.816  1.00  0.00    -0.126 C  
HETATM   27  H   UNL     1      -8.885   8.975  68.951  1.00  0.00     0.000 HD 
HETATM   28  O   UNL     1      -8.373   6.753  66.729  1.00  0.00    -0.112 OA 
BRANCH  26  29
HETATM   29  C   UNL     1      -8.971   6.417  69.040  1.00  0.00    -0.128 C  
BRANCH  29  30
HETATM   30  C   UNL     1      -9.681   7.218  70.073  1.00  0.00    -0.175 A  
HETATM   31  N   UNL     1     -12.705   8.793  70.891  1.00  0.00    -0.492 NA 
HETATM   32  C   UNL     1      -9.180   7.615  71.299  1.00  0.00    -0.145 A  
HETATM   33  S   UNL     1     -10.368   8.496  72.160  1.00  0.00    -0.335 SA 
HETATM   34  H2  UNL     1     -13.010   9.306  71.718  1.00  0.00     0.000 HD 
HETATM   35  H1  UNL     1     -13.352   8.672  70.113  1.00  0.00     0.000 HD 
HETATM   36  N   UNL     1     -10.994   7.606  69.831  1.00  0.00    -0.234 NA 
HETATM   37  C   UNL     1     -11.457   8.292  70.850  1.00  0.00    -0.274 A  
ENDBRANCH  29  30
ENDBRANCH  26  29
ENDBRANCH   8  25
TORSDOF 9
ENDMDL
MODEL       78
REMARK 921   NORMALIZED FREE ENERGY PREDICTED BY IDOCK:   -5.30 KCAL/MOL
REMARK 922        TOTAL FREE ENERGY PREDICTED BY IDOCK:  -10.03 KCAL/MOL
REMARK 923 INTER-LIGAND FREE ENERGY PREDICTED BY IDOCK:   -8.59 KCAL/MOL
REMARK 924 INTRA-LIGAND FREE ENERGY PREDICTED BY IDOCK:   -1.44 KCAL/MOL
REMARK 927      BINDING AFFINITY PREDICTED BY RF-SCORE:    0.00 PKD
ROOT
HETATM    1  C   UNL     1     -11.551  11.001  68.880  1.00  0.00    -0.314 C  
HETATM    2  S   UNL     1      -9.764  10.936  68.625  1.00  0.00    -0.189 SA 
HETATM    3  C   UNL     1      -9.688   9.134  68.724  1.00  0.00    -0.162 C  
HETATM    4  C   UNL     1     -10.446   8.520  69.895  1.00  0.00    -0.219 C  
HETATM    5  C   UNL     1     -12.469  11.482  70.696  1.00  0.00    -0.314 C  
HETATM    6  CA  UNL     1     -11.442   9.161  70.577  1.00  0.00    -0.229 C  
HETATM    7  C   UNL     1     -12.095   8.496  71.773  1.00  0.00    -0.333 C  
HETATM    8  CA  UNL     1     -12.110  12.347  69.446  1.00  0.00    -0.180 C  
HETATM    9  N   UNL     1     -11.847  10.407  70.172  1.00  0.00    -0.287 N  
HETATM   10  O   UNL     1     -12.726   9.285  72.659  1.00  0.00    -0.303 OA 
HETATM   11  OXT UNL     1     -12.080   7.285  71.950  1.00  0.00    -0.296 OA 
HETATM   12  O   UNL     1     -12.947  11.644  71.799  1.00  0.00    -0.435 OA 
ENDROOT
BRANCH   4  13
HETATM   13  C   UNL     1      -9.835   7.170  70.289  1.00  0.00    -0.176 C  
BRANCH  13  14
HETATM   14  S   UNL     1      -8.325   6.766  69.339  1.00  0.00    -0.133 SA 
BRANCH  14  15
HETATM   15  C   UNL     1      -8.935   5.889  67.987  1.00  0.00    -0.118 A  
HETATM   16  N   UNL     1      -9.907   5.006  68.016  1.00  0.00    -0.153 NA 
HETATM   17  N   UNL     1     -10.000   4.496  66.748  1.00  0.00    -0.221 NA 
HETATM   18  N   UNL     1      -8.463   5.972  66.703  1.00  0.00    -0.110 NA 
HETATM   19  N   UNL     1      -9.116   5.067  65.942  1.00  0.00    -0.146 NA 
BRANCH  18  20
HETATM   20  C   UNL     1      -7.489   6.840  66.064  1.00  0.00    -0.081 C  
BRANCH  20  21
HETATM   21  C   UNL     1      -8.106   7.531  64.835  1.00  0.00    -0.121 C  
BRANCH  21  22
HETATM   22  N   UNL     1      -8.055   9.010  64.785  1.00  0.00    -0.135 NA 
HETATM   23  C   UNL     1      -7.108   9.487  65.810  1.00  0.00    -0.096 C  
HETATM   24  C   UNL     1      -9.354   9.646  65.035  1.00  0.00    -0.255 C  
ENDBRANCH  21  22
ENDBRANCH  20  21
ENDBRANCH  18  20
ENDBRANCH  14  15
ENDBRANCH  13  14
ENDBRANCH   4  13
BRANCH   8  25
HETATM   25  N   UNL     1     -11.120  13.439  69.689  1.00  0.00    -0.464 N  
HETATM   26  C   UNL     1     -11.509  14.728  69.981  1.00  0.00    -0.277 C  
HETATM   27  H   UNL     1     -10.124  13.223  69.637  1.00  0.00     0.000 HD 
HETATM   28  O   UNL     1     -12.683  15.036  70.181  1.00  0.00    -0.303 OA 
BRANCH  26  29
HETATM   29  C   UNL     1     -10.384  15.741  70.022  1.00  0.00    -0.286 C  
BRANCH  29  30
HETATM   30  C   UNL     1     -10.338  16.544  68.771  1.00  0.00    -0.286 A  
HETATM   31  N   UNL     1     -10.643  16.419  65.280  1.00  0.00    -0.609 NA 
HETATM   32  C   UNL     1     -10.132  17.907  68.671  1.00  0.00    -0.394 A  
HETATM   33  S   UNL     1     -10.188  18.391  67.031  1.00  0.00    -0.399 SA 
HETATM   34  H2  UNL     1     -10.594  17.140  64.560  1.00  0.00     0.000 HD 
HETATM   35  H1  UNL     1     -10.815  15.452  65.006  1.00  0.00     0.000 HD 
HETATM   36  N   UNL     1     -10.545  15.899  67.556  1.00  0.00    -0.309 NA 
HETATM   37  C   UNL     1     -10.479  16.764  66.570  1.00  0.00    -0.258 A  
ENDBRANCH  29  30
ENDBRANCH  26  29
ENDBRANCH   8  25
TORSDOF 9
ENDMDL
MODEL       79
REMARK 921   NORMALIZED FREE ENERGY PREDICTED BY IDOCK:   -5.29 KCAL/MOL
REMARK 922        TOTAL FREE ENERGY PREDICTED BY IDOCK:  -10.01 KCAL/MOL
REMARK 923 INTER-LIGAND FREE ENERGY PREDICTED BY IDOCK:   -8.72 KCAL/MOL
REMARK 924 INTRA-LIGAND FREE ENERGY PREDICTED BY IDOCK:   -1.30 KCAL/MOL
REMARK 927      BINDING AFFINITY PREDICTED BY RF-SCORE:    0.00 PKD
ROOT
HETATM    1  C   UNL     1      -8.802   9.027  67.661  1.00  0.00    -0.124 C  
HETATM    2  S   UNL     1      -8.907  10.247  68.990  1.00  0.00    -0.176 SA 
HETATM    3  C   UNL     1      -7.932   9.257  70.146  1.00  0.00    -0.137 C  
HETATM    4  C   UNL     1      -8.340   7.792  70.244  1.00  0.00    -0.127 C  
HETATM    5  C   UNL     1     -10.332   7.696  67.156  1.00  0.00    -0.315 C  
HETATM    6  CA  UNL     1      -9.062   7.138  69.285  1.00  0.00    -0.137 C  
HETATM    7  C   UNL     1      -9.479   5.696  69.500  1.00  0.00    -0.136 C  
HETATM    8  CA  UNL     1      -9.933   9.094  66.585  1.00  0.00    -0.273 C  
HETATM    9  N   UNL     1      -9.405   7.792  68.130  1.00  0.00    -0.145 N  
HETATM   10  O   UNL     1     -10.518   5.233  68.785  1.00  0.00    -0.173 OA 
HETATM   11  OXT UNL     1      -8.904   4.946  70.277  1.00  0.00    -0.099 OA 
HETATM   12  O   UNL     1     -11.199   6.865  66.987  1.00  0.00    -0.369 OA 
ENDROOT
BRANCH   4  13
HETATM   13  C   UNL     1      -7.967   7.215  71.614  1.00  0.00    -0.097 C  
BRANCH  13  14
HETATM   14  S   UNL     1      -9.044   7.823  72.962  1.00  0.00    -0.240 SA 
BRANCH  14  15
HETATM   15  C   UNL     1     -10.584   7.162  72.561  1.00  0.00    -0.240 A  
HETATM   16  N   UNL     1     -11.426   7.647  71.676  1.00  0.00    -0.254 NA 
HETATM   17  N   UNL     1     -12.549   6.867  71.747  1.00  0.00    -0.359 NA 
HETATM   18  N   UNL     1     -11.153   6.056  73.138  1.00  0.00    -0.238 NA 
HETATM   19  N   UNL     1     -12.401   5.903  72.644  1.00  0.00     0.022 NA 
BRANCH  18  20
HETATM   20  C   UNL     1     -10.655   5.069  74.081  1.00  0.00    -0.288 C  
BRANCH  20  21
HETATM   21  C   UNL     1      -9.687   4.097  73.384  1.00  0.00    -0.117 C  
BRANCH  21  22
HETATM   22  N   UNL     1     -10.277   2.976  72.617  1.00  0.00    -0.157 NA 
HETATM   23  C   UNL     1     -11.161   2.205  73.510  1.00  0.00    -0.206 C  
HETATM   24  C   UNL     1      -9.275   2.058  72.064  1.00  0.00    -0.086 C  
ENDBRANCH  21  22
ENDBRANCH  20  21
ENDBRANCH  18  20
ENDBRANCH  14  15
ENDBRANCH  13  14
ENDBRANCH   4  13
BRANCH   8  25
HETATM   25  N   UNL     1     -10.960  10.166  66.752  1.00  0.00    -0.061 N  
HETATM   26  C   UNL     1     -10.892  11.359  66.065  1.00  0.00    -0.249 C  
HETATM   27  H   UNL     1     -11.737  10.010  67.395  1.00  0.00     0.000 HD 
HETATM   28  O   UNL     1     -10.057  11.569  65.185  1.00  0.00    -0.244 OA 
BRANCH  26  29
HETATM   29  C   UNL     1     -11.910  12.397  66.486  1.00  0.00    -0.407 C  
BRANCH  29  30
HETATM   30  C   UNL     1     -11.432  13.773  66.184  1.00  0.00    -0.338 A  
HETATM   31  N   UNL     1     -11.531  16.388  63.850  1.00  0.00    -1.618 NA 
HETATM   32  C   UNL     1     -10.637  14.566  66.990  1.00  0.00    -0.278 A  
HETATM   33  S   UNL     1     -10.365  16.079  66.239  1.00  0.00    -0.331 SA 
HETATM   34  H2  UNL     1     -11.120  17.321  63.847  1.00  0.00     0.000 HD 
HETATM   35  H1  UNL     1     -12.096  16.089  63.056  1.00  0.00     0.000 HD 
HETATM   36  N   UNL     1     -11.823  14.369  64.990  1.00  0.00    -0.383 NA 
HETATM   37  C   UNL     1     -11.316  15.577  64.902  1.00  0.00    -0.335 A  
ENDBRANCH  29  30
ENDBRANCH  26  29
ENDBRANCH   8  25
TORSDOF 9
ENDMDL
MODEL       80
REMARK 921   NORMALIZED FREE ENERGY PREDICTED BY IDOCK:   -5.28 KCAL/MOL
REMARK 922        TOTAL FREE ENERGY PREDICTED BY IDOCK:   -9.99 KCAL/MOL
REMARK 923 INTER-LIGAND FREE ENERGY PREDICTED BY IDOCK:   -8.07 KCAL/MOL
REMARK 924 INTRA-LIGAND FREE ENERGY PREDICTED BY IDOCK:   -1.92 KCAL/MOL
REMARK 927      BINDING AFFINITY PREDICTED BY RF-SCORE:    0.00 PKD
ROOT
HETATM    1  C   UNL     1      -7.953   9.397  66.080  1.00  0.00    -0.110 C  
HETATM    2  S   UNL     1      -9.144   9.262  67.432  1.00  0.00    -0.126 SA 
HETATM    3  C   UNL     1      -8.309   7.854  68.195  1.00  0.00    -0.124 C  
HETATM    4  C   UNL     1      -7.918   6.738  67.235  1.00  0.00    -0.114 C  
HETATM    5  C   UNL     1      -8.282   8.689  64.141  1.00  0.00    -0.155 C  
HETATM    6  CA  UNL     1      -7.794   6.905  65.884  1.00  0.00    -0.106 C  
HETATM    7  C   UNL     1      -7.465   5.719  64.998  1.00  0.00    -0.079 C  
HETATM    8  CA  UNL     1      -8.471  10.100  64.783  1.00  0.00    -0.174 C  
HETATM    9  N   UNL     1      -7.968   8.150  65.336  1.00  0.00    -0.118 N  
HETATM   10  O   UNL     1      -7.776   5.809  63.694  1.00  0.00    -0.080 OA 
HETATM   11  OXT UNL     1      -6.923   4.706  65.418  1.00  0.00    -0.059 OA 
HETATM   12  O   UNL     1      -8.473   8.150  63.071  1.00  0.00    -0.089 OA 
ENDROOT
BRANCH   4  13
HETATM   13  C   UNL     1      -7.839   5.393  67.968  1.00  0.00    -0.092 C  
BRANCH  13  14
HETATM   14  S   UNL     1      -9.482   4.644  68.262  1.00  0.00    -0.152 SA 
BRANCH  14  15
HETATM   15  C   UNL     1      -9.699   4.828  69.961  1.00  0.00    -0.210 A  
HETATM   16  N   UNL     1      -8.997   4.230  70.897  1.00  0.00    -0.104 NA 
HETATM   17  N   UNL     1      -9.563   4.591  72.091  1.00  0.00    -0.147 NA 
HETATM   18  N   UNL     1     -10.657   5.600  70.565  1.00  0.00    -0.278 NA 
HETATM   19  N   UNL     1     -10.584   5.415  71.901  1.00  0.00    -0.227 NA 
BRANCH  18  20
HETATM   20  C   UNL     1     -11.628   6.549  70.049  1.00  0.00    -0.390 C  
BRANCH  20  21
HETATM   21  C   UNL     1     -12.084   7.512  71.159  1.00  0.00    -0.307 C  
BRANCH  21  22
HETATM   22  N   UNL     1     -11.923   8.964  70.914  1.00  0.00    -0.256 NA 
HETATM   23  C   UNL     1     -10.501   9.318  71.085  1.00  0.00    -0.331 C  
HETATM   24  C   UNL     1     -12.713   9.799  71.827  1.00  0.00    -0.426 C  
ENDBRANCH  21  22
ENDBRANCH  20  21
ENDBRANCH  18  20
ENDBRANCH  14  15
ENDBRANCH  13  14
ENDBRANCH   4  13
BRANCH   8  25
HETATM   25  N   UNL     1      -9.877  10.605  64.806  1.00  0.00    -0.283 N  
HETATM   26  C   UNL     1     -10.361  11.468  63.847  1.00  0.00    -0.371 C  
HETATM   27  H   UNL     1     -10.499  10.301  65.556  1.00  0.00     0.000 HD 
HETATM   28  O   UNL     1      -9.711  11.780  62.850  1.00  0.00    -0.357 OA 
BRANCH  26  29
HETATM   29  C   UNL     1     -11.745  12.018  64.122  1.00  0.00    -0.457 C  
BRANCH  29  30
HETATM   30  C   UNL     1     -11.817  12.645  65.469  1.00  0.00    -0.431 A  
HETATM   31  N   UNL     1     -11.956  12.013  68.915  1.00  0.00    -0.282 NA 
HETATM   32  C   UNL     1     -11.821  13.998  65.750  1.00  0.00    -0.383 A  
HETATM   33  S   UNL     1     -11.889  14.246  67.442  1.00  0.00    -0.397 SA 
HETATM   34  H2  UNL     1     -11.980  12.631  69.726  1.00  0.00     0.000 HD 
HETATM   35  H1  UNL     1     -11.969  11.003  69.057  1.00  0.00     0.000 HD 
HETATM   36  N   UNL     1     -11.859  11.821  66.588  1.00  0.00    -0.541 NA 
HETATM   37  C   UNL     1     -11.909  12.547  67.681  1.00  0.00    -0.317 A  
ENDBRANCH  29  30
ENDBRANCH  26  29
ENDBRANCH   8  25
TORSDOF 9
ENDMDL
MODEL       81
REMARK 921   NORMALIZED FREE ENERGY PREDICTED BY IDOCK:   -5.28 KCAL/MOL
REMARK 922        TOTAL FREE ENERGY PREDICTED BY IDOCK:   -9.99 KCAL/MOL
REMARK 923 INTER-LIGAND FREE ENERGY PREDICTED BY IDOCK:   -8.21 KCAL/MOL
REMARK 924 INTRA-LIGAND FREE ENERGY PREDICTED BY IDOCK:   -1.78 KCAL/MOL
REMARK 927      BINDING AFFINITY PREDICTED BY RF-SCORE:    0.00 PKD
ROOT
HETATM    1  C   UNL     1     -10.745  10.515  68.754  1.00  0.00    -0.216 C  
HETATM    2  S   UNL     1     -10.374  12.241  68.372  1.00  0.00    -0.219 SA 
HETATM    3  C   UNL     1      -8.775  11.864  67.621  1.00  0.00    -0.162 C  
HETATM    4  C   UNL     1      -7.892  10.917  68.425  1.00  0.00    -0.123 C  
HETATM    5  C   UNL     1     -10.533   9.651  70.646  1.00  0.00    -0.312 C  
HETATM    6  CA  UNL     1      -8.363  10.077  69.395  1.00  0.00    -0.165 C  
HETATM    7  C   UNL     1      -7.399   9.218  70.190  1.00  0.00    -0.096 C  
HETATM    8  CA  UNL     1     -11.763  10.277  69.916  1.00  0.00    -0.225 C  
HETATM    9  N   UNL     1      -9.710  10.014  69.642  1.00  0.00    -0.224 N  
HETATM   10  O   UNL     1      -7.812   8.756  71.383  1.00  0.00    -0.131 OA 
HETATM   11  OXT UNL     1      -6.283   8.923  69.786  1.00  0.00    -0.034 OA 
HETATM   12  O   UNL     1     -10.274   9.171  71.730  1.00  0.00    -0.338 OA 
ENDROOT
BRANCH   4  13
HETATM   13  C   UNL     1      -6.411  11.154  68.106  1.00  0.00    -0.057 C  
BRANCH  13  14
HETATM   14  S   UNL     1      -5.944  12.922  68.154  1.00  0.00    -0.101 SA 
BRANCH  14  15
HETATM   15  C   UNL     1      -5.729  13.226  69.836  1.00  0.00    -0.122 A  
HETATM   16  N   UNL     1      -5.697  12.318  70.786  1.00  0.00    -0.298 NA 
HETATM   17  N   UNL     1      -5.599  13.003  71.968  1.00  0.00    -0.353 NA 
HETATM   18  N   UNL     1      -5.596  14.462  70.414  1.00  0.00    -0.118 NA 
HETATM   19  N   UNL     1      -5.551  14.310  71.756  1.00  0.00    -0.200 NA 
BRANCH  18  20
HETATM   20  C   UNL     1      -5.455  15.798  69.862  1.00  0.00    -0.126 C  
BRANCH  20  21
HETATM   21  C   UNL     1      -6.816  16.328  69.377  1.00  0.00    -0.213 C  
BRANCH  21  22
HETATM   22  N   UNL     1      -6.822  17.589  68.601  1.00  0.00    -0.217 NA 
HETATM   23  C   UNL     1      -6.475  18.703  69.503  1.00  0.00    -0.220 C  
HETATM   24  C   UNL     1      -8.121  17.888  67.987  1.00  0.00    -0.252 C  
ENDBRANCH  21  22
ENDBRANCH  20  21
ENDBRANCH  18  20
ENDBRANCH  14  15
ENDBRANCH  13  14
ENDBRANCH   4  13
BRANCH   8  25
HETATM   25  N   UNL     1     -12.339  11.493  70.566  1.00  0.00    -0.354 N  
HETATM   26  C   UNL     1     -13.112  11.418  71.705  1.00  0.00    -0.393 C  
HETATM   27  H   UNL     1     -12.154  12.408  70.154  1.00  0.00     0.000 HD 
HETATM   28  O   UNL     1     -13.276  10.368  72.325  1.00  0.00    -0.400 OA 
BRANCH  26  29
HETATM   29  C   UNL     1     -13.759  12.721  72.124  1.00  0.00    -0.454 C  
BRANCH  29  30
HETATM   30  C   UNL     1     -12.968  13.890  71.654  1.00  0.00    -0.352 A  
HETATM   31  N   UNL     1     -12.121  15.831  68.860  1.00  0.00    -0.559 NA 
HETATM   32  C   UNL     1     -12.188  14.726  72.431  1.00  0.00    -0.284 A  
HETATM   33  S   UNL     1     -11.489  15.947  71.458  1.00  0.00    -0.362 SA 
HETATM   34  H2  UNL     1     -11.537  16.661  68.752  1.00  0.00     0.000 HD 
HETATM   35  H1  UNL     1     -12.581  15.436  68.041  1.00  0.00     0.000 HD 
HETATM   36  N   UNL     1     -13.011  14.225  70.305  1.00  0.00    -0.165 NA 
HETATM   37  C   UNL     1     -12.265  15.282  70.080  1.00  0.00    -0.364 A  
ENDBRANCH  29  30
ENDBRANCH  26  29
ENDBRANCH   8  25
TORSDOF 9
ENDMDL
MODEL       82
REMARK 921   NORMALIZED FREE ENERGY PREDICTED BY IDOCK:   -5.27 KCAL/MOL
REMARK 922        TOTAL FREE ENERGY PREDICTED BY IDOCK:   -9.98 KCAL/MOL
REMARK 923 INTER-LIGAND FREE ENERGY PREDICTED BY IDOCK:   -8.45 KCAL/MOL
REMARK 924 INTRA-LIGAND FREE ENERGY PREDICTED BY IDOCK:   -1.53 KCAL/MOL
REMARK 927      BINDING AFFINITY PREDICTED BY RF-SCORE:    0.00 PKD
ROOT
HETATM    1  C   UNL     1     -10.574  10.007  67.465  1.00  0.00    -0.280 C  
HETATM    2  S   UNL     1     -10.920  11.130  68.838  1.00  0.00    -0.245 SA 
HETATM    3  C   UNL     1      -9.957  12.487  68.136  1.00  0.00    -0.224 C  
HETATM    4  C   UNL     1      -8.574  12.101  67.626  1.00  0.00    -0.166 C  
HETATM    5  C   UNL     1      -9.155   8.473  67.521  1.00  0.00    -0.134 C  
HETATM    6  CA  UNL     1      -8.210  10.823  67.308  1.00  0.00    -0.121 C  
HETATM    7  C   UNL     1      -6.790  10.523  66.871  1.00  0.00    -0.091 C  
HETATM    8  CA  UNL     1     -10.695   8.482  67.784  1.00  0.00    -0.101 C  
HETATM    9  N   UNL     1      -9.136   9.815  67.387  1.00  0.00    -0.134 N  
HETATM   10  O   UNL     1      -6.353   9.258  66.991  1.00  0.00    -0.064 OA 
HETATM   11  OXT UNL     1      -6.044  11.374  66.406  1.00  0.00    -0.144 OA 
HETATM   12  O   UNL     1      -8.236   7.683  67.564  1.00  0.00    -0.118 OA 
ENDROOT
BRANCH   4  13
HETATM   13  C   UNL     1      -7.624  13.304  67.668  1.00  0.00    -0.170 C  
BRANCH  13  14
HETATM   14  S   UNL     1      -8.366  14.772  68.468  1.00  0.00    -0.165 SA 
BRANCH  14  15
HETATM   15  C   UNL     1      -8.168  16.007  67.282  1.00  0.00    -0.182 A  
HETATM   16  N   UNL     1      -7.031  16.564  66.932  1.00  0.00    -0.214 NA 
HETATM   17  N   UNL     1      -7.347  17.549  66.034  1.00  0.00    -0.422 NA 
HETATM   18  N   UNL     1      -9.178  16.597  66.568  1.00  0.00    -0.252 NA 
HETATM   19  N   UNL     1      -8.653  17.588  65.814  1.00  0.00    -0.470 NA 
BRANCH  18  20
HETATM   20  C   UNL     1     -10.600  16.322  66.457  1.00  0.00    -0.256 C  
BRANCH  20  21
HETATM   21  C   UNL     1     -10.889  15.469  65.209  1.00  0.00    -0.411 C  
BRANCH  21  22
HETATM   22  N   UNL     1     -11.208  14.038  65.417  1.00  0.00    -0.311 NA 
HETATM   23  C   UNL     1     -10.604  13.254  64.324  1.00  0.00    -0.384 C  
HETATM   24  C   UNL     1     -12.649  13.760  65.434  1.00  0.00    -0.497 C  
ENDBRANCH  21  22
ENDBRANCH  20  21
ENDBRANCH  18  20
ENDBRANCH  14  15
ENDBRANCH  13  14
ENDBRANCH   4  13
BRANCH   8  25
HETATM   25  N   UNL     1     -11.106   8.115  69.173  1.00  0.00    -0.424 N  
HETATM   26  C   UNL     1     -11.297   6.806  69.558  1.00  0.00    -0.237 C  
HETATM   27  H   UNL     1     -11.250   8.858  69.858  1.00  0.00     0.000 HD 
HETATM   28  O   UNL     1     -11.025   5.855  68.826  1.00  0.00    -0.300 OA 
BRANCH  26  29
HETATM   29  C   UNL     1     -11.882   6.627  70.943  1.00  0.00    -0.434 C  
BRANCH  29  30
HETATM   30  C   UNL     1     -10.860   6.873  71.995  1.00  0.00    -0.225 A  
HETATM   31  N   UNL     1      -8.034   8.765  72.850  1.00  0.00    -0.385 NA 
HETATM   32  C   UNL     1     -10.782   6.259  73.231  1.00  0.00    -0.260 A  
HETATM   33  S   UNL     1      -9.455   6.881  74.113  1.00  0.00    -0.256 SA 
HETATM   34  H2  UNL     1      -7.456   8.794  73.689  1.00  0.00     0.000 HD 
HETATM   35  H1  UNL     1      -7.809   9.379  72.068  1.00  0.00     0.000 HD 
HETATM   36  N   UNL     1      -9.879   7.830  71.761  1.00  0.00    -0.164 NA 
HETATM   37  C   UNL     1      -9.077   7.916  72.798  1.00  0.00    -0.211 A  
ENDBRANCH  29  30
ENDBRANCH  26  29
ENDBRANCH   8  25
TORSDOF 9
ENDMDL
MODEL       83
REMARK 921   NORMALIZED FREE ENERGY PREDICTED BY IDOCK:   -5.27 KCAL/MOL
REMARK 922        TOTAL FREE ENERGY PREDICTED BY IDOCK:   -9.98 KCAL/MOL
REMARK 923 INTER-LIGAND FREE ENERGY PREDICTED BY IDOCK:   -8.88 KCAL/MOL
REMARK 924 INTRA-LIGAND FREE ENERGY PREDICTED BY IDOCK:   -1.11 KCAL/MOL
REMARK 927      BINDING AFFINITY PREDICTED BY RF-SCORE:    0.00 PKD
ROOT
HETATM    1  C   UNL     1     -12.126  11.689  68.366  1.00  0.00    -0.035 C  
HETATM    2  S   UNL     1     -11.513  13.008  69.437  1.00  0.00    -0.231 SA 
HETATM    3  C   UNL     1     -11.769  14.302  68.203  1.00  0.00    -0.350 C  
HETATM    4  C   UNL     1     -11.253  13.974  66.808  1.00  0.00    -0.323 C  
HETATM    5  C   UNL     1     -10.905  10.351  67.323  1.00  0.00    -0.264 C  
HETATM    6  CA  UNL     1     -11.006  12.704  66.367  1.00  0.00    -0.272 C  
HETATM    7  C   UNL     1     -10.430  12.477  64.983  1.00  0.00    -0.297 C  
HETATM    8  CA  UNL     1     -11.625  10.248  68.705  1.00  0.00    -0.025 C  
HETATM    9  N   UNL     1     -11.284  11.637  67.183  1.00  0.00    -0.297 N  
HETATM   10  O   UNL     1      -9.805  11.311  64.750  1.00  0.00    -0.240 OA 
HETATM   11  OXT UNL     1     -10.525  13.298  64.082  1.00  0.00    -0.414 OA 
HETATM   12  O   UNL     1     -10.153   9.684  66.644  1.00  0.00    -0.215 OA 
ENDROOT
BRANCH   4  13
HETATM   13  C   UNL     1     -10.909  15.256  66.040  1.00  0.00    -0.330 C  
BRANCH  13  14
HETATM   14  S   UNL     1      -9.297  15.970  66.530  1.00  0.00    -0.294 SA 
BRANCH  14  15
HETATM   15  C   UNL     1      -9.702  17.586  66.968  1.00  0.00    -0.284 A  
HETATM   16  N   UNL     1     -10.878  18.002  67.382  1.00  0.00    -0.306 NA 
HETATM   17  N   UNL     1     -10.775  19.360  67.529  1.00  0.00    -0.474 NA 
HETATM   18  N   UNL     1      -8.857  18.664  66.912  1.00  0.00    -0.278 NA 
HETATM   19  N   UNL     1      -9.553  19.777  67.232  1.00  0.00    -0.338 NA 
BRANCH  18  20
HETATM   20  C   UNL     1      -7.436  18.790  66.637  1.00  0.00    -0.233 C  
BRANCH  20  21
HETATM   21  C   UNL     1      -6.615  18.541  67.915  1.00  0.00    -0.209 C  
BRANCH  21  22
HETATM   22  N   UNL     1      -5.913  19.700  68.512  1.00  0.00    -0.225 NA 
HETATM   23  C   UNL     1      -6.535  20.013  69.812  1.00  0.00    -0.335 C  
HETATM   24  C   UNL     1      -5.968  20.907  67.679  1.00  0.00    -0.299 C  
ENDBRANCH  21  22
ENDBRANCH  20  21
ENDBRANCH  18  20
ENDBRANCH  14  15
ENDBRANCH  13  14
ENDBRANCH   4  13
BRANCH   8  25
HETATM   25  N   UNL     1     -10.720  10.109  69.886  1.00  0.00    -0.275 N  
HETATM   26  C   UNL     1     -10.309   8.879  70.353  1.00  0.00    -0.204 C  
HETATM   27  H   UNL     1     -10.397  10.952  70.361  1.00  0.00     0.000 HD 
HETATM   28  O   UNL     1     -10.557   7.830  69.760  1.00  0.00    -0.235 OA 
BRANCH  26  29
HETATM   29  C   UNL     1      -9.544   8.916  71.659  1.00  0.00    -0.363 C  
BRANCH  29  30
HETATM   30  C   UNL     1      -9.422   7.555  72.248  1.00  0.00    -0.153 A  
HETATM   31  N   UNL     1     -11.104   5.053  74.037  1.00  0.00    -0.413 NA 
HETATM   32  C   UNL     1      -8.318   6.725  72.189  1.00  0.00    -0.107 A  
HETATM   33  S   UNL     1      -8.651   5.249  72.986  1.00  0.00    -0.117 SA 
HETATM   34  H2  UNL     1     -10.824   4.120  74.342  1.00  0.00     0.000 HD 
HETATM   35  H1  UNL     1     -12.041   5.389  74.257  1.00  0.00     0.000 HD 
HETATM   36  N   UNL     1     -10.517   7.016  72.915  1.00  0.00    -0.231 NA 
HETATM   37  C   UNL     1     -10.228   5.814  73.356  1.00  0.00    -0.209 A  
ENDBRANCH  29  30
ENDBRANCH  26  29
ENDBRANCH   8  25
TORSDOF 9
ENDMDL
MODEL       84
REMARK 921   NORMALIZED FREE ENERGY PREDICTED BY IDOCK:   -5.26 KCAL/MOL
REMARK 922        TOTAL FREE ENERGY PREDICTED BY IDOCK:   -9.97 KCAL/MOL
REMARK 923 INTER-LIGAND FREE ENERGY PREDICTED BY IDOCK:   -8.96 KCAL/MOL
REMARK 924 INTRA-LIGAND FREE ENERGY PREDICTED BY IDOCK:   -1.01 KCAL/MOL
REMARK 927      BINDING AFFINITY PREDICTED BY RF-SCORE:    0.00 PKD
ROOT
HETATM    1  C   UNL     1     -11.016  14.919  67.595  1.00  0.00    -0.300 C  
HETATM    2  S   UNL     1      -9.537  14.255  66.796  1.00  0.00    -0.290 SA 
HETATM    3  C   UNL     1     -10.316  12.678  66.382  1.00  0.00    -0.249 C  
HETATM    4  C   UNL     1     -11.087  12.021  67.520  1.00  0.00    -0.331 C  
HETATM    5  C   UNL     1     -11.306  14.999  69.663  1.00  0.00    -0.286 C  
HETATM    6  CA  UNL     1     -11.541  12.694  68.619  1.00  0.00    -0.316 C  
HETATM    7  C   UNL     1     -12.243  11.943  69.735  1.00  0.00    -0.174 C  
HETATM    8  CA  UNL     1     -10.773  16.053  68.642  1.00  0.00    -0.281 C  
HETATM    9  N   UNL     1     -11.359  14.050  68.707  1.00  0.00    -0.260 N  
HETATM   10  O   UNL     1     -12.279  12.519  70.948  1.00  0.00    -0.347 OA 
HETATM   11  OXT UNL     1     -12.780  10.857  69.569  1.00  0.00    -0.267 OA 
HETATM   12  O   UNL     1     -11.476  14.907  70.861  1.00  0.00    -0.286 OA 
ENDROOT
BRANCH   4  13
HETATM   13  C   UNL     1     -11.142  10.500  67.332  1.00  0.00    -0.252 C  
BRANCH  13  14
HETATM   14  S   UNL     1      -9.666   9.646  67.994  1.00  0.00    -0.149 SA 
BRANCH  14  15
HETATM   15  C   UNL     1     -10.205   8.020  68.182  1.00  0.00    -0.207 A  
HETATM   16  N   UNL     1     -10.206   7.095  67.249  1.00  0.00    -0.217 NA 
HETATM   17  N   UNL     1     -10.797   5.991  67.804  1.00  0.00    -0.298 NA 
HETATM   18  N   UNL     1     -10.738   7.483  69.325  1.00  0.00    -0.210 NA 
HETATM   19  N   UNL     1     -11.138   6.219  69.064  1.00  0.00    -0.371 NA 
BRANCH  18  20
HETATM   20  C   UNL     1     -10.885   7.991  70.678  1.00  0.00    -0.234 C  
BRANCH  20  21
HETATM   21  C   UNL     1      -9.872   7.317  71.621  1.00  0.00    -0.165 C  
BRANCH  21  22
HETATM   22  N   UNL     1     -10.054   7.517  73.077  1.00  0.00    -0.258 NA 
HETATM   23  C   UNL     1      -8.769   7.942  73.661  1.00  0.00    -0.269 C  
HETATM   24  C   UNL     1     -10.496   6.307  73.780  1.00  0.00    -0.290 C  
ENDBRANCH  21  22
ENDBRANCH  20  21
ENDBRANCH  18  20
ENDBRANCH  14  15
ENDBRANCH  13  14
ENDBRANCH   4  13
BRANCH   8  25
HETATM   25  N   UNL     1      -9.358  16.485  68.852  1.00  0.00    -0.252 N  
HETATM   26  C   UNL     1      -8.996  17.814  68.897  1.00  0.00    -0.120 C  
HETATM   27  H   UNL     1      -8.636  15.772  68.966  1.00  0.00     0.000 HD 
HETATM   28  O   UNL     1      -9.823  18.725  68.891  1.00  0.00    -0.386 OA 
BRANCH  26  29
HETATM   29  C   UNL     1      -7.504  18.069  68.938  1.00  0.00    -0.235 C  
BRANCH  29  30
HETATM   30  C   UNL     1      -7.126  19.191  68.037  1.00  0.00    -0.242 A  
HETATM   31  N   UNL     1      -7.392  20.455  64.778  1.00  0.00    -0.345 NA 
HETATM   32  C   UNL     1      -6.401  20.317  68.380  1.00  0.00    -0.302 A  
HETATM   33  S   UNL     1      -6.235  21.343  67.021  1.00  0.00    -0.279 SA 
HETATM   34  H2  UNL     1      -7.052  21.313  64.345  1.00  0.00     0.000 HD 
HETATM   35  H1  UNL     1      -7.923  19.790  64.217  1.00  0.00     0.000 HD 
HETATM   36  N   UNL     1      -7.546  19.153  66.712  1.00  0.00    -0.232 NA 
HETATM   37  C   UNL     1      -7.129  20.224  66.077  1.00  0.00    -0.262 A  
ENDBRANCH  29  30
ENDBRANCH  26  29
ENDBRANCH   8  25
TORSDOF 9
ENDMDL
MODEL       85
REMARK 921   NORMALIZED FREE ENERGY PREDICTED BY IDOCK:   -5.24 KCAL/MOL
REMARK 922        TOTAL FREE ENERGY PREDICTED BY IDOCK:   -9.94 KCAL/MOL
REMARK 923 INTER-LIGAND FREE ENERGY PREDICTED BY IDOCK:   -8.54 KCAL/MOL
REMARK 924 INTRA-LIGAND FREE ENERGY PREDICTED BY IDOCK:   -1.40 KCAL/MOL
REMARK 927      BINDING AFFINITY PREDICTED BY RF-SCORE:    0.00 PKD
ROOT
HETATM    1  C   UNL     1      -9.555   8.921  70.675  1.00  0.00    -0.215 C  
HETATM    2  S   UNL     1      -9.493   9.054  68.874  1.00  0.00    -0.153 SA 
HETATM    3  C   UNL     1     -10.019  10.782  68.858  1.00  0.00    -0.202 C  
HETATM    4  C   UNL     1     -11.224  11.098  69.736  1.00  0.00    -0.318 C  
HETATM    5  C   UNL     1     -11.111   8.019  71.740  1.00  0.00    -0.260 C  
HETATM    6  CA  UNL     1     -11.639  10.308  70.771  1.00  0.00    -0.355 C  
HETATM    7  C   UNL     1     -12.890  10.668  71.549  1.00  0.00    -0.462 C  
HETATM    8  CA  UNL     1      -9.732   7.477  71.246  1.00  0.00    -0.164 C  
HETATM    9  N   UNL     1     -10.916   9.191  71.103  1.00  0.00    -0.290 N  
HETATM   10  O   UNL     1     -13.502   9.688  72.235  1.00  0.00    -0.441 OA 
HETATM   11  OXT UNL     1     -13.347  11.802  71.584  1.00  0.00    -0.338 OA 
HETATM   12  O   UNL     1     -12.095   7.598  72.312  1.00  0.00    -0.298 OA 
ENDROOT
BRANCH   4  13
HETATM   13  C   UNL     1     -11.981  12.319  69.201  1.00  0.00    -0.249 C  
BRANCH  13  14
HETATM   14  S   UNL     1     -11.037  13.876  69.377  1.00  0.00    -0.127 SA 
BRANCH  14  15
HETATM   15  C   UNL     1     -11.016  14.506  67.773  1.00  0.00    -0.275 A  
HETATM   16  N   UNL     1     -11.031  13.797  66.666  1.00  0.00    -0.294 NA 
HETATM   17  N   UNL     1     -10.913  14.692  65.636  1.00  0.00    -0.322 NA 
HETATM   18  N   UNL     1     -10.947  15.833  67.436  1.00  0.00    -0.308 NA 
HETATM   19  N   UNL     1     -10.847  15.934  66.093  1.00  0.00    -0.260 NA 
BRANCH  18  20
HETATM   20  C   UNL     1     -11.011  17.054  68.221  1.00  0.00    -0.269 C  
BRANCH  20  21
HETATM   21  C   UNL     1      -9.639  17.751  68.246  1.00  0.00    -0.312 C  
BRANCH  21  22
HETATM   22  N   UNL     1      -9.620  19.228  68.133  1.00  0.00    -0.333 NA 
HETATM   23  C   UNL     1     -10.694  19.647  67.213  1.00  0.00    -0.458 C  
HETATM   24  C   UNL     1      -8.350  19.756  67.621  1.00  0.00    -0.317 C  
ENDBRANCH  21  22
ENDBRANCH  20  21
ENDBRANCH  18  20
ENDBRANCH  14  15
ENDBRANCH  13  14
ENDBRANCH   4  13
BRANCH   8  25
HETATM   25  N   UNL     1      -9.805   6.363  70.252  1.00  0.00    -0.167 N  
HETATM   26  C   UNL     1      -9.853   5.041  70.635  1.00  0.00    -0.212 C  
HETATM   27  H   UNL     1      -9.820   6.590  69.257  1.00  0.00     0.000 HD 
HETATM   28  O   UNL     1      -9.962   4.697  71.812  1.00  0.00    -0.178 OA 
BRANCH  26  29
HETATM   29  C   UNL     1      -9.744   4.043  69.502  1.00  0.00    -0.227 C  
BRANCH  29  30
HETATM   30  C   UNL     1      -9.306   4.704  68.243  1.00  0.00    -0.136 A  
HETATM   31  N   UNL     1      -6.742   6.555  66.729  1.00  0.00    -0.058 NA 
HETATM   32  C   UNL     1      -9.987   4.726  67.041  1.00  0.00    -0.204 A  
HETATM   33  S   UNL     1      -9.083   5.584  65.870  1.00  0.00    -0.137 SA 
HETATM   34  H2  UNL     1      -6.623   6.915  65.782  1.00  0.00     0.000 HD 
HETATM   35  H1  UNL     1      -6.013   6.723  67.422  1.00  0.00     0.000 HD 
HETATM   36  N   UNL     1      -8.078   5.357  68.225  1.00  0.00    -0.095 NA 
HETATM   37  C   UNL     1      -7.857   5.867  67.036  1.00  0.00    -0.102 A  
ENDBRANCH  29  30
ENDBRANCH  26  29
ENDBRANCH   8  25
TORSDOF 9
ENDMDL
MODEL       86
REMARK 921   NORMALIZED FREE ENERGY PREDICTED BY IDOCK:   -5.23 KCAL/MOL
REMARK 922        TOTAL FREE ENERGY PREDICTED BY IDOCK:   -9.92 KCAL/MOL
REMARK 923 INTER-LIGAND FREE ENERGY PREDICTED BY IDOCK:   -8.32 KCAL/MOL
REMARK 924 INTRA-LIGAND FREE ENERGY PREDICTED BY IDOCK:   -1.60 KCAL/MOL
REMARK 927      BINDING AFFINITY PREDICTED BY RF-SCORE:    0.00 PKD
ROOT
HETATM    1  C   UNL     1      -8.522  11.057  68.117  1.00  0.00    -0.135 C  
HETATM    2  S   UNL     1     -10.137  11.066  67.307  1.00  0.00    -0.195 SA 
HETATM    3  C   UNL     1     -10.337   9.273  67.404  1.00  0.00    -0.263 C  
HETATM    4  C   UNL     1      -9.122   8.464  66.966  1.00  0.00    -0.171 C  
HETATM    5  C   UNL     1      -6.695  11.220  67.113  1.00  0.00    -0.113 C  
HETATM    6  CA  UNL     1      -7.853   8.968  66.906  1.00  0.00    -0.101 C  
HETATM    7  C   UNL     1      -6.716   8.106  66.393  1.00  0.00    -0.062 C  
HETATM    8  CA  UNL     1      -7.601  12.282  67.815  1.00  0.00    -0.131 C  
HETATM    9  N   UNL     1      -7.615  10.255  67.313  1.00  0.00    -0.095 N  
HETATM   10  O   UNL     1      -5.615   8.729  65.941  1.00  0.00    -0.044 OA 
HETATM   11  OXT UNL     1      -6.758   6.883  66.390  1.00  0.00    -0.050 OA 
HETATM   12  O   UNL     1      -5.665  11.192  66.474  1.00  0.00    -0.101 OA 
ENDROOT
BRANCH   4  13
HETATM   13  C   UNL     1      -9.546   7.079  66.462  1.00  0.00    -0.144 C  
BRANCH  13  14
HETATM   14  S   UNL     1     -11.103   6.489  67.219  1.00  0.00    -0.246 SA 
BRANCH  14  15
HETATM   15  C   UNL     1     -10.570   5.732  68.673  1.00  0.00    -0.235 A  
HETATM   16  N   UNL     1      -9.667   4.782  68.761  1.00  0.00    -0.166 NA 
HETATM   17  N   UNL     1      -9.621   4.417  70.081  1.00  0.00    -0.176 NA 
HETATM   18  N   UNL     1     -11.043   5.999  69.932  1.00  0.00    -0.391 NA 
HETATM   19  N   UNL     1     -10.465   5.141  70.801  1.00  0.00    -0.226 NA 
BRANCH  18  20
HETATM   20  C   UNL     1     -11.953   7.005  70.451  1.00  0.00    -0.207 C  
BRANCH  20  21
HETATM   21  C   UNL     1     -11.637   7.308  71.926  1.00  0.00    -0.277 C  
BRANCH  21  22
HETATM   22  N   UNL     1     -10.926   8.572  72.228  1.00  0.00    -0.359 NA 
HETATM   23  C   UNL     1     -11.186   9.533  71.140  1.00  0.00    -0.376 C  
HETATM   24  C   UNL     1      -9.473   8.406  72.352  1.00  0.00    -0.295 C  
ENDBRANCH  21  22
ENDBRANCH  20  21
ENDBRANCH  18  20
ENDBRANCH  14  15
ENDBRANCH  13  14
ENDBRANCH   4  13
BRANCH   8  25
HETATM   25  N   UNL     1      -8.157  13.338  66.915  1.00  0.00    -0.408 N  
HETATM   26  C   UNL     1      -8.526  14.580  67.385  1.00  0.00    -0.205 C  
HETATM   27  H   UNL     1      -8.267  13.132  65.922  1.00  0.00     0.000 HD 
HETATM   28  O   UNL     1      -8.310  14.941  68.541  1.00  0.00    -0.146 OA 
BRANCH  26  29
HETATM   29  C   UNL     1      -9.234  15.460  66.376  1.00  0.00    -0.339 C  
BRANCH  29  30
HETATM   30  C   UNL     1     -10.502  14.835  65.913  1.00  0.00    -0.312 A  
HETATM   31  N   UNL     1     -12.269  13.691  63.109  1.00  0.00    -1.046 NA 
HETATM   32  C   UNL     1     -11.558  14.426  66.705  1.00  0.00    -0.384 A  
HETATM   33  S   UNL     1     -12.788  13.740  65.733  1.00  0.00    -0.231 SA 
HETATM   34  H2  UNL     1     -13.180  13.245  63.007  1.00  0.00     0.000 HD 
HETATM   35  H1  UNL     1     -11.704  13.867  62.279  1.00  0.00     0.000 HD 
HETATM   36  N   UNL     1     -10.671  14.597  64.554  1.00  0.00    -0.258 NA 
HETATM   37  C   UNL     1     -11.838  14.035  64.336  1.00  0.00    -0.431 A  
ENDBRANCH  29  30
ENDBRANCH  26  29
ENDBRANCH   8  25
TORSDOF 9
ENDMDL
MODEL       87
REMARK 921   NORMALIZED FREE ENERGY PREDICTED BY IDOCK:   -5.22 KCAL/MOL
REMARK 922        TOTAL FREE ENERGY PREDICTED BY IDOCK:   -9.91 KCAL/MOL
REMARK 923 INTER-LIGAND FREE ENERGY PREDICTED BY IDOCK:   -8.78 KCAL/MOL
REMARK 924 INTRA-LIGAND FREE ENERGY PREDICTED BY IDOCK:   -1.13 KCAL/MOL
REMARK 927      BINDING AFFINITY PREDICTED BY RF-SCORE:    0.00 PKD
ROOT
HETATM    1  C   UNL     1     -11.644  12.737  68.077  1.00  0.00    -0.341 C  
HETATM    2  S   UNL     1      -9.908  12.267  67.894  1.00  0.00    -0.206 SA 
HETATM    3  C   UNL     1     -10.217  10.517  68.217  1.00  0.00    -0.163 C  
HETATM    4  C   UNL     1     -11.097  10.229  69.427  1.00  0.00    -0.299 C  
HETATM    5  C   UNL     1     -12.453  13.626  69.786  1.00  0.00    -0.137 C  
HETATM    6  CA  UNL     1     -11.940  11.146  69.989  1.00  0.00    -0.367 C  
HETATM    7  C   UNL     1     -12.729  10.790  71.234  1.00  0.00    -0.441 C  
HETATM    8  CA  UNL     1     -11.910  14.230  68.452  1.00  0.00    -0.338 C  
HETATM    9  N   UNL     1     -12.069  12.387  69.421  1.00  0.00    -0.230 N  
HETATM   10  O   UNL     1     -13.186  11.799  71.994  1.00  0.00    -0.506 OA 
HETATM   11  OXT UNL     1     -12.973   9.636  71.559  1.00  0.00    -0.344 OA 
HETATM   12  O   UNL     1     -12.895  14.024  70.843  1.00  0.00    -0.331 OA 
ENDROOT
BRANCH   4  13
HETATM   13  C   UNL     1     -10.789   8.842  70.005  1.00  0.00    -0.227 C  
BRANCH  13  14
HETATM   14  S   UNL     1      -9.199   8.160  69.413  1.00  0.00    -0.155 SA 
BRANCH  14  15
HETATM   15  C   UNL     1      -9.657   7.243  68.028  1.00  0.00    -0.139 A  
HETATM   16  N   UNL     1     -10.788   6.592  67.873  1.00  0.00    -0.269 NA 
HETATM   17  N   UNL     1     -10.693   5.936  66.675  1.00  0.00    -0.286 NA 
HETATM   18  N   UNL     1      -8.886   7.041  66.912  1.00  0.00    -0.120 NA 
HETATM   19  N   UNL     1      -9.533   6.190  66.087  1.00  0.00    -0.115 NA 
BRANCH  18  20
HETATM   20  C   UNL     1      -7.611   7.589  66.483  1.00  0.00    -0.089 C  
BRANCH  20  21
HETATM   21  C   UNL     1      -7.664   7.977  64.995  1.00  0.00    -0.112 C  
BRANCH  21  22
HETATM   22  N   UNL     1      -7.807   9.414  64.668  1.00  0.00    -0.114 NA 
HETATM   23  C   UNL     1      -7.176  10.209  65.737  1.00  0.00    -0.128 C  
HETATM   24  C   UNL     1      -9.204   9.847  64.544  1.00  0.00    -0.261 C  
ENDBRANCH  21  22
ENDBRANCH  20  21
ENDBRANCH  18  20
ENDBRANCH  14  15
ENDBRANCH  13  14
ENDBRANCH   4  13
BRANCH   8  25
HETATM   25  N   UNL     1     -10.712  15.113  68.594  1.00  0.00    -0.232 N  
HETATM   26  C   UNL     1     -10.222  15.856  67.543  1.00  0.00    -0.269 C  
HETATM   27  H   UNL     1     -10.243  15.167  69.499  1.00  0.00     0.000 HD 
HETATM   28  O   UNL     1     -10.804  15.938  66.462  1.00  0.00    -0.291 OA 
BRANCH  26  29
HETATM   29  C   UNL     1      -8.904  16.552  67.812  1.00  0.00    -0.197 C  
BRANCH  29  30
HETATM   30  C   UNL     1      -8.973  17.993  67.449  1.00  0.00    -0.246 A  
HETATM   31  N   UNL     1      -7.903  20.416  65.151  1.00  0.00    -0.353 NA 
HETATM   32  C   UNL     1      -9.694  18.976  68.100  1.00  0.00    -0.353 A  
HETATM   33  S   UNL     1      -9.489  20.478  67.306  1.00  0.00    -0.369 SA 
HETATM   34  H2  UNL     1      -8.097  21.414  65.066  1.00  0.00     0.000 HD 
HETATM   35  H1  UNL     1      -7.291  19.967  64.470  1.00  0.00     0.000 HD 
HETATM   36  N   UNL     1      -8.274  18.433  66.330  1.00  0.00    -0.416 NA 
HETATM   37  C   UNL     1      -8.460  19.722  66.160  1.00  0.00    -0.341 A  
ENDBRANCH  29  30
ENDBRANCH  26  29
ENDBRANCH   8  25
TORSDOF 9
ENDMDL
MODEL       88
REMARK 921   NORMALIZED FREE ENERGY PREDICTED BY IDOCK:   -5.22 KCAL/MOL
REMARK 922        TOTAL FREE ENERGY PREDICTED BY IDOCK:   -9.91 KCAL/MOL
REMARK 923 INTER-LIGAND FREE ENERGY PREDICTED BY IDOCK:   -8.20 KCAL/MOL
REMARK 924 INTRA-LIGAND FREE ENERGY PREDICTED BY IDOCK:   -1.70 KCAL/MOL
REMARK 927      BINDING AFFINITY PREDICTED BY RF-SCORE:    0.00 PKD
ROOT
HETATM    1  C   UNL     1     -11.163  11.685  68.477  1.00  0.00    -0.256 C  
HETATM    2  S   UNL     1      -9.537  10.914  68.640  1.00  0.00    -0.192 SA 
HETATM    3  C   UNL     1     -10.206   9.313  69.142  1.00  0.00    -0.206 C  
HETATM    4  C   UNL     1     -11.279   9.372  70.223  1.00  0.00    -0.286 C  
HETATM    5  C   UNL     1     -12.015  12.959  69.898  1.00  0.00    -0.307 C  
HETATM    6  CA  UNL     1     -12.004  10.493  70.513  1.00  0.00    -0.342 C  
HETATM    7  C   UNL     1     -13.006  10.477  71.652  1.00  0.00    -0.476 C  
HETATM    8  CA  UNL     1     -11.194  13.242  68.600  1.00  0.00    -0.274 C  
HETATM    9  N   UNL     1     -11.823  11.631  69.770  1.00  0.00    -0.334 N  
HETATM   10  O   UNL     1     -13.364  11.657  72.186  1.00  0.00    -0.491 OA 
HETATM   11  OXT UNL     1     -13.501   9.446  72.087  1.00  0.00    -0.416 OA 
HETATM   12  O   UNL     1     -12.513  13.588  70.807  1.00  0.00    -0.351 OA 
ENDROOT
BRANCH   4  13
HETATM   13  C   UNL     1     -11.315   8.066  71.024  1.00  0.00    -0.273 C  
BRANCH  13  14
HETATM   14  S   UNL     1     -11.242   6.576  69.965  1.00  0.00    -0.415 SA 
BRANCH  14  15
HETATM   15  C   UNL     1      -9.782   5.810  70.465  1.00  0.00    -0.177 A  
HETATM   16  N   UNL     1      -9.095   6.092  71.549  1.00  0.00    -0.143 NA 
HETATM   17  N   UNL     1      -7.970   5.312  71.505  1.00  0.00    -0.112 NA 
HETATM   18  N   UNL     1      -9.122   4.824  69.779  1.00  0.00    -0.102 NA 
HETATM   19  N   UNL     1      -7.968   4.546  70.424  1.00  0.00    -0.059 NA 
BRANCH  18  20
HETATM   20  C   UNL     1      -9.457   4.054  68.593  1.00  0.00    -0.154 C  
BRANCH  20  21
HETATM   21  C   UNL     1      -8.574   4.479  67.407  1.00  0.00    -0.104 C  
BRANCH  21  22
HETATM   22  N   UNL     1      -9.187   5.348  66.376  1.00  0.00    -0.142 NA 
HETATM   23  C   UNL     1      -8.944   6.757  66.737  1.00  0.00    -0.134 C  
HETATM   24  C   UNL     1     -10.636   5.156  66.240  1.00  0.00    -0.266 C  
ENDBRANCH  21  22
ENDBRANCH  20  21
ENDBRANCH  18  20
ENDBRANCH  14  15
ENDBRANCH  13  14
ENDBRANCH   4  13
BRANCH   8  25
HETATM   25  N   UNL     1      -9.884  13.928  68.812  1.00  0.00    -0.379 N  
HETATM   26  C   UNL     1      -9.722  15.280  68.598  1.00  0.00    -0.212 C  
HETATM   27  H   UNL     1      -9.084  13.378  69.125  1.00  0.00     0.000 HD 
HETATM   28  O   UNL     1     -10.665  16.026  68.340  1.00  0.00    -0.262 OA 
BRANCH  26  29
HETATM   29  C   UNL     1      -8.293  15.774  68.687  1.00  0.00    -0.183 C  
BRANCH  29  30
HETATM   30  C   UNL     1      -7.330  14.640  68.659  1.00  0.00    -0.125 A  
HETATM   31  N   UNL     1      -6.034  12.037  66.700  1.00  0.00    -0.483 NA 
HETATM   32  C   UNL     1      -6.467  14.264  69.671  1.00  0.00    -0.140 A  
HETATM   33  S   UNL     1      -5.532  12.920  69.176  1.00  0.00    -0.073 SA 
HETATM   34  H2  UNL     1      -5.312  11.338  66.878  1.00  0.00     0.000 HD 
HETATM   35  H1  UNL     1      -6.512  12.043  65.800  1.00  0.00     0.000 HD 
HETATM   36  N   UNL     1      -7.238  13.871  67.505  1.00  0.00    -0.177 NA 
HETATM   37  C   UNL     1      -6.335  12.931  67.660  1.00  0.00    -0.158 A  
ENDBRANCH  29  30
ENDBRANCH  26  29
ENDBRANCH   8  25
TORSDOF 9
ENDMDL
MODEL       89
REMARK 921   NORMALIZED FREE ENERGY PREDICTED BY IDOCK:   -5.22 KCAL/MOL
REMARK 922        TOTAL FREE ENERGY PREDICTED BY IDOCK:   -9.90 KCAL/MOL
REMARK 923 INTER-LIGAND FREE ENERGY PREDICTED BY IDOCK:   -8.61 KCAL/MOL
REMARK 924 INTRA-LIGAND FREE ENERGY PREDICTED BY IDOCK:   -1.29 KCAL/MOL
REMARK 927      BINDING AFFINITY PREDICTED BY RF-SCORE:    0.00 PKD
ROOT
HETATM    1  C   UNL     1      -8.167   7.644  70.208  1.00  0.00    -0.123 C  
HETATM    2  S   UNL     1      -8.310   8.815  68.839  1.00  0.00    -0.128 SA 
HETATM    3  C   UNL     1      -9.316   9.985  69.778  1.00  0.00    -0.202 C  
HETATM    4  C   UNL     1     -10.476   9.365  70.548  1.00  0.00    -0.335 C  
HETATM    5  C   UNL     1      -9.290   5.890  70.385  1.00  0.00    -0.159 C  
HETATM    6  CA  UNL     1     -10.546   8.042  70.883  1.00  0.00    -0.213 C  
HETATM    7  C   UNL     1     -11.772   7.501  71.593  1.00  0.00    -0.282 C  
HETATM    8  CA  UNL     1      -7.864   6.164  69.810  1.00  0.00    -0.106 C  
HETATM    9  N   UNL     1      -9.503   7.208  70.574  1.00  0.00    -0.162 N  
HETATM   10  O   UNL     1     -12.007   6.181  71.515  1.00  0.00    -0.249 OA 
HETATM   11  OXT UNL     1     -12.534   8.210  72.236  1.00  0.00    -0.329 OA 
HETATM   12  O   UNL     1     -10.052   4.954  70.502  1.00  0.00    -0.229 OA 
ENDROOT
BRANCH   4  13
HETATM   13  C   UNL     1     -11.601  10.387  70.751  1.00  0.00    -0.358 C  
BRANCH  13  14
HETATM   14  S   UNL     1     -11.844  11.477  69.303  1.00  0.00    -0.348 SA 
BRANCH  14  15
HETATM   15  C   UNL     1     -12.133  13.019  70.016  1.00  0.00    -0.297 A  
HETATM   16  N   UNL     1     -12.673  13.235  71.194  1.00  0.00    -0.352 NA 
HETATM   17  N   UNL     1     -12.795  14.593  71.317  1.00  0.00    -0.314 NA 
HETATM   18  N   UNL     1     -11.868  14.231  69.433  1.00  0.00    -0.306 NA 
HETATM   19  N   UNL     1     -12.321  15.211  70.245  1.00  0.00    -0.341 NA 
BRANCH  18  20
HETATM   20  C   UNL     1     -11.188  14.607  68.205  1.00  0.00    -0.285 C  
BRANCH  20  21
HETATM   21  C   UNL     1     -12.117  14.416  66.993  1.00  0.00    -0.342 C  
BRANCH  21  22
HETATM   22  N   UNL     1     -11.566  13.713  65.813  1.00  0.00    -0.324 NA 
HETATM   23  C   UNL     1     -10.093  13.756  65.880  1.00  0.00    -0.313 C  
HETATM   24  C   UNL     1     -11.981  14.306  64.536  1.00  0.00    -0.462 C  
ENDBRANCH  21  22
ENDBRANCH  20  21
ENDBRANCH  18  20
ENDBRANCH  14  15
ENDBRANCH  13  14
ENDBRANCH   4  13
BRANCH   8  25
HETATM   25  N   UNL     1      -7.699   5.878  68.353  1.00  0.00    -0.093 N  
HETATM   26  C   UNL     1      -7.190   4.682  67.894  1.00  0.00    -0.066 C  
HETATM   27  H   UNL     1      -7.973   6.591  67.676  1.00  0.00     0.000 HD 
HETATM   28  O   UNL     1      -6.954   3.734  68.641  1.00  0.00    -0.046 OA 
BRANCH  26  29
HETATM   29  C   UNL     1      -6.926   4.631  66.403  1.00  0.00    -0.066 C  
BRANCH  29  30
HETATM   30  C   UNL     1      -8.098   4.082  65.669  1.00  0.00    -0.101 A  
HETATM   31  N   UNL     1     -11.525   4.481  65.047  1.00  0.00    -1.108 NA 
HETATM   32  C   UNL     1      -8.100   3.005  64.803  1.00  0.00    -0.086 A  
HETATM   33  S   UNL     1      -9.672   2.759  64.176  1.00  0.00    -0.138 SA 
HETATM   34  H2  UNL     1     -12.179   3.972  64.452  1.00  0.00     0.000 HD 
HETATM   35  H1  UNL     1     -11.862   5.273  65.593  1.00  0.00     0.000 HD 
HETATM   36  N   UNL     1      -9.332   4.704  65.821  1.00  0.00    -0.149 NA 
HETATM   37  C   UNL     1     -10.238   4.092  65.094  1.00  0.00    -0.204 A  
ENDBRANCH  29  30
ENDBRANCH  26  29
ENDBRANCH   8  25
TORSDOF 9
ENDMDL
MODEL       90
REMARK 921   NORMALIZED FREE ENERGY PREDICTED BY IDOCK:   -5.22 KCAL/MOL
REMARK 922        TOTAL FREE ENERGY PREDICTED BY IDOCK:   -9.90 KCAL/MOL
REMARK 923 INTER-LIGAND FREE ENERGY PREDICTED BY IDOCK:   -7.90 KCAL/MOL
REMARK 924 INTRA-LIGAND FREE ENERGY PREDICTED BY IDOCK:   -2.01 KCAL/MOL
REMARK 927      BINDING AFFINITY PREDICTED BY RF-SCORE:    0.00 PKD
ROOT
HETATM    1  C   UNL     1      -8.650   9.270  67.348  1.00  0.00    -0.122 C  
HETATM    2  S   UNL     1      -8.801  10.595  68.567  1.00  0.00    -0.155 SA 
HETATM    3  C   UNL     1      -7.905   9.691  69.848  1.00  0.00    -0.152 C  
HETATM    4  C   UNL     1      -8.343   8.245  70.043  1.00  0.00    -0.121 C  
HETATM    5  C   UNL     1     -10.175   7.921  66.873  1.00  0.00    -0.310 C  
HETATM    6  CA  UNL     1      -9.026   7.524  69.105  1.00  0.00    -0.135 C  
HETATM    7  C   UNL     1      -9.479   6.110  69.413  1.00  0.00    -0.138 C  
HETATM    8  CA  UNL     1      -9.723   9.262  66.212  1.00  0.00    -0.271 C  
HETATM    9  N   UNL     1      -9.297   8.085  67.884  1.00  0.00    -0.138 N  
HETATM   10  O   UNL     1     -10.488   5.604  68.684  1.00  0.00    -0.202 OA 
HETATM   11  OXT UNL     1      -8.958   5.419  70.278  1.00  0.00    -0.130 OA 
HETATM   12  O   UNL     1     -11.047   7.091  66.726  1.00  0.00    -0.289 OA 
ENDROOT
BRANCH   4  13
HETATM   13  C   UNL     1      -8.051   7.777  71.474  1.00  0.00    -0.100 C  
BRANCH  13  14
HETATM   14  S   UNL     1      -9.228   8.455  72.700  1.00  0.00    -0.210 SA 
BRANCH  14  15
HETATM   15  C   UNL     1     -10.712   7.683  72.287  1.00  0.00    -0.260 A  
HETATM   16  N   UNL     1     -11.658   8.187  71.527  1.00  0.00    -0.265 NA 
HETATM   17  N   UNL     1     -12.685   7.281  71.541  1.00  0.00    -0.370 NA 
HETATM   18  N   UNL     1     -11.121   6.450  72.726  1.00  0.00    -0.254 NA 
HETATM   19  N   UNL     1     -12.375   6.226  72.279  1.00  0.00    -0.204 NA 
BRANCH  18  20
HETATM   20  C   UNL     1     -10.459   5.406  73.490  1.00  0.00    -0.247 C  
BRANCH  20  21
HETATM   21  C   UNL     1     -10.981   4.020  73.073  1.00  0.00    -0.111 C  
BRANCH  21  22
HETATM   22  N   UNL     1     -10.563   2.858  73.890  1.00  0.00    -0.163 NA 
HETATM   23  C   UNL     1      -9.166   2.523  73.558  1.00  0.00    -0.084 C  
HETATM   24  C   UNL     1     -11.383   1.662  73.663  1.00  0.00    -0.190 C  
ENDBRANCH  21  22
ENDBRANCH  20  21
ENDBRANCH  18  20
ENDBRANCH  14  15
ENDBRANCH  13  14
ENDBRANCH   4  13
BRANCH   8  25
HETATM   25  N   UNL     1     -10.738  10.358  66.237  1.00  0.00    -0.100 N  
HETATM   26  C   UNL     1     -10.879  11.249  65.195  1.00  0.00    -0.200 C  
HETATM   27  H   UNL     1     -11.346  10.449  67.051  1.00  0.00     0.000 HD 
HETATM   28  O   UNL     1     -10.269  11.128  64.134  1.00  0.00    -0.289 OA 
BRANCH  26  29
HETATM   29  C   UNL     1     -11.829  12.399  65.462  1.00  0.00    -0.469 C  
BRANCH  29  30
HETATM   30  C   UNL     1     -11.536  13.045  66.770  1.00  0.00    -0.368 A  
HETATM   31  N   UNL     1     -11.901  12.761  70.245  1.00  0.00    -0.537 NA 
HETATM   32  C   UNL     1     -10.839  14.221  66.972  1.00  0.00    -0.297 A  
HETATM   33  S   UNL     1     -10.730  14.558  68.646  1.00  0.00    -0.261 SA 
HETATM   34  H2  UNL     1     -11.585  13.346  71.019  1.00  0.00     0.000 HD 
HETATM   35  H1  UNL     1     -12.427  11.911  70.445  1.00  0.00     0.000 HD 
HETATM   36  N   UNL     1     -11.970  12.421  67.934  1.00  0.00    -0.440 NA 
HETATM   37  C   UNL     1     -11.615  13.128  68.983  1.00  0.00    -0.312 A  
ENDBRANCH  29  30
ENDBRANCH  26  29
ENDBRANCH   8  25
TORSDOF 9
ENDMDL
MODEL       91
REMARK 921   NORMALIZED FREE ENERGY PREDICTED BY IDOCK:   -5.21 KCAL/MOL
REMARK 922        TOTAL FREE ENERGY PREDICTED BY IDOCK:   -9.89 KCAL/MOL
REMARK 923 INTER-LIGAND FREE ENERGY PREDICTED BY IDOCK:   -8.44 KCAL/MOL
REMARK 924 INTRA-LIGAND FREE ENERGY PREDICTED BY IDOCK:   -1.45 KCAL/MOL
REMARK 927      BINDING AFFINITY PREDICTED BY RF-SCORE:    0.00 PKD
ROOT
HETATM    1  C   UNL     1      -8.812  16.586  66.290  1.00  0.00    -0.329 C  
HETATM    2  S   UNL     1      -7.228  15.975  66.907  1.00  0.00    -0.110 SA 
HETATM    3  C   UNL     1      -7.859  14.319  67.258  1.00  0.00    -0.147 C  
HETATM    4  C   UNL     1      -9.185  14.280  68.008  1.00  0.00    -0.192 C  
HETATM    5  C   UNL     1     -10.129  17.778  67.392  1.00  0.00    -0.338 C  
HETATM    6  CA  UNL     1     -10.061  15.328  68.060  1.00  0.00    -0.229 C  
HETATM    7  C   UNL     1     -11.326  15.220  68.889  1.00  0.00    -0.305 C  
HETATM    8  CA  UNL     1      -9.017  18.134  66.354  1.00  0.00    -0.239 C  
HETATM    9  N   UNL     1      -9.789  16.474  67.359  1.00  0.00    -0.248 N  
HETATM   10  O   UNL     1     -11.922  16.362  69.271  1.00  0.00    -0.078 OA 
HETATM   11  OXT UNL     1     -11.825  14.148  69.204  1.00  0.00    -0.300 OA 
HETATM   12  O   UNL     1     -10.909  18.361  68.115  1.00  0.00    -0.260 OA 
ENDROOT
BRANCH   4  13
HETATM   13  C   UNL     1      -9.317  12.979  68.810  1.00  0.00     0.135 C  
BRANCH  13  14
HETATM   14  S   UNL     1      -8.019  11.756  68.403  1.00  0.00    -0.145 SA 
BRANCH  14  15
HETATM   15  C   UNL     1      -8.902  10.485  67.644  1.00  0.00    -0.131 A  
HETATM   16  N   UNL     1      -9.165   9.309  68.168  1.00  0.00    -0.131 NA 
HETATM   17  N   UNL     1      -9.803   8.589  67.194  1.00  0.00    -0.186 NA 
HETATM   18  N   UNL     1      -9.420  10.519  66.376  1.00  0.00    -0.167 NA 
HETATM   19  N   UNL     1      -9.952   9.310  66.093  1.00  0.00    -0.290 NA 
BRANCH  18  20
HETATM   20  C   UNL     1      -9.529  11.575  65.383  1.00  0.00    -0.198 C  
BRANCH  20  21
HETATM   21  C   UNL     1     -10.579  11.208  64.319  1.00  0.00    -0.357 C  
BRANCH  21  22
HETATM   22  N   UNL     1     -11.359  12.315  63.719  1.00  0.00    -0.418 NA 
HETATM   23  C   UNL     1     -11.317  13.473  64.630  1.00  0.00    -0.356 C  
HETATM   24  C   UNL     1     -12.766  11.973  63.481  1.00  0.00    -0.443 C  
ENDBRANCH  21  22
ENDBRANCH  20  21
ENDBRANCH  18  20
ENDBRANCH  14  15
ENDBRANCH  13  14
ENDBRANCH   4  13
BRANCH   8  25
HETATM   25  N   UNL     1      -7.881  18.943  66.889  1.00  0.00    -0.240 N  
HETATM   26  C   UNL     1      -6.888  19.440  66.074  1.00  0.00    -0.251 C  
HETATM   27  H   UNL     1      -7.839  19.133  67.891  1.00  0.00     0.000 HD 
HETATM   28  O   UNL     1      -6.936  19.357  64.847  1.00  0.00    -0.381 OA 
BRANCH  26  29
HETATM   29  C   UNL     1      -5.725  20.081  66.802  1.00  0.00    -0.181 C  
BRANCH  29  30
HETATM   30  C   UNL     1      -5.661  19.629  68.217  1.00  0.00    -0.210 A  
HETATM   31  N   UNL     1      -6.397  20.501  71.533  1.00  0.00    -0.622 NA 
HETATM   32  C   UNL     1      -5.189  18.414  68.676  1.00  0.00    -0.177 A  
HETATM   33  S   UNL     1      -5.337  18.332  70.378  1.00  0.00    -0.258 SA 
HETATM   34  H2  UNL     1      -6.284  20.001  72.415  1.00  0.00     0.000 HD 
HETATM   35  H1  UNL     1      -6.798  21.438  71.538  1.00  0.00     0.000 HD 
HETATM   36  N   UNL     1      -6.140  20.476  69.210  1.00  0.00    -0.338 NA 
HETATM   37  C   UNL     1      -6.013  19.908  70.387  1.00  0.00    -0.323 A  
ENDBRANCH  29  30
ENDBRANCH  26  29
ENDBRANCH   8  25
TORSDOF 9
ENDMDL
MODEL       92
REMARK 921   NORMALIZED FREE ENERGY PREDICTED BY IDOCK:   -5.19 KCAL/MOL
REMARK 922        TOTAL FREE ENERGY PREDICTED BY IDOCK:   -9.86 KCAL/MOL
REMARK 923 INTER-LIGAND FREE ENERGY PREDICTED BY IDOCK:   -8.31 KCAL/MOL
REMARK 924 INTRA-LIGAND FREE ENERGY PREDICTED BY IDOCK:   -1.55 KCAL/MOL
REMARK 927      BINDING AFFINITY PREDICTED BY RF-SCORE:    0.00 PKD
ROOT
HETATM    1  C   UNL     1      -8.257  14.911  68.826  1.00  0.00    -0.161 C  
HETATM    2  S   UNL     1      -9.771  15.380  67.959  1.00  0.00    -0.208 SA 
HETATM    3  C   UNL     1     -10.420  13.695  67.918  1.00  0.00    -0.247 C  
HETATM    4  C   UNL     1      -9.426  12.631  67.467  1.00  0.00    -0.186 C  
HETATM    5  C   UNL     1      -6.396  14.665  67.905  1.00  0.00    -0.159 C  
HETATM    6  CA  UNL     1      -8.070  12.799  67.491  1.00  0.00    -0.180 C  
HETATM    7  C   UNL     1      -7.159  11.709  66.959  1.00  0.00    -0.145 C  
HETATM    8  CA  UNL     1      -7.042  15.878  68.648  1.00  0.00    -0.133 C  
HETATM    9  N   UNL     1      -7.538  13.956  67.999  1.00  0.00    -0.127 N  
HETATM   10  O   UNL     1      -5.914  12.058  66.594  1.00  0.00    -0.219 OA 
HETATM   11  OXT UNL     1      -7.507  10.540  66.865  1.00  0.00    -0.102 OA 
HETATM   12  O   UNL     1      -5.372  14.416  67.304  1.00  0.00    -0.286 OA 
ENDROOT
BRANCH   4  13
HETATM   13  C   UNL     1     -10.156  11.433  66.848  1.00  0.00    -0.214 C  
BRANCH  13  14
HETATM   14  S   UNL     1     -11.280  10.597  68.024  1.00  0.00    -0.276 SA 
BRANCH  14  15
HETATM   15  C   UNL     1     -10.558   9.045  68.220  1.00  0.00    -0.163 A  
HETATM   16  N   UNL     1     -10.041   8.308  67.263  1.00  0.00    -0.221 NA 
HETATM   17  N   UNL     1      -9.668   7.127  67.847  1.00  0.00    -0.136 NA 
HETATM   18  N   UNL     1     -10.456   8.355  69.400  1.00  0.00    -0.220 NA 
HETATM   19  N   UNL     1      -9.928   7.138  69.146  1.00  0.00    -0.164 NA 
BRANCH  18  20
HETATM   20  C   UNL     1     -10.752   8.708  70.778  1.00  0.00    -0.216 C  
BRANCH  20  21
HETATM   21  C   UNL     1     -12.139   8.178  71.185  1.00  0.00    -0.260 C  
BRANCH  21  22
HETATM   22  N   UNL     1     -12.937   9.000  72.122  1.00  0.00    -0.396 NA 
HETATM   23  C   UNL     1     -14.324   8.499  72.130  1.00  0.00    -0.436 C  
HETATM   24  C   UNL     1     -12.969  10.424  71.765  1.00  0.00    -0.475 C  
ENDBRANCH  21  22
ENDBRANCH  20  21
ENDBRANCH  18  20
ENDBRANCH  14  15
ENDBRANCH  13  14
ENDBRANCH   4  13
BRANCH   8  25
HETATM   25  N   UNL     1      -7.266  17.093  67.808  1.00  0.00    -0.155 N  
HETATM   26  C   UNL     1      -6.436  18.191  67.873  1.00  0.00    -0.187 C  
HETATM   27  H   UNL     1      -8.059  17.111  67.166  1.00  0.00     0.000 HD 
HETATM   28  O   UNL     1      -5.395  18.196  68.529  1.00  0.00    -0.157 OA 
BRANCH  26  29
HETATM   29  C   UNL     1      -6.909  19.397  67.089  1.00  0.00    -0.209 C  
BRANCH  29  30
HETATM   30  C   UNL     1      -8.381  19.357  66.878  1.00  0.00    -0.287 A  
HETATM   31  N   UNL     1     -10.957  17.930  64.974  1.00  0.00    -0.649 NA 
HETATM   32  C   UNL     1      -9.339  20.044  67.599  1.00  0.00    -0.360 A  
HETATM   33  S   UNL     1     -10.900  19.665  67.011  1.00  0.00    -0.283 SA 
HETATM   34  H2  UNL     1     -11.972  18.030  65.009  1.00  0.00     0.000 HD 
HETATM   35  H1  UNL     1     -10.540  17.310  64.281  1.00  0.00     0.000 HD 
HETATM   36  N   UNL     1      -8.889  18.535  65.877  1.00  0.00    -0.438 NA 
HETATM   37  C   UNL     1     -10.199  18.621  65.845  1.00  0.00    -0.253 A  
ENDBRANCH  29  30
ENDBRANCH  26  29
ENDBRANCH   8  25
TORSDOF 9
ENDMDL
MODEL       93
REMARK 921   NORMALIZED FREE ENERGY PREDICTED BY IDOCK:   -5.18 KCAL/MOL
REMARK 922        TOTAL FREE ENERGY PREDICTED BY IDOCK:   -9.85 KCAL/MOL
REMARK 923 INTER-LIGAND FREE ENERGY PREDICTED BY IDOCK:   -8.60 KCAL/MOL
REMARK 924 INTRA-LIGAND FREE ENERGY PREDICTED BY IDOCK:   -1.25 KCAL/MOL
REMARK 927      BINDING AFFINITY PREDICTED BY RF-SCORE:    0.00 PKD
ROOT
HETATM    1  C   UNL     1     -11.009   9.013  67.461  1.00  0.00     0.097 C  
HETATM    2  S   UNL     1     -10.722  10.080  68.890  1.00  0.00    -0.222 SA 
HETATM    3  C   UNL     1     -11.273  11.577  68.043  1.00  0.00    -0.269 C  
HETATM    4  C   UNL     1     -10.694  11.778  66.648  1.00  0.00    -0.300 C  
HETATM    5  C   UNL     1      -9.508   8.332  66.175  1.00  0.00    -0.171 C  
HETATM    6  CA  UNL     1     -10.157  10.772  65.894  1.00  0.00    -0.256 C  
HETATM    7  C   UNL     1      -9.543  11.079  64.542  1.00  0.00    -0.256 C  
HETATM    8  CA  UNL     1     -10.185   7.685  67.425  1.00  0.00    -0.251 C  
HETATM    9  N   UNL     1     -10.177   9.486  66.367  1.00  0.00    -0.256 N  
HETATM   10  O   UNL     1      -8.662  10.197  64.041  1.00  0.00    -0.179 OA 
HETATM   11  OXT UNL     1      -9.827  12.078  63.895  1.00  0.00    -0.292 OA 
HETATM   12  O   UNL     1      -8.620   8.068  65.391  1.00  0.00    -0.158 OA 
ENDROOT
BRANCH   4  13
HETATM   13  C   UNL     1     -10.659  13.268  66.284  1.00  0.00    -0.289 C  
BRANCH  13  14
HETATM   14  S   UNL     1     -12.154  14.170  66.827  1.00  0.00    -0.388 SA 
BRANCH  14  15
HETATM   15  C   UNL     1     -11.566  15.179  68.094  1.00  0.00    -0.341 A  
HETATM   16  N   UNL     1     -11.904  15.103  69.361  1.00  0.00    -0.321 NA 
HETATM   17  N   UNL     1     -11.274  16.143  69.990  1.00  0.00    -0.354 NA 
HETATM   18  N   UNL     1     -10.688  16.221  67.942  1.00  0.00    -0.321 NA 
HETATM   19  N   UNL     1     -10.541  16.839  69.134  1.00  0.00    -0.335 NA 
BRANCH  18  20
HETATM   20  C   UNL     1      -9.911  16.700  66.811  1.00  0.00    -0.279 C  
BRANCH  20  21
HETATM   21  C   UNL     1      -9.771  18.231  66.864  1.00  0.00    -0.315 C  
BRANCH  21  22
HETATM   22  N   UNL     1      -8.425  18.785  67.138  1.00  0.00    -0.268 NA 
HETATM   23  C   UNL     1      -7.431  17.703  67.011  1.00  0.00    -0.199 C  
HETATM   24  C   UNL     1      -8.297  19.365  68.481  1.00  0.00    -0.363 C  
ENDBRANCH  21  22
ENDBRANCH  20  21
ENDBRANCH  18  20
ENDBRANCH  14  15
ENDBRANCH  13  14
ENDBRANCH   4  13
BRANCH   8  25
HETATM   25  N   UNL     1      -9.273   7.427  68.581  1.00  0.00    -0.144 N  
HETATM   26  C   UNL     1      -9.228   6.206  69.219  1.00  0.00    -0.132 C  
HETATM   27  H   UNL     1      -8.665   8.178  68.907  1.00  0.00     0.000 HD 
HETATM   28  O   UNL     1      -9.839   5.221  68.807  1.00  0.00    -0.139 OA 
BRANCH  26  29
HETATM   29  C   UNL     1      -8.383   6.174  70.475  1.00  0.00    -0.129 C  
BRANCH  29  30
HETATM   30  C   UNL     1      -9.202   6.471  71.681  1.00  0.00    -0.143 A  
HETATM   31  N   UNL     1     -12.136   8.003  72.839  1.00  0.00    -0.628 NA 
HETATM   32  C   UNL     1      -8.931   6.084  72.980  1.00  0.00    -0.127 A  
HETATM   33  S   UNL     1     -10.167   6.634  74.027  1.00  0.00    -0.352 SA 
HETATM   34  H2  UNL     1     -12.549   8.079  73.768  1.00  0.00     0.000 HD 
HETATM   35  H1  UNL     1     -12.613   8.427  72.044  1.00  0.00     0.000 HD 
HETATM   36  N   UNL     1     -10.382   7.189  71.526  1.00  0.00    -0.202 NA 
HETATM   37  C   UNL     1     -10.971   7.346  72.689  1.00  0.00    -0.317 A  
ENDBRANCH  29  30
ENDBRANCH  26  29
ENDBRANCH   8  25
TORSDOF 9
ENDMDL
MODEL       94
REMARK 921   NORMALIZED FREE ENERGY PREDICTED BY IDOCK:   -5.17 KCAL/MOL
REMARK 922        TOTAL FREE ENERGY PREDICTED BY IDOCK:   -9.82 KCAL/MOL
REMARK 923 INTER-LIGAND FREE ENERGY PREDICTED BY IDOCK:   -7.85 KCAL/MOL
REMARK 924 INTRA-LIGAND FREE ENERGY PREDICTED BY IDOCK:   -1.97 KCAL/MOL
REMARK 927      BINDING AFFINITY PREDICTED BY RF-SCORE:    0.00 PKD
ROOT
HETATM    1  C   UNL     1      -9.885  10.442  67.134  1.00  0.00    -0.181 C  
HETATM    2  S   UNL     1      -8.162  10.968  67.274  1.00  0.00    -0.129 SA 
HETATM    3  C   UNL     1      -7.729   9.667  68.451  1.00  0.00    -0.081 C  
HETATM    4  C   UNL     1      -8.706   9.492  69.607  1.00  0.00    -0.189 C  
HETATM    5  C   UNL     1     -11.486  11.371  68.106  1.00  0.00    -0.305 C  
HETATM    6  CA  UNL     1      -9.998   9.936  69.585  1.00  0.00    -0.231 C  
HETATM    7  C   UNL     1     -10.879   9.776  70.809  1.00  0.00    -0.333 C  
HETATM    8  CA  UNL     1     -10.896  11.540  66.670  1.00  0.00    -0.287 C  
HETATM    9  N   UNL     1     -10.493  10.526  68.450  1.00  0.00    -0.176 N  
HETATM   10  O   UNL     1     -11.949  10.581  70.919  1.00  0.00    -0.329 OA 
HETATM   11  OXT UNL     1     -10.661   8.944  71.679  1.00  0.00    -0.293 OA 
HETATM   12  O   UNL     1     -12.358  11.866  68.788  1.00  0.00    -0.264 OA 
ENDROOT
BRANCH   4  13
HETATM   13  C   UNL     1      -7.998   8.898  70.831  1.00  0.00    -0.148 C  
BRANCH  13  14
HETATM   14  S   UNL     1      -7.262   7.256  70.502  1.00  0.00    -0.067 SA 
BRANCH  14  15
HETATM   15  C   UNL     1      -8.603   6.329  69.945  1.00  0.00    -0.134 A  
HETATM   16  N   UNL     1      -9.684   6.045  70.635  1.00  0.00    -0.172 NA 
HETATM   17  N   UNL     1     -10.438   5.219  69.844  1.00  0.00    -0.307 NA 
HETATM   18  N   UNL     1      -8.706   5.735  68.714  1.00  0.00    -0.108 NA 
HETATM   19  N   UNL     1      -9.847   5.012  68.677  1.00  0.00    -0.161 NA 
BRANCH  18  20
HETATM   20  C   UNL     1      -7.882   5.791  67.519  1.00  0.00    -0.101 C  
BRANCH  20  21
HETATM   21  C   UNL     1      -8.535   6.692  66.455  1.00  0.00    -0.121 C  
BRANCH  21  22
HETATM   22  N   UNL     1      -7.707   7.087  65.292  1.00  0.00    -0.106 NA 
HETATM   23  C   UNL     1      -6.344   7.395  65.763  1.00  0.00    -0.041 C  
HETATM   24  C   UNL     1      -8.222   8.266  64.586  1.00  0.00    -0.142 C  
ENDBRANCH  21  22
ENDBRANCH  20  21
ENDBRANCH  18  20
ENDBRANCH  14  15
ENDBRANCH  13  14
ENDBRANCH   4  13
BRANCH   8  25
HETATM   25  N   UNL     1     -10.333  12.891  66.368  1.00  0.00    -0.263 N  
HETATM   26  C   UNL     1     -11.013  13.812  65.601  1.00  0.00    -0.288 C  
HETATM   27  H   UNL     1      -9.417  13.138  66.741  1.00  0.00     0.000 HD 
HETATM   28  O   UNL     1     -12.169  13.633  65.220  1.00  0.00    -0.388 OA 
BRANCH  26  29
HETATM   29  C   UNL     1     -10.223  15.055  65.247  1.00  0.00    -0.409 C  
BRANCH  29  30
HETATM   30  C   UNL     1     -10.348  16.091  66.307  1.00  0.00    -0.321 A  
HETATM   31  N   UNL     1     -10.974  16.636  69.714  1.00  0.00    -0.390 NA 
HETATM   32  C   UNL     1     -10.172  17.454  66.155  1.00  0.00    -0.328 A  
HETATM   33  S   UNL     1     -10.391  18.244  67.656  1.00  0.00    -0.409 SA 
HETATM   34  H2  UNL     1     -10.993  17.483  70.281  1.00  0.00     0.000 HD 
HETATM   35  H1  UNL     1     -11.161  15.736  70.155  1.00  0.00     0.000 HD 
HETATM   36  N   UNL     1     -10.645  15.687  67.604  1.00  0.00    -0.288 NA 
HETATM   37  C   UNL     1     -10.705  16.730  68.399  1.00  0.00    -0.362 A  
ENDBRANCH  29  30
ENDBRANCH  26  29
ENDBRANCH   8  25
TORSDOF 9
ENDMDL
MODEL       95
REMARK 921   NORMALIZED FREE ENERGY PREDICTED BY IDOCK:   -5.15 KCAL/MOL
REMARK 922        TOTAL FREE ENERGY PREDICTED BY IDOCK:   -9.81 KCAL/MOL
REMARK 923 INTER-LIGAND FREE ENERGY PREDICTED BY IDOCK:   -8.52 KCAL/MOL
REMARK 924 INTRA-LIGAND FREE ENERGY PREDICTED BY IDOCK:   -1.28 KCAL/MOL
REMARK 927      BINDING AFFINITY PREDICTED BY RF-SCORE:    0.00 PKD
ROOT
HETATM    1  C   UNL     1      -8.660   9.209  67.341  1.00  0.00    -0.115 C  
HETATM    2  S   UNL     1     -10.417   9.614  67.469  1.00  0.00    -0.269 SA 
HETATM    3  C   UNL     1     -10.184  11.339  66.990  1.00  0.00    -0.215 C  
HETATM    4  C   UNL     1      -9.047  12.060  67.705  1.00  0.00    -0.179 C  
HETATM    5  C   UNL     1      -7.363   9.048  68.973  1.00  0.00    -0.073 C  
HETATM    6  CA  UNL     1      -8.013  11.419  68.327  1.00  0.00    -0.136 C  
HETATM    7  C   UNL     1      -6.961  12.218  69.072  1.00  0.00    -0.078 C  
HETATM    8  CA  UNL     1      -8.181   7.980  68.180  1.00  0.00    -0.126 C  
HETATM    9  N   UNL     1      -7.932  10.051  68.274  1.00  0.00    -0.096 N  
HETATM   10  O   UNL     1      -6.239  11.581  70.009  1.00  0.00    -0.133 OA 
HETATM   11  OXT UNL     1      -6.739  13.399  68.844  1.00  0.00    -0.100 OA 
HETATM   12  O   UNL     1      -6.630   9.091  69.938  1.00  0.00    -0.040 OA 
ENDROOT
BRANCH   4  13
HETATM   13  C   UNL     1      -9.310  13.569  67.760  1.00  0.00    -0.213 C  
BRANCH  13  14
HETATM   14  S   UNL     1     -10.033  14.224  66.212  1.00  0.00    -0.317 SA 
BRANCH  14  15
HETATM   15  C   UNL     1     -10.138  15.917  66.514  1.00  0.00    -0.282 A  
HETATM   16  N   UNL     1      -9.588  16.865  65.788  1.00  0.00    -0.540 NA 
HETATM   17  N   UNL     1      -9.847  18.044  66.436  1.00  0.00    -0.352 NA 
HETATM   18  N   UNL     1     -10.783  16.502  67.572  1.00  0.00    -0.311 NA 
HETATM   19  N   UNL     1     -10.563  17.834  67.531  1.00  0.00    -0.378 NA 
BRANCH  18  20
HETATM   20  C   UNL     1     -11.639  15.972  68.620  1.00  0.00    -0.343 C  
BRANCH  20  21
HETATM   21  C   UNL     1     -11.003  16.200  70.003  1.00  0.00    -0.364 C  
BRANCH  21  22
HETATM   22  N   UNL     1     -11.521  15.397  71.134  1.00  0.00    -0.345 NA 
HETATM   23  C   UNL     1     -12.646  14.572  70.655  1.00  0.00    -0.352 C  
HETATM   24  C   UNL     1     -12.002  16.214  72.255  1.00  0.00    -0.546 C  
ENDBRANCH  21  22
ENDBRANCH  20  21
ENDBRANCH  18  20
ENDBRANCH  14  15
ENDBRANCH  13  14
ENDBRANCH   4  13
BRANCH   8  25
HETATM   25  N   UNL     1      -9.222   7.258  68.972  1.00  0.00    -0.140 N  
HETATM   26  C   UNL     1      -9.422   5.900  68.853  1.00  0.00    -0.126 C  
HETATM   27  H   UNL     1      -9.803   7.788  69.623  1.00  0.00     0.000 HD 
HETATM   28  O   UNL     1      -8.683   5.179  68.184  1.00  0.00    -0.103 OA 
BRANCH  26  29
HETATM   29  C   UNL     1     -10.631   5.365  69.592  1.00  0.00    -0.328 C  
BRANCH  29  30
HETATM   30  C   UNL     1     -10.766   5.999  70.931  1.00  0.00    -0.267 A  
HETATM   31  N   UNL     1     -12.504   8.412  72.789  1.00  0.00    -0.591 NA 
HETATM   32  C   UNL     1     -10.057   5.677  72.073  1.00  0.00    -0.185 A  
HETATM   33  S   UNL     1     -10.572   6.657  73.378  1.00  0.00    -0.308 SA 
HETATM   34  H2  UNL     1     -12.452   8.692  73.769  1.00  0.00     0.000 HD 
HETATM   35  H1  UNL     1     -13.169   8.876  72.172  1.00  0.00     0.000 HD 
HETATM   36  N   UNL     1     -11.709   7.007  71.099  1.00  0.00    -0.307 NA 
HETATM   37  C   UNL     1     -11.692   7.437  72.340  1.00  0.00    -0.264 A  
ENDBRANCH  29  30
ENDBRANCH  26  29
ENDBRANCH   8  25
TORSDOF 9
ENDMDL
MODEL       96
REMARK 921   NORMALIZED FREE ENERGY PREDICTED BY IDOCK:   -5.15 KCAL/MOL
REMARK 922        TOTAL FREE ENERGY PREDICTED BY IDOCK:   -9.81 KCAL/MOL
REMARK 923 INTER-LIGAND FREE ENERGY PREDICTED BY IDOCK:   -8.77 KCAL/MOL
REMARK 924 INTRA-LIGAND FREE ENERGY PREDICTED BY IDOCK:   -1.04 KCAL/MOL
REMARK 927      BINDING AFFINITY PREDICTED BY RF-SCORE:    0.00 PKD
ROOT
HETATM    1  C   UNL     1     -10.339   8.898  66.759  1.00  0.00    -0.247 C  
HETATM    2  S   UNL     1      -9.994   9.733  68.323  1.00  0.00    -0.159 SA 
HETATM    3  C   UNL     1     -11.214  11.035  68.043  1.00  0.00    -0.309 C  
HETATM    4  C   UNL     1     -11.170  11.674  66.661  1.00  0.00    -0.362 C  
HETATM    5  C   UNL     1      -9.153   9.060  65.045  1.00  0.00    -0.111 C  
HETATM    6  CA  UNL     1     -10.592  11.088  65.570  1.00  0.00    -0.200 C  
HETATM    7  C   UNL     1     -10.536  11.830  64.248  1.00  0.00    -0.335 C  
HETATM    8  CA  UNL     1      -9.188   8.004  66.195  1.00  0.00    -0.163 C  
HETATM    9  N   UNL     1     -10.064   9.828  65.677  1.00  0.00    -0.274 N  
HETATM   10  O   UNL     1      -9.613  11.442  63.353  1.00  0.00    -0.296 OA 
HETATM   11  OXT UNL     1     -11.299  12.744  63.967  1.00  0.00    -0.360 OA 
HETATM   12  O   UNL     1      -8.503   9.287  64.047  1.00  0.00    -0.175 OA 
ENDROOT
BRANCH   4  13
HETATM   13  C   UNL     1     -11.716  13.106  66.707  1.00  0.00    -0.385 C  
BRANCH  13  14
HETATM   14  S   UNL     1     -12.032  13.695  68.410  1.00  0.00    -0.297 SA 
BRANCH  14  15
HETATM   15  C   UNL     1     -11.393  15.295  68.396  1.00  0.00    -0.329 A  
HETATM   16  N   UNL     1     -10.951  15.941  67.341  1.00  0.00    -0.296 NA 
HETATM   17  N   UNL     1     -10.457  17.133  67.799  1.00  0.00    -0.350 NA 
HETATM   18  N   UNL     1     -11.230  16.099  69.495  1.00  0.00    -0.334 NA 
HETATM   19  N   UNL     1     -10.609  17.236  69.111  1.00  0.00    -0.287 NA 
BRANCH  18  20
HETATM   20  C   UNL     1     -11.629  15.962  70.885  1.00  0.00    -0.421 C  
BRANCH  20  21
HETATM   21  C   UNL     1     -13.117  15.583  70.984  1.00  0.00    -0.489 C  
BRANCH  21  22
HETATM   22  N   UNL     1     -13.596  15.021  72.268  1.00  0.00    -0.400 NA 
HETATM   23  C   UNL     1     -12.717  15.498  73.352  1.00  0.00    -0.532 C  
HETATM   24  C   UNL     1     -13.596  13.553  72.296  1.00  0.00    -0.592 C  
ENDBRANCH  21  22
ENDBRANCH  20  21
ENDBRANCH  18  20
ENDBRANCH  14  15
ENDBRANCH  13  14
ENDBRANCH   4  13
BRANCH   8  25
HETATM   25  N   UNL     1      -7.942   7.912  67.014  1.00  0.00    -0.111 N  
HETATM   26  C   UNL     1      -7.465   6.711  67.491  1.00  0.00    -0.097 C  
HETATM   27  H   UNL     1      -7.428   8.768  67.228  1.00  0.00     0.000 HD 
HETATM   28  O   UNL     1      -7.961   5.630  67.173  1.00  0.00    -0.101 OA 
BRANCH  26  29
HETATM   29  C   UNL     1      -6.297   6.821  68.448  1.00  0.00    -0.031 C  
BRANCH  29  30
HETATM   30  C   UNL     1      -6.764   6.924  69.857  1.00  0.00    -0.049 A  
HETATM   31  N   UNL     1      -8.559   8.892  72.138  1.00  0.00    -0.374 NA 
HETATM   32  C   UNL     1      -6.563   5.999  70.864  1.00  0.00    -0.045 A  
HETATM   33  S   UNL     1      -7.304   6.534  72.309  1.00  0.00    -0.091 SA 
HETATM   34  H2  UNL     1      -8.795   8.759  73.121  1.00  0.00     0.000 HD 
HETATM   35  H1  UNL     1      -8.874   9.734  71.658  1.00  0.00     0.000 HD 
HETATM   36  N   UNL     1      -7.505   8.039  70.234  1.00  0.00    -0.071 NA 
HETATM   37  C   UNL     1      -7.836   7.951  71.502  1.00  0.00    -0.095 A  
ENDBRANCH  29  30
ENDBRANCH  26  29
ENDBRANCH   8  25
TORSDOF 9
ENDMDL
MODEL       97
REMARK 921   NORMALIZED FREE ENERGY PREDICTED BY IDOCK:   -5.14 KCAL/MOL
REMARK 922        TOTAL FREE ENERGY PREDICTED BY IDOCK:   -9.79 KCAL/MOL
REMARK 923 INTER-LIGAND FREE ENERGY PREDICTED BY IDOCK:   -8.52 KCAL/MOL
REMARK 924 INTRA-LIGAND FREE ENERGY PREDICTED BY IDOCK:   -1.27 KCAL/MOL
REMARK 927      BINDING AFFINITY PREDICTED BY RF-SCORE:    0.00 PKD
ROOT
HETATM    1  C   UNL     1      -9.798  10.986  66.230  1.00  0.00    -0.215 C  
HETATM    2  S   UNL     1     -10.908  10.632  67.612  1.00  0.00    -0.310 SA 
HETATM    3  C   UNL     1     -11.412  12.356  67.813  1.00  0.00    -0.324 C  
HETATM    4  C   UNL     1     -10.270  13.364  67.821  1.00  0.00    -0.235 C  
HETATM    5  C   UNL     1      -7.720  11.135  66.393  1.00  0.00    -0.124 C  
HETATM    6  CA  UNL     1      -9.028  13.112  67.309  1.00  0.00    -0.216 C  
HETATM    7  C   UNL     1      -7.932  14.154  67.421  1.00  0.00    -0.184 C  
HETATM    8  CA  UNL     1      -8.654   9.949  65.993  1.00  0.00    -0.136 C  
HETATM    9  N   UNL     1      -8.780  11.912  66.693  1.00  0.00    -0.195 N  
HETATM   10  O   UNL     1      -6.660  13.736  67.319  1.00  0.00    -0.259 OA 
HETATM   11  OXT UNL     1      -8.163  15.345  67.584  1.00  0.00    -0.142 OA 
HETATM   12  O   UNL     1      -6.536  11.334  66.566  1.00  0.00    -0.130 OA 
ENDROOT
BRANCH   4  13
HETATM   13  C   UNL     1     -10.659  14.620  68.611  1.00  0.00    -0.252 C  
BRANCH  13  14
HETATM   14  S   UNL     1     -12.406  14.607  69.154  1.00  0.00    -0.002 SA 
BRANCH  14  15
HETATM   15  C   UNL     1     -12.294  14.938  70.841  1.00  0.00    -0.328 A  
HETATM   16  N   UNL     1     -11.789  16.023  71.383  1.00  0.00    -0.457 NA 
HETATM   17  N   UNL     1     -11.819  15.826  72.738  1.00  0.00    -0.468 NA 
HETATM   18  N   UNL     1     -12.688  14.095  71.848  1.00  0.00    -0.331 NA 
HETATM   19  N   UNL     1     -12.351  14.649  73.033  1.00  0.00    -0.269 NA 
BRANCH  18  20
HETATM   20  C   UNL     1     -13.397  12.827  71.852  1.00  0.00    -0.413 C  
BRANCH  20  21
HETATM   21  C   UNL     1     -12.548  11.732  71.182  1.00  0.00    -0.309 C  
BRANCH  21  22
HETATM   22  N   UNL     1     -12.425  10.435  71.886  1.00  0.00    -0.294 NA 
HETATM   23  C   UNL     1     -11.454   9.593  71.162  1.00  0.00    -0.384 C  
HETATM   24  C   UNL     1     -13.691   9.698  71.974  1.00  0.00    -0.316 C  
ENDBRANCH  21  22
ENDBRANCH  20  21
ENDBRANCH  18  20
ENDBRANCH  14  15
ENDBRANCH  13  14
ENDBRANCH   4  13
BRANCH   8  25
HETATM   25  N   UNL     1      -8.613   8.769  66.910  1.00  0.00    -0.114 N  
HETATM   26  C   UNL     1      -7.724   7.731  66.728  1.00  0.00    -0.099 C  
HETATM   27  H   UNL     1      -9.264   8.731  67.695  1.00  0.00     0.000 HD 
HETATM   28  O   UNL     1      -6.832   7.765  65.882  1.00  0.00    -0.055 OA 
BRANCH  26  29
HETATM   29  C   UNL     1      -7.939   6.540  67.638  1.00  0.00    -0.114 C  
BRANCH  29  30
HETATM   30  C   UNL     1      -8.599   5.421  66.912  1.00  0.00    -0.109 A  
HETATM   31  N   UNL     1     -11.435   4.481  65.078  1.00  0.00    -1.108 NA 
HETATM   32  C   UNL     1      -8.093   4.150  66.720  1.00  0.00    -0.101 A  
HETATM   33  S   UNL     1      -9.193   3.213  65.804  1.00  0.00    -0.107 SA 
HETATM   34  H2  UNL     1     -11.697   3.609  64.619  1.00  0.00     0.000 HD 
HETATM   35  H1  UNL     1     -12.069   5.278  65.033  1.00  0.00     0.000 HD 
HETATM   36  N   UNL     1      -9.841   5.644  66.330  1.00  0.00    -0.161 NA 
HETATM   37  C   UNL     1     -10.259   4.554  65.729  1.00  0.00    -0.265 A  
ENDBRANCH  29  30
ENDBRANCH  26  29
ENDBRANCH   8  25
TORSDOF 9
ENDMDL
MODEL       98
REMARK 921   NORMALIZED FREE ENERGY PREDICTED BY IDOCK:   -5.13 KCAL/MOL
REMARK 922        TOTAL FREE ENERGY PREDICTED BY IDOCK:   -9.78 KCAL/MOL
REMARK 923 INTER-LIGAND FREE ENERGY PREDICTED BY IDOCK:   -9.73 KCAL/MOL
REMARK 924 INTRA-LIGAND FREE ENERGY PREDICTED BY IDOCK:   -0.05 KCAL/MOL
REMARK 927      BINDING AFFINITY PREDICTED BY RF-SCORE:    0.00 PKD
ROOT
HETATM    1  C   UNL     1      -8.799  12.700  67.108  1.00  0.00    -0.204 C  
HETATM    2  S   UNL     1      -8.544  11.247  68.150  1.00  0.00    -0.156 SA 
HETATM    3  C   UNL     1      -7.917  10.229  66.796  1.00  0.00    -0.114 C  
HETATM    4  C   UNL     1      -8.744  10.276  65.517  1.00  0.00    -0.176 C  
HETATM    5  C   UNL     1     -10.653  13.304  66.355  1.00  0.00    -0.284 C  
HETATM    6  CA  UNL     1      -9.622  11.280  65.216  1.00  0.00    -0.232 C  
HETATM    7  C   UNL     1     -10.452  11.209  63.949  1.00  0.00    -0.381 C  
HETATM    8  CA  UNL     1      -9.851  13.733  67.625  1.00  0.00    -0.234 C  
HETATM    9  N   UNL     1      -9.746  12.350  66.064  1.00  0.00    -0.253 N  
HETATM   10  O   UNL     1     -11.577  11.942  63.898  1.00  0.00    -0.395 OA 
HETATM   11  OXT UNL     1     -10.133  10.531  62.982  1.00  0.00    -0.230 OA 
HETATM   12  O   UNL     1     -11.728  13.538  65.844  1.00  0.00    -0.326 OA 
ENDROOT
BRANCH   4  13
HETATM   13  C   UNL     1      -8.570   8.985  64.709  1.00  0.00    -0.175 C  
BRANCH  13  14
HETATM   14  S   UNL     1      -7.599   7.714  65.596  1.00  0.00    -0.095 SA 
BRANCH  14  15
HETATM   15  C   UNL     1      -8.726   6.425  65.793  1.00  0.00    -0.127 A  
HETATM   16  N   UNL     1      -8.698   5.273  65.163  1.00  0.00    -0.151 NA 
HETATM   17  N   UNL     1      -9.822   4.594  65.553  1.00  0.00    -0.188 NA 
HETATM   18  N   UNL     1      -9.825   6.444  66.612  1.00  0.00    -0.166 NA 
HETATM   19  N   UNL     1     -10.524   5.303  66.425  1.00  0.00    -0.286 NA 
BRANCH  18  20
HETATM   20  C   UNL     1     -10.298   7.392  67.607  1.00  0.00    -0.231 C  
BRANCH  20  21
HETATM   21  C   UNL     1      -9.469   7.276  68.899  1.00  0.00    -0.143 C  
BRANCH  21  22
HETATM   22  N   UNL     1      -9.527   5.993  69.635  1.00  0.00    -0.143 NA 
HETATM   23  C   UNL     1     -10.928   5.720  70.004  1.00  0.00    -0.311 C  
HETATM   24  C   UNL     1      -8.725   5.991  70.865  1.00  0.00    -0.135 C  
ENDBRANCH  21  22
ENDBRANCH  20  21
ENDBRANCH  18  20
ENDBRANCH  14  15
ENDBRANCH  13  14
ENDBRANCH   4  13
BRANCH   8  25
HETATM   25  N   UNL     1     -10.512  13.427  68.929  1.00  0.00    -0.398 N  
HETATM   26  C   UNL     1     -11.628  12.622  69.014  1.00  0.00    -0.317 C  
HETATM   27  H   UNL     1     -10.125  13.826  69.785  1.00  0.00     0.000 HD 
HETATM   28  O   UNL     1     -12.076  12.009  68.045  1.00  0.00    -0.514 OA 
BRANCH  26  29
HETATM   29  C   UNL     1     -12.270  12.562  70.384  1.00  0.00    -0.368 C  
BRANCH  29  30
HETATM   30  C   UNL     1     -12.291  11.170  70.908  1.00  0.00    -0.399 A  
HETATM   31  N   UNL     1     -14.093   8.873  72.850  1.00  0.00    -1.094 NA 
HETATM   32  C   UNL     1     -11.359  10.181  70.661  1.00  0.00    -0.352 A  
HETATM   33  S   UNL     1     -11.814   8.735  71.455  1.00  0.00    -0.325 SA 
HETATM   34  H2  UNL     1     -13.930   7.893  73.081  1.00  0.00     0.000 HD 
HETATM   35  H1  UNL     1     -14.922   9.341  73.215  1.00  0.00     0.000 HD 
HETATM   36  N   UNL     1     -13.355  10.777  71.712  1.00  0.00    -0.371 NA 
HETATM   37  C   UNL     1     -13.209   9.521  72.069  1.00  0.00    -0.452 A  
ENDBRANCH  29  30
ENDBRANCH  26  29
ENDBRANCH   8  25
TORSDOF 9
ENDMDL
MODEL       99
REMARK 921   NORMALIZED FREE ENERGY PREDICTED BY IDOCK:   -5.13 KCAL/MOL
REMARK 922        TOTAL FREE ENERGY PREDICTED BY IDOCK:   -9.77 KCAL/MOL
REMARK 923 INTER-LIGAND FREE ENERGY PREDICTED BY IDOCK:   -8.53 KCAL/MOL
REMARK 924 INTRA-LIGAND FREE ENERGY PREDICTED BY IDOCK:   -1.24 KCAL/MOL
REMARK 927      BINDING AFFINITY PREDICTED BY RF-SCORE:    0.00 PKD
ROOT
HETATM    1  C   UNL     1     -10.802   6.867  67.489  1.00  0.00    -0.292 C  
HETATM    2  S   UNL     1     -10.407   7.842  68.958  1.00  0.00    -0.201 SA 
HETATM    3  C   UNL     1     -10.543   9.425  68.099  1.00  0.00    -0.212 C  
HETATM    4  C   UNL     1      -9.821   9.496  66.759  1.00  0.00    -0.277 C  
HETATM    5  C   UNL     1      -9.387   5.874  66.313  1.00  0.00    -0.152 C  
HETATM    6  CA  UNL     1      -9.458   8.398  66.031  1.00  0.00    -0.154 C  
HETATM    7  C   UNL     1      -8.682   8.565  64.739  1.00  0.00    -0.019 C  
HETATM    8  CA  UNL     1     -10.291   5.390  67.492  1.00  0.00    -0.190 C  
HETATM    9  N   UNL     1      -9.800   7.147  66.475  1.00  0.00    -0.160 N  
HETATM   10  O   UNL     1      -7.979   7.511  64.292  1.00  0.00    -0.136 OA 
HETATM   11  OXT UNL     1      -8.685   9.603  64.091  1.00  0.00    -0.188 OA 
HETATM   12  O   UNL     1      -8.518   5.422  65.598  1.00  0.00    -0.126 OA 
ENDROOT
BRANCH   4  13
HETATM   13  C   UNL     1      -9.429  10.942  66.429  1.00  0.00    -0.187 C  
BRANCH  13  14
HETATM   14  S   UNL     1     -10.209  12.164  67.544  1.00  0.00    -0.200 SA 
BRANCH  14  15
HETATM   15  C   UNL     1     -11.484  12.813  66.584  1.00  0.00    -0.350 A  
HETATM   16  N   UNL     1     -12.280  12.128  65.794  1.00  0.00    -0.532 NA 
HETATM   17  N   UNL     1     -13.077  13.046  65.162  1.00  0.00    -0.718 NA 
HETATM   18  N   UNL     1     -11.818  14.140  66.490  1.00  0.00    -0.401 NA 
HETATM   19  N   UNL     1     -12.795  14.276  65.568  1.00  0.00    -0.567 NA 
BRANCH  18  20
HETATM   20  C   UNL     1     -11.365  15.323  67.201  1.00  0.00    -0.247 C  
BRANCH  20  21
HETATM   21  C   UNL     1     -11.990  15.381  68.606  1.00  0.00    -0.216 C  
BRANCH  21  22
HETATM   22  N   UNL     1     -11.281  16.172  69.638  1.00  0.00    -0.330 NA 
HETATM   23  C   UNL     1      -9.847  15.830  69.596  1.00  0.00    -0.275 C  
HETATM   24  C   UNL     1     -11.768  15.923  70.999  1.00  0.00    -0.432 C  
ENDBRANCH  21  22
ENDBRANCH  20  21
ENDBRANCH  18  20
ENDBRANCH  14  15
ENDBRANCH  13  14
ENDBRANCH   4  13
BRANCH   8  25
HETATM   25  N   UNL     1      -9.557   4.934  68.711  1.00  0.00    -0.146 N  
HETATM   26  C   UNL     1      -9.374   3.599  69.000  1.00  0.00    -0.169 C  
HETATM   27  H   UNL     1      -9.178   5.634  69.350  1.00  0.00     0.000 HD 
HETATM   28  O   UNL     1      -9.693   2.704  68.218  1.00  0.00    -0.130 OA 
BRANCH  26  29
HETATM   29  C   UNL     1      -8.768   3.317  70.359  1.00  0.00    -0.124 C  
BRANCH  29  30
HETATM   30  C   UNL     1      -9.665   3.775  71.453  1.00  0.00    -0.172 A  
HETATM   31  N   UNL     1     -11.492   6.495  72.703  1.00  0.00    -0.417 NA 
HETATM   32  C   UNL     1     -10.133   3.018  72.510  1.00  0.00    -0.162 A  
HETATM   33  S   UNL     1     -11.155   3.964  73.503  1.00  0.00    -0.210 SA 
HETATM   34  H2  UNL     1     -12.100   6.598  73.515  1.00  0.00     0.000 HD 
HETATM   35  H1  UNL     1     -11.342   7.293  72.087  1.00  0.00     0.000 HD 
HETATM   36  N   UNL     1     -10.122   5.088  71.435  1.00  0.00    -0.192 NA 
HETATM   37  C   UNL     1     -10.904   5.307  72.467  1.00  0.00    -0.245 A  
ENDBRANCH  29  30
ENDBRANCH  26  29
ENDBRANCH   8  25
TORSDOF 9
ENDMDL
MODEL      100
REMARK 921   NORMALIZED FREE ENERGY PREDICTED BY IDOCK:   -5.12 KCAL/MOL
REMARK 922        TOTAL FREE ENERGY PREDICTED BY IDOCK:   -9.75 KCAL/MOL
REMARK 923 INTER-LIGAND FREE ENERGY PREDICTED BY IDOCK:   -8.26 KCAL/MOL
REMARK 924 INTRA-LIGAND FREE ENERGY PREDICTED BY IDOCK:   -1.50 KCAL/MOL
REMARK 927      BINDING AFFINITY PREDICTED BY RF-SCORE:    0.00 PKD
ROOT
HETATM    1  C   UNL     1      -7.899   9.998  66.524  1.00  0.00    -0.112 C  
HETATM    2  S   UNL     1      -9.180  10.246  67.774  1.00  0.00    -0.141 SA 
HETATM    3  C   UNL     1      -8.508   8.997  68.893  1.00  0.00    -0.130 C  
HETATM    4  C   UNL     1      -8.147   7.671  68.237  1.00  0.00    -0.124 C  
HETATM    5  C   UNL     1      -8.159   8.892  64.770  1.00  0.00    -0.144 C  
HETATM    6  CA  UNL     1      -7.925   7.521  66.897  1.00  0.00    -0.115 C  
HETATM    7  C   UNL     1      -7.635   6.147  66.323  1.00  0.00    -0.090 C  
HETATM    8  CA  UNL     1      -8.277  10.421  65.068  1.00  0.00    -0.152 C  
HETATM    9  N   UNL     1      -7.965   8.618  66.075  1.00  0.00    -0.104 N  
HETATM   10  O   UNL     1      -7.854   5.960  65.010  1.00  0.00    -0.093 OA 
HETATM   11  OXT UNL     1      -7.202   5.223  66.997  1.00  0.00    -0.075 OA 
HETATM   12  O   UNL     1      -8.324   8.139  63.833  1.00  0.00    -0.110 OA 
ENDROOT
BRANCH   4  13
HETATM   13  C   UNL     1      -8.221   6.524  69.252  1.00  0.00    -0.123 C  
BRANCH  13  14
HETATM   14  S   UNL     1      -9.937   6.022  69.637  1.00  0.00    -0.181 SA 
BRANCH  14  15
HETATM   15  C   UNL     1     -10.149   6.559  71.260  1.00  0.00    -0.186 A  
HETATM   16  N   UNL     1      -9.510   6.102  72.313  1.00  0.00    -0.150 NA 
HETATM   17  N   UNL     1     -10.050   6.740  73.397  1.00  0.00    -0.213 NA 
HETATM   18  N   UNL     1     -11.040   7.514  71.675  1.00  0.00    -0.237 NA 
HETATM   19  N   UNL     1     -10.993   7.593  73.023  1.00  0.00    -0.400 NA 
BRANCH  18  20
HETATM   20  C   UNL     1     -11.920   8.420  70.958  1.00  0.00    -0.231 C  
BRANCH  20  21
HETATM   21  C   UNL     1     -12.196   9.681  71.797  1.00  0.00    -0.384 C  
BRANCH  21  22
HETATM   22  N   UNL     1     -12.867  10.817  71.123  1.00  0.00    -0.394 NA 
HETATM   23  C   UNL     1     -11.910  11.450  70.197  1.00  0.00    -0.355 C  
HETATM   24  C   UNL     1     -13.346  11.845  72.055  1.00  0.00    -0.320 C  
ENDBRANCH  21  22
ENDBRANCH  20  21
ENDBRANCH  18  20
ENDBRANCH  14  15
ENDBRANCH  13  14
ENDBRANCH   4  13
BRANCH   8  25
HETATM   25  N   UNL     1      -9.637  11.005  64.867  1.00  0.00    -0.232 N  
HETATM   26  C   UNL     1     -10.076  11.434  63.633  1.00  0.00    -0.377 C  
HETATM   27  H   UNL     1     -10.262  11.090  65.670  1.00  0.00     0.000 HD 
HETATM   28  O   UNL     1      -9.429  11.252  62.602  1.00  0.00    -0.337 OA 
BRANCH  26  29
HETATM   29  C   UNL     1     -11.404  12.160  63.644  1.00  0.00    -0.545 C  
BRANCH  29  30
HETATM   30  C   UNL     1     -11.411  13.254  64.651  1.00  0.00    -0.346 A  
HETATM   31  N   UNL     1      -9.993  16.338  65.531  1.00  0.00    -0.530 NA 
HETATM   32  C   UNL     1     -12.219  13.344  65.769  1.00  0.00    -0.458 A  
HETATM   33  S   UNL     1     -11.888  14.793  66.617  1.00  0.00    -0.162 SA 
HETATM   34  H2  UNL     1     -10.168  16.977  66.307  1.00  0.00     0.000 HD 
HETATM   35  H1  UNL     1      -9.286  16.578  64.837  1.00  0.00     0.000 HD 
HETATM   36  N   UNL     1     -10.548  14.330  64.473  1.00  0.00    -0.326 NA 
HETATM   37  C   UNL     1     -10.700  15.196  65.448  1.00  0.00    -0.381 A  
ENDBRANCH  29  30
ENDBRANCH  26  29
ENDBRANCH   8  25
TORSDOF 9
ENDMDL
MODEL      101
REMARK 921   NORMALIZED FREE ENERGY PREDICTED BY IDOCK:   -5.10 KCAL/MOL
REMARK 922        TOTAL FREE ENERGY PREDICTED BY IDOCK:   -9.73 KCAL/MOL
REMARK 923 INTER-LIGAND FREE ENERGY PREDICTED BY IDOCK:   -8.16 KCAL/MOL
REMARK 924 INTRA-LIGAND FREE ENERGY PREDICTED BY IDOCK:   -1.57 KCAL/MOL
REMARK 927      BINDING AFFINITY PREDICTED BY RF-SCORE:    0.00 PKD
ROOT
HETATM    1  C   UNL     1     -10.583   9.717  66.842  1.00  0.00    -0.173 C  
HETATM    2  S   UNL     1     -10.350  10.901  68.186  1.00  0.00    -0.188 SA 
HETATM    3  C   UNL     1     -11.612  12.039  67.573  1.00  0.00    -0.330 C  
HETATM    4  C   UNL     1     -11.531  12.351  66.084  1.00  0.00    -0.430 C  
HETATM    5  C   UNL     1      -9.325   9.553  65.181  1.00  0.00    -0.252 C  
HETATM    6  CA  UNL     1     -10.876  11.566  65.177  1.00  0.00    -0.265 C  
HETATM    7  C   UNL     1     -10.791  11.992  63.724  1.00  0.00    -0.420 C  
HETATM    8  CA  UNL     1      -9.368   8.783  66.538  1.00  0.00    -0.203 C  
HETATM    9  N   UNL     1     -10.298  10.393  65.588  1.00  0.00    -0.230 N  
HETATM   10  O   UNL     1      -9.809  11.463  62.974  1.00  0.00    -0.353 OA 
HETATM   11  OXT UNL     1     -11.579  12.776  63.214  1.00  0.00    -0.498 OA 
HETATM   12  O   UNL     1      -8.639   9.584  64.181  1.00  0.00    -0.176 OA 
ENDROOT
BRANCH   4  13
HETATM   13  C   UNL     1     -12.142  13.725  65.783  1.00  0.00    -0.429 C  
BRANCH  13  14
HETATM   14  S   UNL     1     -10.919  15.083  65.864  1.00  0.00    -0.342 SA 
BRANCH  14  15
HETATM   15  C   UNL     1     -10.975  15.562  67.518  1.00  0.00    -0.316 A  
HETATM   16  N   UNL     1     -11.982  15.377  68.341  1.00  0.00    -0.233 NA 
HETATM   17  N   UNL     1     -11.635  15.989  69.516  1.00  0.00    -0.326 NA 
HETATM   18  N   UNL     1      -9.985  16.233  68.189  1.00  0.00    -0.235 NA 
HETATM   19  N   UNL     1     -10.427  16.526  69.431  1.00  0.00    -0.312 NA 
BRANCH  18  20
HETATM   20  C   UNL     1      -8.628  16.607  67.828  1.00  0.00    -0.192 C  
BRANCH  20  21
HETATM   21  C   UNL     1      -8.636  17.827  66.890  1.00  0.00    -0.244 C  
BRANCH  21  22
HETATM   22  N   UNL     1      -8.514  19.167  67.508  1.00  0.00    -0.284 NA 
HETATM   23  C   UNL     1      -7.806  20.059  66.572  1.00  0.00    -0.306 C  
HETATM   24  C   UNL     1      -7.773  19.157  68.776  1.00  0.00    -0.355 C  
ENDBRANCH  21  22
ENDBRANCH  20  21
ENDBRANCH  18  20
ENDBRANCH  14  15
ENDBRANCH  13  14
ENDBRANCH   4  13
BRANCH   8  25
HETATM   25  N   UNL     1      -8.160   8.946  67.402  1.00  0.00    -0.108 N  
HETATM   26  C   UNL     1      -7.929   8.144  68.498  1.00  0.00    -0.126 C  
HETATM   27  H   UNL     1      -7.484   9.676  67.172  1.00  0.00     0.000 HD 
HETATM   28  O   UNL     1      -8.631   7.170  68.765  1.00  0.00    -0.125 OA 
BRANCH  26  29
HETATM   29  C   UNL     1      -6.755   8.562  69.360  1.00  0.00    -0.045 C  
BRANCH  29  30
HETATM   30  C   UNL     1      -6.360   9.970  69.084  1.00  0.00    -0.044 A  
HETATM   31  N   UNL     1      -7.278  13.329  69.492  1.00  0.00    -0.309 NA 
HETATM   32  C   UNL     1      -5.209  10.395  68.449  1.00  0.00    -0.034 A  
HETATM   33  S   UNL     1      -5.173  12.104  68.382  1.00  0.00    -0.053 SA 
HETATM   34  H2  UNL     1      -6.822  14.202  69.227  1.00  0.00     0.000 HD 
HETATM   35  H1  UNL     1      -8.175  13.362  69.975  1.00  0.00     0.000 HD 
HETATM   36  N   UNL     1      -7.196  10.994  69.516  1.00  0.00    -0.120 NA 
HETATM   37  C   UNL     1      -6.683  12.159  69.195  1.00  0.00    -0.100 A  
ENDBRANCH  29  30
ENDBRANCH  26  29
ENDBRANCH   8  25
TORSDOF 9
ENDMDL
MODEL      102
REMARK 921   NORMALIZED FREE ENERGY PREDICTED BY IDOCK:   -5.10 KCAL/MOL
REMARK 922        TOTAL FREE ENERGY PREDICTED BY IDOCK:   -9.72 KCAL/MOL
REMARK 923 INTER-LIGAND FREE ENERGY PREDICTED BY IDOCK:   -7.94 KCAL/MOL
REMARK 924 INTRA-LIGAND FREE ENERGY PREDICTED BY IDOCK:   -1.78 KCAL/MOL
REMARK 927      BINDING AFFINITY PREDICTED BY RF-SCORE:    0.00 PKD
ROOT
HETATM    1  C   UNL     1      -7.646  11.009  66.673  1.00  0.00    -0.146 C  
HETATM    2  S   UNL     1      -8.335  11.347  68.308  1.00  0.00    -0.157 SA 
HETATM    3  C   UNL     1      -7.099  10.354  69.174  1.00  0.00    -0.080 C  
HETATM    4  C   UNL     1      -6.849   8.974  68.578  1.00  0.00    -0.064 C  
HETATM    5  C   UNL     1      -8.432   9.618  65.324  1.00  0.00    -0.146 C  
HETATM    6  CA  UNL     1      -7.168   8.630  67.295  1.00  0.00    -0.080 C  
HETATM    7  C   UNL     1      -6.942   7.211  66.809  1.00  0.00    -0.073 C  
HETATM    8  CA  UNL     1      -8.635  11.160  65.472  1.00  0.00    -0.045 C  
HETATM    9  N   UNL     1      -7.691   9.574  66.449  1.00  0.00    -0.097 N  
HETATM   10  O   UNL     1      -7.643   6.798  65.740  1.00  0.00    -0.081 OA 
HETATM   11  OXT UNL     1      -6.148   6.446  67.339  1.00  0.00    -0.022 OA 
HETATM   12  O   UNL     1      -8.851   8.714  64.633  1.00  0.00    -0.099 OA 
ENDROOT
BRANCH   4  13
HETATM   13  C   UNL     1      -6.344   8.003  69.652  1.00  0.00    -0.033 C  
BRANCH  13  14
HETATM   14  S   UNL     1      -7.694   7.079  70.470  1.00  0.00    -0.097 SA 
BRANCH  14  15
HETATM   15  C   UNL     1      -7.818   7.845  72.008  1.00  0.00    -0.104 A  
HETATM   16  N   UNL     1      -6.851   8.475  72.637  1.00  0.00    -0.204 NA 
HETATM   17  N   UNL     1      -7.361   8.846  73.853  1.00  0.00    -0.387 NA 
HETATM   18  N   UNL     1      -8.937   7.872  72.799  1.00  0.00    -0.176 NA 
HETATM   19  N   UNL     1      -8.626   8.472  73.969  1.00  0.00    -0.199 NA 
BRANCH  18  20
HETATM   20  C   UNL     1     -10.308   7.441  72.583  1.00  0.00    -0.244 C  
BRANCH  20  21
HETATM   21  C   UNL     1     -11.170   8.615  72.084  1.00  0.00    -0.367 C  
BRANCH  21  22
HETATM   22  N   UNL     1     -12.631   8.534  72.309  1.00  0.00    -0.377 NA 
HETATM   23  C   UNL     1     -13.180   7.445  71.480  1.00  0.00    -0.372 C  
HETATM   24  C   UNL     1     -13.342   9.771  71.965  1.00  0.00    -0.451 C  
ENDBRANCH  21  22
ENDBRANCH  20  21
ENDBRANCH  18  20
ENDBRANCH  14  15
ENDBRANCH  13  14
ENDBRANCH   4  13
BRANCH   8  25
HETATM   25  N   UNL     1     -10.029  11.590  65.797  1.00  0.00    -0.224 N  
HETATM   26  C   UNL     1     -10.826  12.241  64.880  1.00  0.00    -0.302 C  
HETATM   27  H   UNL     1     -10.401  11.395  66.726  1.00  0.00     0.000 HD 
HETATM   28  O   UNL     1     -10.492  12.400  63.707  1.00  0.00    -0.406 OA 
BRANCH  26  29
HETATM   29  C   UNL     1     -12.138  12.760  65.431  1.00  0.00    -0.512 C  
BRANCH  29  30
HETATM   30  C   UNL     1     -11.961  13.330  66.794  1.00  0.00    -0.382 A  
HETATM   31  N   UNL     1     -11.727  12.559  70.206  1.00  0.00    -0.551 NA 
HETATM   32  C   UNL     1     -11.772  14.660  67.115  1.00  0.00    -0.373 A  
HETATM   33  S   UNL     1     -11.590  14.836  68.807  1.00  0.00    -0.332 SA 
HETATM   34  H2  UNL     1     -11.573  13.138  71.032  1.00  0.00     0.000 HD 
HETATM   35  H1  UNL     1     -11.839  11.552  70.318  1.00  0.00     0.000 HD 
HETATM   36  N   UNL     1     -11.954  12.465  67.882  1.00  0.00    -0.440 NA 
HETATM   37  C   UNL     1     -11.778  13.141  68.994  1.00  0.00    -0.321 A  
ENDBRANCH  29  30
ENDBRANCH  26  29
ENDBRANCH   8  25
TORSDOF 9
ENDMDL
MODEL      103
REMARK 921   NORMALIZED FREE ENERGY PREDICTED BY IDOCK:   -5.09 KCAL/MOL
REMARK 922        TOTAL FREE ENERGY PREDICTED BY IDOCK:   -9.70 KCAL/MOL
REMARK 923 INTER-LIGAND FREE ENERGY PREDICTED BY IDOCK:   -9.67 KCAL/MOL
REMARK 924 INTRA-LIGAND FREE ENERGY PREDICTED BY IDOCK:   -0.04 KCAL/MOL
REMARK 927      BINDING AFFINITY PREDICTED BY RF-SCORE:    0.00 PKD
ROOT
HETATM    1  C   UNL     1     -10.343  14.179  66.894  1.00  0.00    -0.269 C  
HETATM    2  S   UNL     1      -9.802  12.978  68.130  1.00  0.00    -0.228 SA 
HETATM    3  C   UNL     1      -8.899  11.966  66.937  1.00  0.00    -0.197 C  
HETATM    4  C   UNL     1      -9.658  11.648  65.655  1.00  0.00    -0.252 C  
HETATM    5  C   UNL     1     -12.253  14.222  66.045  1.00  0.00    -0.404 C  
HETATM    6  CA  UNL     1     -10.732  12.366  65.208  1.00  0.00    -0.287 C  
HETATM    7  C   UNL     1     -11.468  11.934  63.955  1.00  0.00    -0.426 C  
HETATM    8  CA  UNL     1     -11.629  14.993  67.251  1.00  0.00    -0.273 C  
HETATM    9  N   UNL     1     -11.138  13.479  65.899  1.00  0.00    -0.284 N  
HETATM   10  O   UNL     1     -12.729  12.367  63.791  1.00  0.00    -0.693 OA 
HETATM   11  OXT UNL     1     -10.958  11.229  63.095  1.00  0.00    -0.220 OA 
HETATM   12  O   UNL     1     -13.330  14.125  65.495  1.00  0.00    -0.656 OA 
ENDROOT
BRANCH   4  13
HETATM   13  C   UNL     1      -9.154  10.339  65.036  1.00  0.00    -0.207 C  
BRANCH  13  14
HETATM   14  S   UNL     1      -8.654   9.103  66.289  1.00  0.00    -0.131 SA 
BRANCH  14  15
HETATM   15  C   UNL     1      -7.862   7.893  65.352  1.00  0.00    -0.112 A  
HETATM   16  N   UNL     1      -6.817   8.078  64.577  1.00  0.00    -0.063 NA 
HETATM   17  N   UNL     1      -6.580   6.878  63.960  1.00  0.00    -0.038 NA 
HETATM   18  N   UNL     1      -8.239   6.578  65.264  1.00  0.00    -0.136 NA 
HETATM   19  N   UNL     1      -7.448   5.960  64.359  1.00  0.00    -0.071 NA 
BRANCH  18  20
HETATM   20  C   UNL     1      -9.238   5.789  65.964  1.00  0.00    -0.141 C  
BRANCH  20  21
HETATM   21  C   UNL     1      -8.827   5.581  67.433  1.00  0.00    -0.105 C  
BRANCH  21  22
HETATM   22  N   UNL     1      -9.908   5.542  68.446  1.00  0.00    -0.134 NA 
HETATM   23  C   UNL     1     -10.680   6.796  68.364  1.00  0.00    -0.232 C  
HETATM   24  C   UNL     1      -9.412   5.403  69.820  1.00  0.00    -0.151 C  
ENDBRANCH  21  22
ENDBRANCH  20  21
ENDBRANCH  18  20
ENDBRANCH  14  15
ENDBRANCH  13  14
ENDBRANCH   4  13
BRANCH   8  25
HETATM   25  N   UNL     1     -12.255  14.714  68.578  1.00  0.00    -0.602 N  
HETATM   26  C   UNL     1     -11.696  15.153  69.759  1.00  0.00    -0.319 C  
HETATM   27  H   UNL     1     -13.126  14.182  68.611  1.00  0.00     0.000 HD 
HETATM   28  O   UNL     1     -10.720  15.901  69.791  1.00  0.00    -0.270 OA 
BRANCH  26  29
HETATM   29  C   UNL     1     -12.364  14.631  71.014  1.00  0.00    -0.403 C  
BRANCH  29  30
HETATM   30  C   UNL     1     -12.519  13.153  70.966  1.00  0.00    -0.318 A  
HETATM   31  N   UNL     1     -11.935  10.277  69.047  1.00  0.00    -0.609 NA 
HETATM   32  C   UNL     1     -13.058  12.346  71.951  1.00  0.00    -0.366 A  
HETATM   33  S   UNL     1     -13.005  10.708  71.461  1.00  0.00    -0.460 SA 
HETATM   34  H2  UNL     1     -12.113   9.288  69.220  1.00  0.00     0.000 HD 
HETATM   35  H1  UNL     1     -11.503  10.559  68.167  1.00  0.00     0.000 HD 
HETATM   36  N   UNL     1     -12.066  12.471  69.842  1.00  0.00    -0.287 NA 
HETATM   37  C   UNL     1     -12.277  11.182  69.982  1.00  0.00    -0.326 A  
ENDBRANCH  29  30
ENDBRANCH  26  29
ENDBRANCH   8  25
TORSDOF 9
ENDMDL
MODEL      104
REMARK 921   NORMALIZED FREE ENERGY PREDICTED BY IDOCK:   -5.07 KCAL/MOL
REMARK 922        TOTAL FREE ENERGY PREDICTED BY IDOCK:   -9.68 KCAL/MOL
REMARK 923 INTER-LIGAND FREE ENERGY PREDICTED BY IDOCK:   -8.64 KCAL/MOL
REMARK 924 INTRA-LIGAND FREE ENERGY PREDICTED BY IDOCK:   -1.04 KCAL/MOL
REMARK 927      BINDING AFFINITY PREDICTED BY RF-SCORE:    0.00 PKD
ROOT
HETATM    1  C   UNL     1     -11.277  10.739  68.678  1.00  0.00    -0.274 C  
HETATM    2  S   UNL     1      -9.763   9.820  69.035  1.00  0.00    -0.187 SA 
HETATM    3  C   UNL     1     -10.632   8.453  69.834  1.00  0.00    -0.228 C  
HETATM    4  C   UNL     1     -11.686   8.866  70.853  1.00  0.00    -0.312 C  
HETATM    5  C   UNL     1     -11.957  12.374  69.790  1.00  0.00    -0.289 C  
HETATM    6  CA  UNL     1     -12.262  10.104  70.892  1.00  0.00    -0.356 C  
HETATM    7  C   UNL     1     -13.256  10.447  71.985  1.00  0.00    -0.392 C  
HETATM    8  CA  UNL     1     -11.108  12.281  68.482  1.00  0.00    -0.249 C  
HETATM    9  N   UNL     1     -11.937  11.034  69.938  1.00  0.00    -0.321 N  
HETATM   10  O   UNL     1     -13.460  11.747  72.259  1.00  0.00    -0.423 OA 
HETATM   11  OXT UNL     1     -13.879   9.597  72.607  1.00  0.00    -0.310 OA 
HETATM   12  O   UNL     1     -12.369  13.233  70.540  1.00  0.00    -0.342 OA 
ENDROOT
BRANCH   4  13
HETATM   13  C   UNL     1     -11.889   7.765  71.902  1.00  0.00    -0.297 C  
BRANCH  13  14
HETATM   14  S   UNL     1     -10.353   7.349  72.804  1.00  0.00    -0.289 SA 
BRANCH  14  15
HETATM   15  C   UNL     1     -10.329   5.627  72.763  1.00  0.00    -0.193 A  
HETATM   16  N   UNL     1     -10.875   4.826  73.651  1.00  0.00    -0.283 NA 
HETATM   17  N   UNL     1     -10.538   3.552  73.278  1.00  0.00    -0.175 NA 
HETATM   18  N   UNL     1      -9.706   4.859  71.814  1.00  0.00    -0.159 NA 
HETATM   19  N   UNL     1      -9.814   3.560  72.168  1.00  0.00    -0.160 NA 
BRANCH  18  20
HETATM   20  C   UNL     1      -9.044   5.184  70.562  1.00  0.00    -0.139 C  
BRANCH  20  21
HETATM   21  C   UNL     1      -9.743   4.480  69.384  1.00  0.00    -0.202 C  
BRANCH  21  22
HETATM   22  N   UNL     1      -9.086   4.552  68.059  1.00  0.00    -0.117 NA 
HETATM   23  C   UNL     1     -10.040   5.118  67.087  1.00  0.00    -0.206 C  
HETATM   24  C   UNL     1      -8.647   3.244  67.556  1.00  0.00    -0.104 C  
ENDBRANCH  21  22
ENDBRANCH  20  21
ENDBRANCH  18  20
ENDBRANCH  14  15
ENDBRANCH  13  14
ENDBRANCH   4  13
BRANCH   8  25
HETATM   25  N   UNL     1      -9.721  12.825  68.583  1.00  0.00    -0.408 N  
HETATM   26  C   UNL     1      -9.401  14.098  68.163  1.00  0.00    -0.206 C  
HETATM   27  H   UNL     1      -8.987  12.235  68.977  1.00  0.00     0.000 HD 
HETATM   28  O   UNL     1     -10.252  14.906  67.794  1.00  0.00    -0.234 OA 
BRANCH  26  29
HETATM   29  C   UNL     1      -7.921  14.420  68.173  1.00  0.00    -0.136 C  
BRANCH  29  30
HETATM   30  C   UNL     1      -7.686  15.871  67.940  1.00  0.00    -0.135 A  
HETATM   31  N   UNL     1      -7.069  18.312  65.500  1.00  0.00    -0.545 NA 
HETATM   32  C   UNL     1      -7.678  16.870  68.895  1.00  0.00    -0.237 A  
HETATM   33  S   UNL     1      -7.390  18.386  68.156  1.00  0.00    -0.269 SA 
HETATM   34  H2  UNL     1      -6.952  19.324  65.556  1.00  0.00     0.000 HD 
HETATM   35  H1  UNL     1      -7.011  17.853  64.592  1.00  0.00     0.000 HD 
HETATM   36  N   UNL     1      -7.473  16.312  66.639  1.00  0.00    -0.231 NA 
HETATM   37  C   UNL     1      -7.295  17.613  66.627  1.00  0.00    -0.230 A  
ENDBRANCH  29  30
ENDBRANCH  26  29
ENDBRANCH   8  25
TORSDOF 9
ENDMDL
MODEL      105
REMARK 921   NORMALIZED FREE ENERGY PREDICTED BY IDOCK:   -5.06 KCAL/MOL
REMARK 922        TOTAL FREE ENERGY PREDICTED BY IDOCK:   -9.67 KCAL/MOL
REMARK 923 INTER-LIGAND FREE ENERGY PREDICTED BY IDOCK:   -8.26 KCAL/MOL
REMARK 924 INTRA-LIGAND FREE ENERGY PREDICTED BY IDOCK:   -1.41 KCAL/MOL
REMARK 927      BINDING AFFINITY PREDICTED BY RF-SCORE:    0.00 PKD
ROOT
HETATM    1  C   UNL     1     -10.240  10.443  66.613  1.00  0.00    -0.234 C  
HETATM    2  S   UNL     1      -8.479  10.774  66.382  1.00  0.00    -0.162 SA 
HETATM    3  C   UNL     1      -7.954   9.413  67.447  1.00  0.00    -0.106 C  
HETATM    4  C   UNL     1      -8.678   9.324  68.785  1.00  0.00    -0.132 C  
HETATM    5  C   UNL     1     -11.487  11.523  67.897  1.00  0.00    -0.301 C  
HETATM    6  CA  UNL     1      -9.889   9.908  69.035  1.00  0.00    -0.190 C  
HETATM    7  C   UNL     1     -10.503   9.823  70.419  1.00  0.00    -0.297 C  
HETATM    8  CA  UNL     1     -11.199  11.653  66.368  1.00  0.00    -0.287 C  
HETATM    9  N   UNL     1     -10.544  10.569  68.028  1.00  0.00    -0.197 N  
HETATM   10  O   UNL     1     -11.429  10.738  70.749  1.00  0.00    -0.306 OA 
HETATM   11  OXT UNL     1     -10.200   8.956  71.228  1.00  0.00    -0.237 OA 
HETATM   12  O   UNL     1     -12.134  12.098  68.746  1.00  0.00    -0.274 OA 
ENDROOT
BRANCH   4  13
HETATM   13  C   UNL     1      -7.798   8.634  69.834  1.00  0.00    -0.093 C  
BRANCH  13  14
HETATM   14  S   UNL     1      -7.021   7.099  69.215  1.00  0.00    -0.072 SA 
BRANCH  14  15
HETATM   15  C   UNL     1      -8.364   6.047  68.978  1.00  0.00    -0.111 A  
HETATM   16  N   UNL     1      -9.055   5.916  67.868  1.00  0.00    -0.111 NA 
HETATM   17  N   UNL     1     -10.077   5.050  68.151  1.00  0.00    -0.133 NA 
HETATM   18  N   UNL     1      -8.914   5.227  69.929  1.00  0.00    -0.117 NA 
HETATM   19  N   UNL     1     -10.010   4.634  69.408  1.00  0.00    -0.205 NA 
BRANCH  18  20
HETATM   20  C   UNL     1      -8.515   4.879  71.282  1.00  0.00    -0.116 C  
BRANCH  20  21
HETATM   21  C   UNL     1      -9.219   5.792  72.303  1.00  0.00    -0.145 C  
BRANCH  21  22
HETATM   22  N   UNL     1      -8.451   6.193  73.504  1.00  0.00    -0.118 NA 
HETATM   23  C   UNL     1      -9.304   7.050  74.348  1.00  0.00    -0.197 C  
HETATM   24  C   UNL     1      -7.227   6.940  73.189  1.00  0.00    -0.074 C  
ENDBRANCH  21  22
ENDBRANCH  20  21
ENDBRANCH  18  20
ENDBRANCH  14  15
ENDBRANCH  13  14
ENDBRANCH   4  13
BRANCH   8  25
HETATM   25  N   UNL     1     -10.566  12.939  65.946  1.00  0.00    -0.266 N  
HETATM   26  C   UNL     1     -11.313  14.038  65.581  1.00  0.00    -0.313 C  
HETATM   27  H   UNL     1      -9.548  13.006  65.928  1.00  0.00     0.000 HD 
HETATM   28  O   UNL     1     -12.538  14.072  65.695  1.00  0.00    -0.497 OA 
BRANCH  26  29
HETATM   29  C   UNL     1     -10.516  15.193  65.013  1.00  0.00    -0.418 C  
BRANCH  29  30
HETATM   30  C   UNL     1     -10.433  16.318  65.983  1.00  0.00    -0.331 A  
HETATM   31  N   UNL     1     -10.463  19.808  66.323  1.00  0.00    -0.495 NA 
HETATM   32  C   UNL     1     -10.319  16.218  67.357  1.00  0.00    -0.285 A  
HETATM   33  S   UNL     1     -10.286  17.778  68.058  1.00  0.00    -0.399 SA 
HETATM   34  H2  UNL     1     -10.411  20.418  67.138  1.00  0.00     0.000 HD 
HETATM   35  H1  UNL     1     -10.543  20.221  65.395  1.00  0.00     0.000 HD 
HETATM   36  N   UNL     1     -10.500  17.621  65.501  1.00  0.00    -0.638 NA 
HETATM   37  C   UNL     1     -10.422  18.474  66.496  1.00  0.00    -0.398 A  
ENDBRANCH  29  30
ENDBRANCH  26  29
ENDBRANCH   8  25
TORSDOF 9
ENDMDL
MODEL      106
REMARK 921   NORMALIZED FREE ENERGY PREDICTED BY IDOCK:   -5.06 KCAL/MOL
REMARK 922        TOTAL FREE ENERGY PREDICTED BY IDOCK:   -9.67 KCAL/MOL
REMARK 923 INTER-LIGAND FREE ENERGY PREDICTED BY IDOCK:   -7.75 KCAL/MOL
REMARK 924 INTRA-LIGAND FREE ENERGY PREDICTED BY IDOCK:   -1.92 KCAL/MOL
REMARK 927      BINDING AFFINITY PREDICTED BY RF-SCORE:    0.00 PKD
ROOT
HETATM    1  C   UNL     1      -7.537  10.393  67.205  1.00  0.00    -0.096 C  
HETATM    2  S   UNL     1      -7.761  11.360  68.715  1.00  0.00    -0.114 SA 
HETATM    3  C   UNL     1      -7.268  10.007  69.805  1.00  0.00    -0.127 C  
HETATM    4  C   UNL     1      -7.919   8.664  69.501  1.00  0.00    -0.097 C  
HETATM    5  C   UNL     1      -9.094   9.513  66.123  1.00  0.00    -0.166 C  
HETATM    6  CA  UNL     1      -8.484   8.347  68.297  1.00  0.00    -0.135 C  
HETATM    7  C   UNL     1      -9.169   7.008  68.107  1.00  0.00    -0.130 C  
HETATM    8  CA  UNL     1      -8.348  10.876  65.960  1.00  0.00    -0.165 C  
HETATM    9  N   UNL     1      -8.427   9.247  67.264  1.00  0.00    -0.124 N  
HETATM   10  O   UNL     1     -10.065   6.900  67.112  1.00  0.00    -0.172 OA 
HETATM   11  OXT UNL     1      -8.928   6.033  68.806  1.00  0.00    -0.119 OA 
HETATM   12  O   UNL     1     -10.018   8.922  65.606  1.00  0.00    -0.108 OA 
ENDROOT
BRANCH   4  13
HETATM   13  C   UNL     1      -7.987   7.795  70.762  1.00  0.00    -0.101 C  
BRANCH  13  14
HETATM   14  S   UNL     1      -9.055   8.509  72.064  1.00  0.00    -0.244 SA 
BRANCH  14  15
HETATM   15  C   UNL     1      -9.895   7.136  72.680  1.00  0.00    -0.166 A  
HETATM   16  N   UNL     1      -9.663   6.542  73.828  1.00  0.00    -0.185 NA 
HETATM   17  N   UNL     1     -10.492   5.452  73.871  1.00  0.00    -0.261 NA 
HETATM   18  N   UNL     1     -10.898   6.460  72.037  1.00  0.00    -0.230 NA 
HETATM   19  N   UNL     1     -11.240   5.384  72.779  1.00  0.00    -0.290 NA 
BRANCH  18  20
HETATM   20  C   UNL     1     -11.633   6.717  70.810  1.00  0.00    -0.376 C  
BRANCH  20  21
HETATM   21  C   UNL     1     -13.003   7.343  71.123  1.00  0.00    -0.240 C  
BRANCH  21  22
HETATM   22  N   UNL     1     -13.017   8.605  71.898  1.00  0.00    -0.352 NA 
HETATM   23  C   UNL     1     -14.405   8.899  72.301  1.00  0.00    -0.333 C  
HETATM   24  C   UNL     1     -12.509   9.757  71.144  1.00  0.00    -0.350 C  
ENDBRANCH  21  22
ENDBRANCH  20  21
ENDBRANCH  18  20
ENDBRANCH  14  15
ENDBRANCH  13  14
ENDBRANCH   4  13
BRANCH   8  25
HETATM   25  N   UNL     1      -9.198  12.092  66.139  1.00  0.00    -0.353 N  
HETATM   26  C   UNL     1     -10.022  12.564  65.140  1.00  0.00    -0.192 C  
HETATM   27  H   UNL     1      -9.166  12.589  67.030  1.00  0.00     0.000 HD 
HETATM   28  O   UNL     1     -10.205  11.951  64.089  1.00  0.00    -0.286 OA 
BRANCH  26  29
HETATM   29  C   UNL     1     -10.672  13.901  65.427  1.00  0.00    -0.330 C  
BRANCH  29  30
HETATM   30  C   UNL     1     -10.954  14.062  66.878  1.00  0.00    -0.298 A  
HETATM   31  N   UNL     1      -9.628  15.111  69.950  1.00  0.00    -0.474 NA 
HETATM   32  C   UNL     1     -12.142  13.778  67.526  1.00  0.00    -0.331 A  
HETATM   33  S   UNL     1     -12.005  14.146  69.191  1.00  0.00    -0.336 SA 
HETATM   34  H2  UNL     1     -10.025  15.161  70.888  1.00  0.00     0.000 HD 
HETATM   35  H1  UNL     1      -8.665  15.410  69.799  1.00  0.00     0.000 HD 
HETATM   36  N   UNL     1      -9.954  14.570  67.700  1.00  0.00    -0.223 NA 
HETATM   37  C   UNL     1     -10.385  14.650  68.938  1.00  0.00    -0.245 A  
ENDBRANCH  29  30
ENDBRANCH  26  29
ENDBRANCH   8  25
TORSDOF 9
ENDMDL
MODEL      107
REMARK 921   NORMALIZED FREE ENERGY PREDICTED BY IDOCK:   -5.06 KCAL/MOL
REMARK 922        TOTAL FREE ENERGY PREDICTED BY IDOCK:   -9.66 KCAL/MOL
REMARK 923 INTER-LIGAND FREE ENERGY PREDICTED BY IDOCK:   -8.51 KCAL/MOL
REMARK 924 INTRA-LIGAND FREE ENERGY PREDICTED BY IDOCK:   -1.15 KCAL/MOL
REMARK 927      BINDING AFFINITY PREDICTED BY RF-SCORE:    0.00 PKD
ROOT
HETATM    1  C   UNL     1     -11.797  13.355  67.425  1.00  0.00    -0.375 C  
HETATM    2  S   UNL     1     -10.317  12.336  67.231  1.00  0.00    -0.215 SA 
HETATM    3  C   UNL     1     -11.008  10.936  68.139  1.00  0.00    -0.249 C  
HETATM    4  C   UNL     1     -11.680  11.291  69.459  1.00  0.00    -0.415 C  
HETATM    5  C   UNL     1     -11.995  14.897  68.822  1.00  0.00    -0.249 C  
HETATM    6  CA  UNL     1     -12.125  12.544  69.773  1.00  0.00    -0.224 C  
HETATM    7  C   UNL     1     -12.722  12.819  71.140  1.00  0.00    -0.263 C  
HETATM    8  CA  UNL     1     -11.581  14.899  67.316  1.00  0.00    -0.324 C  
HETATM    9  N   UNL     1     -12.030  13.550  68.846  1.00  0.00    -0.349 N  
HETATM   10  O   UNL     1     -12.740  14.092  71.569  1.00  0.00    -0.324 OA 
HETATM   11  OXT UNL     1     -13.194  11.940  71.848  1.00  0.00    -0.482 OA 
HETATM   12  O   UNL     1     -12.102  15.695  69.730  1.00  0.00    -0.361 OA 
ENDROOT
BRANCH   4  13
HETATM   13  C   UNL     1     -11.643  10.101  70.425  1.00  0.00    -0.316 C  
BRANCH  13  14
HETATM   14  S   UNL     1     -10.902   8.602  69.683  1.00  0.00    -0.097 SA 
BRANCH  14  15
HETATM   15  C   UNL     1      -9.272   8.653  70.240  1.00  0.00    -0.166 A  
HETATM   16  N   UNL     1      -8.853   9.225  71.346  1.00  0.00    -0.303 NA 
HETATM   17  N   UNL     1      -7.488   9.104  71.347  1.00  0.00    -0.320 NA 
HETATM   18  N   UNL     1      -8.187   8.131  69.584  1.00  0.00    -0.118 NA 
HETATM   19  N   UNL     1      -7.070   8.452  70.273  1.00  0.00    -0.039 NA 
BRANCH  18  20
HETATM   20  C   UNL     1      -8.056   7.310  68.393  1.00  0.00    -0.125 C  
BRANCH  20  21
HETATM   21  C   UNL     1      -6.803   7.713  67.596  1.00  0.00    -0.069 C  
BRANCH  21  22
HETATM   22  N   UNL     1      -7.008   8.368  66.284  1.00  0.00    -0.072 NA 
HETATM   23  C   UNL     1      -5.716   8.428  65.576  1.00  0.00    -0.044 C  
HETATM   24  C   UNL     1      -7.533   9.734  66.391  1.00  0.00    -0.099 C  
ENDBRANCH  21  22
ENDBRANCH  20  21
ENDBRANCH  18  20
ENDBRANCH  14  15
ENDBRANCH  13  14
ENDBRANCH   4  13
BRANCH   8  25
HETATM   25  N   UNL     1     -10.190  15.367  67.038  1.00  0.00    -0.257 N  
HETATM   26  C   UNL     1      -9.871  16.704  66.946  1.00  0.00    -0.263 C  
HETATM   27  H   UNL     1      -9.452  14.673  66.913  1.00  0.00     0.000 HD 
HETATM   28  O   UNL     1     -10.679  17.596  67.206  1.00  0.00    -0.325 OA 
BRANCH  26  29
HETATM   29  C   UNL     1      -8.459  16.994  66.484  1.00  0.00    -0.306 C  
BRANCH  29  30
HETATM   30  C   UNL     1      -7.972  18.292  67.025  1.00  0.00    -0.225 A  
HETATM   31  N   UNL     1      -6.801  19.935  69.892  1.00  0.00    -0.263 NA 
HETATM   32  C   UNL     1      -7.798  19.468  66.320  1.00  0.00    -0.317 A  
HETATM   33  S   UNL     1      -7.194  20.688  67.355  1.00  0.00    -0.338 SA 
HETATM   34  H2  UNL     1      -6.478  20.889  70.053  1.00  0.00     0.000 HD 
HETATM   35  H1  UNL     1      -6.809  19.274  70.669  1.00  0.00     0.000 HD 
HETATM   36  N   UNL     1      -7.620  18.365  68.369  1.00  0.00    -0.283 NA 
HETATM   37  C   UNL     1      -7.207  19.576  68.661  1.00  0.00    -0.339 A  
ENDBRANCH  29  30
ENDBRANCH  26  29
ENDBRANCH   8  25
TORSDOF 9
ENDMDL
MODEL      108
REMARK 921   NORMALIZED FREE ENERGY PREDICTED BY IDOCK:   -5.05 KCAL/MOL
REMARK 922        TOTAL FREE ENERGY PREDICTED BY IDOCK:   -9.65 KCAL/MOL
REMARK 923 INTER-LIGAND FREE ENERGY PREDICTED BY IDOCK:   -8.32 KCAL/MOL
REMARK 924 INTRA-LIGAND FREE ENERGY PREDICTED BY IDOCK:   -1.33 KCAL/MOL
REMARK 927      BINDING AFFINITY PREDICTED BY RF-SCORE:    0.00 PKD
ROOT
HETATM    1  C   UNL     1     -11.590   8.078  70.412  1.00  0.00    -0.068 C  
HETATM    2  S   UNL     1     -11.620   9.565  71.439  1.00  0.00    -0.407 SA 
HETATM    3  C   UNL     1     -12.182  10.634  70.096  1.00  0.00    -0.320 C  
HETATM    4  C   UNL     1     -11.426  10.471  68.783  1.00  0.00    -0.291 C  
HETATM    5  C   UNL     1      -9.859   7.246  69.589  1.00  0.00    -0.163 C  
HETATM    6  CA  UNL     1     -10.691   9.365  68.461  1.00  0.00    -0.161 C  
HETATM    7  C   UNL     1      -9.917   9.320  67.157  1.00  0.00    -0.216 C  
HETATM    8  CA  UNL     1     -10.647   6.932  70.900  1.00  0.00    -0.218 C  
HETATM    9  N   UNL     1     -10.657   8.299  69.321  1.00  0.00    -0.211 N  
HETATM   10  O   UNL     1      -8.892   8.456  67.069  1.00  0.00    -0.129 OA 
HETATM   11  OXT UNL     1     -10.197  10.020  66.194  1.00  0.00    -0.247 OA 
HETATM   12  O   UNL     1      -8.845   6.877  69.034  1.00  0.00    -0.131 OA 
ENDROOT
BRANCH   4  13
HETATM   13  C   UNL     1     -11.481  11.764  67.961  1.00  0.00    -0.319 C  
BRANCH  13  14
HETATM   14  S   UNL     1     -10.199  12.974  68.448  1.00  0.00    -0.225 SA 
BRANCH  14  15
HETATM   15  C   UNL     1     -11.099  14.190  69.272  1.00  0.00    -0.250 A  
HETATM   16  N   UNL     1     -12.120  13.984  70.074  1.00  0.00    -0.329 NA 
HETATM   17  N   UNL     1     -12.584  15.222  70.431  1.00  0.00    -0.380 NA 
HETATM   18  N   UNL     1     -10.892  15.542  69.174  1.00  0.00    -0.236 NA 
HETATM   19  N   UNL     1     -11.853  16.179  69.879  1.00  0.00    -0.213 NA 
BRANCH  18  20
HETATM   20  C   UNL     1      -9.861  16.337  68.531  1.00  0.00    -0.223 C  
BRANCH  20  21
HETATM   21  C   UNL     1     -10.481  17.283  67.487  1.00  0.00    -0.356 C  
BRANCH  21  22
HETATM   22  N   UNL     1     -10.486  18.731  67.794  1.00  0.00    -0.417 NA 
HETATM   23  C   UNL     1     -10.435  19.485  66.527  1.00  0.00    -0.493 C  
HETATM   24  C   UNL     1      -9.350  19.155  68.621  1.00  0.00    -0.388 C  
ENDBRANCH  21  22
ENDBRANCH  20  21
ENDBRANCH  18  20
ENDBRANCH  14  15
ENDBRANCH  13  14
ENDBRANCH   4  13
BRANCH   8  25
HETATM   25  N   UNL     1      -9.894   7.172  72.168  1.00  0.00    -0.154 N  
HETATM   26  C   UNL     1     -10.190   6.500  73.334  1.00  0.00    -0.239 C  
HETATM   27  H   UNL     1      -9.136   7.856  72.170  1.00  0.00     0.000 HD 
HETATM   28  O   UNL     1     -11.004   5.578  73.378  1.00  0.00    -0.276 OA 
BRANCH  26  29
HETATM   29  C   UNL     1      -9.451   6.993  74.561  1.00  0.00    -0.163 C  
BRANCH  29  30
HETATM   30  C   UNL     1      -8.014   7.234  74.262  1.00  0.00    -0.146 A  
HETATM   31  N   UNL     1      -5.648   9.660  73.363  1.00  0.00    -0.315 NA 
HETATM   32  C   UNL     1      -6.994   6.303  74.307  1.00  0.00    -0.086 A  
HETATM   33  S   UNL     1      -5.504   7.045  73.911  1.00  0.00    -0.050 SA 
HETATM   34  H2  UNL     1      -4.639   9.616  73.221  1.00  0.00     0.000 HD 
HETATM   35  H1  UNL     1      -6.130  10.551  73.241  1.00  0.00     0.000 HD 
HETATM   36  N   UNL     1      -7.610   8.520  73.924  1.00  0.00    -0.387 NA 
HETATM   37  C   UNL     1      -6.315   8.543  73.707  1.00  0.00    -0.110 A  
ENDBRANCH  29  30
ENDBRANCH  26  29
ENDBRANCH   8  25
TORSDOF 9
ENDMDL
MODEL      109
REMARK 921   NORMALIZED FREE ENERGY PREDICTED BY IDOCK:   -5.05 KCAL/MOL
REMARK 922        TOTAL FREE ENERGY PREDICTED BY IDOCK:   -9.64 KCAL/MOL
REMARK 923 INTER-LIGAND FREE ENERGY PREDICTED BY IDOCK:   -8.04 KCAL/MOL
REMARK 924 INTRA-LIGAND FREE ENERGY PREDICTED BY IDOCK:   -1.60 KCAL/MOL
REMARK 927      BINDING AFFINITY PREDICTED BY RF-SCORE:    0.00 PKD
ROOT
HETATM    1  C   UNL     1      -9.662  12.493  67.791  1.00  0.00    -0.202 C  
HETATM    2  S   UNL     1      -7.857  12.562  67.768  1.00  0.00    -0.166 SA 
HETATM    3  C   UNL     1      -7.802  14.362  67.633  1.00  0.00    -0.181 C  
HETATM    4  C   UNL     1      -8.731  14.959  66.584  1.00  0.00    -0.262 C  
HETATM    5  C   UNL     1     -10.847  11.985  66.145  1.00  0.00    -0.286 C  
HETATM    6  CA  UNL     1      -9.819  14.308  66.072  1.00  0.00    -0.314 C  
HETATM    7  C   UNL     1     -10.649  14.956  64.981  1.00  0.00    -0.422 C  
HETATM    8  CA  UNL     1     -10.299  11.139  67.338  1.00  0.00    -0.196 C  
HETATM    9  N   UNL     1     -10.155  13.068  66.552  1.00  0.00    -0.264 N  
HETATM   10  O   UNL     1     -11.407  14.154  64.214  1.00  0.00    -0.332 OA 
HETATM   11  OXT UNL     1     -10.665  16.164  64.787  1.00  0.00    -0.648 OA 
HETATM   12  O   UNL     1     -11.488  11.807  65.131  1.00  0.00    -0.278 OA 
ENDROOT
BRANCH   4  13
HETATM   13  C   UNL     1      -8.191  16.303  66.081  1.00  0.00    -0.169 C  
BRANCH  13  14
HETATM   14  S   UNL     1      -7.522  17.350  67.423  1.00  0.00    -0.187 SA 
BRANCH  14  15
HETATM   15  C   UNL     1      -8.702  18.598  67.573  1.00  0.00    -0.270 A  
HETATM   16  N   UNL     1      -8.506  19.876  67.342  1.00  0.00    -0.316 NA 
HETATM   17  N   UNL     1      -9.675  20.509  67.670  1.00  0.00    -0.403 NA 
HETATM   18  N   UNL     1      -9.997  18.426  67.986  1.00  0.00    -0.333 NA 
HETATM   19  N   UNL     1     -10.587  19.638  68.077  1.00  0.00    -0.394 NA 
BRANCH  18  20
HETATM   20  C   UNL     1     -10.794  17.244  68.271  1.00  0.00    -0.287 C  
BRANCH  20  21
HETATM   21  C   UNL     1     -10.810  16.957  69.783  1.00  0.00    -0.035 C  
BRANCH  21  22
HETATM   22  N   UNL     1     -11.103  15.570  70.212  1.00  0.00    -0.300 NA 
HETATM   23  C   UNL     1     -11.963  14.932  69.199  1.00  0.00    -0.278 C  
HETATM   24  C   UNL     1     -11.791  15.495  71.506  1.00  0.00    -0.406 C  
ENDBRANCH  21  22
ENDBRANCH  20  21
ENDBRANCH  18  20
ENDBRANCH  14  15
ENDBRANCH  13  14
ENDBRANCH   4  13
BRANCH   8  25
HETATM   25  N   UNL     1      -9.355  10.044  66.961  1.00  0.00    -0.152 N  
HETATM   26  C   UNL     1      -9.746   8.723  66.918  1.00  0.00    -0.210 C  
HETATM   27  H   UNL     1      -8.390  10.282  66.728  1.00  0.00     0.000 HD 
HETATM   28  O   UNL     1     -10.916   8.374  67.065  1.00  0.00    -0.115 OA 
BRANCH  26  29
HETATM   29  C   UNL     1      -8.623   7.732  66.692  1.00  0.00    -0.138 C  
BRANCH  29  30
HETATM   30  C   UNL     1      -7.918   7.419  67.964  1.00  0.00    -0.119 A  
HETATM   31  N   UNL     1      -7.121   8.618  71.161  1.00  0.00    -0.073 NA 
HETATM   32  C   UNL     1      -7.251   6.248  68.273  1.00  0.00    -0.085 A  
HETATM   33  S   UNL     1      -6.620   6.334  69.860  1.00  0.00    -0.049 SA 
HETATM   34  H2  UNL     1      -6.609   8.206  71.941  1.00  0.00     0.000 HD 
HETATM   35  H1  UNL     1      -7.507   9.557  71.259  1.00  0.00     0.000 HD 
HETATM   36  N   UNL     1      -7.929   8.365  68.983  1.00  0.00    -0.109 NA 
HETATM   37  C   UNL     1      -7.270   7.913  70.025  1.00  0.00    -0.062 A  
ENDBRANCH  29  30
ENDBRANCH  26  29
ENDBRANCH   8  25
TORSDOF 9
ENDMDL
MODEL      110
REMARK 921   NORMALIZED FREE ENERGY PREDICTED BY IDOCK:   -5.04 KCAL/MOL
REMARK 922        TOTAL FREE ENERGY PREDICTED BY IDOCK:   -9.63 KCAL/MOL
REMARK 923 INTER-LIGAND FREE ENERGY PREDICTED BY IDOCK:   -7.82 KCAL/MOL
REMARK 924 INTRA-LIGAND FREE ENERGY PREDICTED BY IDOCK:   -1.80 KCAL/MOL
REMARK 927      BINDING AFFINITY PREDICTED BY RF-SCORE:    0.00 PKD
ROOT
HETATM    1  C   UNL     1     -10.987   6.756  72.011  1.00  0.00    -0.238 C  
HETATM    2  S   UNL     1     -11.331   6.585  70.245  1.00  0.00    -0.415 SA 
HETATM    3  C   UNL     1     -10.408   5.041  70.085  1.00  0.00    -0.236 C  
HETATM    4  C   UNL     1      -9.027   5.046  70.730  1.00  0.00    -0.165 C  
HETATM    5  C   UNL     1      -9.538   8.029  72.815  1.00  0.00    -0.277 C  
HETATM    6  CA  UNL     1      -8.643   5.928  71.701  1.00  0.00    -0.132 C  
HETATM    7  C   UNL     1      -7.225   5.899  72.237  1.00  0.00    -0.089 C  
HETATM    8  CA  UNL     1     -11.072   8.207  72.585  1.00  0.00    -0.380 C  
HETATM    9  N   UNL     1      -9.547   6.836  72.187  1.00  0.00    -0.147 N  
HETATM   10  O   UNL     1      -6.761   7.009  72.835  1.00  0.00    -0.068 OA 
HETATM   11  OXT UNL     1      -6.505   4.914  72.158  1.00  0.00    -0.032 OA 
HETATM   12  O   UNL     1      -8.603   8.688  73.219  1.00  0.00    -0.375 OA 
ENDROOT
BRANCH   4  13
HETATM   13  C   UNL     1      -8.100   4.041  70.035  1.00  0.00    -0.057 C  
BRANCH  13  14
HETATM   14  S   UNL     1      -7.817   4.434  68.271  1.00  0.00    -0.079 SA 
BRANCH  14  15
HETATM   15  C   UNL     1      -7.283   6.071  68.314  1.00  0.00    -0.084 A  
HETATM   16  N   UNL     1      -6.155   6.501  68.833  1.00  0.00    -0.024 NA 
HETATM   17  N   UNL     1      -6.181   7.867  68.731  1.00  0.00    -0.039 NA 
HETATM   18  N   UNL     1      -7.981   7.152  67.841  1.00  0.00    -0.114 NA 
HETATM   19  N   UNL     1      -7.294   8.276  68.141  1.00  0.00    -0.094 NA 
BRANCH  18  20
HETATM   20  C   UNL     1      -9.216   7.274  67.085  1.00  0.00    -0.135 C  
BRANCH  20  21
HETATM   21  C   UNL     1      -9.177   8.524  66.188  1.00  0.00    -0.211 C  
BRANCH  21  22
HETATM   22  N   UNL     1     -10.324   9.458  66.267  1.00  0.00    -0.201 NA 
HETATM   23  C   UNL     1     -10.034  10.636  65.429  1.00  0.00    -0.281 C  
HETATM   24  C   UNL     1     -10.599   9.927  67.631  1.00  0.00    -0.270 C  
ENDBRANCH  21  22
ENDBRANCH  20  21
ENDBRANCH  18  20
ENDBRANCH  14  15
ENDBRANCH  13  14
ENDBRANCH   4  13
BRANCH   8  25
HETATM   25  N   UNL     1     -11.451   9.289  71.627  1.00  0.00    -0.378 N  
HETATM   26  C   UNL     1     -12.718   9.831  71.599  1.00  0.00    -0.422 C  
HETATM   27  H   UNL     1     -10.750   9.638  70.974  1.00  0.00     0.000 HD 
HETATM   28  O   UNL     1     -13.577   9.549  72.433  1.00  0.00    -0.452 OA 
BRANCH  26  29
HETATM   29  C   UNL     1     -12.979  10.786  70.453  1.00  0.00    -0.196 C  
BRANCH  29  30
HETATM   30  C   UNL     1     -12.765  12.198  70.870  1.00  0.00    -0.189 A  
HETATM   31  N   UNL     1     -13.572  14.623  73.270  1.00  0.00    -0.492 NA 
HETATM   32  C   UNL     1     -11.955  13.130  70.249  1.00  0.00    -0.292 A  
HETATM   33  S   UNL     1     -12.005  14.612  71.102  1.00  0.00    -0.339 SA 
HETATM   34  H2  UNL     1     -13.280  15.593  73.391  1.00  0.00     0.000 HD 
HETATM   35  H1  UNL     1     -14.221  14.210  73.940  1.00  0.00     0.000 HD 
HETATM   36  N   UNL     1     -13.409  12.660  72.013  1.00  0.00    -0.504 NA 
HETATM   37  C   UNL     1     -13.095  13.917  72.229  1.00  0.00    -0.417 A  
ENDBRANCH  29  30
ENDBRANCH  26  29
ENDBRANCH   8  25
TORSDOF 9
ENDMDL
MODEL      111
REMARK 921   NORMALIZED FREE ENERGY PREDICTED BY IDOCK:   -4.99 KCAL/MOL
REMARK 922        TOTAL FREE ENERGY PREDICTED BY IDOCK:   -9.55 KCAL/MOL
REMARK 923 INTER-LIGAND FREE ENERGY PREDICTED BY IDOCK:   -7.69 KCAL/MOL
REMARK 924 INTRA-LIGAND FREE ENERGY PREDICTED BY IDOCK:   -1.86 KCAL/MOL
REMARK 927      BINDING AFFINITY PREDICTED BY RF-SCORE:    0.00 PKD
ROOT
HETATM    1  C   UNL     1      -9.962   9.756  69.452  1.00  0.00    -0.205 C  
HETATM    2  S   UNL     1     -11.313  10.314  70.515  1.00  0.00    -0.348 SA 
HETATM    3  C   UNL     1     -11.239   8.860  71.585  1.00  0.00    -0.345 C  
HETATM    4  C   UNL     1     -11.170   7.525  70.855  1.00  0.00    -0.286 C  
HETATM    5  C   UNL     1     -10.223   8.880  67.573  1.00  0.00    -0.248 C  
HETATM    6  CA  UNL     1     -10.772   7.388  69.555  1.00  0.00    -0.224 C  
HETATM    7  C   UNL     1     -10.799   6.025  68.891  1.00  0.00    -0.331 C  
HETATM    8  CA  UNL     1      -9.941  10.353  68.008  1.00  0.00    -0.155 C  
HETATM    9  N   UNL     1     -10.347   8.488  68.857  1.00  0.00    -0.211 N  
HETATM   10  O   UNL     1     -10.832   5.985  67.548  1.00  0.00    -0.283 OA 
HETATM   11  OXT UNL     1     -10.778   4.977  69.522  1.00  0.00    -0.098 OA 
HETATM   12  O   UNL     1     -10.434   8.265  66.548  1.00  0.00    -0.255 OA 
ENDROOT
BRANCH   4  13
HETATM   13  C   UNL     1     -11.750   6.401  71.723  1.00  0.00    -0.324 C  
BRANCH  13  14
HETATM   14  S   UNL     1     -10.847   6.176  73.297  1.00  0.00    -0.208 SA 
BRANCH  14  15
HETATM   15  C   UNL     1      -9.365   5.450  72.800  1.00  0.00    -0.139 A  
HETATM   16  N   UNL     1      -9.227   4.240  72.306  1.00  0.00    -0.116 NA 
HETATM   17  N   UNL     1      -7.882   4.047  72.136  1.00  0.00    -0.078 NA 
HETATM   18  N   UNL     1      -8.125   6.028  72.883  1.00  0.00    -0.113 NA 
HETATM   19  N   UNL     1      -7.199   5.123  72.496  1.00  0.00    -0.089 NA 
BRANCH  18  20
HETATM   20  C   UNL     1      -7.682   7.364  73.242  1.00  0.00    -0.095 C  
BRANCH  20  21
HETATM   21  C   UNL     1      -7.680   8.282  72.006  1.00  0.00    -0.119 C  
BRANCH  21  22
HETATM   22  N   UNL     1      -6.456   9.072  71.743  1.00  0.00    -0.194 NA 
HETATM   23  C   UNL     1      -6.375   9.354  70.297  1.00  0.00    -0.060 C  
HETATM   24  C   UNL     1      -5.223   8.384  72.142  1.00  0.00    -0.037 C  
ENDBRANCH  21  22
ENDBRANCH  20  21
ENDBRANCH  18  20
ENDBRANCH  14  15
ENDBRANCH  13  14
ENDBRANCH   4  13
BRANCH   8  25
HETATM   25  N   UNL     1     -11.016  11.334  67.668  1.00  0.00    -0.240 N  
HETATM   26  C   UNL     1     -10.974  12.099  66.523  1.00  0.00    -0.284 C  
HETATM   27  H   UNL     1     -11.807  11.440  68.305  1.00  0.00     0.000 HD 
HETATM   28  O   UNL     1     -10.120  11.940  65.652  1.00  0.00    -0.229 OA 
BRANCH  26  29
HETATM   29  C   UNL     1     -12.047  13.163  66.426  1.00  0.00    -0.447 C  
BRANCH  29  30
HETATM   30  C   UNL     1     -11.710  14.344  67.266  1.00  0.00    -0.404 A  
HETATM   31  N   UNL     1     -11.681  15.614  70.534  1.00  0.00    -0.333 NA 
HETATM   32  C   UNL     1     -11.155  15.534  66.834  1.00  0.00    -0.221 A  
HETATM   33  S   UNL     1     -10.923  16.589  68.160  1.00  0.00    -0.297 SA 
HETATM   34  H2  UNL     1     -11.368  16.504  70.922  1.00  0.00     0.000 HD 
HETATM   35  H1  UNL     1     -12.069  14.907  71.158  1.00  0.00     0.000 HD 
HETATM   36  N   UNL     1     -11.939  14.276  68.636  1.00  0.00    -0.332 NA 
HETATM   37  C   UNL     1     -11.575  15.399  69.210  1.00  0.00    -0.339 A  
ENDBRANCH  29  30
ENDBRANCH  26  29
ENDBRANCH   8  25
TORSDOF 9
ENDMDL
MODEL      112
REMARK 921   NORMALIZED FREE ENERGY PREDICTED BY IDOCK:   -4.97 KCAL/MOL
REMARK 922        TOTAL FREE ENERGY PREDICTED BY IDOCK:   -9.53 KCAL/MOL
REMARK 923 INTER-LIGAND FREE ENERGY PREDICTED BY IDOCK:   -7.94 KCAL/MOL
REMARK 924 INTRA-LIGAND FREE ENERGY PREDICTED BY IDOCK:   -1.59 KCAL/MOL
REMARK 927      BINDING AFFINITY PREDICTED BY RF-SCORE:    0.00 PKD
ROOT
HETATM    1  C   UNL     1      -9.574  11.507  68.365  1.00  0.00    -0.195 C  
HETATM    2  S   UNL     1     -10.811  10.825  67.239  1.00  0.00    -0.278 SA 
HETATM    3  C   UNL     1     -10.650   9.144  67.879  1.00  0.00    -0.214 C  
HETATM    4  C   UNL     1      -9.218   8.648  68.038  1.00  0.00    -0.147 C  
HETATM    5  C   UNL     1      -7.600  11.942  67.830  1.00  0.00    -0.128 C  
HETATM    6  CA  UNL     1      -8.132   9.474  68.118  1.00  0.00    -0.102 C  
HETATM    7  C   UNL     1      -6.736   8.888  68.209  1.00  0.00    -0.065 C  
HETATM    8  CA  UNL     1      -8.883  12.830  67.900  1.00  0.00    -0.186 C  
HETATM    9  N   UNL     1      -8.311  10.833  68.116  1.00  0.00    -0.116 N  
HETATM   10  O   UNL     1      -5.705   9.672  67.850  1.00  0.00    -0.040 OA 
HETATM   11  OXT UNL     1      -6.517   7.751  68.604  1.00  0.00    -0.045 OA 
HETATM   12  O   UNL     1      -6.438  12.059  67.502  1.00  0.00    -0.094 OA 
ENDROOT
BRANCH   4  13
HETATM   13  C   UNL     1      -9.158   7.119  67.940  1.00  0.00    -0.128 C  
BRANCH  13  14
HETATM   14  S   UNL     1     -10.807   6.333  68.035  1.00  0.00    -0.321 SA 
BRANCH  14  15
HETATM   15  C   UNL     1     -11.054   6.145  69.730  1.00  0.00    -0.416 A  
HETATM   16  N   UNL     1     -11.935   6.794  70.458  1.00  0.00    -0.376 NA 
HETATM   17  N   UNL     1     -11.725   6.403  71.754  1.00  0.00    -0.317 NA 
HETATM   18  N   UNL     1     -10.340   5.313  70.554  1.00  0.00    -0.268 NA 
HETATM   19  N   UNL     1     -10.748   5.511  71.827  1.00  0.00    -0.235 NA 
BRANCH  18  20
HETATM   20  C   UNL     1      -9.333   4.298  70.298  1.00  0.00    -0.155 C  
BRANCH  20  21
HETATM   21  C   UNL     1      -7.928   4.841  70.614  1.00  0.00    -0.073 C  
BRANCH  21  22
HETATM   22  N   UNL     1      -7.258   4.336  71.834  1.00  0.00    -0.057 NA 
HETATM   23  C   UNL     1      -8.123   3.323  72.465  1.00  0.00    -0.068 C  
HETATM   24  C   UNL     1      -6.986   5.384  72.825  1.00  0.00    -0.083 C  
ENDBRANCH  21  22
ENDBRANCH  20  21
ENDBRANCH  18  20
ENDBRANCH  14  15
ENDBRANCH  13  14
ENDBRANCH   4  13
BRANCH   8  25
HETATM   25  N   UNL     1      -9.334  13.402  66.595  1.00  0.00    -0.300 N  
HETATM   26  C   UNL     1      -9.545  14.752  66.421  1.00  0.00    -0.301 C  
HETATM   27  H   UNL     1      -9.490  12.772  65.807  1.00  0.00     0.000 HD 
HETATM   28  O   UNL     1      -9.261  15.583  67.283  1.00  0.00    -0.201 OA 
BRANCH  26  29
HETATM   29  C   UNL     1     -10.168  15.136  65.095  1.00  0.00    -0.386 C  
BRANCH  29  30
HETATM   30  C   UNL     1     -10.842  13.971  64.460  1.00  0.00    -0.347 A  
HETATM   31  N   UNL     1     -10.332  10.991  62.685  1.00  0.00    -0.733 NA 
HETATM   32  C   UNL     1     -12.199  13.712  64.441  1.00  0.00    -0.390 A  
HETATM   33  S   UNL     1     -12.505  12.244  63.618  1.00  0.00    -0.491 SA 
HETATM   34  H2  UNL     1     -10.976  10.279  62.341  1.00  0.00     0.000 HD 
HETATM   35  H1  UNL     1      -9.332  10.880  62.522  1.00  0.00     0.000 HD 
HETATM   36  N   UNL     1     -10.059  13.007  63.834  1.00  0.00    -0.279 NA 
HETATM   37  C   UNL     1     -10.822  12.057  63.345  1.00  0.00    -0.405 A  
ENDBRANCH  29  30
ENDBRANCH  26  29
ENDBRANCH   8  25
TORSDOF 9
ENDMDL
MODEL      113
REMARK 921   NORMALIZED FREE ENERGY PREDICTED BY IDOCK:   -4.97 KCAL/MOL
REMARK 922        TOTAL FREE ENERGY PREDICTED BY IDOCK:   -9.53 KCAL/MOL
REMARK 923 INTER-LIGAND FREE ENERGY PREDICTED BY IDOCK:   -7.90 KCAL/MOL
REMARK 924 INTRA-LIGAND FREE ENERGY PREDICTED BY IDOCK:   -1.63 KCAL/MOL
REMARK 927      BINDING AFFINITY PREDICTED BY RF-SCORE:    0.00 PKD
ROOT
HETATM    1  C   UNL     1      -8.401  12.475  67.319  1.00  0.00    -0.185 C  
HETATM    2  S   UNL     1      -8.157  11.249  68.623  1.00  0.00    -0.129 SA 
HETATM    3  C   UNL     1      -7.311  10.078  67.539  1.00  0.00    -0.090 C  
HETATM    4  C   UNL     1      -7.991   9.832  66.198  1.00  0.00    -0.110 C  
HETATM    5  C   UNL     1     -10.199  12.769  66.295  1.00  0.00    -0.253 C  
HETATM    6  CA  UNL     1      -8.901  10.685  65.639  1.00  0.00    -0.186 C  
HETATM    7  C   UNL     1      -9.578  10.324  64.331  1.00  0.00    -0.316 C  
HETATM    8  CA  UNL     1      -9.578  13.479  67.539  1.00  0.00    -0.221 C  
HETATM    9  N   UNL     1      -9.198  11.867  66.267  1.00  0.00    -0.222 N  
HETATM   10  O   UNL     1     -10.741  10.931  64.041  1.00  0.00    -0.353 OA 
HETATM   11  OXT UNL     1      -9.103   9.524  63.536  1.00  0.00    -0.230 OA 
HETATM   12  O   UNL     1     -11.225  12.813  65.648  1.00  0.00    -0.287 OA 
ENDROOT
BRANCH   4  13
HETATM   13  C   UNL     1      -7.633   8.444  65.654  1.00  0.00    -0.089 C  
BRANCH  13  14
HETATM   14  S   UNL     1      -7.489   7.178  66.967  1.00  0.00    -0.099 SA 
BRANCH  14  15
HETATM   15  C   UNL     1      -9.130   6.851  67.378  1.00  0.00    -0.122 A  
HETATM   16  N   UNL     1     -10.177   7.082  66.618  1.00  0.00    -0.187 NA 
HETATM   17  N   UNL     1     -11.275   6.759  67.369  1.00  0.00    -0.282 NA 
HETATM   18  N   UNL     1      -9.567   6.336  68.571  1.00  0.00    -0.126 NA 
HETATM   19  N   UNL     1     -10.917   6.317  68.566  1.00  0.00    -0.330 NA 
BRANCH  18  20
HETATM   20  C   UNL     1      -8.870   5.802  69.729  1.00  0.00    -0.126 C  
BRANCH  20  21
HETATM   21  C   UNL     1      -8.565   4.306  69.532  1.00  0.00    -0.076 C  
BRANCH  21  22
HETATM   22  N   UNL     1      -8.338   3.831  68.148  1.00  0.00    -0.090 NA 
HETATM   23  C   UNL     1      -9.339   2.795  67.832  1.00  0.00    -0.200 C  
HETATM   24  C   UNL     1      -7.004   3.253  67.943  1.00  0.00    -0.050 C  
ENDBRANCH  21  22
ENDBRANCH  20  21
ENDBRANCH  18  20
ENDBRANCH  14  15
ENDBRANCH  13  14
ENDBRANCH   4  13
BRANCH   8  25
HETATM   25  N   UNL     1     -10.356  13.339  68.807  1.00  0.00    -0.388 N  
HETATM   26  C   UNL     1     -11.588  13.931  68.979  1.00  0.00    -0.310 C  
HETATM   27  H   UNL     1      -9.961  12.787  69.569  1.00  0.00     0.000 HD 
HETATM   28  O   UNL     1     -12.179  14.506  68.067  1.00  0.00    -0.247 OA 
BRANCH  26  29
HETATM   29  C   UNL     1     -12.152  13.834  70.382  1.00  0.00    -0.421 C  
BRANCH  29  30
HETATM   30  C   UNL     1     -12.362  12.417  70.781  1.00  0.00    -0.286 A  
HETATM   31  N   UNL     1     -11.540   9.088  70.048  1.00  0.00    -0.453 NA 
HETATM   32  C   UNL     1     -13.122  11.961  71.841  1.00  0.00    -0.369 A  
HETATM   33  S   UNL     1     -13.048  10.254  71.926  1.00  0.00    -0.421 SA 
HETATM   34  H2  UNL     1     -11.794   8.205  70.490  1.00  0.00     0.000 HD 
HETATM   35  H1  UNL     1     -10.929   9.079  69.232  1.00  0.00     0.000 HD 
HETATM   36  N   UNL     1     -11.726  11.418  70.052  1.00  0.00    -0.322 NA 
HETATM   37  C   UNL     1     -12.019  10.239  70.553  1.00  0.00    -0.323 A  
ENDBRANCH  29  30
ENDBRANCH  26  29
ENDBRANCH   8  25
TORSDOF 9
ENDMDL
MODEL      114
REMARK 921   NORMALIZED FREE ENERGY PREDICTED BY IDOCK:   -4.96 KCAL/MOL
REMARK 922        TOTAL FREE ENERGY PREDICTED BY IDOCK:   -9.51 KCAL/MOL
REMARK 923 INTER-LIGAND FREE ENERGY PREDICTED BY IDOCK:   -8.31 KCAL/MOL
REMARK 924 INTRA-LIGAND FREE ENERGY PREDICTED BY IDOCK:   -1.20 KCAL/MOL
REMARK 927      BINDING AFFINITY PREDICTED BY RF-SCORE:    0.00 PKD
ROOT
HETATM    1  C   UNL     1     -11.981  11.386  68.864  1.00  0.00    -0.304 C  
HETATM    2  S   UNL     1     -10.227  11.222  68.459  1.00  0.00    -0.211 SA 
HETATM    3  C   UNL     1     -10.258   9.416  68.498  1.00  0.00    -0.199 C  
HETATM    4  C   UNL     1     -10.956   8.808  69.708  1.00  0.00    -0.146 C  
HETATM    5  C   UNL     1     -12.716  11.858  70.763  1.00  0.00    -0.153 C  
HETATM    6  CA  UNL     1     -11.851   9.484  70.489  1.00  0.00    -0.183 C  
HETATM    7  C   UNL     1     -12.446   8.818  71.715  1.00  0.00    -0.350 C  
HETATM    8  CA  UNL     1     -12.406  12.743  69.514  1.00  0.00     0.040 C  
HETATM    9  N   UNL     1     -12.208  10.766  70.158  1.00  0.00    -0.327 N  
HETATM   10  O   UNL     1     -12.952   9.612  72.674  1.00  0.00    -0.249 OA 
HETATM   11  OXT UNL     1     -12.494   7.604  71.853  1.00  0.00    -0.304 OA 
HETATM   12  O   UNL     1     -13.092  12.010  71.906  1.00  0.00    -0.453 OA 
ENDROOT
BRANCH   4  13
HETATM   13  C   UNL     1     -10.402   7.411  70.009  1.00  0.00    -0.219 C  
BRANCH  13  14
HETATM   14  S   UNL     1      -9.115   7.418  71.310  1.00  0.00    -0.142 SA 
BRANCH  14  15
HETATM   15  C   UNL     1      -9.386   5.932  72.139  1.00  0.00    -0.145 A  
HETATM   16  N   UNL     1      -9.957   5.798  73.314  1.00  0.00    -0.173 NA 
HETATM   17  N   UNL     1      -9.884   4.467  73.627  1.00  0.00    -0.126 NA 
HETATM   18  N   UNL     1      -9.011   4.690  71.695  1.00  0.00    -0.130 NA 
HETATM   19  N   UNL     1      -9.297   3.784  72.655  1.00  0.00    -0.111 NA 
BRANCH  18  20
HETATM   20  C   UNL     1      -8.448   4.219  70.441  1.00  0.00    -0.073 C  
BRANCH  20  21
HETATM   21  C   UNL     1      -9.548   4.081  69.374  1.00  0.00    -0.187 C  
BRANCH  21  22
HETATM   22  N   UNL     1      -9.373   3.033  68.343  1.00  0.00    -0.191 NA 
HETATM   23  C   UNL     1      -8.164   2.251  68.662  1.00  0.00    -0.056 C  
HETATM   24  C   UNL     1      -9.222   3.571  66.986  1.00  0.00    -0.190 C  
ENDBRANCH  21  22
ENDBRANCH  20  21
ENDBRANCH  18  20
ENDBRANCH  14  15
ENDBRANCH  13  14
ENDBRANCH   4  13
BRANCH   8  25
HETATM   25  N   UNL     1     -11.332  13.763  69.707  1.00  0.00    -0.445 N  
HETATM   26  C   UNL     1     -11.616  15.080  69.999  1.00  0.00    -0.287 C  
HETATM   27  H   UNL     1     -10.356  13.476  69.620  1.00  0.00     0.000 HD 
HETATM   28  O   UNL     1     -12.757  15.472  70.239  1.00  0.00    -0.391 OA 
BRANCH  26  29
HETATM   29  C   UNL     1     -10.421  16.010  69.985  1.00  0.00    -0.259 C  
BRANCH  29  30
HETATM   30  C   UNL     1     -10.313  16.727  68.686  1.00  0.00    -0.318 A  
HETATM   31  N   UNL     1     -10.425  16.361  65.200  1.00  0.00    -0.657 NA 
HETATM   32  C   UNL     1     -10.112  18.082  68.504  1.00  0.00    -0.393 A  
HETATM   33  S   UNL     1     -10.082  18.452  66.835  1.00  0.00    -0.389 SA 
HETATM   34  H2  UNL     1     -10.341  17.033  64.437  1.00  0.00     0.000 HD 
HETATM   35  H1  UNL     1     -10.574  15.376  64.984  1.00  0.00     0.000 HD 
HETATM   36  N   UNL     1     -10.448  15.999  67.509  1.00  0.00    -0.291 NA 
HETATM   37  C   UNL     1     -10.334  16.795  66.471  1.00  0.00    -0.301 A  
ENDBRANCH  29  30
ENDBRANCH  26  29
ENDBRANCH   8  25
TORSDOF 9
ENDMDL
MODEL      115
REMARK 921   NORMALIZED FREE ENERGY PREDICTED BY IDOCK:   -4.96 KCAL/MOL
REMARK 922        TOTAL FREE ENERGY PREDICTED BY IDOCK:   -9.51 KCAL/MOL
REMARK 923 INTER-LIGAND FREE ENERGY PREDICTED BY IDOCK:   -8.06 KCAL/MOL
REMARK 924 INTRA-LIGAND FREE ENERGY PREDICTED BY IDOCK:   -1.45 KCAL/MOL
REMARK 927      BINDING AFFINITY PREDICTED BY RF-SCORE:    0.00 PKD
ROOT
HETATM    1  C   UNL     1     -11.647  11.256  68.782  1.00  0.00    -0.316 C  
HETATM    2  S   UNL     1      -9.869  11.104  68.503  1.00  0.00    -0.202 SA 
HETATM    3  C   UNL     1      -9.869   9.305  68.667  1.00  0.00    -0.162 C  
HETATM    4  C   UNL     1     -10.633   8.767  69.870  1.00  0.00    -0.230 C  
HETATM    5  C   UNL     1     -12.513  11.842  70.592  1.00  0.00    -0.257 C  
HETATM    6  CA  UNL     1     -11.589   9.475  70.543  1.00  0.00    -0.254 C  
HETATM    7  C   UNL     1     -12.251   8.883  71.772  1.00  0.00    -0.359 C  
HETATM    8  CA  UNL     1     -12.138  12.645  69.306  1.00  0.00    -0.166 C  
HETATM    9  N   UNL     1     -11.947  10.722  70.099  1.00  0.00    -0.319 N  
HETATM   10  O   UNL     1     -12.832   9.730  72.638  1.00  0.00    -0.163 OA 
HETATM   11  OXT UNL     1     -12.286   7.680  71.993  1.00  0.00    -0.294 OA 
HETATM   12  O   UNL     1     -12.965  12.064  71.696  1.00  0.00    -0.408 OA 
ENDROOT
BRANCH   4  13
HETATM   13  C   UNL     1     -10.075   7.407  70.305  1.00  0.00    -0.197 C  
BRANCH  13  14
HETATM   14  S   UNL     1     -10.750   6.014  69.330  1.00  0.00    -0.356 SA 
BRANCH  14  15
HETATM   15  C   UNL     1      -9.486   5.670  68.210  1.00  0.00    -0.114 A  
HETATM   16  N   UNL     1      -9.464   6.014  66.942  1.00  0.00    -0.129 NA 
HETATM   17  N   UNL     1      -8.327   5.463  66.415  1.00  0.00    -0.109 NA 
HETATM   18  N   UNL     1      -8.346   4.960  68.486  1.00  0.00    -0.084 NA 
HETATM   19  N   UNL     1      -7.644   4.807  67.342  1.00  0.00    -0.085 NA 
BRANCH  18  20
HETATM   20  C   UNL     1      -7.788   4.431  69.719  1.00  0.00    -0.057 C  
BRANCH  20  21
HETATM   21  C   UNL     1      -6.779   5.423  70.323  1.00  0.00    -0.047 C  
BRANCH  21  22
HETATM   22  N   UNL     1      -6.371   5.211  71.731  1.00  0.00    -0.030 NA 
HETATM   23  C   UNL     1      -7.471   5.645  72.613  1.00  0.00    -0.097 C  
HETATM   24  C   UNL     1      -5.165   5.959  72.106  1.00  0.00    -0.021 C  
ENDBRANCH  21  22
ENDBRANCH  20  21
ENDBRANCH  18  20
ENDBRANCH  14  15
ENDBRANCH  13  14
ENDBRANCH   4  13
BRANCH   8  25
HETATM   25  N   UNL     1     -11.098  13.700  69.494  1.00  0.00    -0.436 N  
HETATM   26  C   UNL     1     -11.411  14.965  69.944  1.00  0.00    -0.277 C  
HETATM   27  H   UNL     1     -10.125  13.477  69.283  1.00  0.00     0.000 HD 
HETATM   28  O   UNL     1     -12.537  15.268  70.334  1.00  0.00    -0.370 OA 
BRANCH  26  29
HETATM   29  C   UNL     1     -10.267  15.957  69.906  1.00  0.00    -0.233 C  
BRANCH  29  30
HETATM   30  C   UNL     1     -10.223  16.677  68.606  1.00  0.00    -0.284 A  
HETATM   31  N   UNL     1     -10.655  16.353  65.141  1.00  0.00    -0.663 NA 
HETATM   32  C   UNL     1      -9.950  18.018  68.413  1.00  0.00    -0.378 A  
HETATM   33  S   UNL     1     -10.037  18.401  66.748  1.00  0.00    -0.395 SA 
HETATM   34  H2  UNL     1     -10.593  17.024  64.376  1.00  0.00     0.000 HD 
HETATM   35  H1  UNL     1     -10.886  15.381  64.935  1.00  0.00     0.000 HD 
HETATM   36  N   UNL     1     -10.505  15.971  67.442  1.00  0.00    -0.303 NA 
HETATM   37  C   UNL     1     -10.428  16.768  66.401  1.00  0.00    -0.269 A  
ENDBRANCH  29  30
ENDBRANCH  26  29
ENDBRANCH   8  25
TORSDOF 9
ENDMDL
MODEL      116
REMARK 921   NORMALIZED FREE ENERGY PREDICTED BY IDOCK:   -4.96 KCAL/MOL
REMARK 922        TOTAL FREE ENERGY PREDICTED BY IDOCK:   -9.51 KCAL/MOL
REMARK 923 INTER-LIGAND FREE ENERGY PREDICTED BY IDOCK:   -7.77 KCAL/MOL
REMARK 924 INTRA-LIGAND FREE ENERGY PREDICTED BY IDOCK:   -1.73 KCAL/MOL
REMARK 927      BINDING AFFINITY PREDICTED BY RF-SCORE:    0.00 PKD
ROOT
HETATM    1  C   UNL     1      -9.367   9.947  68.077  1.00  0.00    -0.130 C  
HETATM    2  S   UNL     1     -10.119   9.344  66.548  1.00  0.00    -0.245 SA 
HETATM    3  C   UNL     1     -10.395  11.000  65.882  1.00  0.00    -0.257 C  
HETATM    4  C   UNL     1     -11.021  11.991  66.855  1.00  0.00    -0.328 C  
HETATM    5  C   UNL     1     -10.356  10.065  69.914  1.00  0.00    -0.272 C  
HETATM    6  CA  UNL     1     -11.004  11.838  68.213  1.00  0.00    -0.229 C  
HETATM    7  C   UNL     1     -11.712  12.843  69.101  1.00  0.00    -0.324 C  
HETATM    8  CA  UNL     1      -9.427   8.972  69.297  1.00  0.00    -0.157 C  
HETATM    9  N   UNL     1     -10.342  10.773  68.767  1.00  0.00    -0.182 N  
HETATM   10  O   UNL     1     -12.050  12.452  70.341  1.00  0.00    -0.359 OA 
HETATM   11  OXT UNL     1     -11.970  13.983  68.739  1.00  0.00    -0.338 OA 
HETATM   12  O   UNL     1     -11.011  10.229  70.922  1.00  0.00    -0.281 OA 
ENDROOT
BRANCH   4  13
HETATM   13  C   UNL     1     -11.794  13.079  66.100  1.00  0.00    -0.409 C  
BRANCH  13  14
HETATM   14  S   UNL     1     -10.724  14.095  65.019  1.00  0.00    -0.438 SA 
BRANCH  14  15
HETATM   15  C   UNL     1     -10.203  15.363  66.062  1.00  0.00    -0.324 A  
HETATM   16  N   UNL     1     -10.748  16.555  66.159  1.00  0.00    -0.217 NA 
HETATM   17  N   UNL     1      -9.966  17.264  67.033  1.00  0.00    -0.279 NA 
HETATM   18  N   UNL     1      -9.126  15.309  66.909  1.00  0.00    -0.223 NA 
HETATM   19  N   UNL     1      -8.968  16.520  67.485  1.00  0.00    -0.195 NA 
BRANCH  18  20
HETATM   20  C   UNL     1      -8.229  14.234  67.296  1.00  0.00    -0.192 C  
BRANCH  20  21
HETATM   21  C   UNL     1      -7.208  14.731  68.335  1.00  0.00    -0.114 C  
BRANCH  21  22
HETATM   22  N   UNL     1      -6.315  13.724  68.953  1.00  0.00    -0.090 NA 
HETATM   23  C   UNL     1      -6.919  12.389  68.786  1.00  0.00    -0.094 C  
HETATM   24  C   UNL     1      -6.092  13.947  70.387  1.00  0.00    -0.143 C  
ENDBRANCH  21  22
ENDBRANCH  20  21
ENDBRANCH  18  20
ENDBRANCH  14  15
ENDBRANCH  13  14
ENDBRANCH   4  13
BRANCH   8  25
HETATM   25  N   UNL     1     -10.072   7.644  69.067  1.00  0.00    -0.192 N  
HETATM   26  C   UNL     1      -9.927   6.596  69.951  1.00  0.00    -0.171 C  
HETATM   27  H   UNL     1     -10.637   7.508  68.228  1.00  0.00     0.000 HD 
HETATM   28  O   UNL     1      -9.365   6.722  71.038  1.00  0.00    -0.160 OA 
BRANCH  26  29
HETATM   29  C   UNL     1     -10.497   5.276  69.475  1.00  0.00    -0.304 C  
BRANCH  29  30
HETATM   30  C   UNL     1      -9.944   4.899  68.147  1.00  0.00    -0.108 A  
HETATM   31  N   UNL     1     -10.657   4.632  64.724  1.00  0.00    -0.470 NA 
HETATM   32  C   UNL     1      -8.657   4.471  67.879  1.00  0.00    -0.102 A  
HETATM   33  S   UNL     1      -8.474   4.178  66.204  1.00  0.00    -0.109 SA 
HETATM   34  H2  UNL     1     -10.089   4.352  63.925  1.00  0.00     0.000 HD 
HETATM   35  H1  UNL     1     -11.628   4.903  64.576  1.00  0.00     0.000 HD 
HETATM   36  N   UNL     1     -10.766   4.997  67.030  1.00  0.00    -0.074 NA 
HETATM   37  C   UNL     1     -10.108   4.634  65.953  1.00  0.00    -0.258 A  
ENDBRANCH  29  30
ENDBRANCH  26  29
ENDBRANCH   8  25
TORSDOF 9
ENDMDL
MODEL      117
REMARK 921   NORMALIZED FREE ENERGY PREDICTED BY IDOCK:   -4.95 KCAL/MOL
REMARK 922        TOTAL FREE ENERGY PREDICTED BY IDOCK:   -9.50 KCAL/MOL
REMARK 923 INTER-LIGAND FREE ENERGY PREDICTED BY IDOCK:   -8.09 KCAL/MOL
REMARK 924 INTRA-LIGAND FREE ENERGY PREDICTED BY IDOCK:   -1.41 KCAL/MOL
REMARK 927      BINDING AFFINITY PREDICTED BY RF-SCORE:    0.00 PKD
ROOT
HETATM    1  C   UNL     1      -9.946   9.297  67.712  1.00  0.00    -0.190 C  
HETATM    2  S   UNL     1     -11.396  10.203  68.298  1.00  0.00     0.001 SA 
HETATM    3  C   UNL     1     -10.995  11.698  67.367  1.00  0.00    -0.261 C  
HETATM    4  C   UNL     1      -9.547  12.160  67.481  1.00  0.00    -0.179 C  
HETATM    5  C   UNL     1      -8.199   9.016  68.825  1.00  0.00    -0.117 C  
HETATM    6  CA  UNL     1      -8.519  11.350  67.871  1.00  0.00    -0.139 C  
HETATM    7  C   UNL     1      -7.119  11.915  68.020  1.00  0.00    -0.084 C  
HETATM    8  CA  UNL     1      -9.463   8.122  68.621  1.00  0.00    -0.147 C  
HETATM    9  N   UNL     1      -8.759  10.024  68.126  1.00  0.00    -0.121 N  
HETATM   10  O   UNL     1      -6.254  11.244  68.799  1.00  0.00    -0.044 OA 
HETATM   11  OXT UNL     1      -6.752  12.936  67.454  1.00  0.00    -0.158 OA 
HETATM   12  O   UNL     1      -7.167   8.990  69.462  1.00  0.00    -0.057 OA 
ENDROOT
BRANCH   4  13
HETATM   13  C   UNL     1      -9.440  13.673  67.251  1.00  0.00    -0.230 C  
BRANCH  13  14
HETATM   14  S   UNL     1     -11.068  14.508  67.229  1.00  0.00    -0.323 SA 
BRANCH  14  15
HETATM   15  C   UNL     1     -11.256  15.043  68.856  1.00  0.00    -0.277 A  
HETATM   16  N   UNL     1     -11.653  14.307  69.869  1.00  0.00    -0.274 NA 
HETATM   17  N   UNL     1     -11.746  15.151  70.944  1.00  0.00    -0.305 NA 
HETATM   18  N   UNL     1     -11.046  16.321  69.305  1.00  0.00    -0.323 NA 
HETATM   19  N   UNL     1     -11.392  16.384  70.610  1.00  0.00    -0.304 NA 
BRANCH  18  20
HETATM   20  C   UNL     1     -10.508  17.514  68.673  1.00  0.00    -0.338 C  
BRANCH  20  21
HETATM   21  C   UNL     1      -8.973  17.438  68.598  1.00  0.00    -0.255 C  
BRANCH  21  22
HETATM   22  N   UNL     1      -8.215  18.690  68.822  1.00  0.00    -0.303 NA 
HETATM   23  C   UNL     1      -9.063  19.834  68.439  1.00  0.00    -0.274 C  
HETATM   24  C   UNL     1      -6.972  18.765  68.045  1.00  0.00    -0.239 C  
ENDBRANCH  21  22
ENDBRANCH  20  21
ENDBRANCH  18  20
ENDBRANCH  14  15
ENDBRANCH  13  14
ENDBRANCH   4  13
BRANCH   8  25
HETATM   25  N   UNL     1     -10.260   7.855  69.857  1.00  0.00    -0.205 N  
HETATM   26  C   UNL     1     -11.173   6.825  69.931  1.00  0.00    -0.326 C  
HETATM   27  H   UNL     1     -10.123   8.454  70.671  1.00  0.00     0.000 HD 
HETATM   28  O   UNL     1     -11.303   5.990  69.036  1.00  0.00    -0.340 OA 
BRANCH  26  29
HETATM   29  C   UNL     1     -12.016   6.809  71.189  1.00  0.00    -0.421 C  
BRANCH  29  30
HETATM   30  C   UNL     1     -11.186   6.525  72.389  1.00  0.00    -0.275 A  
HETATM   31  N   UNL     1      -8.765   7.828  74.565  1.00  0.00    -0.445 NA 
HETATM   32  C   UNL     1     -11.199   5.370  73.149  1.00  0.00    -0.297 A  
HETATM   33  S   UNL     1     -10.094   5.509  74.447  1.00  0.00    -0.280 SA 
HETATM   34  H2  UNL     1      -8.314   7.448  75.398  1.00  0.00     0.000 HD 
HETATM   35  H1  UNL     1      -8.516   8.764  74.247  1.00  0.00     0.000 HD 
HETATM   36  N   UNL     1     -10.311   7.506  72.843  1.00  0.00    -0.264 NA 
HETATM   37  C   UNL     1      -9.675   7.084  73.911  1.00  0.00    -0.294 A  
ENDBRANCH  29  30
ENDBRANCH  26  29
ENDBRANCH   8  25
TORSDOF 9
ENDMDL
MODEL      118
REMARK 921   NORMALIZED FREE ENERGY PREDICTED BY IDOCK:   -4.95 KCAL/MOL
REMARK 922        TOTAL FREE ENERGY PREDICTED BY IDOCK:   -9.50 KCAL/MOL
REMARK 923 INTER-LIGAND FREE ENERGY PREDICTED BY IDOCK:   -7.96 KCAL/MOL
REMARK 924 INTRA-LIGAND FREE ENERGY PREDICTED BY IDOCK:   -1.54 KCAL/MOL
REMARK 927      BINDING AFFINITY PREDICTED BY RF-SCORE:    0.00 PKD
ROOT
HETATM    1  C   UNL     1     -10.025   9.825  67.286  1.00  0.00    -0.191 C  
HETATM    2  S   UNL     1      -8.348  10.498  67.264  1.00  0.00    -0.122 SA 
HETATM    3  C   UNL     1      -7.755   9.403  68.572  1.00  0.00    -0.085 C  
HETATM    4  C   UNL     1      -8.661   9.305  69.792  1.00  0.00    -0.168 C  
HETATM    5  C   UNL     1     -11.655  10.744  68.218  1.00  0.00    -0.221 C  
HETATM    6  CA  UNL     1      -9.986   9.640  69.784  1.00  0.00    -0.227 C  
HETATM    7  C   UNL     1     -10.795   9.574  71.066  1.00  0.00    -0.353 C  
HETATM    8  CA  UNL     1     -11.145  10.768  66.742  1.00  0.00    -0.082 C  
HETATM    9  N   UNL     1     -10.579  10.033  68.613  1.00  0.00    -0.203 N  
HETATM   10  O   UNL     1     -11.924  10.300  71.130  1.00  0.00    -0.342 OA 
HETATM   11  OXT UNL     1     -10.469   8.884  72.022  1.00  0.00    -0.338 OA 
HETATM   12  O   UNL     1     -12.535  11.255  68.878  1.00  0.00    -0.433 OA 
ENDROOT
BRANCH   4  13
HETATM   13  C   UNL     1      -7.852   8.937  71.042  1.00  0.00    -0.137 C  
BRANCH  13  14
HETATM   14  S   UNL     1      -7.176   7.238  70.978  1.00  0.00    -0.074 SA 
BRANCH  14  15
HETATM   15  C   UNL     1      -8.545   6.287  70.542  1.00  0.00    -0.139 A  
HETATM   16  N   UNL     1      -8.889   5.945  69.320  1.00  0.00    -0.118 NA 
HETATM   17  N   UNL     1     -10.078   5.275  69.430  1.00  0.00    -0.221 NA 
HETATM   18  N   UNL     1      -9.480   5.787  71.411  1.00  0.00    -0.150 NA 
HETATM   19  N   UNL     1     -10.456   5.184  70.697  1.00  0.00    -0.234 NA 
BRANCH  18  20
HETATM   20  C   UNL     1      -9.561   5.756  72.861  1.00  0.00    -0.155 C  
BRANCH  20  21
HETATM   21  C   UNL     1      -9.034   4.415  73.402  1.00  0.00    -0.111 C  
BRANCH  21  22
HETATM   22  N   UNL     1      -9.790   3.191  73.049  1.00  0.00    -0.116 NA 
HETATM   23  C   UNL     1     -11.152   3.298  73.602  1.00  0.00    -0.222 C  
HETATM   24  C   UNL     1      -9.182   1.961  73.573  1.00  0.00    -0.072 C  
ENDBRANCH  21  22
ENDBRANCH  20  21
ENDBRANCH  18  20
ENDBRANCH  14  15
ENDBRANCH  13  14
ENDBRANCH   4  13
BRANCH   8  25
HETATM   25  N   UNL     1     -10.714  12.107  66.238  1.00  0.00    -0.252 N  
HETATM   26  C   UNL     1     -11.558  12.927  65.521  1.00  0.00    -0.358 C  
HETATM   27  H   UNL     1      -9.763  12.424  66.432  1.00  0.00     0.000 HD 
HETATM   28  O   UNL     1     -12.749  12.667  65.355  1.00  0.00    -0.635 OA 
BRANCH  26  29
HETATM   29  C   UNL     1     -10.905  14.163  64.939  1.00  0.00    -0.423 C  
BRANCH  29  30
HETATM   30  C   UNL     1     -10.533  15.129  66.007  1.00  0.00    -0.319 A  
HETATM   31  N   UNL     1     -10.925  15.932  69.398  1.00  0.00    -0.283 NA 
HETATM   32  C   UNL     1      -9.697  16.222  65.879  1.00  0.00    -0.321 A  
HETATM   33  S   UNL     1      -9.546  17.025  67.381  1.00  0.00    -0.251 SA 
HETATM   34  H2  UNL     1     -10.538  16.679  69.975  1.00  0.00     0.000 HD 
HETATM   35  H1  UNL     1     -11.550  15.248  69.821  1.00  0.00     0.000 HD 
HETATM   36  N   UNL     1     -11.038  14.934  67.288  1.00  0.00    -0.327 NA 
HETATM   37  C   UNL     1     -10.598  15.872  68.094  1.00  0.00    -0.280 A  
ENDBRANCH  29  30
ENDBRANCH  26  29
ENDBRANCH   8  25
TORSDOF 9
ENDMDL
MODEL      119
REMARK 921   NORMALIZED FREE ENERGY PREDICTED BY IDOCK:   -4.95 KCAL/MOL
REMARK 922        TOTAL FREE ENERGY PREDICTED BY IDOCK:   -9.49 KCAL/MOL
REMARK 923 INTER-LIGAND FREE ENERGY PREDICTED BY IDOCK:   -7.73 KCAL/MOL
REMARK 924 INTRA-LIGAND FREE ENERGY PREDICTED BY IDOCK:   -1.76 KCAL/MOL
REMARK 927      BINDING AFFINITY PREDICTED BY RF-SCORE:    0.00 PKD
ROOT
HETATM    1  C   UNL     1      -7.228   9.230  68.306  1.00  0.00    -0.077 C  
HETATM    2  S   UNL     1      -8.040   9.678  69.857  1.00  0.00    -0.186 SA 
HETATM    3  C   UNL     1      -7.202   8.395  70.813  1.00  0.00    -0.055 C  
HETATM    4  C   UNL     1      -7.199   7.012  70.174  1.00  0.00    -0.075 C  
HETATM    5  C   UNL     1      -8.120   8.105  66.788  1.00  0.00    -0.103 C  
HETATM    6  CA  UNL     1      -7.407   6.789  68.842  1.00  0.00    -0.094 C  
HETATM    7  C   UNL     1      -7.453   5.372  68.305  1.00  0.00    -0.073 C  
HETATM    8  CA  UNL     1      -7.978   9.646  67.000  1.00  0.00    -0.109 C  
HETATM    9  N   UNL     1      -7.574   7.854  67.994  1.00  0.00    -0.110 N  
HETATM   10  O   UNL     1      -8.076   5.168  67.132  1.00  0.00    -0.103 OA 
HETATM   11  OXT UNL     1      -6.940   4.425  68.886  1.00  0.00    -0.049 OA 
HETATM   12  O   UNL     1      -8.639   7.347  65.996  1.00  0.00    -0.141 OA 
ENDROOT
BRANCH   4  13
HETATM   13  C   UNL     1      -7.088   5.919  71.244  1.00  0.00    -0.073 C  
BRANCH  13  14
HETATM   14  S   UNL     1      -8.523   5.882  72.378  1.00  0.00    -0.116 SA 
BRANCH  14  15
HETATM   15  C   UNL     1      -9.865   6.097  71.319  1.00  0.00    -0.176 A  
HETATM   16  N   UNL     1     -10.222   5.283  70.352  1.00  0.00    -0.251 NA 
HETATM   17  N   UNL     1     -11.277   5.883  69.716  1.00  0.00    -0.363 NA 
HETATM   18  N   UNL     1     -10.724   7.166  71.325  1.00  0.00    -0.226 NA 
HETATM   19  N   UNL     1     -11.583   7.037  70.290  1.00  0.00    -0.287 NA 
BRANCH  18  20
HETATM   20  C   UNL     1     -10.881   8.300  72.220  1.00  0.00    -0.338 C  
BRANCH  20  21
HETATM   21  C   UNL     1     -11.737   9.395  71.557  1.00  0.00    -0.394 C  
BRANCH  21  22
HETATM   22  N   UNL     1     -12.940   9.857  72.287  1.00  0.00    -0.362 NA 
HETATM   23  C   UNL     1     -14.040   8.907  72.039  1.00  0.00    -0.411 C  
HETATM   24  C   UNL     1     -13.391  11.193  71.877  1.00  0.00    -0.304 C  
ENDBRANCH  21  22
ENDBRANCH  20  21
ENDBRANCH  18  20
ENDBRANCH  14  15
ENDBRANCH  13  14
ENDBRANCH   4  13
BRANCH   8  25
HETATM   25  N   UNL     1      -9.264  10.387  67.168  1.00  0.00    -0.142 N  
HETATM   26  C   UNL     1      -9.313  11.762  67.241  1.00  0.00    -0.171 C  
HETATM   27  H   UNL     1     -10.134   9.858  67.230  1.00  0.00     0.000 HD 
HETATM   28  O   UNL     1      -8.324  12.470  67.051  1.00  0.00    -0.180 OA 
BRANCH  26  29
HETATM   29  C   UNL     1     -10.670  12.336  67.589  1.00  0.00    -0.250 C  
BRANCH  29  30
HETATM   30  C   UNL     1     -11.340  12.900  66.387  1.00  0.00    -0.319 A  
HETATM   31  N   UNL     1     -12.549  12.167  63.178  1.00  0.00    -0.819 NA 
HETATM   32  C   UNL     1     -11.785  14.198  66.222  1.00  0.00    -0.390 A  
HETATM   33  S   UNL     1     -12.515  14.378  64.686  1.00  0.00    -0.239 SA 
HETATM   34  H2  UNL     1     -13.027  12.735  62.479  1.00  0.00     0.000 HD 
HETATM   35  H1  UNL     1     -12.355  11.187  62.977  1.00  0.00     0.000 HD 
HETATM   36  N   UNL     1     -11.585  12.062  65.305  1.00  0.00    -0.316 NA 
HETATM   37  C   UNL     1     -12.188  12.729  64.347  1.00  0.00    -0.428 A  
ENDBRANCH  29  30
ENDBRANCH  26  29
ENDBRANCH   8  25
TORSDOF 9
ENDMDL
MODEL      120
REMARK 921   NORMALIZED FREE ENERGY PREDICTED BY IDOCK:   -4.91 KCAL/MOL
REMARK 922        TOTAL FREE ENERGY PREDICTED BY IDOCK:   -9.44 KCAL/MOL
REMARK 923 INTER-LIGAND FREE ENERGY PREDICTED BY IDOCK:   -8.62 KCAL/MOL
REMARK 924 INTRA-LIGAND FREE ENERGY PREDICTED BY IDOCK:   -0.82 KCAL/MOL
REMARK 927      BINDING AFFINITY PREDICTED BY RF-SCORE:    0.00 PKD
ROOT
HETATM    1  C   UNL     1     -10.783   8.363  67.853  1.00  0.00    -0.074 C  
HETATM    2  S   UNL     1     -10.777  10.077  68.424  1.00  0.00    -0.233 SA 
HETATM    3  C   UNL     1     -10.526  10.760  66.771  1.00  0.00    -0.251 C  
HETATM    4  C   UNL     1      -9.430  10.087  65.954  1.00  0.00    -0.260 C  
HETATM    5  C   UNL     1      -9.159   7.057  68.018  1.00  0.00    -0.127 C  
HETATM    6  CA  UNL     1      -8.948   8.834  66.214  1.00  0.00    -0.173 C  
HETATM    7  C   UNL     1      -7.808   8.272  65.388  1.00  0.00    -0.113 C  
HETATM    8  CA  UNL     1     -10.410   7.287  68.924  1.00  0.00    -0.201 C  
HETATM    9  N   UNL     1      -9.503   8.090  67.223  1.00  0.00    -0.149 N  
HETATM   10  O   UNL     1      -7.084   7.272  65.920  1.00  0.00    -0.063 OA 
HETATM   11  OXT UNL     1      -7.535   8.679  64.267  1.00  0.00    -0.101 OA 
HETATM   12  O   UNL     1      -8.150   6.383  68.025  1.00  0.00    -0.113 OA 
ENDROOT
BRANCH   4  13
HETATM   13  C   UNL     1      -8.848  11.059  64.921  1.00  0.00    -0.057 C  
BRANCH  13  14
HETATM   14  S   UNL     1      -9.870  11.190  63.410  1.00  0.00    -0.395 SA 
BRANCH  14  15
HETATM   15  C   UNL     1     -11.251  12.071  63.946  1.00  0.00    -0.417 A  
HETATM   16  N   UNL     1     -12.494  11.647  63.920  1.00  0.00    -0.223 NA 
HETATM   17  N   UNL     1     -13.266  12.693  64.351  1.00  0.00    -0.625 NA 
HETATM   18  N   UNL     1     -11.240  13.349  64.442  1.00  0.00    -0.372 NA 
HETATM   19  N   UNL     1     -12.515  13.740  64.659  1.00  0.00    -0.608 NA 
BRANCH  18  20
HETATM   20  C   UNL     1     -10.165  14.262  64.793  1.00  0.00    -0.250 C  
BRANCH  20  21
HETATM   21  C   UNL     1     -10.732  15.543  65.430  1.00  0.00    -0.405 C  
BRANCH  21  22
HETATM   22  N   UNL     1      -9.853  16.734  65.467  1.00  0.00    -0.563 NA 
HETATM   23  C   UNL     1      -8.718  16.459  66.367  1.00  0.00    -0.319 C  
HETATM   24  C   UNL     1     -10.533  17.943  65.948  1.00  0.00    -0.253 C  
ENDBRANCH  21  22
ENDBRANCH  20  21
ENDBRANCH  18  20
ENDBRANCH  14  15
ENDBRANCH  13  14
ENDBRANCH   4  13
BRANCH   8  25
HETATM   25  N   UNL     1     -10.116   7.782  70.303  1.00  0.00    -0.194 N  
HETATM   26  C   UNL     1     -11.075   7.803  71.293  1.00  0.00    -0.246 C  
HETATM   27  H   UNL     1      -9.176   8.114  70.518  1.00  0.00     0.000 HD 
HETATM   28  O   UNL     1     -12.191   7.307  71.144  1.00  0.00    -0.324 OA 
BRANCH  26  29
HETATM   29  C   UNL     1     -10.656   8.498  72.571  1.00  0.00    -0.308 C  
BRANCH  29  30
HETATM   30  C   UNL     1      -9.566   7.754  73.256  1.00  0.00    -0.283 A  
HETATM   31  N   UNL     1      -6.201   7.869  74.233  1.00  0.00    -0.093 NA 
HETATM   32  C   UNL     1      -9.662   6.510  73.852  1.00  0.00    -0.229 A  
HETATM   33  S   UNL     1      -8.157   6.069  74.535  1.00  0.00    -0.112 SA 
HETATM   34  H2  UNL     1      -5.613   7.215  74.749  1.00  0.00     0.000 HD 
HETATM   35  H1  UNL     1      -5.802   8.750  73.911  1.00  0.00     0.000 HD 
HETATM   36  N   UNL     1      -8.312   8.346  73.351  1.00  0.00    -0.370 NA 
HETATM   37  C   UNL     1      -7.486   7.551  73.993  1.00  0.00    -0.116 A  
ENDBRANCH  29  30
ENDBRANCH  26  29
ENDBRANCH   8  25
TORSDOF 9
ENDMDL
MODEL      121
REMARK 921   NORMALIZED FREE ENERGY PREDICTED BY IDOCK:   -4.88 KCAL/MOL
REMARK 922        TOTAL FREE ENERGY PREDICTED BY IDOCK:   -9.39 KCAL/MOL
REMARK 923 INTER-LIGAND FREE ENERGY PREDICTED BY IDOCK:   -7.48 KCAL/MOL
REMARK 924 INTRA-LIGAND FREE ENERGY PREDICTED BY IDOCK:   -1.92 KCAL/MOL
REMARK 927      BINDING AFFINITY PREDICTED BY RF-SCORE:    0.00 PKD
ROOT
HETATM    1  C   UNL     1     -10.463  10.141  68.909  1.00  0.00    -0.210 C  
HETATM    2  S   UNL     1     -10.260  11.855  68.375  1.00  0.00    -0.203 SA 
HETATM    3  C   UNL     1      -8.583  11.598  67.757  1.00  0.00    -0.144 C  
HETATM    4  C   UNL     1      -7.656  10.841  68.701  1.00  0.00    -0.106 C  
HETATM    5  C   UNL     1     -10.284   9.491  70.887  1.00  0.00    -0.286 C  
HETATM    6  CA  UNL     1      -8.095  10.046  69.722  1.00  0.00    -0.177 C  
HETATM    7  C   UNL     1      -7.098   9.385  70.654  1.00  0.00    -0.124 C  
HETATM    8  CA  UNL     1     -11.524   9.897  70.029  1.00  0.00    -0.217 C  
HETATM    9  N   UNL     1      -9.441   9.850  69.899  1.00  0.00    -0.229 N  
HETATM   10  O   UNL     1      -7.536   8.993  71.862  1.00  0.00    -0.334 OA 
HETATM   11  OXT UNL     1      -5.931   9.186  70.344  1.00  0.00    -0.036 OA 
HETATM   12  O   UNL     1     -10.047   9.148  72.026  1.00  0.00    -0.279 OA 
ENDROOT
BRANCH   4  13
HETATM   13  C   UNL     1      -6.192  11.218  68.443  1.00  0.00    -0.045 C  
BRANCH  13  14
HETATM   14  S   UNL     1      -6.013  12.733  67.434  1.00  0.00    -0.033 SA 
BRANCH  14  15
HETATM   15  C   UNL     1      -6.689  13.957  68.440  1.00  0.00    -0.099 A  
HETATM   16  N   UNL     1      -6.426  14.140  69.714  1.00  0.00    -0.137 NA 
HETATM   17  N   UNL     1      -7.244  15.156  70.133  1.00  0.00    -0.013 NA 
HETATM   18  N   UNL     1      -7.620  14.885  68.052  1.00  0.00    -0.112 NA 
HETATM   19  N   UNL     1      -7.986  15.609  69.133  1.00  0.00    -0.211 NA 
BRANCH  18  20
HETATM   20  C   UNL     1      -8.195  15.227  66.762  1.00  0.00    -0.180 C  
BRANCH  20  21
HETATM   21  C   UNL     1      -8.709  16.677  66.767  1.00  0.00    -0.226 C  
BRANCH  21  22
HETATM   22  N   UNL     1     -10.166  16.886  66.608  1.00  0.00    -0.304 NA 
HETATM   23  C   UNL     1     -10.617  17.867  67.612  1.00  0.00    -0.387 C  
HETATM   24  C   UNL     1     -10.953  15.660  66.784  1.00  0.00    -0.230 C  
ENDBRANCH  21  22
ENDBRANCH  20  21
ENDBRANCH  18  20
ENDBRANCH  14  15
ENDBRANCH  13  14
ENDBRANCH   4  13
BRANCH   8  25
HETATM   25  N   UNL     1     -12.274  11.093  70.519  1.00  0.00    -0.357 N  
HETATM   26  C   UNL     1     -13.072  11.047  71.642  1.00  0.00    -0.438 C  
HETATM   27  H   UNL     1     -12.192  11.971  70.007  1.00  0.00     0.000 HD 
HETATM   28  O   UNL     1     -13.123  10.063  72.378  1.00  0.00    -0.351 OA 
BRANCH  26  29
HETATM   29  C   UNL     1     -13.894  12.294  71.892  1.00  0.00     0.182 C  
BRANCH  29  30
HETATM   30  C   UNL     1     -13.023  13.488  72.064  1.00  0.00    -0.324 A  
HETATM   31  N   UNL     1     -10.550  15.464  70.557  1.00  0.00    -0.465 NA 
HETATM   32  C   UNL     1     -12.999  14.343  73.149  1.00  0.00    -0.413 A  
HETATM   33  S   UNL     1     -11.854  15.588  72.890  1.00  0.00    -0.417 SA 
HETATM   34  H2  UNL     1     -10.069  16.311  70.860  1.00  0.00     0.000 HD 
HETATM   35  H1  UNL     1     -10.322  15.058  69.650  1.00  0.00     0.000 HD 
HETATM   36  N   UNL     1     -12.146  13.827  71.040  1.00  0.00    -0.310 NA 
HETATM   37  C   UNL     1     -11.471  14.906  71.363  1.00  0.00    -0.261 A  
ENDBRANCH  29  30
ENDBRANCH  26  29
ENDBRANCH   8  25
TORSDOF 9
ENDMDL
MODEL      122
REMARK 921   NORMALIZED FREE ENERGY PREDICTED BY IDOCK:   -4.88 KCAL/MOL
REMARK 922        TOTAL FREE ENERGY PREDICTED BY IDOCK:   -9.39 KCAL/MOL
REMARK 923 INTER-LIGAND FREE ENERGY PREDICTED BY IDOCK:   -8.03 KCAL/MOL
REMARK 924 INTRA-LIGAND FREE ENERGY PREDICTED BY IDOCK:   -1.35 KCAL/MOL
REMARK 927      BINDING AFFINITY PREDICTED BY RF-SCORE:    0.00 PKD
ROOT
HETATM    1  C   UNL     1     -11.645  10.703  69.132  1.00  0.00    -0.271 C  
HETATM    2  S   UNL     1      -9.850  10.715  68.921  1.00  0.00    -0.204 SA 
HETATM    3  C   UNL     1      -9.695   8.921  69.060  1.00  0.00    -0.171 C  
HETATM    4  C   UNL     1     -10.453   8.296  70.225  1.00  0.00    -0.221 C  
HETATM    5  C   UNL     1     -12.629  11.177  70.914  1.00  0.00    -0.386 C  
HETATM    6  CA  UNL     1     -11.494   8.903  70.868  1.00  0.00    -0.288 C  
HETATM    7  C   UNL     1     -12.146   8.232  72.062  1.00  0.00    -0.348 C  
HETATM    8  CA  UNL     1     -12.279  12.032  69.655  1.00  0.00    -0.139 C  
HETATM    9  N   UNL     1     -11.946  10.121  70.428  1.00  0.00    -0.274 N  
HETATM   10  O   UNL     1     -12.835   9.009  72.916  1.00  0.00    -0.305 OA 
HETATM   11  OXT UNL     1     -12.081   7.028  72.264  1.00  0.00    -0.262 OA 
HETATM   12  O   UNL     1     -13.142  11.338  72.001  1.00  0.00    -0.495 OA 
ENDROOT
BRANCH   4  13
HETATM   13  C   UNL     1      -9.791   6.984  70.662  1.00  0.00    -0.182 C  
BRANCH  13  14
HETATM   14  S   UNL     1      -9.945   5.656  69.413  1.00  0.00    -0.218 SA 
BRANCH  14  15
HETATM   15  C   UNL     1      -8.308   5.221  69.098  1.00  0.00    -0.091 A  
HETATM   16  N   UNL     1      -7.247   5.927  69.420  1.00  0.00    -0.065 NA 
HETATM   17  N   UNL     1      -6.169   5.257  68.905  1.00  0.00    -0.029 NA 
HETATM   18  N   UNL     1      -7.893   4.093  68.439  1.00  0.00    -0.073 NA 
HETATM   19  N   UNL     1      -6.551   4.145  68.293  1.00  0.00    -0.045 NA 
BRANCH  18  20
HETATM   20  C   UNL     1      -8.599   2.919  67.955  1.00  0.00    -0.093 C  
BRANCH  20  21
HETATM   21  C   UNL     1      -9.381   3.251  66.672  1.00  0.00    -0.138 C  
BRANCH  21  22
HETATM   22  N   UNL     1      -8.616   3.792  65.525  1.00  0.00    -0.110 NA 
HETATM   23  C   UNL     1      -9.553   4.081  64.424  1.00  0.00    -0.170 C  
HETATM   24  C   UNL     1      -7.593   2.868  65.021  1.00  0.00    -0.076 C  
ENDBRANCH  21  22
ENDBRANCH  20  21
ENDBRANCH  18  20
ENDBRANCH  14  15
ENDBRANCH  13  14
ENDBRANCH   4  13
BRANCH   8  25
HETATM   25  N   UNL     1     -11.346  13.173  69.899  1.00  0.00    -0.506 N  
HETATM   26  C   UNL     1     -11.799  14.426  70.253  1.00  0.00    -0.313 C  
HETATM   27  H   UNL     1     -10.342  13.020  69.801  1.00  0.00     0.000 HD 
HETATM   28  O   UNL     1     -12.980  14.654  70.509  1.00  0.00    -0.348 OA 
BRANCH  26  29
HETATM   29  C   UNL     1     -10.735  15.503  70.287  1.00  0.00    -0.352 C  
BRANCH  29  30
HETATM   30  C   UNL     1     -10.425  15.996  68.918  1.00  0.00    -0.245 A  
HETATM   31  N   UNL     1      -9.544  15.033  65.664  1.00  0.00    -0.448 NA 
HETATM   32  C   UNL     1     -10.442  17.310  68.489  1.00  0.00    -0.375 A  
HETATM   33  S   UNL     1     -10.044  17.390  66.828  1.00  0.00    -0.324 SA 
HETATM   34  H2  UNL     1      -9.391  15.566  64.808  1.00  0.00     0.000 HD 
HETATM   35  H1  UNL     1      -9.444  14.019  65.644  1.00  0.00     0.000 HD 
HETATM   36  N   UNL     1     -10.106  15.069  67.932  1.00  0.00    -0.226 NA 
HETATM   37  C   UNL     1      -9.875  15.683  66.794  1.00  0.00    -0.244 A  
ENDBRANCH  29  30
ENDBRANCH  26  29
ENDBRANCH   8  25
TORSDOF 9
ENDMDL
MODEL      123
REMARK 921   NORMALIZED FREE ENERGY PREDICTED BY IDOCK:   -4.86 KCAL/MOL
REMARK 922        TOTAL FREE ENERGY PREDICTED BY IDOCK:   -9.36 KCAL/MOL
REMARK 923 INTER-LIGAND FREE ENERGY PREDICTED BY IDOCK:   -8.27 KCAL/MOL
REMARK 924 INTRA-LIGAND FREE ENERGY PREDICTED BY IDOCK:   -1.09 KCAL/MOL
REMARK 927      BINDING AFFINITY PREDICTED BY RF-SCORE:    0.00 PKD
ROOT
HETATM    1  C   UNL     1     -11.585  11.985  68.215  1.00  0.00    -0.334 C  
HETATM    2  S   UNL     1      -9.882  11.380  68.239  1.00  0.00    -0.206 SA 
HETATM    3  C   UNL     1     -10.333   9.762  68.904  1.00  0.00    -0.210 C  
HETATM    4  C   UNL     1     -11.285   9.796  70.093  1.00  0.00    -0.324 C  
HETATM    5  C   UNL     1     -12.402  13.270  69.648  1.00  0.00    -0.097 C  
HETATM    6  CA  UNL     1     -12.083  10.863  70.399  1.00  0.00    -0.363 C  
HETATM    7  C   UNL     1     -12.950  10.832  71.642  1.00  0.00    -0.476 C  
HETATM    8  CA  UNL     1     -11.756  13.538  68.251  1.00  0.00    -0.359 C  
HETATM    9  N   UNL     1     -12.094  11.959  69.575  1.00  0.00    -0.262 N  
HETATM   10  O   UNL     1     -13.365  12.008  72.144  1.00  0.00    -0.510 OA 
HETATM   11  OXT UNL     1     -13.293   9.792  72.188  1.00  0.00    -0.434 OA 
HETATM   12  O   UNL     1     -12.860  13.911  70.570  1.00  0.00    -0.284 OA 
ENDROOT
BRANCH   4  13
HETATM   13  C   UNL     1     -11.106   8.549  70.968  1.00  0.00    -0.260 C  
BRANCH  13  14
HETATM   14  S   UNL     1      -9.630   8.639  72.044  1.00  0.00    -0.295 SA 
BRANCH  14  15
HETATM   15  C   UNL     1      -8.680   7.300  71.518  1.00  0.00    -0.118 A  
HETATM   16  N   UNL     1      -9.141   6.178  71.013  1.00  0.00    -0.146 NA 
HETATM   17  N   UNL     1      -8.053   5.368  70.822  1.00  0.00    -0.109 NA 
HETATM   18  N   UNL     1      -7.313   7.215  71.588  1.00  0.00    -0.083 NA 
HETATM   19  N   UNL     1      -6.936   5.983  71.181  1.00  0.00    -0.066 NA 
BRANCH  18  20
HETATM   20  C   UNL     1      -6.282   8.172  71.950  1.00  0.00    -0.047 C  
BRANCH  20  21
HETATM   21  C   UNL     1      -5.720   8.861  70.694  1.00  0.00    -0.032 C  
BRANCH  21  22
HETATM   22  N   UNL     1      -6.673   9.184  69.607  1.00  0.00    -0.045 NA 
HETATM   23  C   UNL     1      -6.182   8.586  68.352  1.00  0.00    -0.054 C  
HETATM   24  C   UNL     1      -6.841  10.626  69.390  1.00  0.00    -0.095 C  
ENDBRANCH  21  22
ENDBRANCH  20  21
ENDBRANCH  18  20
ENDBRANCH  14  15
ENDBRANCH  13  14
ENDBRANCH   4  13
BRANCH   8  25
HETATM   25  N   UNL     1     -10.505  14.354  68.275  1.00  0.00    -0.239 N  
HETATM   26  C   UNL     1     -10.185  15.234  67.263  1.00  0.00    -0.248 C  
HETATM   27  H   UNL     1      -9.867  14.257  69.065  1.00  0.00     0.000 HD 
HETATM   28  O   UNL     1     -10.960  15.494  66.343  1.00  0.00    -0.309 OA 
BRANCH  26  29
HETATM   29  C   UNL     1      -8.802  15.843  67.359  1.00  0.00    -0.201 C  
BRANCH  29  30
HETATM   30  C   UNL     1      -8.873  17.324  67.469  1.00  0.00    -0.218 A  
HETATM   31  N   UNL     1     -10.345  19.996  69.198  1.00  0.00    -0.561 NA 
HETATM   32  C   UNL     1      -8.158  18.243  66.725  1.00  0.00    -0.250 A  
HETATM   33  S   UNL     1      -8.550  19.833  67.220  1.00  0.00    -0.334 SA 
HETATM   34  H2  UNL     1     -10.232  21.007  69.124  1.00  0.00     0.000 HD 
HETATM   35  H1  UNL     1     -10.993  19.616  69.887  1.00  0.00     0.000 HD 
HETATM   36  N   UNL     1      -9.715  17.883  68.425  1.00  0.00    -0.323 NA 
HETATM   37  C   UNL     1      -9.638  19.193  68.381  1.00  0.00    -0.378 A  
ENDBRANCH  29  30
ENDBRANCH  26  29
ENDBRANCH   8  25
TORSDOF 9
ENDMDL
MODEL      124
REMARK 921   NORMALIZED FREE ENERGY PREDICTED BY IDOCK:   -4.86 KCAL/MOL
REMARK 922        TOTAL FREE ENERGY PREDICTED BY IDOCK:   -9.35 KCAL/MOL
REMARK 923 INTER-LIGAND FREE ENERGY PREDICTED BY IDOCK:   -7.57 KCAL/MOL
REMARK 924 INTRA-LIGAND FREE ENERGY PREDICTED BY IDOCK:   -1.78 KCAL/MOL
REMARK 927      BINDING AFFINITY PREDICTED BY RF-SCORE:    0.00 PKD
ROOT
HETATM    1  C   UNL     1     -11.710  11.539  67.821  1.00  0.00    -0.227 C  
HETATM    2  S   UNL     1     -10.305  12.141  66.856  1.00  0.00    -0.215 SA 
HETATM    3  C   UNL     1     -10.060  10.570  65.998  1.00  0.00    -0.256 C  
HETATM    4  C   UNL     1     -10.066   9.338  66.894  1.00  0.00    -0.324 C  
HETATM    5  C   UNL     1     -11.599  10.945  69.822  1.00  0.00    -0.322 C  
HETATM    6  CA  UNL     1     -10.615   9.309  68.145  1.00  0.00    -0.198 C  
HETATM    7  C   UNL     1     -10.514   8.055  68.992  1.00  0.00    -0.199 C  
HETATM    8  CA  UNL     1     -11.995  12.301  69.156  1.00  0.00    -0.249 C  
HETATM    9  N   UNL     1     -11.258  10.419  68.629  1.00  0.00    -0.260 N  
HETATM   10  O   UNL     1     -10.657   8.186  70.321  1.00  0.00    -0.219 OA 
HETATM   11  OXT UNL     1     -10.324   6.945  68.514  1.00  0.00    -0.169 OA 
HETATM   12  O   UNL     1     -11.456  10.496  70.940  1.00  0.00    -0.328 OA 
ENDROOT
BRANCH   4  13
HETATM   13  C   UNL     1      -9.244   8.206  66.266  1.00  0.00    -0.191 C  
BRANCH  13  14
HETATM   14  S   UNL     1      -7.448   8.375  66.568  1.00  0.00    -0.082 SA 
BRANCH  14  15
HETATM   15  C   UNL     1      -7.051   6.920  67.401  1.00  0.00    -0.084 A  
HETATM   16  N   UNL     1      -6.962   6.777  68.704  1.00  0.00    -0.077 NA 
HETATM   17  N   UNL     1      -6.539   5.493  68.922  1.00  0.00    -0.049 NA 
HETATM   18  N   UNL     1      -6.743   5.721  66.812  1.00  0.00    -0.056 NA 
HETATM   19  N   UNL     1      -6.389   4.844  67.777  1.00  0.00    -0.039 NA 
BRANCH  18  20
HETATM   20  C   UNL     1      -6.781   5.260  65.435  1.00  0.00    -0.045 C  
BRANCH  20  21
HETATM   21  C   UNL     1      -8.226   4.938  65.014  1.00  0.00    -0.129 C  
BRANCH  21  22
HETATM   22  N   UNL     1      -9.100   4.282  66.013  1.00  0.00    -0.126 NA 
HETATM   23  C   UNL     1      -8.943   2.821  65.893  1.00  0.00    -0.142 C  
HETATM   24  C   UNL     1     -10.522   4.602  65.842  1.00  0.00    -0.268 C  
ENDBRANCH  21  22
ENDBRANCH  20  21
ENDBRANCH  18  20
ENDBRANCH  14  15
ENDBRANCH  13  14
ENDBRANCH   4  13
BRANCH   8  25
HETATM   25  N   UNL     1     -11.101  13.454  69.479  1.00  0.00    -0.460 N  
HETATM   26  C   UNL     1     -11.593  14.655  69.940  1.00  0.00    -0.285 C  
HETATM   27  H   UNL     1     -10.094  13.347  69.354  1.00  0.00     0.000 HD 
HETATM   28  O   UNL     1     -12.778  14.817  70.231  1.00  0.00    -0.334 OA 
BRANCH  26  29
HETATM   29  C   UNL     1     -10.570  15.766  70.045  1.00  0.00    -0.333 C  
BRANCH  29  30
HETATM   30  C   UNL     1      -9.935  16.040  68.728  1.00  0.00    -0.224 A  
HETATM   31  N   UNL     1     -10.508  16.305  65.279  1.00  0.00    -0.604 NA 
HETATM   32  C   UNL     1      -8.612  16.367  68.500  1.00  0.00    -0.223 A  
HETATM   33  S   UNL     1      -8.349  16.617  66.829  1.00  0.00    -0.265 SA 
HETATM   34  H2  UNL     1      -9.895  16.539  64.498  1.00  0.00     0.000 HD 
HETATM   35  H1  UNL     1     -11.490  16.099  65.099  1.00  0.00     0.000 HD 
HETATM   36  N   UNL     1     -10.726  15.997  67.585  1.00  0.00    -0.316 NA 
HETATM   37  C   UNL     1     -10.001  16.272  66.525  1.00  0.00    -0.277 A  
ENDBRANCH  29  30
ENDBRANCH  26  29
ENDBRANCH   8  25
TORSDOF 9
ENDMDL
MODEL      125
REMARK 921   NORMALIZED FREE ENERGY PREDICTED BY IDOCK:   -4.85 KCAL/MOL
REMARK 922        TOTAL FREE ENERGY PREDICTED BY IDOCK:   -9.34 KCAL/MOL
REMARK 923 INTER-LIGAND FREE ENERGY PREDICTED BY IDOCK:   -7.76 KCAL/MOL
REMARK 924 INTRA-LIGAND FREE ENERGY PREDICTED BY IDOCK:   -1.58 KCAL/MOL
REMARK 927      BINDING AFFINITY PREDICTED BY RF-SCORE:    0.00 PKD
ROOT
HETATM    1  C   UNL     1      -9.355  11.638  68.494  1.00  0.00    -0.167 C  
HETATM    2  S   UNL     1     -10.876  11.338  67.566  1.00  0.00    -0.262 SA 
HETATM    3  C   UNL     1     -11.107   9.676  68.236  1.00  0.00    -0.046 C  
HETATM    4  C   UNL     1      -9.863   8.796  68.222  1.00  0.00    -0.185 C  
HETATM    5  C   UNL     1      -7.432  11.500  67.687  1.00  0.00    -0.110 C  
HETATM    6  CA  UNL     1      -8.589   9.281  68.128  1.00  0.00    -0.125 C  
HETATM    7  C   UNL     1      -7.415   8.324  68.053  1.00  0.00    -0.097 C  
HETATM    8  CA  UNL     1      -8.392  12.713  67.896  1.00  0.00    -0.172 C  
HETATM    9  N   UNL     1      -8.379  10.635  68.103  1.00  0.00    -0.117 N  
HETATM   10  O   UNL     1      -6.265   8.786  67.533  1.00  0.00    -0.051 OA 
HETATM   11  OXT UNL     1      -7.472   7.170  68.455  1.00  0.00    -0.100 OA 
HETATM   12  O   UNL     1      -6.340  11.285  67.204  1.00  0.00    -0.075 OA 
ENDROOT
BRANCH   4  13
HETATM   13  C   UNL     1     -10.249   7.313  68.169  1.00  0.00    -0.187 C  
BRANCH  13  14
HETATM   14  S   UNL     1     -11.266   6.789  69.596  1.00  0.00    -0.270 SA 
BRANCH  14  15
HETATM   15  C   UNL     1     -10.340   7.314  70.952  1.00  0.00    -0.201 A  
HETATM   16  N   UNL     1     -10.468   8.464  71.574  1.00  0.00    -0.222 NA 
HETATM   17  N   UNL     1      -9.481   8.499  72.522  1.00  0.00    -0.281 NA 
HETATM   18  N   UNL     1      -9.321   6.613  71.543  1.00  0.00    -0.154 NA 
HETATM   19  N   UNL     1      -8.767   7.384  72.504  1.00  0.00    -0.120 NA 
BRANCH  18  20
HETATM   20  C   UNL     1      -8.812   5.266  71.355  1.00  0.00    -0.134 C  
BRANCH  20  21
HETATM   21  C   UNL     1      -9.884   4.227  71.730  1.00  0.00    -0.180 C  
BRANCH  21  22
HETATM   22  N   UNL     1      -9.988   3.837  73.155  1.00  0.00    -0.127 NA 
HETATM   23  C   UNL     1     -11.079   4.609  73.779  1.00  0.00    -0.258 C  
HETATM   24  C   UNL     1      -8.760   4.086  73.918  1.00  0.00    -0.093 C  
ENDBRANCH  21  22
ENDBRANCH  20  21
ENDBRANCH  18  20
ENDBRANCH  14  15
ENDBRANCH  13  14
ENDBRANCH   4  13
BRANCH   8  25
HETATM   25  N   UNL     1      -8.838  13.395  66.643  1.00  0.00    -0.434 N  
HETATM   26  C   UNL     1      -9.582  14.555  66.665  1.00  0.00    -0.276 C  
HETATM   27  H   UNL     1      -8.584  12.988  65.743  1.00  0.00     0.000 HD 
HETATM   28  O   UNL     1      -9.821  15.167  67.705  1.00  0.00    -0.221 OA 
BRANCH  26  29
HETATM   29  C   UNL     1     -10.098  15.009  65.316  1.00  0.00    -0.378 C  
BRANCH  29  30
HETATM   30  C   UNL     1     -10.803  13.906  64.611  1.00  0.00    -0.408 A  
HETATM   31  N   UNL     1     -10.412  10.765  63.102  1.00  0.00    -0.690 NA 
HETATM   32  C   UNL     1     -12.155  13.834  64.332  1.00  0.00    -0.436 A  
HETATM   33  S   UNL     1     -12.512  12.367  63.529  1.00  0.00    -0.425 SA 
HETATM   34  H2  UNL     1     -11.077  10.125  62.667  1.00  0.00     0.000 HD 
HETATM   35  H1  UNL     1      -9.427  10.506  63.146  1.00  0.00     0.000 HD 
HETATM   36  N   UNL     1     -10.068  12.802  64.194  1.00  0.00    -0.311 NA 
HETATM   37  C   UNL     1     -10.855  11.932  63.604  1.00  0.00    -0.444 A  
ENDBRANCH  29  30
ENDBRANCH  26  29
ENDBRANCH   8  25
TORSDOF 9
ENDMDL
MODEL      126
REMARK 921   NORMALIZED FREE ENERGY PREDICTED BY IDOCK:   -4.84 KCAL/MOL
REMARK 922        TOTAL FREE ENERGY PREDICTED BY IDOCK:   -9.32 KCAL/MOL
REMARK 923 INTER-LIGAND FREE ENERGY PREDICTED BY IDOCK:   -8.13 KCAL/MOL
REMARK 924 INTRA-LIGAND FREE ENERGY PREDICTED BY IDOCK:   -1.20 KCAL/MOL
REMARK 927      BINDING AFFINITY PREDICTED BY RF-SCORE:    0.00 PKD
ROOT
HETATM    1  C   UNL     1      -9.747   7.784  71.333  1.00  0.00    -0.166 C  
HETATM    2  S   UNL     1      -9.040   8.032  69.689  1.00  0.00    -0.152 SA 
HETATM    3  C   UNL     1      -9.335   9.814  69.693  1.00  0.00    -0.219 C  
HETATM    4  C   UNL     1     -10.730  10.236  70.138  1.00  0.00    -0.334 C  
HETATM    5  C   UNL     1     -11.668   7.040  71.692  1.00  0.00    -0.297 C  
HETATM    6  CA  UNL     1     -11.566   9.443  70.872  1.00  0.00    -0.312 C  
HETATM    7  C   UNL     1     -12.965   9.922  71.212  1.00  0.00    -0.395 C  
HETATM    8  CA  UNL     1     -10.271   6.343  71.638  1.00  0.00    -0.196 C  
HETATM    9  N   UNL     1     -11.134   8.214  71.300  1.00  0.00    -0.243 N  
HETATM   10  O   UNL     1     -13.882   8.994  71.532  1.00  0.00    -0.380 OA 
HETATM   11  OXT UNL     1     -13.278  11.105  71.220  1.00  0.00    -0.305 OA 
HETATM   12  O   UNL     1     -12.829   6.725  71.842  1.00  0.00    -0.338 OA 
ENDROOT
BRANCH   4  13
HETATM   13  C   UNL     1     -11.111  11.588  69.521  1.00  0.00    -0.191 C  
BRANCH  13  14
HETATM   14  S   UNL     1      -9.986  12.099  68.173  1.00  0.00    -0.204 SA 
BRANCH  14  15
HETATM   15  C   UNL     1     -11.053  12.810  67.021  1.00  0.00    -0.278 A  
HETATM   16  N   UNL     1     -12.286  12.430  66.774  1.00  0.00    -0.481 NA 
HETATM   17  N   UNL     1     -12.725  13.205  65.734  1.00  0.00    -0.433 NA 
HETATM   18  N   UNL     1     -10.744  13.850  66.183  1.00  0.00    -0.281 NA 
HETATM   19  N   UNL     1     -11.791  14.064  65.355  1.00  0.00    -0.344 NA 
BRANCH  18  20
HETATM   20  C   UNL     1      -9.588  14.724  66.079  1.00  0.00    -0.301 C  
BRANCH  20  21
HETATM   21  C   UNL     1     -10.012  16.198  66.216  1.00  0.00    -0.317 C  
BRANCH  21  22
HETATM   22  N   UNL     1      -9.784  16.856  67.523  1.00  0.00    -0.246 NA 
HETATM   23  C   UNL     1     -10.119  15.905  68.598  1.00  0.00    -0.216 C  
HETATM   24  C   UNL     1     -10.595  18.065  67.715  1.00  0.00    -0.394 C  
ENDBRANCH  21  22
ENDBRANCH  20  21
ENDBRANCH  18  20
ENDBRANCH  14  15
ENDBRANCH  13  14
ENDBRANCH   4  13
BRANCH   8  25
HETATM   25  N   UNL     1     -10.109   5.324  70.558  1.00  0.00    -0.227 N  
HETATM   26  C   UNL     1      -9.639   4.054  70.814  1.00  0.00    -0.193 C  
HETATM   27  H   UNL     1     -10.355   5.576  69.600  1.00  0.00     0.000 HD 
HETATM   28  O   UNL     1      -9.440   3.640  71.955  1.00  0.00    -0.118 OA 
BRANCH  26  29
HETATM   29  C   UNL     1      -9.369   3.213  69.584  1.00  0.00    -0.222 C  
BRANCH  29  30
HETATM   30  C   UNL     1      -8.358   3.857  68.703  1.00  0.00    -0.078 A  
HETATM   31  N   UNL     1      -5.459   5.829  68.644  1.00  0.00    -0.010 NA 
HETATM   32  C   UNL     1      -8.298   3.785  67.324  1.00  0.00    -0.098 A  
HETATM   33  S   UNL     1      -6.946   4.662  66.750  1.00  0.00    -0.060 SA 
HETATM   34  H2  UNL     1      -4.871   6.161  67.880  1.00  0.00     0.000 HD 
HETATM   35  H1  UNL     1      -5.218   6.075  69.603  1.00  0.00     0.000 HD 
HETATM   36  N   UNL     1      -7.336   4.595  69.290  1.00  0.00    -0.052 NA 
HETATM   37  C   UNL     1      -6.538   5.075  68.364  1.00  0.00    -0.045 A  
ENDBRANCH  29  30
ENDBRANCH  26  29
ENDBRANCH   8  25
TORSDOF 9
ENDMDL
MODEL      127
REMARK 921   NORMALIZED FREE ENERGY PREDICTED BY IDOCK:   -4.83 KCAL/MOL
REMARK 922        TOTAL FREE ENERGY PREDICTED BY IDOCK:   -9.31 KCAL/MOL
REMARK 923 INTER-LIGAND FREE ENERGY PREDICTED BY IDOCK:   -9.34 KCAL/MOL
REMARK 924 INTRA-LIGAND FREE ENERGY PREDICTED BY IDOCK:    0.03 KCAL/MOL
REMARK 927      BINDING AFFINITY PREDICTED BY RF-SCORE:    0.00 PKD
ROOT
HETATM    1  C   UNL     1      -8.468  11.614  67.349  1.00  0.00    -0.150 C  
HETATM    2  S   UNL     1      -8.355  10.010  68.174  1.00  0.00    -0.114 SA 
HETATM    3  C   UNL     1      -7.695   9.166  66.720  1.00  0.00    -0.097 C  
HETATM    4  C   UNL     1      -8.433   9.451  65.418  1.00  0.00    -0.159 C  
HETATM    5  C   UNL     1     -10.236  12.431  66.592  1.00  0.00    -0.224 C  
HETATM    6  CA  UNL     1      -9.237  10.538  65.222  1.00  0.00    -0.200 C  
HETATM    7  C   UNL     1      -9.986  10.704  63.913  1.00  0.00    -0.326 C  
HETATM    8  CA  UNL     1      -9.498  12.621  67.955  1.00  0.00    -0.204 C  
HETATM    9  N   UNL     1      -9.362  11.478  66.212  1.00  0.00    -0.208 N  
HETATM   10  O   UNL     1     -11.067  11.503  63.909  1.00  0.00    -0.372 OA 
HETATM   11  OXT UNL     1      -9.639  10.158  62.875  1.00  0.00    -0.300 OA 
HETATM   12  O   UNL     1     -11.262  12.802  66.061  1.00  0.00    -0.281 OA 
ENDROOT
BRANCH   4  13
HETATM   13  C   UNL     1      -8.273   8.284  64.436  1.00  0.00    -0.127 C  
BRANCH  13  14
HETATM   14  S   UNL     1      -7.442   6.834  65.181  1.00  0.00    -0.094 SA 
BRANCH  14  15
HETATM   15  C   UNL     1      -8.718   5.686  65.333  1.00  0.00    -0.137 A  
HETATM   16  N   UNL     1      -9.087   4.818  64.418  1.00  0.00    -0.126 NA 
HETATM   17  N   UNL     1     -10.186   4.174  64.921  1.00  0.00    -0.225 NA 
HETATM   18  N   UNL     1      -9.541   5.546  66.420  1.00  0.00    -0.153 NA 
HETATM   19  N   UNL     1     -10.481   4.619  66.134  1.00  0.00    -0.286 NA 
BRANCH  18  20
HETATM   20  C   UNL     1      -9.539   6.147  67.742  1.00  0.00    -0.114 C  
BRANCH  20  21
HETATM   21  C   UNL     1     -10.978   6.438  68.205  1.00  0.00    -0.307 C  
BRANCH  21  22
HETATM   22  N   UNL     1     -11.271   6.307  69.650  1.00  0.00    -0.413 NA 
HETATM   23  C   UNL     1     -11.355   7.655  70.242  1.00  0.00    -0.181 C  
HETATM   24  C   UNL     1     -10.249   5.551  70.385  1.00  0.00    -0.251 C  
ENDBRANCH  21  22
ENDBRANCH  20  21
ENDBRANCH  18  20
ENDBRANCH  14  15
ENDBRANCH  13  14
ENDBRANCH   4  13
BRANCH   8  25
HETATM   25  N   UNL     1     -10.257  12.166  69.159  1.00  0.00    -0.420 N  
HETATM   26  C   UNL     1     -11.565  11.738  69.081  1.00  0.00    -0.310 C  
HETATM   27  H   UNL     1      -9.792  12.173  70.067  1.00  0.00     0.000 HD 
HETATM   28  O   UNL     1     -12.149  11.587  68.009  1.00  0.00    -0.617 OA 
BRANCH  26  29
HETATM   29  C   UNL     1     -12.234  11.485  70.416  1.00  0.00    -0.442 C  
BRANCH  29  30
HETATM   30  C   UNL     1     -12.602  12.762  71.084  1.00  0.00    -0.271 A  
HETATM   31  N   UNL     1     -12.041  16.223  71.144  1.00  0.00    -0.565 NA 
HETATM   32  C   UNL     1     -13.523  12.927  72.101  1.00  0.00    -0.522 A  
HETATM   33  S   UNL     1     -13.631  14.579  72.533  1.00  0.00    -0.490 SA 
HETATM   34  H2  UNL     1     -12.441  16.973  71.707  1.00  0.00     0.000 HD 
HETATM   35  H1  UNL     1     -11.339  16.447  70.439  1.00  0.00     0.000 HD 
HETATM   36  N   UNL     1     -11.998  13.938  70.653  1.00  0.00    -0.317 NA 
HETATM   37  C   UNL     1     -12.451  14.957  71.347  1.00  0.00    -0.337 A  
ENDBRANCH  29  30
ENDBRANCH  26  29
ENDBRANCH   8  25
TORSDOF 9
ENDMDL
MODEL      128
REMARK 921   NORMALIZED FREE ENERGY PREDICTED BY IDOCK:   -4.80 KCAL/MOL
REMARK 922        TOTAL FREE ENERGY PREDICTED BY IDOCK:   -9.27 KCAL/MOL
REMARK 923 INTER-LIGAND FREE ENERGY PREDICTED BY IDOCK:   -7.86 KCAL/MOL
REMARK 924 INTRA-LIGAND FREE ENERGY PREDICTED BY IDOCK:   -1.41 KCAL/MOL
REMARK 927      BINDING AFFINITY PREDICTED BY RF-SCORE:    0.00 PKD
ROOT
HETATM    1  C   UNL     1      -8.680  13.832  67.090  1.00  0.00    -0.221 C  
HETATM    2  S   UNL     1      -8.399  12.654  68.430  1.00  0.00    -0.080 SA 
HETATM    3  C   UNL     1      -8.053  11.275  67.315  1.00  0.00    -0.140 C  
HETATM    4  C   UNL     1      -9.045  11.105  66.172  1.00  0.00    -0.214 C  
HETATM    5  C   UNL     1     -10.568  14.441  66.429  1.00  0.00    -0.297 C  
HETATM    6  CA  UNL     1      -9.873  12.099  65.729  1.00  0.00    -0.245 C  
HETATM    7  C   UNL     1     -10.876  11.818  64.627  1.00  0.00    -0.307 C  
HETATM    8  CA  UNL     1      -9.564  15.071  67.446  1.00  0.00    -0.205 C  
HETATM    9  N   UNL     1      -9.791  13.349  66.287  1.00  0.00    -0.287 N  
HETATM   10  O   UNL     1     -11.935  12.639  64.523  1.00  0.00    -0.356 OA 
HETATM   11  OXT UNL     1     -10.751  10.895  63.834  1.00  0.00    -0.339 OA 
HETATM   12  O   UNL     1     -11.682  14.664  66.004  1.00  0.00    -0.359 OA 
ENDROOT
BRANCH   4  13
HETATM   13  C   UNL     1      -9.090   9.646  65.703  1.00  0.00    -0.189 C  
BRANCH  13  14
HETATM   14  S   UNL     1     -10.120   8.583  66.779  1.00  0.00    -0.297 SA 
BRANCH  14  15
HETATM   15  C   UNL     1      -8.981   7.470  67.436  1.00  0.00    -0.126 A  
HETATM   16  N   UNL     1      -8.379   7.578  68.599  1.00  0.00    -0.128 NA 
HETATM   17  N   UNL     1      -7.499   6.531  68.675  1.00  0.00    -0.087 NA 
HETATM   18  N   UNL     1      -8.524   6.335  66.816  1.00  0.00    -0.110 NA 
HETATM   19  N   UNL     1      -7.569   5.775  67.589  1.00  0.00    -0.088 NA 
BRANCH  18  20
HETATM   20  C   UNL     1      -8.905   5.662  65.586  1.00  0.00    -0.146 C  
BRANCH  20  21
HETATM   21  C   UNL     1      -8.281   4.257  65.526  1.00  0.00    -0.109 C  
BRANCH  21  22
HETATM   22  N   UNL     1      -8.628   3.404  64.366  1.00  0.00    -0.093 NA 
HETATM   23  C   UNL     1      -9.429   4.198  63.416  1.00  0.00    -0.139 C  
HETATM   24  C   UNL     1      -9.406   2.214  64.732  1.00  0.00    -0.108 C  
ENDBRANCH  21  22
ENDBRANCH  20  21
ENDBRANCH  18  20
ENDBRANCH  14  15
ENDBRANCH  13  14
ENDBRANCH   4  13
BRANCH   8  25
HETATM   25  N   UNL     1     -10.057  15.165  68.853  1.00  0.00    -0.230 N  
HETATM   26  C   UNL     1     -10.936  16.146  69.257  1.00  0.00    -0.315 C  
HETATM   27  H   UNL     1      -9.733  14.480  69.536  1.00  0.00     0.000 HD 
HETATM   28  O   UNL     1     -11.464  16.928  68.467  1.00  0.00    -0.130 OA 
BRANCH  26  29
HETATM   29  C   UNL     1     -11.191  16.201  70.749  1.00  0.00    -0.356 C  
BRANCH  29  30
HETATM   30  C   UNL     1     -12.083  15.092  71.183  1.00  0.00    -0.333 A  
HETATM   31  N   UNL     1     -12.645  11.636  71.003  1.00  0.00    -0.372 NA 
HETATM   32  C   UNL     1     -13.188  15.196  72.006  1.00  0.00    -0.379 A  
HETATM   33  S   UNL     1     -13.885  13.653  72.249  1.00  0.00    -0.570 SA 
HETATM   34  H2  UNL     1     -13.352  11.033  71.422  1.00  0.00     0.000 HD 
HETATM   35  H1  UNL     1     -11.927  11.224  70.407  1.00  0.00     0.000 HD 
HETATM   36  N   UNL     1     -11.795  13.800  70.760  1.00  0.00    -0.221 NA 
HETATM   37  C   UNL     1     -12.678  12.959  71.247  1.00  0.00    -0.278 A  
ENDBRANCH  29  30
ENDBRANCH  26  29
ENDBRANCH   8  25
TORSDOF 9
ENDMDL
MODEL      129
REMARK 921   NORMALIZED FREE ENERGY PREDICTED BY IDOCK:   -4.78 KCAL/MOL
REMARK 922        TOTAL FREE ENERGY PREDICTED BY IDOCK:   -9.24 KCAL/MOL
REMARK 923 INTER-LIGAND FREE ENERGY PREDICTED BY IDOCK:   -7.64 KCAL/MOL
REMARK 924 INTRA-LIGAND FREE ENERGY PREDICTED BY IDOCK:   -1.60 KCAL/MOL
REMARK 927      BINDING AFFINITY PREDICTED BY RF-SCORE:    0.00 PKD
ROOT
HETATM    1  C   UNL     1      -8.013   9.720  66.694  1.00  0.00    -0.112 C  
HETATM    2  S   UNL     1      -9.107   9.446  68.106  1.00  0.00    -0.126 SA 
HETATM    3  C   UNL     1      -8.255   7.943  68.635  1.00  0.00    -0.127 C  
HETATM    4  C   UNL     1      -7.963   6.942  67.525  1.00  0.00    -0.112 C  
HETATM    5  C   UNL     1      -8.498   9.252  64.716  1.00  0.00    -0.175 C  
HETATM    6  CA  UNL     1      -7.933   7.266  66.197  1.00  0.00    -0.112 C  
HETATM    7  C   UNL     1      -7.699   6.188  65.157  1.00  0.00    -0.097 C  
HETATM    8  CA  UNL     1      -8.605  10.580  65.531  1.00  0.00    -0.180 C  
HETATM    9  N   UNL     1      -8.113   8.570  65.813  1.00  0.00    -0.109 N  
HETATM   10  O   UNL     1      -8.101   6.437  63.899  1.00  0.00    -0.108 OA 
HETATM   11  OXT UNL     1      -7.155   5.123  65.414  1.00  0.00    -0.064 OA 
HETATM   12  O   UNL     1      -8.779   8.848  63.607  1.00  0.00    -0.147 OA 
ENDROOT
BRANCH   4  13
HETATM   13  C   UNL     1      -7.867   5.519  68.088  1.00  0.00    -0.092 C  
BRANCH  13  14
HETATM   14  S   UNL     1      -9.470   4.637  68.076  1.00  0.00    -0.151 SA 
BRANCH  14  15
HETATM   15  C   UNL     1     -10.338   5.384  69.364  1.00  0.00    -0.269 A  
HETATM   16  N   UNL     1     -11.389   6.162  69.237  1.00  0.00    -0.392 NA 
HETATM   17  N   UNL     1     -11.696   6.602  70.497  1.00  0.00    -0.391 NA 
HETATM   18  N   UNL     1     -10.026   5.293  70.696  1.00  0.00    -0.203 NA 
HETATM   19  N   UNL     1     -10.864   6.090  71.393  1.00  0.00    -0.261 NA 
BRANCH  18  20
HETATM   20  C   UNL     1      -9.051   4.503  71.429  1.00  0.00    -0.131 C  
BRANCH  20  21
HETATM   21  C   UNL     1      -9.623   3.113  71.761  1.00  0.00    -0.157 C  
BRANCH  21  22
HETATM   22  N   UNL     1      -9.777   2.761  73.191  1.00  0.00    -0.098 NA 
HETATM   23  C   UNL     1     -11.145   2.255  73.411  1.00  0.00    -0.192 C  
HETATM   24  C   UNL     1      -9.562   3.897  74.096  1.00  0.00    -0.101 C  
ENDBRANCH  21  22
ENDBRANCH  20  21
ENDBRANCH  18  20
ENDBRANCH  14  15
ENDBRANCH  13  14
ENDBRANCH   4  13
BRANCH   8  25
HETATM   25  N   UNL     1      -9.992  11.103  65.718  1.00  0.00    -0.234 N  
HETATM   26  C   UNL     1     -10.598  11.918  64.786  1.00  0.00    -0.299 C  
HETATM   27  H   UNL     1     -10.506  10.848  66.561  1.00  0.00     0.000 HD 
HETATM   28  O   UNL     1     -10.090  12.166  63.694  1.00  0.00    -0.395 OA 
BRANCH  26  29
HETATM   29  C   UNL     1     -11.929  12.499  65.217  1.00  0.00    -0.490 C  
BRANCH  29  30
HETATM   30  C   UNL     1     -11.922  12.845  66.663  1.00  0.00    -0.366 A  
HETATM   31  N   UNL     1     -12.020  11.539  69.916  1.00  0.00    -0.336 NA 
HETATM   32  C   UNL     1     -11.824  14.110  67.210  1.00  0.00    -0.419 A  
HETATM   33  S   UNL     1     -11.832  14.014  68.918  1.00  0.00    -0.359 SA 
HETATM   34  H2  UNL     1     -11.980  11.981  70.834  1.00  0.00     0.000 HD 
HETATM   35  H1  UNL     1     -12.100  10.524  69.854  1.00  0.00     0.000 HD 
HETATM   36  N   UNL     1     -11.995  11.816  67.596  1.00  0.00    -0.606 NA 
HETATM   37  C   UNL     1     -11.966  12.308  68.813  1.00  0.00    -0.231 A  
ENDBRANCH  29  30
ENDBRANCH  26  29
ENDBRANCH   8  25
TORSDOF 9
ENDMDL
MODEL      130
REMARK 921   NORMALIZED FREE ENERGY PREDICTED BY IDOCK:   -4.78 KCAL/MOL
REMARK 922        TOTAL FREE ENERGY PREDICTED BY IDOCK:   -9.24 KCAL/MOL
REMARK 923 INTER-LIGAND FREE ENERGY PREDICTED BY IDOCK:   -7.94 KCAL/MOL
REMARK 924 INTRA-LIGAND FREE ENERGY PREDICTED BY IDOCK:   -1.29 KCAL/MOL
REMARK 927      BINDING AFFINITY PREDICTED BY RF-SCORE:    0.00 PKD
ROOT
HETATM    1  C   UNL     1     -11.595   7.492  70.540  1.00  0.00    -0.200 C  
HETATM    2  S   UNL     1     -10.713   8.773  71.459  1.00  0.00    -0.329 SA 
HETATM    3  C   UNL     1     -10.726   9.946  70.085  1.00  0.00    -0.308 C  
HETATM    4  C   UNL     1     -10.310   9.366  68.738  1.00  0.00    -0.230 C  
HETATM    5  C   UNL     1     -10.683   5.828  69.662  1.00  0.00    -0.346 C  
HETATM    6  CA  UNL     1     -10.329   8.031  68.446  1.00  0.00    -0.199 C  
HETATM    7  C   UNL     1      -9.833   7.540  67.100  1.00  0.00    -0.201 C  
HETATM    8  CA  UNL     1     -11.386   6.027  71.043  1.00  0.00    -0.229 C  
HETATM    9  N   UNL     1     -10.800   7.140  69.376  1.00  0.00    -0.228 N  
HETATM   10  O   UNL     1      -9.457   6.254  67.004  1.00  0.00    -0.123 OA 
HETATM   11  OXT UNL     1      -9.777   8.258  66.111  1.00  0.00    -0.207 OA 
HETATM   12  O   UNL     1     -10.091   4.952  69.068  1.00  0.00    -0.189 OA 
ENDROOT
BRANCH   4  13
HETATM   13  C   UNL     1      -9.730  10.459  67.833  1.00  0.00    -0.149 C  
BRANCH  13  14
HETATM   14  S   UNL     1      -9.203  11.947  68.757  1.00  0.00     0.128 SA 
BRANCH  14  15
HETATM   15  C   UNL     1     -10.419  13.103  68.366  1.00  0.00    -0.253 A  
HETATM   16  N   UNL     1     -11.290  13.620  69.204  1.00  0.00    -0.273 NA 
HETATM   17  N   UNL     1     -12.116  14.415  68.456  1.00  0.00    -0.290 NA 
HETATM   18  N   UNL     1     -10.663  13.615  67.118  1.00  0.00    -0.275 NA 
HETATM   19  N   UNL     1     -11.753  14.410  67.182  1.00  0.00    -0.386 NA 
BRANCH  18  20
HETATM   20  C   UNL     1      -9.967  13.493  65.849  1.00  0.00    -0.283 C  
BRANCH  20  21
HETATM   21  C   UNL     1     -10.861  13.979  64.694  1.00  0.00    -0.403 C  
BRANCH  21  22
HETATM   22  N   UNL     1     -11.539  12.949  63.874  1.00  0.00    -0.420 NA 
HETATM   23  C   UNL     1     -12.642  12.367  64.661  1.00  0.00    -0.375 C  
HETATM   24  C   UNL     1     -10.650  11.857  63.460  1.00  0.00    -0.453 C  
ENDBRANCH  21  22
ENDBRANCH  20  21
ENDBRANCH  18  20
ENDBRANCH  14  15
ENDBRANCH  13  14
ENDBRANCH   4  13
BRANCH   8  25
HETATM   25  N   UNL     1     -10.507   5.843  72.237  1.00  0.00    -0.198 N  
HETATM   26  C   UNL     1     -10.879   5.055  73.305  1.00  0.00    -0.295 C  
HETATM   27  H   UNL     1      -9.603   6.315  72.262  1.00  0.00     0.000 HD 
HETATM   28  O   UNL     1     -11.894   4.360  73.293  1.00  0.00    -0.175 OA 
BRANCH  26  29
HETATM   29  C   UNL     1      -9.953   5.123  74.501  1.00  0.00    -0.252 C  
BRANCH  29  30
HETATM   30  C   UNL     1      -8.632   5.695  74.127  1.00  0.00    -0.116 A  
HETATM   31  N   UNL     1      -6.773   8.654  73.844  1.00  0.00    -0.292 NA 
HETATM   32  C   UNL     1      -7.515   4.993  73.712  1.00  0.00    -0.087 A  
HETATM   33  S   UNL     1      -6.221   6.071  73.417  1.00  0.00    -0.064 SA 
HETATM   34  H2  UNL     1      -5.807   8.835  73.568  1.00  0.00     0.000 HD 
HETATM   35  H1  UNL     1      -7.372   9.437  74.104  1.00  0.00     0.000 HD 
HETATM   36  N   UNL     1      -8.451   7.071  74.213  1.00  0.00    -0.152 NA 
HETATM   37  C   UNL     1      -7.228   7.388  73.855  1.00  0.00    -0.088 A  
ENDBRANCH  29  30
ENDBRANCH  26  29
ENDBRANCH   8  25
TORSDOF 9
ENDMDL
MODEL      131
REMARK 921   NORMALIZED FREE ENERGY PREDICTED BY IDOCK:   -4.76 KCAL/MOL
REMARK 922        TOTAL FREE ENERGY PREDICTED BY IDOCK:   -9.20 KCAL/MOL
REMARK 923 INTER-LIGAND FREE ENERGY PREDICTED BY IDOCK:   -7.53 KCAL/MOL
REMARK 924 INTRA-LIGAND FREE ENERGY PREDICTED BY IDOCK:   -1.68 KCAL/MOL
REMARK 927      BINDING AFFINITY PREDICTED BY RF-SCORE:    0.00 PKD
ROOT
HETATM    1  C   UNL     1      -9.478   7.986  71.170  1.00  0.00    -0.153 C  
HETATM    2  S   UNL     1      -8.703   7.707  69.561  1.00  0.00    -0.136 SA 
HETATM    3  C   UNL     1      -8.638   9.464  69.147  1.00  0.00    -0.140 C  
HETATM    4  C   UNL     1      -9.930  10.234  69.394  1.00  0.00    -0.254 C  
HETATM    5  C   UNL     1     -11.515   7.722  71.561  1.00  0.00    -0.264 C  
HETATM    6  CA  UNL     1     -10.922   9.806  70.232  1.00  0.00    -0.298 C  
HETATM    7  C   UNL     1     -12.203  10.606  70.364  1.00  0.00    -0.345 C  
HETATM    8  CA  UNL     1     -10.284   6.781  71.755  1.00  0.00    -0.190 C  
HETATM    9  N   UNL     1     -10.751   8.651  70.951  1.00  0.00    -0.210 N  
HETATM   10  O   UNL     1     -13.293   9.968  70.823  1.00  0.00    -0.350 OA 
HETATM   11  OXT UNL     1     -12.276  11.795  70.087  1.00  0.00    -0.299 OA 
HETATM   12  O   UNL     1     -12.719   7.676  71.702  1.00  0.00    -0.323 OA 
ENDROOT
BRANCH   4  13
HETATM   13  C   UNL     1     -10.023  11.452  68.467  1.00  0.00    -0.201 C  
BRANCH  13  14
HETATM   14  S   UNL     1      -9.185  11.192  66.862  1.00  0.00    -0.172 SA 
BRANCH  14  15
HETATM   15  C   UNL     1     -10.050  12.233  65.795  1.00  0.00    -0.252 A  
HETATM   16  N   UNL     1     -10.485  13.439  66.080  1.00  0.00    -0.289 NA 
HETATM   17  N   UNL     1     -11.190  13.861  64.984  1.00  0.00    -0.327 NA 
HETATM   18  N   UNL     1     -10.429  11.926  64.514  1.00  0.00    -0.279 NA 
HETATM   19  N   UNL     1     -11.175  12.943  64.029  1.00  0.00    -0.388 NA 
BRANCH  18  20
HETATM   20  C   UNL     1     -10.142  10.799  63.643  1.00  0.00    -0.312 C  
BRANCH  20  21
HETATM   21  C   UNL     1      -8.834  11.037  62.868  1.00  0.00    -0.235 C  
BRANCH  21  22
HETATM   22  N   UNL     1      -7.778  10.004  62.976  1.00  0.00    -0.139 NA 
HETATM   23  C   UNL     1      -8.418   8.686  63.133  1.00  0.00    -0.096 C  
HETATM   24  C   UNL     1      -6.876  10.211  64.116  1.00  0.00    -0.102 C  
ENDBRANCH  21  22
ENDBRANCH  20  21
ENDBRANCH  18  20
ENDBRANCH  14  15
ENDBRANCH  13  14
ENDBRANCH   4  13
BRANCH   8  25
HETATM   25  N   UNL     1     -10.306   5.527  70.944  1.00  0.00    -0.229 N  
HETATM   26  C   UNL     1      -9.453   4.475  71.197  1.00  0.00    -0.160 C  
HETATM   27  H   UNL     1     -10.975   5.447  70.177  1.00  0.00     0.000 HD 
HETATM   28  O   UNL     1      -8.708   4.449  72.176  1.00  0.00    -0.110 OA 
BRANCH  26  29
HETATM   29  C   UNL     1      -9.490   3.361  70.171  1.00  0.00    -0.244 C  
BRANCH  29  30
HETATM   30  C   UNL     1      -9.215   3.880  68.805  1.00  0.00    -0.152 A  
HETATM   31  N   UNL     1     -10.663   5.269  65.929  1.00  0.00    -0.631 NA 
HETATM   32  C   UNL     1      -7.980   3.986  68.194  1.00  0.00    -0.077 A  
HETATM   33  S   UNL     1      -8.153   4.663  66.633  1.00  0.00    -0.103 SA 
HETATM   34  H2  UNL     1     -10.263   5.596  65.049  1.00  0.00     0.000 HD 
HETATM   35  H1  UNL     1     -11.670   5.330  66.073  1.00  0.00     0.000 HD 
HETATM   36  N   UNL     1     -10.281   4.340  68.039  1.00  0.00     0.133 NA 
HETATM   37  C   UNL     1      -9.848   4.766  66.875  1.00  0.00    -0.205 A  
ENDBRANCH  29  30
ENDBRANCH  26  29
ENDBRANCH   8  25
TORSDOF 9
ENDMDL
MODEL      132
REMARK 921   NORMALIZED FREE ENERGY PREDICTED BY IDOCK:   -4.76 KCAL/MOL
REMARK 922        TOTAL FREE ENERGY PREDICTED BY IDOCK:   -9.20 KCAL/MOL
REMARK 923 INTER-LIGAND FREE ENERGY PREDICTED BY IDOCK:   -7.42 KCAL/MOL
REMARK 924 INTRA-LIGAND FREE ENERGY PREDICTED BY IDOCK:   -1.78 KCAL/MOL
REMARK 927      BINDING AFFINITY PREDICTED BY RF-SCORE:    0.00 PKD
ROOT
HETATM    1  C   UNL     1      -8.048  14.598  68.834  1.00  0.00    -0.147 C  
HETATM    2  S   UNL     1      -9.539  15.128  67.962  1.00  0.00    -0.206 SA 
HETATM    3  C   UNL     1     -10.191  13.452  67.795  1.00  0.00    -0.235 C  
HETATM    4  C   UNL     1      -9.189  12.416  67.302  1.00  0.00    -0.187 C  
HETATM    5  C   UNL     1      -6.166  14.405  67.947  1.00  0.00    -0.156 C  
HETATM    6  CA  UNL     1      -7.833  12.576  67.371  1.00  0.00    -0.175 C  
HETATM    7  C   UNL     1      -6.912  11.519  66.793  1.00  0.00    -0.108 C  
HETATM    8  CA  UNL     1      -6.827  15.570  68.750  1.00  0.00    -0.116 C  
HETATM    9  N   UNL     1      -7.312  13.695  67.966  1.00  0.00    -0.113 N  
HETATM   10  O   UNL     1      -5.657  11.886  66.483  1.00  0.00    -0.289 OA 
HETATM   11  OXT UNL     1      -7.260  10.360  66.615  1.00  0.00    -0.102 OA 
HETATM   12  O   UNL     1      -5.128  14.191  67.357  1.00  0.00    -0.322 OA 
ENDROOT
BRANCH   4  13
HETATM   13  C   UNL     1      -9.905  11.263  66.588  1.00  0.00    -0.205 C  
BRANCH  13  14
HETATM   14  S   UNL     1     -11.223  10.504  67.605  1.00  0.00    -0.153 SA 
BRANCH  14  15
HETATM   15  C   UNL     1     -10.618   8.921  67.913  1.00  0.00    -0.183 A  
HETATM   16  N   UNL     1     -10.704   7.891  67.100  1.00  0.00    -0.302 NA 
HETATM   17  N   UNL     1     -10.179   6.823  67.778  1.00  0.00    -0.156 NA 
HETATM   18  N   UNL     1      -9.995   8.513  69.063  1.00  0.00    -0.187 NA 
HETATM   19  N   UNL     1      -9.756   7.186  68.980  1.00  0.00    -0.149 NA 
BRANCH  18  20
HETATM   20  C   UNL     1      -9.538   9.227  70.243  1.00  0.00    -0.235 C  
BRANCH  20  21
HETATM   21  C   UNL     1      -8.129   9.802  70.015  1.00  0.00    -0.189 C  
BRANCH  21  22
HETATM   22  N   UNL     1      -7.129   9.608  71.089  1.00  0.00    -0.332 NA 
HETATM   23  C   UNL     1      -5.798   9.978  70.572  1.00  0.00    -0.084 C  
HETATM   24  C   UNL     1      -7.059   8.224  71.576  1.00  0.00    -0.078 C  
ENDBRANCH  21  22
ENDBRANCH  20  21
ENDBRANCH  18  20
ENDBRANCH  14  15
ENDBRANCH  13  14
ENDBRANCH   4  13
BRANCH   8  25
HETATM   25  N   UNL     1      -7.027  16.838  67.985  1.00  0.00    -0.145 N  
HETATM   26  C   UNL     1      -6.246  17.953  68.200  1.00  0.00    -0.175 C  
HETATM   27  H   UNL     1      -7.765  16.879  67.282  1.00  0.00     0.000 HD 
HETATM   28  O   UNL     1      -5.263  17.940  68.940  1.00  0.00    -0.164 OA 
BRANCH  26  29
HETATM   29  C   UNL     1      -6.698  19.200  67.469  1.00  0.00    -0.214 C  
BRANCH  29  30
HETATM   30  C   UNL     1      -8.174  19.207  67.282  1.00  0.00    -0.276 A  
HETATM   31  N   UNL     1     -10.784  18.350  65.103  1.00  0.00    -0.486 NA 
HETATM   32  C   UNL     1      -9.119  19.656  68.184  1.00  0.00    -0.329 A  
HETATM   33  S   UNL     1     -10.691  19.443  67.543  1.00  0.00    -0.390 SA 
HETATM   34  H2  UNL     1     -11.798  18.427  65.183  1.00  0.00     0.000 HD 
HETATM   35  H1  UNL     1     -10.379  17.953  64.256  1.00  0.00     0.000 HD 
HETATM   36  N   UNL     1      -8.699  18.695  66.101  1.00  0.00    -0.485 NA 
HETATM   37  C   UNL     1     -10.010  18.775  66.118  1.00  0.00    -0.345 A  
ENDBRANCH  29  30
ENDBRANCH  26  29
ENDBRANCH   8  25
TORSDOF 9
ENDMDL
MODEL      133
REMARK 921   NORMALIZED FREE ENERGY PREDICTED BY IDOCK:   -4.75 KCAL/MOL
REMARK 922        TOTAL FREE ENERGY PREDICTED BY IDOCK:   -9.19 KCAL/MOL
REMARK 923 INTER-LIGAND FREE ENERGY PREDICTED BY IDOCK:   -7.70 KCAL/MOL
REMARK 924 INTRA-LIGAND FREE ENERGY PREDICTED BY IDOCK:   -1.49 KCAL/MOL
REMARK 927      BINDING AFFINITY PREDICTED BY RF-SCORE:    0.00 PKD
ROOT
HETATM    1  C   UNL     1      -9.675  10.469  67.337  1.00  0.00    -0.164 C  
HETATM    2  S   UNL     1      -8.080  11.295  67.526  1.00  0.00    -0.129 SA 
HETATM    3  C   UNL     1      -7.448  10.081  68.705  1.00  0.00    -0.083 C  
HETATM    4  C   UNL     1      -8.405   9.718  69.834  1.00  0.00    -0.198 C  
HETATM    5  C   UNL     1     -11.441  11.081  68.273  1.00  0.00    -0.304 C  
HETATM    6  CA  UNL     1      -9.755   9.922  69.780  1.00  0.00    -0.236 C  
HETATM    7  C   UNL     1     -10.622   9.592  70.980  1.00  0.00    -0.322 C  
HETATM    8  CA  UNL     1     -10.857  11.370  66.854  1.00  0.00    -0.285 C  
HETATM    9  N   UNL     1     -10.321  10.426  68.638  1.00  0.00    -0.174 N  
HETATM   10  O   UNL     1     -11.823  10.189  71.067  1.00  0.00    -0.328 OA 
HETATM   11  OXT UNL     1     -10.280   8.803  71.850  1.00  0.00    -0.301 OA 
HETATM   12  O   UNL     1     -12.405  11.403  68.935  1.00  0.00    -0.446 OA 
ENDROOT
BRANCH   4  13
HETATM   13  C   UNL     1      -7.632   9.249  71.072  1.00  0.00    -0.059 C  
BRANCH  13  14
HETATM   14  S   UNL     1      -7.581   7.427  71.232  1.00  0.00    -0.083 SA 
BRANCH  14  15
HETATM   15  C   UNL     1      -6.809   6.927  69.775  1.00  0.00    -0.051 A  
HETATM   16  N   UNL     1      -5.516   6.948  69.540  1.00  0.00    -0.014 NA 
HETATM   17  N   UNL     1      -5.356   6.554  68.238  1.00  0.00    -0.008 NA 
HETATM   18  N   UNL     1      -7.446   6.469  68.651  1.00  0.00    -0.087 NA 
HETATM   19  N   UNL     1      -6.525   6.272  67.682  1.00  0.00    -0.044 NA 
BRANCH  18  20
HETATM   20  C   UNL     1      -8.832   6.138  68.368  1.00  0.00    -0.113 C  
BRANCH  20  21
HETATM   21  C   UNL     1      -9.175   4.741  68.914  1.00  0.00    -0.124 C  
BRANCH  21  22
HETATM   22  N   UNL     1     -10.219   4.654  69.961  1.00  0.00    -0.195 NA 
HETATM   23  C   UNL     1     -10.926   5.945  70.034  1.00  0.00    -0.360 C  
HETATM   24  C   UNL     1      -9.683   4.352  71.294  1.00  0.00    -0.182 C  
ENDBRANCH  21  22
ENDBRANCH  20  21
ENDBRANCH  18  20
ENDBRANCH  14  15
ENDBRANCH  13  14
ENDBRANCH   4  13
BRANCH   8  25
HETATM   25  N   UNL     1     -10.540  12.804  66.575  1.00  0.00    -0.252 N  
HETATM   26  C   UNL     1     -11.401  13.622  65.876  1.00  0.00    -0.309 C  
HETATM   27  H   UNL     1      -9.658  13.189  66.915  1.00  0.00     0.000 HD 
HETATM   28  O   UNL     1     -12.530  13.263  65.544  1.00  0.00    -0.458 OA 
BRANCH  26  29
HETATM   29  C   UNL     1     -10.846  14.988  65.532  1.00  0.00    -0.360 C  
BRANCH  29  30
HETATM   30  C   UNL     1     -10.734  15.844  66.743  1.00  0.00    -0.281 A  
HETATM   31  N   UNL     1     -11.599  16.133  70.129  1.00  0.00    -0.380 NA 
HETATM   32  C   UNL     1     -10.055  17.043  66.848  1.00  0.00    -0.298 A  
HETATM   33  S   UNL     1     -10.183  17.652  68.442  1.00  0.00    -0.392 SA 
HETATM   34  H2  UNL     1     -11.389  16.841  70.833  1.00  0.00     0.000 HD 
HETATM   35  H1  UNL     1     -12.162  15.324  70.388  1.00  0.00     0.000 HD 
HETATM   36  N   UNL     1     -11.341  15.417  67.920  1.00  0.00    -0.334 NA 
HETATM   37  C   UNL     1     -11.129  16.289  68.878  1.00  0.00    -0.345 A  
ENDBRANCH  29  30
ENDBRANCH  26  29
ENDBRANCH   8  25
TORSDOF 9
ENDMDL
MODEL      134
REMARK 921   NORMALIZED FREE ENERGY PREDICTED BY IDOCK:   -4.74 KCAL/MOL
REMARK 922        TOTAL FREE ENERGY PREDICTED BY IDOCK:   -9.18 KCAL/MOL
REMARK 923 INTER-LIGAND FREE ENERGY PREDICTED BY IDOCK:   -7.78 KCAL/MOL
REMARK 924 INTRA-LIGAND FREE ENERGY PREDICTED BY IDOCK:   -1.39 KCAL/MOL
REMARK 927      BINDING AFFINITY PREDICTED BY RF-SCORE:    0.00 PKD
ROOT
HETATM    1  C   UNL     1      -9.476  11.330  67.406  1.00  0.00    -0.165 C  
HETATM    2  S   UNL     1     -10.416  12.872  67.377  1.00  0.00    -0.234 SA 
HETATM    3  C   UNL     1      -9.022  13.858  66.784  1.00  0.00    -0.188 C  
HETATM    4  C   UNL     1      -7.709  13.626  67.521  1.00  0.00    -0.183 C  
HETATM    5  C   UNL     1      -8.674  10.467  69.134  1.00  0.00    -0.147 C  
HETATM    6  CA  UNL     1      -7.439  12.511  68.263  1.00  0.00    -0.122 C  
HETATM    7  C   UNL     1      -6.128  12.398  69.017  1.00  0.00    -0.077 C  
HETATM    8  CA  UNL     1     -10.014  10.222  68.369  1.00  0.00    -0.157 C  
HETATM    9  N   UNL     1      -8.359  11.496  68.321  1.00  0.00    -0.148 N  
HETATM   10  O   UNL     1      -6.074  11.540  70.050  1.00  0.00    -0.125 OA 
HETATM   11  OXT UNL     1      -5.131  13.038  68.715  1.00  0.00    -0.063 OA 
HETATM   12  O   UNL     1      -8.126  10.077  70.143  1.00  0.00    -0.175 OA 
ENDROOT
BRANCH   4  13
HETATM   13  C   UNL     1      -6.815  14.869  67.440  1.00  0.00    -0.090 C  
BRANCH  13  14
HETATM   14  S   UNL     1      -7.078  16.029  68.830  1.00  0.00    -0.169 SA 
BRANCH  14  15
HETATM   15  C   UNL     1      -8.684  16.597  68.568  1.00  0.00    -0.242 A  
HETATM   16  N   UNL     1      -9.737  16.294  69.294  1.00  0.00    -0.254 NA 
HETATM   17  N   UNL     1     -10.809  16.887  68.680  1.00  0.00    -0.338 NA 
HETATM   18  N   UNL     1      -9.084  17.417  67.545  1.00  0.00    -0.231 NA 
HETATM   19  N   UNL     1     -10.426  17.562  67.607  1.00  0.00    -0.362 NA 
BRANCH  18  20
HETATM   20  C   UNL     1      -8.354  18.140  66.518  1.00  0.00    -0.265 C  
BRANCH  20  21
HETATM   21  C   UNL     1      -8.147  19.607  66.934  1.00  0.00    -0.287 C  
BRANCH  21  22
HETATM   22  N   UNL     1      -6.811  19.990  67.445  1.00  0.00    -0.218 NA 
HETATM   23  C   UNL     1      -5.802  19.090  66.857  1.00  0.00    -0.158 C  
HETATM   24  C   UNL     1      -6.700  19.905  68.906  1.00  0.00    -0.322 C  
ENDBRANCH  21  22
ENDBRANCH  20  21
ENDBRANCH  18  20
ENDBRANCH  14  15
ENDBRANCH  13  14
ENDBRANCH   4  13
BRANCH   8  25
HETATM   25  N   UNL     1     -11.254  10.542  69.138  1.00  0.00    -0.242 N  
HETATM   26  C   UNL     1     -11.449  10.102  70.430  1.00  0.00    -0.322 C  
HETATM   27  H   UNL     1     -11.979  11.105  68.693  1.00  0.00     0.000 HD 
HETATM   28  O   UNL     1     -10.571   9.527  71.072  1.00  0.00    -0.297 OA 
BRANCH  26  29
HETATM   29  C   UNL     1     -12.830  10.365  70.992  1.00  0.00    -0.494 C  
BRANCH  29  30
HETATM   30  C   UNL     1     -13.004  11.801  71.341  1.00  0.00    -0.306 A  
HETATM   31  N   UNL     1     -12.587  15.091  70.202  1.00  0.00    -0.535 NA 
HETATM   32  C   UNL     1     -13.543  12.308  72.508  1.00  0.00     0.144 A  
HETATM   33  S   UNL     1     -13.564  14.018  72.450  1.00  0.00    -0.585 SA 
HETATM   34  H2  UNL     1     -12.806  15.995  70.620  1.00  0.00     0.000 HD 
HETATM   35  H1  UNL     1     -12.166  15.060  69.274  1.00  0.00     0.000 HD 
HETATM   36  N   UNL     1     -12.622  12.764  70.413  1.00  0.00    -0.123 NA 
HETATM   37  C   UNL     1     -12.858  13.965  70.888  1.00  0.00    -0.300 A  
ENDBRANCH  29  30
ENDBRANCH  26  29
ENDBRANCH   8  25
TORSDOF 9
ENDMDL
MODEL      135
REMARK 921   NORMALIZED FREE ENERGY PREDICTED BY IDOCK:   -4.74 KCAL/MOL
REMARK 922        TOTAL FREE ENERGY PREDICTED BY IDOCK:   -9.17 KCAL/MOL
REMARK 923 INTER-LIGAND FREE ENERGY PREDICTED BY IDOCK:   -8.61 KCAL/MOL
REMARK 924 INTRA-LIGAND FREE ENERGY PREDICTED BY IDOCK:   -0.57 KCAL/MOL
REMARK 927      BINDING AFFINITY PREDICTED BY RF-SCORE:    0.00 PKD
ROOT
HETATM    1  C   UNL     1     -10.135  12.106  68.023  1.00  0.00    -0.204 C  
HETATM    2  S   UNL     1      -8.408  11.590  68.148  1.00  0.00    -0.158 SA 
HETATM    3  C   UNL     1      -7.782  13.278  68.294  1.00  0.00    -0.141 C  
HETATM    4  C   UNL     1      -8.348  14.266  67.281  1.00  0.00    -0.222 C  
HETATM    5  C   UNL     1     -11.210  12.211  66.234  1.00  0.00    -0.334 C  
HETATM    6  CA  UNL     1      -9.513  14.068  66.595  1.00  0.00    -0.287 C  
HETATM    7  C   UNL     1      -9.965  15.076  65.556  1.00  0.00    -0.356 C  
HETATM    8  CA  UNL     1     -11.099  11.096  67.321  1.00  0.00    -0.302 C  
HETATM    9  N   UNL     1     -10.271  12.955  66.852  1.00  0.00    -0.240 N  
HETATM   10  O   UNL     1     -10.835  14.661  64.620  1.00  0.00    -0.385 OA 
HETATM   11  OXT UNL     1      -9.583  16.238  65.548  1.00  0.00    -0.474 OA 
HETATM   12  O   UNL     1     -11.748  12.374  65.159  1.00  0.00    -0.355 OA 
ENDROOT
BRANCH   4  13
HETATM   13  C   UNL     1      -7.362  15.414  67.032  1.00  0.00    -0.092 C  
BRANCH  13  14
HETATM   14  S   UNL     1      -7.096  16.459  68.510  1.00  0.00    -0.166 SA 
BRANCH  14  15
HETATM   15  C   UNL     1      -8.506  17.449  68.549  1.00  0.00    -0.274 A  
HETATM   16  N   UNL     1      -8.614  18.656  68.041  1.00  0.00    -0.291 NA 
HETATM   17  N   UNL     1      -9.865  19.102  68.376  1.00  0.00    -0.378 NA 
HETATM   18  N   UNL     1      -9.696  17.122  69.145  1.00  0.00    -0.202 NA 
HETATM   19  N   UNL     1     -10.528  18.182  69.061  1.00  0.00    -0.138 NA 
BRANCH  18  20
HETATM   20  C   UNL     1     -10.188  15.901  69.760  1.00  0.00    -0.268 C  
BRANCH  20  21
HETATM   21  C   UNL     1     -11.702  15.999  70.018  1.00  0.00    -0.278 C  
BRANCH  21  22
HETATM   22  N   UNL     1     -12.225  15.382  71.258  1.00  0.00    -0.335 NA 
HETATM   23  C   UNL     1     -13.697  15.329  71.177  1.00  0.00    -0.443 C  
HETATM   24  C   UNL     1     -11.863  16.121  72.474  1.00  0.00    -0.528 C  
ENDBRANCH  21  22
ENDBRANCH  20  21
ENDBRANCH  18  20
ENDBRANCH  14  15
ENDBRANCH  13  14
ENDBRANCH   4  13
BRANCH   8  25
HETATM   25  N   UNL     1     -10.502   9.808  66.854  1.00  0.00    -0.230 N  
HETATM   26  C   UNL     1     -10.342   8.727  67.694  1.00  0.00    -0.254 C  
HETATM   27  H   UNL     1     -10.203   9.727  65.882  1.00  0.00     0.000 HD 
HETATM   28  O   UNL     1     -10.788   8.709  68.841  1.00  0.00    -0.133 OA 
BRANCH  26  29
HETATM   29  C   UNL     1      -9.561   7.571  67.106  1.00  0.00    -0.207 C  
BRANCH  29  30
HETATM   30  C   UNL     1      -9.566   6.398  68.020  1.00  0.00    -0.118 A  
HETATM   31  N   UNL     1      -9.528   2.895  68.178  1.00  0.00    -0.196 NA 
HETATM   32  C   UNL     1      -9.562   6.427  69.402  1.00  0.00    -0.142 A  
HETATM   33  S   UNL     1      -9.544   4.833  70.023  1.00  0.00    -0.210 SA 
HETATM   34  H2  UNL     1      -9.513   2.244  68.962  1.00  0.00     0.000 HD 
HETATM   35  H1  UNL     1      -9.530   2.530  67.226  1.00  0.00     0.000 HD 
HETATM   36  N   UNL     1      -9.549   5.122  67.468  1.00  0.00    -0.133 NA 
HETATM   37  C   UNL     1      -9.546   4.219  68.421  1.00  0.00    -0.133 A  
ENDBRANCH  29  30
ENDBRANCH  26  29
ENDBRANCH   8  25
TORSDOF 9
ENDMDL
MODEL      136
REMARK 921   NORMALIZED FREE ENERGY PREDICTED BY IDOCK:   -4.73 KCAL/MOL
REMARK 922        TOTAL FREE ENERGY PREDICTED BY IDOCK:   -9.16 KCAL/MOL
REMARK 923 INTER-LIGAND FREE ENERGY PREDICTED BY IDOCK:   -7.58 KCAL/MOL
REMARK 924 INTRA-LIGAND FREE ENERGY PREDICTED BY IDOCK:   -1.57 KCAL/MOL
REMARK 927      BINDING AFFINITY PREDICTED BY RF-SCORE:    0.00 PKD
ROOT
HETATM    1  C   UNL     1      -8.373  11.586  68.364  1.00  0.00    -0.154 C  
HETATM    2  S   UNL     1      -7.062  12.304  67.348  1.00  0.00    -0.144 SA 
HETATM    3  C   UNL     1      -7.771  13.965  67.383  1.00  0.00    -0.148 C  
HETATM    4  C   UNL     1      -9.265  14.035  67.093  1.00  0.00    -0.240 C  
HETATM    5  C   UNL     1      -9.970  10.466  67.613  1.00  0.00    -0.174 C  
HETATM    6  CA  UNL     1     -10.114  12.971  67.211  1.00  0.00    -0.235 C  
HETATM    7  C   UNL     1     -11.576  13.118  66.836  1.00  0.00    -0.368 C  
HETATM    8  CA  UNL     1      -8.588  10.046  68.209  1.00  0.00    -0.115 C  
HETATM    9  N   UNL     1      -9.636  11.770  67.671  1.00  0.00    -0.180 N  
HETATM   10  O   UNL     1     -12.262  12.000  66.544  1.00  0.00    -0.548 OA 
HETATM   11  OXT UNL     1     -12.148  14.199  66.804  1.00  0.00    -0.429 OA 
HETATM   12  O   UNL     1     -10.938   9.931  67.115  1.00  0.00    -0.218 OA 
ENDROOT
BRANCH   4  13
HETATM   13  C   UNL     1      -9.642  15.403  66.511  1.00  0.00    -0.275 C  
BRANCH  13  14
HETATM   14  S   UNL     1      -9.725  16.720  67.778  1.00  0.00    -0.253 SA 
BRANCH  14  15
HETATM   15  C   UNL     1      -9.331  18.143  66.891  1.00  0.00    -0.278 A  
HETATM   16  N   UNL     1     -10.150  19.134  66.619  1.00  0.00    -0.363 NA 
HETATM   17  N   UNL     1      -9.451  20.003  65.824  1.00  0.00    -0.266 NA 
HETATM   18  N   UNL     1      -8.115  18.418  66.321  1.00  0.00    -0.391 NA 
HETATM   19  N   UNL     1      -8.214  19.571  65.624  1.00  0.00    -0.346 NA 
BRANCH  18  20
HETATM   20  C   UNL     1      -6.825  17.752  66.380  1.00  0.00    -0.250 C  
BRANCH  20  21
HETATM   21  C   UNL     1      -5.932  18.400  67.453  1.00  0.00    -0.164 C  
BRANCH  21  22
HETATM   22  N   UNL     1      -6.398  18.339  68.857  1.00  0.00    -0.216 NA 
HETATM   23  C   UNL     1      -6.504  19.713  69.382  1.00  0.00    -0.335 C  
HETATM   24  C   UNL     1      -5.497  17.584  69.737  1.00  0.00    -0.217 C  
ENDBRANCH  21  22
ENDBRANCH  20  21
ENDBRANCH  18  20
ENDBRANCH  14  15
ENDBRANCH  13  14
ENDBRANCH   4  13
BRANCH   8  25
HETATM   25  N   UNL     1      -7.678   9.330  67.265  1.00  0.00    -0.095 N  
HETATM   26  C   UNL     1      -7.746   7.966  67.075  1.00  0.00    -0.100 C  
HETATM   27  H   UNL     1      -6.985   9.867  66.745  1.00  0.00     0.000 HD 
HETATM   28  O   UNL     1      -8.633   7.273  67.572  1.00  0.00    -0.121 OA 
BRANCH  26  29
HETATM   29  C   UNL     1      -6.638   7.384  66.223  1.00  0.00    -0.049 C  
BRANCH  29  30
HETATM   30  C   UNL     1      -6.744   7.847  64.813  1.00  0.00    -0.051 A  
HETATM   31  N   UNL     1      -8.947   8.996  62.339  1.00  0.00    -0.420 NA 
HETATM   32  C   UNL     1      -5.707   7.995  63.912  1.00  0.00    -0.057 A  
HETATM   33  S   UNL     1      -6.305   8.579  62.420  1.00  0.00    -0.095 SA 
HETATM   34  H2  UNL     1      -8.800   9.300  61.377  1.00  0.00     0.000 HD 
HETATM   35  H1  UNL     1      -9.890   9.003  62.726  1.00  0.00     0.000 HD 
HETATM   36  N   UNL     1      -7.995   8.202  64.320  1.00  0.00    -0.143 NA 
HETATM   37  C   UNL     1      -7.892   8.592  63.070  1.00  0.00    -0.145 A  
ENDBRANCH  29  30
ENDBRANCH  26  29
ENDBRANCH   8  25
TORSDOF 9
ENDMDL
MODEL      137
REMARK 921   NORMALIZED FREE ENERGY PREDICTED BY IDOCK:   -4.73 KCAL/MOL
REMARK 922        TOTAL FREE ENERGY PREDICTED BY IDOCK:   -9.15 KCAL/MOL
REMARK 923 INTER-LIGAND FREE ENERGY PREDICTED BY IDOCK:   -8.23 KCAL/MOL
REMARK 924 INTRA-LIGAND FREE ENERGY PREDICTED BY IDOCK:   -0.93 KCAL/MOL
REMARK 927      BINDING AFFINITY PREDICTED BY RF-SCORE:    0.00 PKD
ROOT
HETATM    1  C   UNL     1     -11.551   6.583  71.462  1.00  0.00    -0.315 C  
HETATM    2  S   UNL     1     -11.084   6.903  69.746  1.00  0.00    -0.258 SA 
HETATM    3  C   UNL     1     -10.443   5.236  69.477  1.00  0.00    -0.234 C  
HETATM    4  C   UNL     1      -9.520   4.714  70.571  1.00  0.00    -0.247 C  
HETATM    5  C   UNL     1     -10.440   7.195  73.123  1.00  0.00    -0.321 C  
HETATM    6  CA  UNL     1      -9.482   5.222  71.840  1.00  0.00    -0.146 C  
HETATM    7  C   UNL     1      -8.482   4.683  72.845  1.00  0.00    -0.110 C  
HETATM    8  CA  UNL     1     -11.656   7.839  72.385  1.00  0.00    -0.356 C  
HETATM    9  N   UNL     1     -10.353   6.218  72.198  1.00  0.00    -0.189 N  
HETATM   10  O   UNL     1      -8.170   5.462  73.894  1.00  0.00    -0.110 OA 
HETATM   11  OXT UNL     1      -7.969   3.577  72.744  1.00  0.00    -0.073 OA 
HETATM   12  O   UNL     1      -9.697   7.463  74.044  1.00  0.00    -0.273 OA 
ENDROOT
BRANCH   4  13
HETATM   13  C   UNL     1      -8.550   3.667  70.011  1.00  0.00    -0.061 C  
BRANCH  13  14
HETATM   14  S   UNL     1      -7.227   4.399  68.982  1.00  0.00    -0.052 SA 
BRANCH  14  15
HETATM   15  C   UNL     1      -7.834   4.223  67.379  1.00  0.00    -0.092 A  
HETATM   16  N   UNL     1      -7.967   3.092  66.724  1.00  0.00    -0.079 NA 
HETATM   17  N   UNL     1      -8.395   3.424  65.466  1.00  0.00    -0.097 NA 
HETATM   18  N   UNL     1      -8.231   5.247  66.558  1.00  0.00    -0.108 NA 
HETATM   19  N   UNL     1      -8.547   4.735  65.349  1.00  0.00    -0.129 NA 
BRANCH  18  20
HETATM   20  C   UNL     1      -8.402   6.674  66.774  1.00  0.00    -0.115 C  
BRANCH  20  21
HETATM   21  C   UNL     1      -8.271   7.439  65.445  1.00  0.00    -0.134 C  
BRANCH  21  22
HETATM   22  N   UNL     1      -8.845   8.803  65.382  1.00  0.00    -0.191 NA 
HETATM   23  C   UNL     1      -7.821   9.769  65.821  1.00  0.00    -0.110 C  
HETATM   24  C   UNL     1     -10.028   8.976  66.234  1.00  0.00    -0.281 C  
ENDBRANCH  21  22
ENDBRANCH  20  21
ENDBRANCH  18  20
ENDBRANCH  14  15
ENDBRANCH  13  14
ENDBRANCH   4  13
BRANCH   8  25
HETATM   25  N   UNL     1     -11.387   9.166  71.751  1.00  0.00    -0.370 N  
HETATM   26  C   UNL     1     -12.375   9.889  71.118  1.00  0.00    -0.370 C  
HETATM   27  H   UNL     1     -10.442   9.548  71.789  1.00  0.00     0.000 HD 
HETATM   28  O   UNL     1     -13.558   9.551  71.139  1.00  0.00    -0.337 OA 
BRANCH  26  29
HETATM   29  C   UNL     1     -11.892  11.120  70.381  1.00  0.00    -0.462 C  
BRANCH  29  30
HETATM   30  C   UNL     1     -12.531  12.352  70.915  1.00  0.00    -0.274 A  
HETATM   31  N   UNL     1     -13.083  15.766  70.340  1.00  0.00    -0.743 NA 
HETATM   32  C   UNL     1     -13.283  12.459  72.070  1.00  0.00    -0.409 A  
HETATM   33  S   UNL     1     -13.833  14.067  72.265  1.00  0.00    -0.573 SA 
HETATM   34  H2  UNL     1     -13.603  16.474  70.858  1.00  0.00     0.000 HD 
HETATM   35  H1  UNL     1     -12.609  16.028  69.476  1.00  0.00     0.000 HD 
HETATM   36  N   UNL     1     -12.403  13.535  70.196  1.00  0.00    -0.304 NA 
HETATM   37  C   UNL     1     -13.037  14.507  70.811  1.00  0.00    -0.306 A  
ENDBRANCH  29  30
ENDBRANCH  26  29
ENDBRANCH   8  25
TORSDOF 9
ENDMDL
MODEL      138
REMARK 921   NORMALIZED FREE ENERGY PREDICTED BY IDOCK:   -4.72 KCAL/MOL
REMARK 922        TOTAL FREE ENERGY PREDICTED BY IDOCK:   -9.15 KCAL/MOL
REMARK 923 INTER-LIGAND FREE ENERGY PREDICTED BY IDOCK:   -7.74 KCAL/MOL
REMARK 924 INTRA-LIGAND FREE ENERGY PREDICTED BY IDOCK:   -1.41 KCAL/MOL
REMARK 927      BINDING AFFINITY PREDICTED BY RF-SCORE:    0.00 PKD
ROOT
HETATM    1  C   UNL     1      -8.707  13.896  67.063  1.00  0.00    -0.200 C  
HETATM    2  S   UNL     1      -8.299  12.811  68.449  1.00  0.00    -0.073 SA 
HETATM    3  C   UNL     1      -7.872  11.411  67.392  1.00  0.00    -0.135 C  
HETATM    4  C   UNL     1      -8.875  11.107  66.285  1.00  0.00    -0.190 C  
HETATM    5  C   UNL     1     -10.652  14.322  66.428  1.00  0.00    -0.286 C  
HETATM    6  CA  UNL     1      -9.790  12.010  65.821  1.00  0.00    -0.242 C  
HETATM    7  C   UNL     1     -10.794  11.597  64.762  1.00  0.00    -0.308 C  
HETATM    8  CA  UNL     1      -9.677  15.078  67.385  1.00  0.00    -0.216 C  
HETATM    9  N   UNL     1      -9.794  13.288  66.315  1.00  0.00    -0.282 N  
HETATM   10  O   UNL     1     -11.917  12.326  64.648  1.00  0.00    -0.375 OA 
HETATM   11  OXT UNL     1     -10.615  10.649  64.010  1.00  0.00    -0.258 OA 
HETATM   12  O   UNL     1     -11.790  14.435  66.024  1.00  0.00    -0.373 OA 
ENDROOT
BRANCH   4  13
HETATM   13  C   UNL     1      -8.815   9.628  65.888  1.00  0.00    -0.153 C  
BRANCH  13  14
HETATM   14  S   UNL     1     -10.146   8.630  66.649  1.00  0.00    -0.269 SA 
BRANCH  14  15
HETATM   15  C   UNL     1      -9.868   8.828  68.338  1.00  0.00    -0.171 A  
HETATM   16  N   UNL     1     -10.275   9.838  69.073  1.00  0.00    -0.193 NA 
HETATM   17  N   UNL     1      -9.761   9.632  70.326  1.00  0.00    -0.255 NA 
HETATM   18  N   UNL     1      -9.155   7.971  69.135  1.00  0.00    -0.145 NA 
HETATM   19  N   UNL     1      -9.065   8.506  70.373  1.00  0.00    -0.147 NA 
BRANCH  18  20
HETATM   20  C   UNL     1      -8.570   6.662  68.901  1.00  0.00    -0.126 C  
BRANCH  20  21
HETATM   21  C   UNL     1      -7.081   6.795  68.533  1.00  0.00    -0.083 C  
BRANCH  21  22
HETATM   22  N   UNL     1      -6.525   8.163  68.417  1.00  0.00    -0.057 NA 
HETATM   23  C   UNL     1      -5.757   8.257  67.162  1.00  0.00    -0.038 C  
HETATM   24  C   UNL     1      -5.632   8.523  69.525  1.00  0.00    -0.030 C  
ENDBRANCH  21  22
ENDBRANCH  20  21
ENDBRANCH  18  20
ENDBRANCH  14  15
ENDBRANCH  13  14
ENDBRANCH   4  13
BRANCH   8  25
HETATM   25  N   UNL     1     -10.142  15.202  68.800  1.00  0.00    -0.219 N  
HETATM   26  C   UNL     1     -11.043  16.168  69.193  1.00  0.00    -0.329 C  
HETATM   27  H   UNL     1      -9.780  14.550  69.497  1.00  0.00     0.000 HD 
HETATM   28  O   UNL     1     -11.613  16.906  68.390  1.00  0.00    -0.011 OA 
BRANCH  26  29
HETATM   29  C   UNL     1     -11.266  16.263  70.687  1.00  0.00    -0.310 C  
BRANCH  29  30
HETATM   30  C   UNL     1     -12.288  15.283  71.142  1.00  0.00    -0.360 A  
HETATM   31  N   UNL     1     -12.993  11.873  71.561  1.00  0.00    -0.387 NA 
HETATM   32  C   UNL     1     -13.530  15.571  71.676  1.00  0.00    -0.494 A  
HETATM   33  S   UNL     1     -14.347  14.123  72.077  1.00  0.00    -0.425 SA 
HETATM   34  H2  UNL     1     -13.804  11.381  71.936  1.00  0.00     0.000 HD 
HETATM   35  H1  UNL     1     -12.194  11.336  71.226  1.00  0.00     0.000 HD 
HETATM   36  N   UNL     1     -11.993  13.926  71.064  1.00  0.00    -0.266 NA 
HETATM   37  C   UNL     1     -13.002  13.218  71.516  1.00  0.00    -0.337 A  
ENDBRANCH  29  30
ENDBRANCH  26  29
ENDBRANCH   8  25
TORSDOF 9
ENDMDL
MODEL      139
REMARK 921   NORMALIZED FREE ENERGY PREDICTED BY IDOCK:   -4.71 KCAL/MOL
REMARK 922        TOTAL FREE ENERGY PREDICTED BY IDOCK:   -9.12 KCAL/MOL
REMARK 923 INTER-LIGAND FREE ENERGY PREDICTED BY IDOCK:   -7.67 KCAL/MOL
REMARK 924 INTRA-LIGAND FREE ENERGY PREDICTED BY IDOCK:   -1.46 KCAL/MOL
REMARK 927      BINDING AFFINITY PREDICTED BY RF-SCORE:    0.00 PKD
ROOT
HETATM    1  C   UNL     1     -10.165  11.063  67.971  1.00  0.00    -0.179 C  
HETATM    2  S   UNL     1     -10.515  10.810  66.216  1.00  0.00    -0.193 SA 
HETATM    3  C   UNL     1     -10.442   9.009  66.332  1.00  0.00    -0.040 C  
HETATM    4  C   UNL     1      -9.241   8.459  67.092  1.00  0.00    -0.174 C  
HETATM    5  C   UNL     1      -8.298  11.608  68.737  1.00  0.00    -0.039 C  
HETATM    6  CA  UNL     1      -8.500   9.192  67.976  1.00  0.00    -0.121 C  
HETATM    7  C   UNL     1      -7.280   8.579  68.636  1.00  0.00    -0.080 C  
HETATM    8  CA  UNL     1      -9.555  12.451  68.351  1.00  0.00    -0.180 C  
HETATM    9  N   UNL     1      -8.867  10.481  68.264  1.00  0.00    -0.134 N  
HETATM   10  O   UNL     1      -6.352   9.416  69.132  1.00  0.00    -0.041 OA 
HETATM   11  OXT UNL     1      -7.119   7.372  68.745  1.00  0.00    -0.076 OA 
HETATM   12  O   UNL     1      -7.170  11.801  69.138  1.00  0.00    -0.105 OA 
ENDROOT
BRANCH   4  13
HETATM   13  C   UNL     1      -8.896   7.044  66.612  1.00  0.00    -0.132 C  
BRANCH  13  14
HETATM   14  S   UNL     1     -10.308   5.887  66.728  1.00  0.00    -0.251 SA 
BRANCH  14  15
HETATM   15  C   UNL     1     -10.085   5.149  68.269  1.00  0.00    -0.134 A  
HETATM   16  N   UNL     1      -9.530   3.979  68.491  1.00  0.00    -0.159 NA 
HETATM   17  N   UNL     1      -9.642   3.750  69.837  1.00  0.00    -0.196 NA 
HETATM   18  N   UNL     1     -10.489   5.671  69.471  1.00  0.00    -0.276 NA 
HETATM   19  N   UNL     1     -10.237   4.767  70.442  1.00  0.00    -0.228 NA 
BRANCH  18  20
HETATM   20  C   UNL     1     -11.053   6.956  69.849  1.00  0.00    -0.288 C  
BRANCH  20  21
HETATM   21  C   UNL     1     -10.153   7.657  70.882  1.00  0.00    -0.191 C  
BRANCH  21  22
HETATM   22  N   UNL     1     -10.813   8.274  72.055  1.00  0.00    -0.278 NA 
HETATM   23  C   UNL     1     -10.587   7.416  73.233  1.00  0.00    -0.392 C  
HETATM   24  C   UNL     1     -12.261   8.443  71.886  1.00  0.00    -0.343 C  
ENDBRANCH  21  22
ENDBRANCH  20  21
ENDBRANCH  18  20
ENDBRANCH  14  15
ENDBRANCH  13  14
ENDBRANCH   4  13
BRANCH   8  25
HETATM   25  N   UNL     1      -9.350  13.425  67.236  1.00  0.00    -0.224 N  
HETATM   26  C   UNL     1     -10.366  14.235  66.776  1.00  0.00    -0.274 C  
HETATM   27  H   UNL     1      -8.429  13.492  66.803  1.00  0.00     0.000 HD 
HETATM   28  O   UNL     1     -11.464  14.297  67.328  1.00  0.00    -0.317 OA 
BRANCH  26  29
HETATM   29  C   UNL     1     -10.034  15.029  65.530  1.00  0.00    -0.390 C  
BRANCH  29  30
HETATM   30  C   UNL     1      -9.602  16.411  65.872  1.00  0.00    -0.274 A  
HETATM   31  N   UNL     1     -10.650  19.744  66.165  1.00  0.00    -0.489 NA 
HETATM   32  C   UNL     1      -8.346  16.803  66.294  1.00  0.00    -0.318 A  
HETATM   33  S   UNL     1      -8.327  18.487  66.594  1.00  0.00    -0.278 SA 
HETATM   34  H2  UNL     1     -10.165  20.593  66.456  1.00  0.00     0.000 HD 
HETATM   35  H1  UNL     1     -11.632  19.798  65.897  1.00  0.00     0.000 HD 
HETATM   36  N   UNL     1     -10.535  17.439  65.798  1.00  0.00    -0.551 NA 
HETATM   37  C   UNL     1      -9.979  18.578  66.143  1.00  0.00    -0.322 A  
ENDBRANCH  29  30
ENDBRANCH  26  29
ENDBRANCH   8  25
TORSDOF 9
ENDMDL
MODEL      140
REMARK 921   NORMALIZED FREE ENERGY PREDICTED BY IDOCK:   -4.70 KCAL/MOL
REMARK 922        TOTAL FREE ENERGY PREDICTED BY IDOCK:   -9.11 KCAL/MOL
REMARK 923 INTER-LIGAND FREE ENERGY PREDICTED BY IDOCK:   -7.56 KCAL/MOL
REMARK 924 INTRA-LIGAND FREE ENERGY PREDICTED BY IDOCK:   -1.55 KCAL/MOL
REMARK 927      BINDING AFFINITY PREDICTED BY RF-SCORE:    0.00 PKD
ROOT
HETATM    1  C   UNL     1      -9.069  12.522  68.299  1.00  0.00    -0.183 C  
HETATM    2  S   UNL     1     -10.551  12.451  67.268  1.00  0.00    -0.227 SA 
HETATM    3  C   UNL     1     -10.338  10.704  66.861  1.00  0.00    -0.236 C  
HETATM    4  C   UNL     1      -8.931  10.308  66.431  1.00  0.00    -0.166 C  
HETATM    5  C   UNL     1      -7.238  13.321  67.683  1.00  0.00    -0.162 C  
HETATM    6  CA  UNL     1      -7.814  11.045  66.711  1.00  0.00    -0.149 C  
HETATM    7  C   UNL     1      -6.462  10.607  66.184  1.00  0.00    -0.131 C  
HETATM    8  CA  UNL     1      -8.432  13.938  68.479  1.00  0.00    -0.127 C  
HETATM    9  N   UNL     1      -7.924  12.180  67.472  1.00  0.00    -0.152 N  
HETATM   10  O   UNL     1      -5.495  11.536  66.094  1.00  0.00    -0.258 OA 
HETATM   11  OXT UNL     1      -6.218   9.454  65.856  1.00  0.00    -0.061 OA 
HETATM   12  O   UNL     1      -6.170  13.681  67.235  1.00  0.00    -0.313 OA 
ENDROOT
BRANCH   4  13
HETATM   13  C   UNL     1      -8.968   9.074  65.522  1.00  0.00    -0.204 C  
BRANCH  13  14
HETATM   14  S   UNL     1      -9.641   7.592  66.358  1.00  0.00    -0.104 SA 
BRANCH  14  15
HETATM   15  C   UNL     1      -8.789   7.565  67.855  1.00  0.00    -0.126 A  
HETATM   16  N   UNL     1      -7.513   7.293  68.012  1.00  0.00    -0.099 NA 
HETATM   17  N   UNL     1      -7.283   7.296  69.362  1.00  0.00    -0.082 NA 
HETATM   18  N   UNL     1      -9.338   7.793  69.090  1.00  0.00    -0.151 NA 
HETATM   19  N   UNL     1      -8.390   7.586  70.030  1.00  0.00    -0.134 NA 
BRANCH  18  20
HETATM   20  C   UNL     1     -10.654   8.236  69.519  1.00  0.00    -0.213 C  
BRANCH  20  21
HETATM   21  C   UNL     1     -11.234   7.267  70.564  1.00  0.00    -0.279 C  
BRANCH  21  22
HETATM   22  N   UNL     1     -12.085   7.843  71.632  1.00  0.00    -0.288 NA 
HETATM   23  C   UNL     1     -13.448   7.298  71.497  1.00  0.00    -0.363 C  
HETATM   24  C   UNL     1     -12.172   9.307  71.579  1.00  0.00    -0.362 C  
ENDBRANCH  21  22
ENDBRANCH  20  21
ENDBRANCH  18  20
ENDBRANCH  14  15
ENDBRANCH  13  14
ENDBRANCH   4  13
BRANCH   8  25
HETATM   25  N   UNL     1      -9.124  15.079  67.808  1.00  0.00    -0.178 N  
HETATM   26  C   UNL     1     -10.141  15.780  68.419  1.00  0.00    -0.222 C  
HETATM   27  H   UNL     1      -8.834  15.347  66.867  1.00  0.00     0.000 HD 
HETATM   28  O   UNL     1     -10.460  15.595  69.593  1.00  0.00    -0.241 OA 
BRANCH  26  29
HETATM   29  C   UNL     1     -10.847  16.784  67.532  1.00  0.00    -0.216 C  
BRANCH  29  30
HETATM   30  C   UNL     1     -10.173  18.109  67.576  1.00  0.00    -0.371 A  
HETATM   31  N   UNL     1      -7.265  19.806  68.553  1.00  0.00    -0.320 NA 
HETATM   32  C   UNL     1     -10.665  19.303  67.083  1.00  0.00    -0.480 A  
HETATM   33  S   UNL     1      -9.527  20.556  67.337  1.00  0.00    -0.359 SA 
HETATM   34  H2  UNL     1      -6.976  20.781  68.466  1.00  0.00     0.000 HD 
HETATM   35  H1  UNL     1      -6.635  19.138  68.996  1.00  0.00     0.000 HD 
HETATM   36  N   UNL     1      -8.905  18.194  68.140  1.00  0.00    -0.273 NA 
HETATM   37  C   UNL     1      -8.468  19.431  68.082  1.00  0.00    -0.332 A  
ENDBRANCH  29  30
ENDBRANCH  26  29
ENDBRANCH   8  25
TORSDOF 9
ENDMDL
MODEL      141
REMARK 921   NORMALIZED FREE ENERGY PREDICTED BY IDOCK:   -4.69 KCAL/MOL
REMARK 922        TOTAL FREE ENERGY PREDICTED BY IDOCK:   -9.10 KCAL/MOL
REMARK 923 INTER-LIGAND FREE ENERGY PREDICTED BY IDOCK:   -7.96 KCAL/MOL
REMARK 924 INTRA-LIGAND FREE ENERGY PREDICTED BY IDOCK:   -1.14 KCAL/MOL
REMARK 927      BINDING AFFINITY PREDICTED BY RF-SCORE:    0.00 PKD
ROOT
HETATM    1  C   UNL     1      -9.123   8.043  70.867  1.00  0.00    -0.148 C  
HETATM    2  S   UNL     1      -8.967   8.928  69.300  1.00  0.00    -0.146 SA 
HETATM    3  C   UNL     1     -10.026  10.295  69.821  1.00  0.00    -0.181 C  
HETATM    4  C   UNL     1     -11.333   9.881  70.486  1.00  0.00    -0.399 C  
HETATM    5  C   UNL     1     -10.378   6.400  71.175  1.00  0.00    -0.205 C  
HETATM    6  CA  UNL     1     -11.547   8.652  71.044  1.00  0.00    -0.281 C  
HETATM    7  C   UNL     1     -12.904   8.306  71.625  1.00  0.00    -0.329 C  
HETATM    8  CA  UNL     1      -8.863   6.503  70.809  1.00  0.00    -0.144 C  
HETATM    9  N   UNL     1     -10.528   7.736  71.076  1.00  0.00    -0.203 N  
HETATM   10  O   UNL     1     -13.214   7.006  71.756  1.00  0.00    -0.358 OA 
HETATM   11  OXT UNL     1     -13.708   9.155  71.986  1.00  0.00    -0.408 OA 
HETATM   12  O   UNL     1     -11.212   5.533  71.334  1.00  0.00    -0.160 OA 
ENDROOT
BRANCH   4  13
HETATM   13  C   UNL     1     -12.403  10.964  70.302  1.00  0.00    -0.330 C  
BRANCH  13  14
HETATM   14  S   UNL     1     -11.779  12.441  69.421  1.00  0.00    -0.307 SA 
BRANCH  14  15
HETATM   15  C   UNL     1     -12.277  13.742  70.435  1.00  0.00    -0.363 A  
HETATM   16  N   UNL     1     -12.771  13.630  71.647  1.00  0.00    -0.331 NA 
HETATM   17  N   UNL     1     -13.110  14.897  72.042  1.00  0.00    -0.317 NA 
HETATM   18  N   UNL     1     -12.253  15.071  70.098  1.00  0.00    -0.328 NA 
HETATM   19  N   UNL     1     -12.812  15.782  71.102  1.00  0.00    -0.478 NA 
BRANCH  18  20
HETATM   20  C   UNL     1     -11.722  15.789  68.952  1.00  0.00    -0.394 C  
BRANCH  20  21
HETATM   21  C   UNL     1     -10.741  16.884  69.409  1.00  0.00    -0.258 C  
BRANCH  21  22
HETATM   22  N   UNL     1      -9.957  17.579  68.363  1.00  0.00    -0.315 NA 
HETATM   23  C   UNL     1     -10.135  16.866  67.085  1.00  0.00    -0.287 C  
HETATM   24  C   UNL     1      -8.520  17.637  68.656  1.00  0.00    -0.266 C  
ENDBRANCH  21  22
ENDBRANCH  20  21
ENDBRANCH  18  20
ENDBRANCH  14  15
ENDBRANCH  13  14
ENDBRANCH   4  13
BRANCH   8  25
HETATM   25  N   UNL     1      -8.490   5.932  69.479  1.00  0.00    -0.113 N  
HETATM   26  C   UNL     1      -7.231   5.432  69.225  1.00  0.00    -0.065 C  
HETATM   27  H   UNL     1      -9.189   5.913  68.736  1.00  0.00     0.000 HD 
HETATM   28  O   UNL     1      -6.378   5.310  70.102  1.00  0.00    -0.027 OA 
BRANCH  26  29
HETATM   29  C   UNL     1      -6.973   5.059  67.780  1.00  0.00    -0.061 C  
BRANCH  29  30
HETATM   30  C   UNL     1      -6.974   6.263  66.906  1.00  0.00    -0.071 A  
HETATM   31  N   UNL     1      -8.442   7.750  64.090  1.00  0.00    -0.375 NA 
HETATM   32  C   UNL     1      -6.200   7.397  67.060  1.00  0.00    -0.047 A  
HETATM   33  S   UNL     1      -6.564   8.528  65.829  1.00  0.00    -0.057 SA 
HETATM   34  H2  UNL     1      -8.302   8.654  63.640  1.00  0.00     0.000 HD 
HETATM   35  H1  UNL     1      -9.127   7.101  63.703  1.00  0.00     0.000 HD 
HETATM   36  N   UNL     1      -7.849   6.302  65.825  1.00  0.00    -0.098 NA 
HETATM   37  C   UNL     1      -7.717   7.438  65.180  1.00  0.00    -0.112 A  
ENDBRANCH  29  30
ENDBRANCH  26  29
ENDBRANCH   8  25
TORSDOF 9
ENDMDL
MODEL      142
REMARK 921   NORMALIZED FREE ENERGY PREDICTED BY IDOCK:   -4.68 KCAL/MOL
REMARK 922        TOTAL FREE ENERGY PREDICTED BY IDOCK:   -9.08 KCAL/MOL
REMARK 923 INTER-LIGAND FREE ENERGY PREDICTED BY IDOCK:   -7.88 KCAL/MOL
REMARK 924 INTRA-LIGAND FREE ENERGY PREDICTED BY IDOCK:   -1.19 KCAL/MOL
REMARK 927      BINDING AFFINITY PREDICTED BY RF-SCORE:    0.00 PKD
ROOT
HETATM    1  C   UNL     1     -11.517   7.416  70.425  1.00  0.00    -0.225 C  
HETATM    2  S   UNL     1     -10.655   8.729  71.318  1.00  0.00    -0.289 SA 
HETATM    3  C   UNL     1     -10.575   9.824  69.884  1.00  0.00    -0.265 C  
HETATM    4  C   UNL     1     -10.105   9.164  68.593  1.00  0.00    -0.212 C  
HETATM    5  C   UNL     1     -10.599   5.690  69.685  1.00  0.00    -0.331 C  
HETATM    6  CA  UNL     1     -10.138   7.816  68.372  1.00  0.00    -0.192 C  
HETATM    7  C   UNL     1      -9.586   7.243  67.081  1.00  0.00    -0.160 C  
HETATM    8  CA  UNL     1     -11.365   5.977  71.016  1.00  0.00    -0.229 C  
HETATM    9  N   UNL     1     -10.673   6.986  69.323  1.00  0.00    -0.226 N  
HETATM   10  O   UNL     1      -9.234   5.946  67.074  1.00  0.00    -0.117 OA 
HETATM   11  OXT UNL     1      -9.466   7.904  66.059  1.00  0.00    -0.131 OA 
HETATM   12  O   UNL     1      -9.997   4.771  69.170  1.00  0.00    -0.191 OA 
ENDROOT
BRANCH   4  13
HETATM   13  C   UNL     1      -9.457  10.195  67.661  1.00  0.00    -0.148 C  
BRANCH  13  14
HETATM   14  S   UNL     1      -8.945  11.721  68.530  1.00  0.00    -0.082 SA 
BRANCH  14  15
HETATM   15  C   UNL     1     -10.083  12.889  67.974  1.00  0.00    -0.235 A  
HETATM   16  N   UNL     1      -9.994  13.585  66.863  1.00  0.00    -0.250 NA 
HETATM   17  N   UNL     1     -11.056  14.450  66.866  1.00  0.00    -0.315 NA 
HETATM   18  N   UNL     1     -11.220  13.274  68.636  1.00  0.00    -0.258 NA 
HETATM   19  N   UNL     1     -11.803  14.279  67.947  1.00  0.00    -0.359 NA 
BRANCH  18  20
HETATM   20  C   UNL     1     -11.877  12.783  69.835  1.00  0.00    -0.301 C  
BRANCH  20  21
HETATM   21  C   UNL     1     -12.738  13.890  70.470  1.00  0.00    -0.249 C  
BRANCH  21  22
HETATM   22  N   UNL     1     -12.176  14.608  71.637  1.00  0.00    -0.339 NA 
HETATM   23  C   UNL     1     -12.964  14.260  72.833  1.00  0.00    -0.452 C  
HETATM   24  C   UNL     1     -12.197  16.068  71.486  1.00  0.00    -0.422 C  
ENDBRANCH  21  22
ENDBRANCH  20  21
ENDBRANCH  18  20
ENDBRANCH  14  15
ENDBRANCH  13  14
ENDBRANCH   4  13
BRANCH   8  25
HETATM   25  N   UNL     1     -10.551   5.842  72.261  1.00  0.00    -0.209 N  
HETATM   26  C   UNL     1     -10.946   5.041  73.311  1.00  0.00    -0.318 C  
HETATM   27  H   UNL     1      -9.675   6.359  72.336  1.00  0.00     0.000 HD 
HETATM   28  O   UNL     1     -11.923   4.296  73.244  1.00  0.00    -0.079 OA 
BRANCH  26  29
HETATM   29  C   UNL     1     -10.097   5.161  74.560  1.00  0.00    -0.283 C  
BRANCH  29  30
HETATM   30  C   UNL     1      -8.839   5.905  74.285  1.00  0.00    -0.123 A  
HETATM   31  N   UNL     1      -7.326   9.068  74.300  1.00  0.00    -0.386 NA 
HETATM   32  C   UNL     1      -7.635   5.367  73.869  1.00  0.00    -0.094 A  
HETATM   33  S   UNL     1      -6.464   6.604  73.709  1.00  0.00    -0.065 SA 
HETATM   34  H2  UNL     1      -6.379   9.377  74.081  1.00  0.00     0.000 HD 
HETATM   35  H1  UNL     1      -8.020   9.756  74.591  1.00  0.00     0.000 HD 
HETATM   36  N   UNL     1      -8.822   7.281  74.480  1.00  0.00    -0.189 NA 
HETATM   37  C   UNL     1      -7.632   7.761  74.199  1.00  0.00    -0.157 A  
ENDBRANCH  29  30
ENDBRANCH  26  29
ENDBRANCH   8  25
TORSDOF 9
ENDMDL
MODEL      143
REMARK 921   NORMALIZED FREE ENERGY PREDICTED BY IDOCK:   -4.67 KCAL/MOL
REMARK 922        TOTAL FREE ENERGY PREDICTED BY IDOCK:   -9.07 KCAL/MOL
REMARK 923 INTER-LIGAND FREE ENERGY PREDICTED BY IDOCK:   -7.83 KCAL/MOL
REMARK 924 INTRA-LIGAND FREE ENERGY PREDICTED BY IDOCK:   -1.24 KCAL/MOL
REMARK 927      BINDING AFFINITY PREDICTED BY RF-SCORE:    0.00 PKD
ROOT
HETATM    1  C   UNL     1      -7.964  13.315  67.269  1.00  0.00    -0.125 C  
HETATM    2  S   UNL     1      -7.184  13.008  68.870  1.00  0.00     0.005 SA 
HETATM    3  C   UNL     1      -7.898  11.358  69.043  1.00  0.00    -0.043 C  
HETATM    4  C   UNL     1      -9.389  11.265  68.744  1.00  0.00    -0.136 C  
HETATM    5  C   UNL     1      -9.674  14.484  66.993  1.00  0.00    -0.245 C  
HETATM    6  CA  UNL     1     -10.077  12.190  68.009  1.00  0.00    -0.204 C  
HETATM    7  C   UNL     1     -11.575  12.050  67.819  1.00  0.00    -0.330 C  
HETATM    8  CA  UNL     1      -8.153  14.817  66.880  1.00  0.00    -0.048 C  
HETATM    9  N   UNL     1      -9.404  13.243  67.444  1.00  0.00    -0.209 N  
HETATM   10  O   UNL     1     -12.268  13.153  67.490  1.00  0.00    -0.282 OA 
HETATM   11  OXT UNL     1     -12.162  10.984  67.938  1.00  0.00    -0.438 OA 
HETATM   12  O   UNL     1     -10.735  15.067  66.905  1.00  0.00    -0.295 OA 
ENDROOT
BRANCH   4  13
HETATM   13  C   UNL     1     -10.024  10.094  69.503  1.00  0.00    -0.235 C  
BRANCH  13  14
HETATM   14  S   UNL     1      -8.796   9.073  70.395  1.00  0.00    -0.221 SA 
BRANCH  14  15
HETATM   15  C   UNL     1      -9.768   8.139  71.468  1.00  0.00    -0.176 A  
HETATM   16  N   UNL     1     -10.390   8.588  72.535  1.00  0.00    -0.298 NA 
HETATM   17  N   UNL     1     -10.962   7.498  73.134  1.00  0.00    -0.392 NA 
HETATM   18  N   UNL     1      -9.997   6.791  71.370  1.00  0.00    -0.179 NA 
HETATM   19  N   UNL     1     -10.717   6.395  72.442  1.00  0.00    -0.217 NA 
BRANCH  18  20
HETATM   20  C   UNL     1      -9.661   5.804  70.358  1.00  0.00    -0.168 C  
BRANCH  20  21
HETATM   21  C   UNL     1     -10.743   5.764  69.264  1.00  0.00    -0.316 C  
BRANCH  21  22
HETATM   22  N   UNL     1     -10.292   5.815  67.854  1.00  0.00    -0.196 NA 
HETATM   23  C   UNL     1      -8.831   6.012  67.830  1.00  0.00    -0.106 C  
HETATM   24  C   UNL     1     -10.911   6.901  67.084  1.00  0.00    -0.377 C  
ENDBRANCH  21  22
ENDBRANCH  20  21
ENDBRANCH  18  20
ENDBRANCH  14  15
ENDBRANCH  13  14
ENDBRANCH   4  13
BRANCH   8  25
HETATM   25  N   UNL     1      -7.649  15.833  67.852  1.00  0.00    -0.125 N  
HETATM   26  C   UNL     1      -6.339  16.262  67.851  1.00  0.00    -0.131 C  
HETATM   27  H   UNL     1      -8.296  16.223  68.538  1.00  0.00     0.000 HD 
HETATM   28  O   UNL     1      -5.535  15.931  66.980  1.00  0.00    -0.332 OA 
BRANCH  26  29
HETATM   29  C   UNL     1      -5.959  17.156  69.012  1.00  0.00    -0.174 C  
BRANCH  29  30
HETATM   30  C   UNL     1      -6.058  18.593  68.639  1.00  0.00    -0.211 A  
HETATM   31  N   UNL     1      -8.074  21.014  67.100  1.00  0.00    -0.563 NA 
HETATM   32  C   UNL     1      -5.133  19.583  68.911  1.00  0.00    -0.187 A  
HETATM   33  S   UNL     1      -5.689  21.086  68.311  1.00  0.00    -0.330 SA 
HETATM   34  H2  UNL     1      -7.956  22.017  66.959  1.00  0.00     0.000 HD 
HETATM   35  H1  UNL     1      -8.919  20.559  66.756  1.00  0.00     0.000 HD 
HETATM   36  N   UNL     1      -7.196  19.031  67.969  1.00  0.00    -0.240 NA 
HETATM   37  C   UNL     1      -7.111  20.320  67.734  1.00  0.00    -0.304 A  
ENDBRANCH  29  30
ENDBRANCH  26  29
ENDBRANCH   8  25
TORSDOF 9
ENDMDL
MODEL      144
REMARK 921   NORMALIZED FREE ENERGY PREDICTED BY IDOCK:   -4.66 KCAL/MOL
REMARK 922        TOTAL FREE ENERGY PREDICTED BY IDOCK:   -9.06 KCAL/MOL
REMARK 923 INTER-LIGAND FREE ENERGY PREDICTED BY IDOCK:   -7.89 KCAL/MOL
REMARK 924 INTRA-LIGAND FREE ENERGY PREDICTED BY IDOCK:   -1.16 KCAL/MOL
REMARK 927      BINDING AFFINITY PREDICTED BY RF-SCORE:    0.00 PKD
ROOT
HETATM    1  C   UNL     1      -9.958   9.710  69.412  1.00  0.00    -0.197 C  
HETATM    2  S   UNL     1     -11.275  10.418  70.427  1.00  0.00    -0.296 SA 
HETATM    3  C   UNL     1     -11.170   9.128  71.687  1.00  0.00    -0.377 C  
HETATM    4  C   UNL     1     -11.126   7.703  71.149  1.00  0.00    -0.269 C  
HETATM    5  C   UNL     1     -10.278   8.581  67.682  1.00  0.00    -0.236 C  
HETATM    6  CA  UNL     1     -10.768   7.384  69.869  1.00  0.00    -0.243 C  
HETATM    7  C   UNL     1     -10.817   5.942  69.403  1.00  0.00    -0.352 C  
HETATM    8  CA  UNL     1      -9.981  10.099  67.899  1.00  0.00    -0.162 C  
HETATM    9  N   UNL     1     -10.363   8.374  69.011  1.00  0.00    -0.218 N  
HETATM   10  O   UNL     1     -10.891   5.715  68.081  1.00  0.00    -0.202 OA 
HETATM   11  OXT UNL     1     -10.778   4.993  70.174  1.00  0.00    -0.176 OA 
HETATM   12  O   UNL     1     -10.521   7.831  66.761  1.00  0.00    -0.321 OA 
ENDROOT
BRANCH   4  13
HETATM   13  C   UNL     1     -11.681   6.715  72.182  1.00  0.00    -0.304 C  
BRANCH  13  14
HETATM   14  S   UNL     1     -10.533   6.419  73.575  1.00  0.00    -0.292 SA 
BRANCH  14  15
HETATM   15  C   UNL     1      -9.107   7.259  73.094  1.00  0.00    -0.153 A  
HETATM   16  N   UNL     1      -8.779   8.484  73.441  1.00  0.00    -0.334 NA 
HETATM   17  N   UNL     1      -7.625   8.778  72.765  1.00  0.00    -0.366 NA 
HETATM   18  N   UNL     1      -8.138   6.773  72.255  1.00  0.00    -0.099 NA 
HETATM   19  N   UNL     1      -7.232   7.749  72.029  1.00  0.00    -0.066 NA 
BRANCH  18  20
HETATM   20  C   UNL     1      -7.916   5.468  71.657  1.00  0.00    -0.117 C  
BRANCH  20  21
HETATM   21  C   UNL     1      -6.852   5.556  70.549  1.00  0.00    -0.049 C  
BRANCH  21  22
HETATM   22  N   UNL     1      -7.272   5.221  69.169  1.00  0.00    -0.057 NA 
HETATM   23  C   UNL     1      -6.368   4.185  68.637  1.00  0.00    -0.036 C  
HETATM   24  C   UNL     1      -7.238   6.368  68.255  1.00  0.00    -0.085 C  
ENDBRANCH  21  22
ENDBRANCH  20  21
ENDBRANCH  18  20
ENDBRANCH  14  15
ENDBRANCH  13  14
ENDBRANCH   4  13
BRANCH   8  25
HETATM   25  N   UNL     1     -11.064  11.029  67.458  1.00  0.00    -0.286 N  
HETATM   26  C   UNL     1     -10.918  11.859  66.367  1.00  0.00    -0.292 C  
HETATM   27  H   UNL     1     -11.940  11.050  67.981  1.00  0.00     0.000 HD 
HETATM   28  O   UNL     1      -9.943  11.802  65.619  1.00  0.00    -0.227 OA 
BRANCH  26  29
HETATM   29  C   UNL     1     -12.039  12.858  66.171  1.00  0.00    -0.458 C  
BRANCH  29  30
HETATM   30  C   UNL     1     -11.849  14.056  67.032  1.00  0.00    -0.428 A  
HETATM   31  N   UNL     1     -12.068  15.285  70.308  1.00  0.00    -0.325 NA 
HETATM   32  C   UNL     1     -11.392  15.298  66.632  1.00  0.00    -0.170 A  
HETATM   33  S   UNL     1     -11.313  16.355  67.975  1.00  0.00    -0.046 SA 
HETATM   34  H2  UNL     1     -11.856  16.196  70.715  1.00  0.00     0.000 HD 
HETATM   35  H1  UNL     1     -12.412  14.538  70.911  1.00  0.00     0.000 HD 
HETATM   36  N   UNL     1     -12.124  13.951  68.391  1.00  0.00    -0.349 NA 
HETATM   37  C   UNL     1     -11.890  15.097  68.988  1.00  0.00    -0.304 A  
ENDBRANCH  29  30
ENDBRANCH  26  29
ENDBRANCH   8  25
TORSDOF 9
ENDMDL
MODEL      145
REMARK 921   NORMALIZED FREE ENERGY PREDICTED BY IDOCK:   -4.65 KCAL/MOL
REMARK 922        TOTAL FREE ENERGY PREDICTED BY IDOCK:   -9.04 KCAL/MOL
REMARK 923 INTER-LIGAND FREE ENERGY PREDICTED BY IDOCK:   -6.94 KCAL/MOL
REMARK 924 INTRA-LIGAND FREE ENERGY PREDICTED BY IDOCK:   -2.09 KCAL/MOL
REMARK 927      BINDING AFFINITY PREDICTED BY RF-SCORE:    0.00 PKD
ROOT
HETATM    1  C   UNL     1     -12.055  11.500  68.350  1.00  0.00    -0.049 C  
HETATM    2  S   UNL     1     -10.888  12.391  67.296  1.00  0.00    -0.252 SA 
HETATM    3  C   UNL     1     -10.665  11.007  66.157  1.00  0.00    -0.194 C  
HETATM    4  C   UNL     1     -10.418   9.658  66.820  1.00  0.00    -0.257 C  
HETATM    5  C   UNL     1     -11.559  10.619  70.180  1.00  0.00    -0.330 C  
HETATM    6  CA  UNL     1     -10.744   9.378  68.118  1.00  0.00    -0.178 C  
HETATM    7  C   UNL     1     -10.399   8.026  68.713  1.00  0.00    -0.206 C  
HETATM    8  CA  UNL     1     -12.171  12.011  69.822  1.00  0.00    -0.159 C  
HETATM    9  N   UNL     1     -11.384  10.324  68.876  1.00  0.00    -0.209 N  
HETATM   10  O   UNL     1     -10.325   7.934  70.052  1.00  0.00    -0.211 OA 
HETATM   11  OXT UNL     1     -10.203   7.030  68.031  1.00  0.00    -0.164 OA 
HETATM   12  O   UNL     1     -11.192  10.021  71.169  1.00  0.00    -0.350 OA 
ENDROOT
BRANCH   4  13
HETATM   13  C   UNL     1      -9.626   8.732  65.890  1.00  0.00    -0.184 C  
BRANCH  13  14
HETATM   14  S   UNL     1      -7.937   9.344  65.544  1.00  0.00    -0.114 SA 
BRANCH  14  15
HETATM   15  C   UNL     1      -7.195   9.348  67.099  1.00  0.00    -0.087 A  
HETATM   16  N   UNL     1      -6.731   8.296  67.735  1.00  0.00    -0.065 NA 
HETATM   17  N   UNL     1      -6.315   8.742  68.962  1.00  0.00    -0.043 NA 
HETATM   18  N   UNL     1      -7.019  10.449  67.897  1.00  0.00    -0.081 NA 
HETATM   19  N   UNL     1      -6.499  10.049  69.077  1.00  0.00    -0.044 NA 
BRANCH  18  20
HETATM   20  C   UNL     1      -7.236  11.869  67.680  1.00  0.00    -0.112 C  
BRANCH  20  21
HETATM   21  C   UNL     1      -5.897  12.629  67.702  1.00  0.00    -0.140 C  
BRANCH  21  22
HETATM   22  N   UNL     1      -5.935  14.087  67.451  1.00  0.00    -0.323 NA 
HETATM   23  C   UNL     1      -5.162  14.770  68.505  1.00  0.00    -0.103 C  
HETATM   24  C   UNL     1      -7.294  14.643  67.450  1.00  0.00    -0.168 C  
ENDBRANCH  21  22
ENDBRANCH  20  21
ENDBRANCH  18  20
ENDBRANCH  14  15
ENDBRANCH  13  14
ENDBRANCH   4  13
BRANCH   8  25
HETATM   25  N   UNL     1     -11.332  13.190  70.195  1.00  0.00    -0.487 N  
HETATM   26  C   UNL     1     -11.870  14.447  70.366  1.00  0.00    -0.312 C  
HETATM   27  H   UNL     1     -10.329  13.060  70.327  1.00  0.00     0.000 HD 
HETATM   28  O   UNL     1     -13.082  14.656  70.344  1.00  0.00    -0.291 OA 
BRANCH  26  29
HETATM   29  C   UNL     1     -10.856  15.554  70.565  1.00  0.00    -0.353 C  
BRANCH  29  30
HETATM   30  C   UNL     1     -10.469  16.169  69.267  1.00  0.00    -0.267 A  
HETATM   31  N   UNL     1     -10.984  16.089  65.799  1.00  0.00    -0.204 NA 
HETATM   32  C   UNL     1      -9.592  17.221  69.079  1.00  0.00    -0.171 A  
HETATM   33  S   UNL     1      -9.479  17.601  67.415  1.00  0.00    -0.260 SA 
HETATM   34  H2  UNL     1     -10.607  16.652  65.036  1.00  0.00     0.000 HD 
HETATM   35  H1  UNL     1     -11.646  15.343  65.589  1.00  0.00     0.000 HD 
HETATM   36  N   UNL     1     -11.045  15.680  68.099  1.00  0.00    -0.316 NA 
HETATM   37  C   UNL     1     -10.595  16.347  67.061  1.00  0.00    -0.260 A  
ENDBRANCH  29  30
ENDBRANCH  26  29
ENDBRANCH   8  25
TORSDOF 9
ENDMDL
MODEL      146
REMARK 921   NORMALIZED FREE ENERGY PREDICTED BY IDOCK:   -4.61 KCAL/MOL
REMARK 922        TOTAL FREE ENERGY PREDICTED BY IDOCK:   -8.97 KCAL/MOL
REMARK 923 INTER-LIGAND FREE ENERGY PREDICTED BY IDOCK:   -7.11 KCAL/MOL
REMARK 924 INTRA-LIGAND FREE ENERGY PREDICTED BY IDOCK:   -1.86 KCAL/MOL
REMARK 927      BINDING AFFINITY PREDICTED BY RF-SCORE:    0.00 PKD
ROOT
HETATM    1  C   UNL     1     -10.259   6.054  69.202  1.00  0.00    -0.204 C  
HETATM    2  S   UNL     1     -11.002   6.810  67.738  1.00  0.00    -0.209 SA 
HETATM    3  C   UNL     1      -9.633   6.351  66.651  1.00  0.00    -0.157 C  
HETATM    4  C   UNL     1      -8.244   6.648  67.202  1.00  0.00    -0.113 C  
HETATM    5  C   UNL     1      -9.264   7.115  70.703  1.00  0.00    -0.158 C  
HETATM    6  CA  UNL     1      -7.977   6.839  68.529  1.00  0.00    -0.119 C  
HETATM    7  C   UNL     1      -6.573   7.196  68.978  1.00  0.00    -0.044 C  
HETATM    8  CA  UNL     1     -10.739   6.619  70.578  1.00  0.00    -0.247 C  
HETATM    9  N   UNL     1      -8.983   6.704  69.450  1.00  0.00    -0.134 N  
HETATM   10  O   UNL     1      -6.433   7.792  70.174  1.00  0.00    -0.033 OA 
HETATM   11  OXT UNL     1      -5.579   6.954  68.308  1.00  0.00    -0.018 OA 
HETATM   12  O   UNL     1      -8.591   7.761  71.478  1.00  0.00    -0.112 OA 
ENDROOT
BRANCH   4  13
HETATM   13  C   UNL     1      -7.240   6.854  66.062  1.00  0.00    -0.074 C  
BRANCH  13  14
HETATM   14  S   UNL     1      -7.978   6.599  64.407  1.00  0.00    -0.061 SA 
BRANCH  14  15
HETATM   15  C   UNL     1      -7.704   8.107  63.619  1.00  0.00    -0.143 A  
HETATM   16  N   UNL     1      -6.812   8.336  62.681  1.00  0.00    -0.090 NA 
HETATM   17  N   UNL     1      -6.877   9.676  62.409  1.00  0.00    -0.098 NA 
HETATM   18  N   UNL     1      -8.359   9.280  63.889  1.00  0.00    -0.169 NA 
HETATM   19  N   UNL     1      -7.806  10.265  63.148  1.00  0.00    -0.151 NA 
BRANCH  18  20
HETATM   20  C   UNL     1      -9.494   9.603  64.736  1.00  0.00    -0.188 C  
BRANCH  20  21
HETATM   21  C   UNL     1     -10.134  10.932  64.297  1.00  0.00    -0.351 C  
BRANCH  21  22
HETATM   22  N   UNL     1     -10.038  12.079  65.229  1.00  0.00    -0.256 NA 
HETATM   23  C   UNL     1      -9.081  11.742  66.298  1.00  0.00    -0.206 C  
HETATM   24  C   UNL     1     -11.319  12.426  65.857  1.00  0.00    -0.356 C  
ENDBRANCH  21  22
ENDBRANCH  20  21
ENDBRANCH  18  20
ENDBRANCH  14  15
ENDBRANCH  13  14
ENDBRANCH   4  13
BRANCH   8  25
HETATM   25  N   UNL     1     -11.773   7.697  70.540  1.00  0.00    -0.458 N  
HETATM   26  C   UNL     1     -12.270   8.275  71.688  1.00  0.00    -0.313 C  
HETATM   27  H   UNL     1     -12.122   8.015  69.635  1.00  0.00     0.000 HD 
HETATM   28  O   UNL     1     -11.811   8.032  72.803  1.00  0.00    -0.372 OA 
BRANCH  26  29
HETATM   29  C   UNL     1     -13.434   9.220  71.475  1.00  0.00    -0.437 C  
BRANCH  29  30
HETATM   30  C   UNL     1     -12.963  10.614  71.258  1.00  0.00    -0.414 A  
HETATM   31  N   UNL     1     -10.852  12.653  69.339  1.00  0.00    -0.446 NA 
HETATM   32  C   UNL     1     -13.383  11.743  71.935  1.00  0.00    -0.296 A  
HETATM   33  S   UNL     1     -12.582  13.126  71.326  1.00  0.00    -0.201 SA 
HETATM   34  H2  UNL     1     -10.683  13.659  69.340  1.00  0.00     0.000 HD 
HETATM   35  H1  UNL     1     -10.348  12.063  68.678  1.00  0.00     0.000 HD 
HETATM   36  N   UNL     1     -12.020  10.853  70.264  1.00  0.00    -0.329 NA 
HETATM   37  C   UNL     1     -11.735  12.133  70.212  1.00  0.00    -0.153 A  
ENDBRANCH  29  30
ENDBRANCH  26  29
ENDBRANCH   8  25
TORSDOF 9
ENDMDL
MODEL      147
REMARK 921   NORMALIZED FREE ENERGY PREDICTED BY IDOCK:   -4.59 KCAL/MOL
REMARK 922        TOTAL FREE ENERGY PREDICTED BY IDOCK:   -8.95 KCAL/MOL
REMARK 923 INTER-LIGAND FREE ENERGY PREDICTED BY IDOCK:   -8.06 KCAL/MOL
REMARK 924 INTRA-LIGAND FREE ENERGY PREDICTED BY IDOCK:   -0.89 KCAL/MOL
REMARK 927      BINDING AFFINITY PREDICTED BY RF-SCORE:    0.00 PKD
ROOT
HETATM    1  C   UNL     1      -9.961  12.171  67.670  1.00  0.00    -0.197 C  
HETATM    2  S   UNL     1      -9.679  10.609  68.534  1.00  0.00    -0.181 SA 
HETATM    3  C   UNL     1      -8.585   9.954  67.254  1.00  0.00    -0.125 C  
HETATM    4  C   UNL     1      -9.098  10.105  65.828  1.00  0.00    -0.206 C  
HETATM    5  C   UNL     1     -11.679  12.616  66.565  1.00  0.00    -0.400 C  
HETATM    6  CA  UNL     1     -10.058  11.004  65.456  1.00  0.00    -0.261 C  
HETATM    7  C   UNL     1     -10.555  11.037  64.023  1.00  0.00    -0.324 C  
HETATM    8  CA  UNL     1     -11.278  12.927  68.042  1.00  0.00    -0.268 C  
HETATM    9  N   UNL     1     -10.568  11.875  66.384  1.00  0.00    -0.240 N  
HETATM   10  O   UNL     1     -11.756  11.591  63.791  1.00  0.00    -0.357 OA 
HETATM   11  OXT UNL     1      -9.905  10.597  63.084  1.00  0.00    -0.324 OA 
HETATM   12  O   UNL     1     -12.636  12.774  65.837  1.00  0.00    -0.518 OA 
ENDROOT
BRANCH   4  13
HETATM   13  C   UNL     1      -8.508   9.019  64.920  1.00  0.00    -0.178 C  
BRANCH  13  14
HETATM   14  S   UNL     1      -7.798   7.616  65.856  1.00  0.00    -0.109 SA 
BRANCH  14  15
HETATM   15  C   UNL     1      -9.152   6.578  66.095  1.00  0.00    -0.124 A  
HETATM   16  N   UNL     1     -10.213   6.850  66.820  1.00  0.00    -0.220 NA 
HETATM   17  N   UNL     1     -10.988   5.720  66.806  1.00  0.00    -0.248 NA 
HETATM   18  N   UNL     1      -9.288   5.313  65.586  1.00  0.00    -0.146 NA 
HETATM   19  N   UNL     1     -10.428   4.772  66.069  1.00  0.00    -0.305 NA 
BRANCH  18  20
HETATM   20  C   UNL     1      -8.497   4.537  64.646  1.00  0.00    -0.130 C  
BRANCH  20  21
HETATM   21  C   UNL     1      -8.228   3.128  65.202  1.00  0.00    -0.094 C  
BRANCH  21  22
HETATM   22  N   UNL     1      -7.044   2.951  66.074  1.00  0.00    -0.060 NA 
HETATM   23  C   UNL     1      -7.490   2.926  67.480  1.00  0.00    -0.057 C  
HETATM   24  C   UNL     1      -6.051   4.023  65.931  1.00  0.00    -0.031 C  
ENDBRANCH  21  22
ENDBRANCH  20  21
ENDBRANCH  18  20
ENDBRANCH  14  15
ENDBRANCH  13  14
ENDBRANCH   4  13
BRANCH   8  25
HETATM   25  N   UNL     1     -12.145  12.298  69.083  1.00  0.00    -0.225 N  
HETATM   26  C   UNL     1     -12.248  12.811  70.358  1.00  0.00    -0.293 C  
HETATM   27  H   UNL     1     -12.678  11.462  68.843  1.00  0.00     0.000 HD 
HETATM   28  O   UNL     1     -11.734  13.881  70.684  1.00  0.00    -0.246 OA 
BRANCH  26  29
HETATM   29  C   UNL     1     -13.026  11.951  71.332  1.00  0.00    -0.385 C  
BRANCH  29  30
HETATM   30  C   UNL     1     -12.570  10.536  71.283  1.00  0.00    -0.426 A  
HETATM   31  N   UNL     1     -13.625   7.198  71.088  1.00  0.00    -0.514 NA 
HETATM   32  C   UNL     1     -11.263  10.089  71.276  1.00  0.00    -0.200 A  
HETATM   33  S   UNL     1     -11.227   8.381  71.186  1.00  0.00    -0.273 SA 
HETATM   34  H2  UNL     1     -13.111   6.318  71.042  1.00  0.00     0.000 HD 
HETATM   35  H1  UNL     1     -14.644   7.182  71.076  1.00  0.00     0.000 HD 
HETATM   36  N   UNL     1     -13.527   9.530  71.209  1.00  0.00    -0.343 NA 
HETATM   37  C   UNL     1     -12.942   8.355  71.164  1.00  0.00    -0.048 A  
ENDBRANCH  29  30
ENDBRANCH  26  29
ENDBRANCH   8  25
TORSDOF 9
ENDMDL
MODEL      148
REMARK 921   NORMALIZED FREE ENERGY PREDICTED BY IDOCK:   -4.59 KCAL/MOL
REMARK 922        TOTAL FREE ENERGY PREDICTED BY IDOCK:   -8.95 KCAL/MOL
REMARK 923 INTER-LIGAND FREE ENERGY PREDICTED BY IDOCK:   -7.62 KCAL/MOL
REMARK 924 INTRA-LIGAND FREE ENERGY PREDICTED BY IDOCK:   -1.33 KCAL/MOL
REMARK 927      BINDING AFFINITY PREDICTED BY RF-SCORE:    0.00 PKD
ROOT
HETATM    1  C   UNL     1      -9.239   8.716  66.285  1.00  0.00    -0.202 C  
HETATM    2  S   UNL     1     -10.292   9.025  67.720  1.00  0.00    -0.246 SA 
HETATM    3  C   UNL     1     -10.193  10.822  67.566  1.00  0.00    -0.196 C  
HETATM    4  C   UNL     1      -8.789  11.374  67.353  1.00  0.00    -0.150 C  
HETATM    5  C   UNL     1      -7.218   8.193  66.393  1.00  0.00    -0.079 C  
HETATM    6  CA  UNL     1      -7.740  10.629  66.892  1.00  0.00    -0.122 C  
HETATM    7  C   UNL     1      -6.360  11.248  66.775  1.00  0.00    -0.139 C  
HETATM    8  CA  UNL     1      -8.514   7.332  66.256  1.00  0.00    -0.134 C  
HETATM    9  N   UNL     1      -7.942   9.321  66.535  1.00  0.00    -0.103 N  
HETATM   10  O   UNL     1      -5.304  10.419  66.750  1.00  0.00    -0.040 OA 
HETATM   11  OXT UNL     1      -6.179  12.455  66.691  1.00  0.00    -0.086 OA 
HETATM   12  O   UNL     1      -6.024   8.015  66.508  1.00  0.00    -0.040 OA 
ENDROOT
BRANCH   4  13
HETATM   13  C   UNL     1      -8.688  12.815  67.870  1.00  0.00    -0.185 C  
BRANCH  13  14
HETATM   14  S   UNL     1      -9.888  13.943  67.076  1.00  0.00    -0.264 SA 
BRANCH  14  15
HETATM   15  C   UNL     1     -10.902  14.421  68.385  1.00  0.00    -0.248 A  
HETATM   16  N   UNL     1     -11.970  13.781  68.807  1.00  0.00    -0.361 NA 
HETATM   17  N   UNL     1     -12.515  14.554  69.797  1.00  0.00    -0.270 NA 
HETATM   18  N   UNL     1     -10.750  15.553  69.142  1.00  0.00    -0.236 NA 
HETATM   19  N   UNL     1     -11.789  15.643  70.000  1.00  0.00    -0.351 NA 
BRANCH  18  20
HETATM   20  C   UNL     1      -9.710  16.566  69.202  1.00  0.00    -0.241 C  
BRANCH  20  21
HETATM   21  C   UNL     1     -10.262  17.933  68.757  1.00  0.00    -0.360 C  
BRANCH  21  22
HETATM   22  N   UNL     1      -9.575  18.615  67.637  1.00  0.00    -0.295 NA 
HETATM   23  C   UNL     1      -8.388  19.315  68.164  1.00  0.00    -0.323 C  
HETATM   24  C   UNL     1     -10.418  19.602  66.952  1.00  0.00    -0.488 C  
ENDBRANCH  21  22
ENDBRANCH  20  21
ENDBRANCH  18  20
ENDBRANCH  14  15
ENDBRANCH  13  14
ENDBRANCH   4  13
BRANCH   8  25
HETATM   25  N   UNL     1      -8.786   6.405  67.396  1.00  0.00    -0.105 N  
HETATM   26  C   UNL     1      -9.628   5.321  67.274  1.00  0.00    -0.137 C  
HETATM   27  H   UNL     1      -8.334   6.581  68.294  1.00  0.00     0.000 HD 
HETATM   28  O   UNL     1     -10.109   4.976  66.195  1.00  0.00    -0.197 OA 
BRANCH  26  29
HETATM   29  C   UNL     1      -9.928   4.596  68.569  1.00  0.00    -0.130 C  
BRANCH  29  30
HETATM   30  C   UNL     1     -10.222   5.556  69.666  1.00  0.00    -0.266 A  
HETATM   31  N   UNL     1     -12.543   7.887  70.881  1.00  0.00    -0.518 NA 
HETATM   32  C   UNL     1      -9.444   5.799  70.782  1.00  0.00    -0.165 A  
HETATM   33  S   UNL     1     -10.198   6.966  71.781  1.00  0.00    -0.188 SA 
HETATM   34  H2  UNL     1     -12.563   8.461  71.724  1.00  0.00     0.000 HD 
HETATM   35  H1  UNL     1     -13.315   7.948  70.218  1.00  0.00     0.000 HD 
HETATM   36  N   UNL     1     -11.405   6.285  69.616  1.00  0.00    -0.432 NA 
HETATM   37  C   UNL     1     -11.498   7.067  70.666  1.00  0.00    -0.324 A  
ENDBRANCH  29  30
ENDBRANCH  26  29
ENDBRANCH   8  25
TORSDOF 9
ENDMDL
MODEL      149
REMARK 921   NORMALIZED FREE ENERGY PREDICTED BY IDOCK:   -4.58 KCAL/MOL
REMARK 922        TOTAL FREE ENERGY PREDICTED BY IDOCK:   -8.93 KCAL/MOL
REMARK 923 INTER-LIGAND FREE ENERGY PREDICTED BY IDOCK:   -7.32 KCAL/MOL
REMARK 924 INTRA-LIGAND FREE ENERGY PREDICTED BY IDOCK:   -1.61 KCAL/MOL
REMARK 927      BINDING AFFINITY PREDICTED BY RF-SCORE:    0.00 PKD
ROOT
HETATM    1  C   UNL     1      -9.749  10.529  65.427  1.00  0.00    -0.257 C  
HETATM    2  S   UNL     1     -11.033  10.220  66.660  1.00  0.00     0.153 SA 
HETATM    3  C   UNL     1     -11.186  11.960  67.121  1.00  0.00    -0.319 C  
HETATM    4  C   UNL     1      -9.866  12.681  67.368  1.00  0.00    -0.205 C  
HETATM    5  C   UNL     1      -7.709  10.192  65.735  1.00  0.00    -0.136 C  
HETATM    6  CA  UNL     1      -8.661  12.244  66.894  1.00  0.00    -0.197 C  
HETATM    7  C   UNL     1      -7.389  12.991  67.246  1.00  0.00    -0.057 C  
HETATM    8  CA  UNL     1      -8.826   9.315  65.085  1.00  0.00    -0.198 C  
HETATM    9  N   UNL     1      -8.609  11.128  66.099  1.00  0.00    -0.176 N  
HETATM   10  O   UNL     1      -6.226  12.325  67.150  1.00  0.00    -0.150 OA 
HETATM   11  OXT UNL     1      -7.383  14.164  67.595  1.00  0.00    -0.149 OA 
HETATM   12  O   UNL     1      -6.531  10.098  66.007  1.00  0.00    -0.085 OA 
ENDROOT
BRANCH   4  13
HETATM   13  C   UNL     1     -10.061  13.855  68.335  1.00  0.00    -0.237 C  
BRANCH  13  14
HETATM   14  S   UNL     1     -11.815  14.331  68.535  1.00  0.00    -0.330 SA 
BRANCH  14  15
HETATM   15  C   UNL     1     -11.914  14.777  70.196  1.00  0.00    -0.312 A  
HETATM   16  N   UNL     1     -11.525  15.921  70.712  1.00  0.00    -0.379 NA 
HETATM   17  N   UNL     1     -11.702  15.811  72.066  1.00  0.00    -0.442 NA 
HETATM   18  N   UNL     1     -12.382  13.981  71.210  1.00  0.00    -0.360 NA 
HETATM   19  N   UNL     1     -12.210  14.629  72.383  1.00  0.00    -0.273 NA 
BRANCH  18  20
HETATM   20  C   UNL     1     -13.028  12.680  71.225  1.00  0.00    -0.214 C  
BRANCH  20  21
HETATM   21  C   UNL     1     -12.106  11.613  70.609  1.00  0.00    -0.335 C  
BRANCH  21  22
HETATM   22  N   UNL     1     -12.438  10.193  70.865  1.00  0.00    -0.338 NA 
HETATM   23  C   UNL     1     -13.372  10.122  72.004  1.00  0.00    -0.387 C  
HETATM   24  C   UNL     1     -11.265   9.371  71.187  1.00  0.00    -0.357 C  
ENDBRANCH  21  22
ENDBRANCH  20  21
ENDBRANCH  18  20
ENDBRANCH  14  15
ENDBRANCH  13  14
ENDBRANCH   4  13
BRANCH   8  25
HETATM   25  N   UNL     1      -9.116   8.029  65.788  1.00  0.00    -0.362 N  
HETATM   26  C   UNL     1      -8.428   6.869  65.506  1.00  0.00    -0.116 C  
HETATM   27  H   UNL     1      -9.846   8.010  66.501  1.00  0.00     0.000 HD 
HETATM   28  O   UNL     1      -7.457   6.843  64.751  1.00  0.00    -0.082 OA 
BRANCH  26  29
HETATM   29  C   UNL     1      -8.969   5.626  66.180  1.00  0.00    -0.153 C  
BRANCH  29  30
HETATM   30  C   UNL     1      -9.228   5.867  67.625  1.00  0.00    -0.104 A  
HETATM   31  N   UNL     1      -8.122   7.573  70.482  1.00  0.00    -0.105 NA 
HETATM   32  C   UNL     1     -10.266   5.350  68.376  1.00  0.00    -0.163 A  
HETATM   33  S   UNL     1     -10.171   5.925  69.984  1.00  0.00    -0.246 SA 
HETATM   34  H2  UNL     1      -8.481   7.619  71.435  1.00  0.00     0.000 HD 
HETATM   35  H1  UNL     1      -7.284   8.101  70.238  1.00  0.00     0.000 HD 
HETATM   36  N   UNL     1      -8.375   6.715  68.323  1.00  0.00    -0.117 NA 
HETATM   37  C   UNL     1      -8.763   6.814  69.573  1.00  0.00    -0.133 A  
ENDBRANCH  29  30
ENDBRANCH  26  29
ENDBRANCH   8  25
TORSDOF 9
ENDMDL
MODEL      150
REMARK 921   NORMALIZED FREE ENERGY PREDICTED BY IDOCK:   -4.58 KCAL/MOL
REMARK 922        TOTAL FREE ENERGY PREDICTED BY IDOCK:   -8.93 KCAL/MOL
REMARK 923 INTER-LIGAND FREE ENERGY PREDICTED BY IDOCK:   -7.44 KCAL/MOL
REMARK 924 INTRA-LIGAND FREE ENERGY PREDICTED BY IDOCK:   -1.50 KCAL/MOL
REMARK 927      BINDING AFFINITY PREDICTED BY RF-SCORE:    0.00 PKD
ROOT
HETATM    1  C   UNL     1     -10.900   9.063  67.119  1.00  0.00    -0.009 C  
HETATM    2  S   UNL     1     -10.822  10.319  68.415  1.00  0.00    -0.251 SA 
HETATM    3  C   UNL     1     -11.467  11.633  67.356  1.00  0.00    -0.285 C  
HETATM    4  C   UNL     1     -10.820  11.729  65.980  1.00  0.00    -0.343 C  
HETATM    5  C   UNL     1      -9.254   8.404  66.012  1.00  0.00    -0.187 C  
HETATM    6  CA  UNL     1     -10.132  10.706  65.390  1.00  0.00    -0.291 C  
HETATM    7  C   UNL     1      -9.465  10.915  64.045  1.00  0.00    -0.262 C  
HETATM    8  CA  UNL     1      -9.942   7.841  67.295  1.00  0.00    -0.212 C  
HETATM    9  N   UNL     1     -10.051   9.491  66.020  1.00  0.00    -0.283 N  
HETATM   10  O   UNL     1      -8.465  10.082  63.707  1.00  0.00    -0.154 OA 
HETATM   11  OXT UNL     1      -9.806  11.791  63.262  1.00  0.00    -0.392 OA 
HETATM   12  O   UNL     1      -8.293   8.148  65.316  1.00  0.00    -0.145 OA 
ENDROOT
BRANCH   4  13
HETATM   13  C   UNL     1     -10.915  13.158  65.433  1.00  0.00    -0.279 C  
BRANCH  13  14
HETATM   14  S   UNL     1     -11.735  14.312  66.592  1.00  0.00    -0.409 SA 
BRANCH  14  15
HETATM   15  C   UNL     1     -10.534  15.518  66.859  1.00  0.00    -0.301 A  
HETATM   16  N   UNL     1     -10.615  16.780  66.503  1.00  0.00    -0.250 NA 
HETATM   17  N   UNL     1      -9.413  17.350  66.827  1.00  0.00    -0.264 NA 
HETATM   18  N   UNL     1      -9.314  15.314  67.452  1.00  0.00    -0.196 NA 
HETATM   19  N   UNL     1      -8.607  16.464  67.393  1.00  0.00    -0.175 NA 
BRANCH  18  20
HETATM   20  C   UNL     1      -8.724  14.170  68.125  1.00  0.00    -0.181 C  
BRANCH  20  21
HETATM   21  C   UNL     1      -7.293  14.495  68.587  1.00  0.00    -0.128 C  
BRANCH  21  22
HETATM   22  N   UNL     1      -6.194  14.266  67.621  1.00  0.00    -0.308 NA 
HETATM   23  C   UNL     1      -5.531  12.991  67.951  1.00  0.00    -0.116 C  
HETATM   24  C   UNL     1      -5.177  15.324  67.633  1.00  0.00     0.011 C  
ENDBRANCH  21  22
ENDBRANCH  20  21
ENDBRANCH  18  20
ENDBRANCH  14  15
ENDBRANCH  13  14
ENDBRANCH   4  13
BRANCH   8  25
HETATM   25  N   UNL     1      -9.088   7.825  68.521  1.00  0.00    -0.133 N  
HETATM   26  C   UNL     1      -8.607   6.654  69.064  1.00  0.00    -0.130 C  
HETATM   27  H   UNL     1      -8.854   8.711  68.970  1.00  0.00     0.000 HD 
HETATM   28  O   UNL     1      -8.744   5.563  68.511  1.00  0.00    -0.105 OA 
BRANCH  26  29
HETATM   29  C   UNL     1      -7.911   6.808  70.400  1.00  0.00    -0.109 C  
BRANCH  29  30
HETATM   30  C   UNL     1      -8.895   6.901  71.512  1.00  0.00    -0.132 A  
HETATM   31  N   UNL     1     -12.294   7.251  72.299  1.00  0.00    -0.497 NA 
HETATM   32  C   UNL     1      -8.623   6.825  72.865  1.00  0.00    -0.116 A  
HETATM   33  S   UNL     1     -10.073   6.957  73.763  1.00  0.00    -0.361 SA 
HETATM   34  H2  UNL     1     -12.794   7.271  73.188  1.00  0.00     0.000 HD 
HETATM   35  H1  UNL     1     -12.818   7.341  71.429  1.00  0.00     0.000 HD 
HETATM   36  N   UNL     1     -10.241   7.054  71.199  1.00  0.00    -0.195 NA 
HETATM   37  C   UNL     1     -10.956   7.107  72.300  1.00  0.00    -0.243 A  
ENDBRANCH  29  30
ENDBRANCH  26  29
ENDBRANCH   8  25
TORSDOF 9
ENDMDL
MODEL      151
REMARK 921   NORMALIZED FREE ENERGY PREDICTED BY IDOCK:   -4.58 KCAL/MOL
REMARK 922        TOTAL FREE ENERGY PREDICTED BY IDOCK:   -8.93 KCAL/MOL
REMARK 923 INTER-LIGAND FREE ENERGY PREDICTED BY IDOCK:   -8.12 KCAL/MOL
REMARK 924 INTRA-LIGAND FREE ENERGY PREDICTED BY IDOCK:   -0.81 KCAL/MOL
REMARK 927      BINDING AFFINITY PREDICTED BY RF-SCORE:    0.00 PKD
ROOT
HETATM    1  C   UNL     1     -10.699  13.024  68.304  1.00  0.00    -0.245 C  
HETATM    2  S   UNL     1     -11.010  14.010  69.786  1.00  0.00     0.127 SA 
HETATM    3  C   UNL     1     -10.028  15.413  69.212  1.00  0.00    -0.256 C  
HETATM    4  C   UNL     1      -8.658  15.054  68.650  1.00  0.00    -0.174 C  
HETATM    5  C   UNL     1      -9.310  11.466  68.192  1.00  0.00    -0.181 C  
HETATM    6  CA  UNL     1      -8.322  13.807  68.203  1.00  0.00    -0.165 C  
HETATM    7  C   UNL     1      -6.911  13.526  67.722  1.00  0.00    -0.159 C  
HETATM    8  CA  UNL     1     -10.846  11.477  68.472  1.00  0.00    -0.215 C  
HETATM    9  N   UNL     1      -9.266  12.813  68.192  1.00  0.00    -0.210 N  
HETATM   10  O   UNL     1      -6.498  12.247  67.711  1.00  0.00    -0.080 OA 
HETATM   11  OXT UNL     1      -6.153  14.405  67.336  1.00  0.00    -0.341 OA 
HETATM   12  O   UNL     1      -8.406  10.658  68.146  1.00  0.00    -0.115 OA 
ENDROOT
BRANCH   4  13
HETATM   13  C   UNL     1      -7.684  16.229  68.801  1.00  0.00    -0.202 C  
BRANCH  13  14
HETATM   14  S   UNL     1      -7.623  17.300  67.320  1.00  0.00    -0.188 SA 
BRANCH  14  15
HETATM   15  C   UNL     1      -9.002  18.315  67.512  1.00  0.00    -0.253 A  
HETATM   16  N   UNL     1      -9.126  19.291  68.383  1.00  0.00    -0.346 NA 
HETATM   17  N   UNL     1     -10.404  19.765  68.250  1.00  0.00    -0.442 NA 
HETATM   18  N   UNL     1     -10.170  18.218  66.802  1.00  0.00    -0.359 NA 
HETATM   19  N   UNL     1     -11.055  19.110  67.299  1.00  0.00    -0.309 NA 
BRANCH  18  20
HETATM   20  C   UNL     1     -10.566  17.412  65.659  1.00  0.00    -0.153 C  
BRANCH  20  21
HETATM   21  C   UNL     1     -10.743  15.940  66.073  1.00  0.00    -0.284 C  
BRANCH  21  22
HETATM   22  N   UNL     1     -11.407  15.034  65.108  1.00  0.00    -0.372 NA 
HETATM   23  C   UNL     1     -11.921  15.835  63.982  1.00  0.00     0.156 C  
HETATM   24  C   UNL     1     -12.531  14.289  65.688  1.00  0.00    -0.417 C  
ENDBRANCH  21  22
ENDBRANCH  20  21
ENDBRANCH  18  20
ENDBRANCH  14  15
ENDBRANCH  13  14
ENDBRANCH   4  13
BRANCH   8  25
HETATM   25  N   UNL     1     -11.252  10.981  69.822  1.00  0.00    -0.324 N  
HETATM   26  C   UNL     1     -11.288   9.638  70.128  1.00  0.00    -0.227 C  
HETATM   27  H   UNL     1     -11.509  11.659  70.540  1.00  0.00     0.000 HD 
HETATM   28  O   UNL     1     -10.876   8.772  69.357  1.00  0.00    -0.205 OA 
BRANCH  26  29
HETATM   29  C   UNL     1     -11.890   9.307  71.477  1.00  0.00    -0.444 C  
BRANCH  29  30
HETATM   30  C   UNL     1     -10.948   8.505  72.304  1.00  0.00    -0.355 A  
HETATM   31  N   UNL     1      -7.652   8.284  73.479  1.00  0.00    -0.252 NA 
HETATM   32  C   UNL     1     -11.245   7.359  73.017  1.00  0.00    -0.297 A  
HETATM   33  S   UNL     1      -9.851   6.801  73.837  1.00  0.00    -0.322 SA 
HETATM   34  H2  UNL     1      -7.187   7.618  74.096  1.00  0.00     0.000 HD 
HETATM   35  H1  UNL     1      -7.120   9.063  73.094  1.00  0.00     0.000 HD 
HETATM   36  N   UNL     1      -9.631   8.934  72.419  1.00  0.00    -0.251 NA 
HETATM   37  C   UNL     1      -8.955   8.113  73.190  1.00  0.00    -0.261 A  
ENDBRANCH  29  30
ENDBRANCH  26  29
ENDBRANCH   8  25
TORSDOF 9
ENDMDL
MODEL      152
REMARK 921   NORMALIZED FREE ENERGY PREDICTED BY IDOCK:   -4.58 KCAL/MOL
REMARK 922        TOTAL FREE ENERGY PREDICTED BY IDOCK:   -8.92 KCAL/MOL
REMARK 923 INTER-LIGAND FREE ENERGY PREDICTED BY IDOCK:   -7.49 KCAL/MOL
REMARK 924 INTRA-LIGAND FREE ENERGY PREDICTED BY IDOCK:   -1.43 KCAL/MOL
REMARK 927      BINDING AFFINITY PREDICTED BY RF-SCORE:    0.00 PKD
ROOT
HETATM    1  C   UNL     1      -9.515   8.613  71.643  1.00  0.00    -0.269 C  
HETATM    2  S   UNL     1      -8.943   7.784  70.143  1.00  0.00    -0.145 SA 
HETATM    3  C   UNL     1      -8.797   9.317  69.199  1.00  0.00    -0.141 C  
HETATM    4  C   UNL     1      -9.995  10.253  69.300  1.00  0.00    -0.244 C  
HETATM    5  C   UNL     1     -11.510   8.691  72.262  1.00  0.00    -0.353 C  
HETATM    6  CA  UNL     1     -10.917  10.202  70.307  1.00  0.00    -0.317 C  
HETATM    7  C   UNL     1     -12.115  11.132  70.289  1.00  0.00    -0.377 C  
HETATM    8  CA  UNL     1     -10.336   7.732  72.638  1.00  0.00    -0.292 C  
HETATM    9  N   UNL     1     -10.752   9.308  71.333  1.00  0.00    -0.344 N  
HETATM   10  O   UNL     1     -13.191  10.779  71.012  1.00  0.00    -0.302 OA 
HETATM   11  OXT UNL     1     -12.131  12.183  69.662  1.00  0.00    -0.280 OA 
HETATM   12  O   UNL     1     -12.691   8.813  72.509  1.00  0.00    -0.396 OA 
ENDROOT
BRANCH   4  13
HETATM   13  C   UNL     1     -10.100  11.137  68.051  1.00  0.00    -0.174 C  
BRANCH  13  14
HETATM   14  S   UNL     1      -9.496  10.307  66.537  1.00  0.00    -0.178 SA 
BRANCH  14  15
HETATM   15  C   UNL     1      -9.952  11.398  65.284  1.00  0.00    -0.258 A  
HETATM   16  N   UNL     1     -10.447  12.603  65.453  1.00  0.00    -0.278 NA 
HETATM   17  N   UNL     1     -10.747  13.074  64.202  1.00  0.00    -0.408 NA 
HETATM   18  N   UNL     1      -9.889  11.140  63.939  1.00  0.00    -0.278 NA 
HETATM   19  N   UNL     1     -10.424  12.186  63.272  1.00  0.00    -0.397 NA 
BRANCH  18  20
HETATM   20  C   UNL     1      -9.339  10.037  63.171  1.00  0.00    -0.260 C  
BRANCH  20  21
HETATM   21  C   UNL     1      -7.873  10.317  62.797  1.00  0.00    -0.149 C  
BRANCH  21  22
HETATM   22  N   UNL     1      -6.834   9.464  63.418  1.00  0.00    -0.095 NA 
HETATM   23  C   UNL     1      -7.493   8.334  64.099  1.00  0.00    -0.108 C  
HETATM   24  C   UNL     1      -6.012  10.174  64.405  1.00  0.00    -0.138 C  
ENDBRANCH  21  22
ENDBRANCH  20  21
ENDBRANCH  18  20
ENDBRANCH  14  15
ENDBRANCH  13  14
ENDBRANCH   4  13
BRANCH   8  25
HETATM   25  N   UNL     1     -10.538   6.300  72.261  1.00  0.00    -0.207 N  
HETATM   26  C   UNL     1     -10.549   5.290  73.199  1.00  0.00    -0.234 C  
HETATM   27  H   UNL     1     -10.673   6.063  71.278  1.00  0.00     0.000 HD 
HETATM   28  O   UNL     1     -10.516   5.511  74.409  1.00  0.00    -0.272 OA 
BRANCH  26  29
HETATM   29  C   UNL     1     -10.587   3.888  72.628  1.00  0.00    -0.170 C  
BRANCH  29  30
HETATM   30  C   UNL     1      -9.326   3.567  71.908  1.00  0.00    -0.126 A  
HETATM   31  N   UNL     1      -7.457   4.171  69.004  1.00  0.00    -0.055 NA 
HETATM   32  C   UNL     1      -8.306   2.747  72.354  1.00  0.00    -0.066 A  
HETATM   33  S   UNL     1      -7.045   2.698  71.199  1.00  0.00    -0.033 SA 
HETATM   34  H2  UNL     1      -6.542   3.843  68.695  1.00  0.00     0.000 HD 
HETATM   35  H1  UNL     1      -7.988   4.803  68.404  1.00  0.00     0.000 HD 
HETATM   36  N   UNL     1      -9.098   4.151  70.667  1.00  0.00    -0.102 NA 
HETATM   37  C   UNL     1      -7.938   3.761  70.191  1.00  0.00    -0.047 A  
ENDBRANCH  29  30
ENDBRANCH  26  29
ENDBRANCH   8  25
TORSDOF 9
ENDMDL
MODEL      153
REMARK 921   NORMALIZED FREE ENERGY PREDICTED BY IDOCK:   -4.57 KCAL/MOL
REMARK 922        TOTAL FREE ENERGY PREDICTED BY IDOCK:   -8.92 KCAL/MOL
REMARK 923 INTER-LIGAND FREE ENERGY PREDICTED BY IDOCK:   -7.48 KCAL/MOL
REMARK 924 INTRA-LIGAND FREE ENERGY PREDICTED BY IDOCK:   -1.44 KCAL/MOL
REMARK 927      BINDING AFFINITY PREDICTED BY RF-SCORE:    0.00 PKD
ROOT
HETATM    1  C   UNL     1      -8.851   8.679  70.415  1.00  0.00    -0.157 C  
HETATM    2  S   UNL     1      -8.926   9.520  68.818  1.00  0.00    -0.135 SA 
HETATM    3  C   UNL     1     -10.111  10.761  69.384  1.00  0.00    -0.139 C  
HETATM    4  C   UNL     1     -11.301  10.210  70.160  1.00  0.00    -0.372 C  
HETATM    5  C   UNL     1      -9.859   6.903  70.863  1.00  0.00    -0.185 C  
HETATM    6  CA  UNL     1     -11.313   8.984  70.765  1.00  0.00    -0.277 C  
HETATM    7  C   UNL     1     -12.568   8.491  71.458  1.00  0.00    -0.316 C  
HETATM    8  CA  UNL     1      -8.401   7.183  70.377  1.00  0.00    -0.128 C  
HETATM    9  N   UNL     1     -10.186   8.205  70.741  1.00  0.00    -0.193 N  
HETATM   10  O   UNL     1     -12.699   7.167  71.647  1.00  0.00    -0.352 OA 
HETATM   11  OXT UNL     1     -13.445   9.244  71.859  1.00  0.00    -0.376 OA 
HETATM   12  O   UNL     1     -10.560   5.944  71.109  1.00  0.00    -0.225 OA 
ENDROOT
BRANCH   4  13
HETATM   13  C   UNL     1     -12.512  11.142  70.032  1.00  0.00    -0.223 C  
BRANCH  13  14
HETATM   14  S   UNL     1     -12.119  12.707  69.171  1.00  0.00    -0.043 SA 
BRANCH  14  15
HETATM   15  C   UNL     1     -12.404  13.902  70.379  1.00  0.00    -0.363 A  
HETATM   16  N   UNL     1     -13.013  13.708  71.527  1.00  0.00    -0.354 NA 
HETATM   17  N   UNL     1     -13.099  14.935  72.129  1.00  0.00    -0.321 NA 
HETATM   18  N   UNL     1     -12.061  15.226  70.290  1.00  0.00    -0.325 NA 
HETATM   19  N   UNL     1     -12.535  15.870  71.379  1.00  0.00    -0.443 NA 
BRANCH  18  20
HETATM   20  C   UNL     1     -11.289  15.982  69.318  1.00  0.00    -0.356 C  
BRANCH  20  21
HETATM   21  C   UNL     1      -9.785  15.706  69.493  1.00  0.00    -0.287 C  
BRANCH  21  22
HETATM   22  N   UNL     1      -9.126  14.843  68.486  1.00  0.00    -0.184 NA 
HETATM   23  C   UNL     1      -7.675  15.107  68.512  1.00  0.00    -0.122 C  
HETATM   24  C   UNL     1      -9.607  15.074  67.119  1.00  0.00    -0.217 C  
ENDBRANCH  21  22
ENDBRANCH  20  21
ENDBRANCH  18  20
ENDBRANCH  14  15
ENDBRANCH  13  14
ENDBRANCH   4  13
BRANCH   8  25
HETATM   25  N   UNL     1      -8.057   6.616  69.037  1.00  0.00    -0.115 N  
HETATM   26  C   UNL     1      -6.759   6.562  68.577  1.00  0.00    -0.068 C  
HETATM   27  H   UNL     1      -8.807   6.258  68.446  1.00  0.00     0.000 HD 
HETATM   28  O   UNL     1      -5.795   6.860  69.280  1.00  0.00    -0.017 OA 
BRANCH  26  29
HETATM   29  C   UNL     1      -6.612   6.125  67.134  1.00  0.00    -0.055 C  
BRANCH  29  30
HETATM   30  C   UNL     1      -7.763   5.287  66.706  1.00  0.00    -0.096 A  
HETATM   31  N   UNL     1      -9.542   2.333  67.340  1.00  0.00    -0.410 NA 
HETATM   32  C   UNL     1      -8.661   5.571  65.694  1.00  0.00    -0.148 A  
HETATM   33  S   UNL     1      -9.831   4.329  65.582  1.00  0.00    -0.219 SA 
HETATM   34  H2  UNL     1     -10.374   1.927  66.912  1.00  0.00     0.000 HD 
HETATM   35  H1  UNL     1      -9.088   1.842  68.109  1.00  0.00     0.000 HD 
HETATM   36  N   UNL     1      -8.013   4.099  67.384  1.00  0.00    -0.091 NA 
HETATM   37  C   UNL     1      -9.068   3.504  66.877  1.00  0.00    -0.166 A  
ENDBRANCH  29  30
ENDBRANCH  26  29
ENDBRANCH   8  25
TORSDOF 9
ENDMDL
MODEL      154
REMARK 921   NORMALIZED FREE ENERGY PREDICTED BY IDOCK:   -4.57 KCAL/MOL
REMARK 922        TOTAL FREE ENERGY PREDICTED BY IDOCK:   -8.91 KCAL/MOL
REMARK 923 INTER-LIGAND FREE ENERGY PREDICTED BY IDOCK:   -7.06 KCAL/MOL
REMARK 924 INTRA-LIGAND FREE ENERGY PREDICTED BY IDOCK:   -1.85 KCAL/MOL
REMARK 927      BINDING AFFINITY PREDICTED BY RF-SCORE:    0.00 PKD
ROOT
HETATM    1  C   UNL     1     -10.980  10.450  66.083  1.00  0.00     0.195 C  
HETATM    2  S   UNL     1      -9.722   9.331  66.740  1.00  0.00    -0.219 SA 
HETATM    3  C   UNL     1     -10.533   9.159  68.345  1.00  0.00    -0.199 C  
HETATM    4  C   UNL     1     -10.986  10.467  68.983  1.00  0.00    -0.282 C  
HETATM    5  C   UNL     1     -10.759  12.524  65.946  1.00  0.00    -0.264 C  
HETATM    6  CA  UNL     1     -11.177  11.627  68.286  1.00  0.00    -0.260 C  
HETATM    7  C   UNL     1     -11.564  12.898  69.017  1.00  0.00    -0.322 C  
HETATM    8  CA  UNL     1     -10.521  11.378  64.912  1.00  0.00    -0.305 C  
HETATM    9  N   UNL     1     -11.018  11.634  66.924  1.00  0.00    -0.277 N  
HETATM   10  O   UNL     1     -11.320  14.069  68.405  1.00  0.00    -0.260 OA 
HETATM   11  OXT UNL     1     -12.095  12.895  70.119  1.00  0.00    -0.340 OA 
HETATM   12  O   UNL     1     -10.630  13.729  66.004  1.00  0.00    -0.282 OA 
ENDROOT
BRANCH   4  13
HETATM   13  C   UNL     1     -11.042  10.336  70.510  1.00  0.00    -0.306 C  
BRANCH  13  14
HETATM   14  S   UNL     1     -12.430   9.294  71.086  1.00  0.00    -0.234 SA 
BRANCH  14  15
HETATM   15  C   UNL     1     -11.638   8.012  71.923  1.00  0.00    -0.298 A  
HETATM   16  N   UNL     1     -11.280   8.022  73.187  1.00  0.00    -0.247 NA 
HETATM   17  N   UNL     1     -10.609   6.848  73.404  1.00  0.00    -0.321 NA 
HETATM   18  N   UNL     1     -11.246   6.821  71.370  1.00  0.00    -0.256 NA 
HETATM   19  N   UNL     1     -10.569   6.114  72.302  1.00  0.00    -0.209 NA 
BRANCH  18  20
HETATM   20  C   UNL     1     -11.465   6.218  70.066  1.00  0.00    -0.390 C  
BRANCH  20  21
HETATM   21  C   UNL     1     -10.387   5.159  69.774  1.00  0.00    -0.262 C  
BRANCH  21  22
HETATM   22  N   UNL     1      -9.459   5.421  68.651  1.00  0.00    -0.118 NA 
HETATM   23  C   UNL     1      -8.822   4.152  68.255  1.00  0.00    -0.105 C  
HETATM   24  C   UNL     1      -8.397   6.378  68.985  1.00  0.00    -0.118 C  
ENDBRANCH  21  22
ENDBRANCH  20  21
ENDBRANCH  18  20
ENDBRANCH  14  15
ENDBRANCH  13  14
ENDBRANCH   4  13
BRANCH   8  25
HETATM   25  N   UNL     1      -9.110  11.225  64.444  1.00  0.00    -0.393 N  
HETATM   26  C   UNL     1      -8.787  10.501  63.317  1.00  0.00    -0.210 C  
HETATM   27  H   UNL     1      -8.363  11.672  64.976  1.00  0.00     0.000 HD 
HETATM   28  O   UNL     1      -9.640  10.040  62.560  1.00  0.00    -0.272 OA 
BRANCH  26  29
HETATM   29  C   UNL     1      -7.303  10.302  63.091  1.00  0.00    -0.116 C  
BRANCH  29  30
HETATM   30  C   UNL     1      -6.706   9.452  64.156  1.00  0.00    -0.095 A  
HETATM   31  N   UNL     1      -5.261   9.467  67.350  1.00  0.00    -0.036 NA 
HETATM   32  C   UNL     1      -6.567   8.077  64.135  1.00  0.00    -0.065 A  
HETATM   33  S   UNL     1      -5.848   7.538  65.591  1.00  0.00    -0.038 SA 
HETATM   34  H2  UNL     1      -4.914   8.718  67.950  1.00  0.00     0.000 HD 
HETATM   35  H1  UNL     1      -5.214  10.431  67.678  1.00  0.00     0.000 HD 
HETATM   36  N   UNL     1      -6.251  10.063  65.319  1.00  0.00    -0.097 NA 
HETATM   37  C   UNL     1      -5.770   9.160  66.143  1.00  0.00    -0.053 A  
ENDBRANCH  29  30
ENDBRANCH  26  29
ENDBRANCH   8  25
TORSDOF 9
ENDMDL
MODEL      155
REMARK 921   NORMALIZED FREE ENERGY PREDICTED BY IDOCK:   -4.57 KCAL/MOL
REMARK 922        TOTAL FREE ENERGY PREDICTED BY IDOCK:   -8.91 KCAL/MOL
REMARK 923 INTER-LIGAND FREE ENERGY PREDICTED BY IDOCK:   -7.48 KCAL/MOL
REMARK 924 INTRA-LIGAND FREE ENERGY PREDICTED BY IDOCK:   -1.43 KCAL/MOL
REMARK 927      BINDING AFFINITY PREDICTED BY RF-SCORE:    0.00 PKD
ROOT
HETATM    1  C   UNL     1      -9.808  10.273  67.081  1.00  0.00    -0.185 C  
HETATM    2  S   UNL     1     -10.236  10.771  68.764  1.00  0.00    -0.201 SA 
HETATM    3  C   UNL     1      -9.470  12.400  68.613  1.00  0.00    -0.011 C  
HETATM    4  C   UNL     1      -8.070  12.401  68.011  1.00  0.00    -0.162 C  
HETATM    5  C   UNL     1      -8.213   9.013  66.591  1.00  0.00    -0.118 C  
HETATM    6  CA  UNL     1      -7.567  11.380  67.255  1.00  0.00    -0.138 C  
HETATM    7  C   UNL     1      -6.137  11.439  66.752  1.00  0.00    -0.145 C  
HETATM    8  CA  UNL     1      -9.732   8.734  66.824  1.00  0.00    -0.221 C  
HETATM    9  N   UNL     1      -8.361  10.303  66.953  1.00  0.00    -0.122 N  
HETATM   10  O   UNL     1      -5.547  10.281  66.409  1.00  0.00    -0.048 OA 
HETATM   11  OXT UNL     1      -5.517  12.487  66.635  1.00  0.00    -0.237 OA 
HETATM   12  O   UNL     1      -7.205   8.383  66.353  1.00  0.00    -0.070 OA 
ENDROOT
BRANCH   4  13
HETATM   13  C   UNL     1      -7.271  13.616  68.496  1.00  0.00    -0.109 C  
BRANCH  13  14
HETATM   14  S   UNL     1      -7.754  15.169  67.659  1.00  0.00    -0.184 SA 
BRANCH  14  15
HETATM   15  C   UNL     1      -6.955  16.380  68.587  1.00  0.00    -0.159 A  
HETATM   16  N   UNL     1      -6.123  16.166  69.582  1.00  0.00    -0.172 NA 
HETATM   17  N   UNL     1      -5.801  17.399  70.084  1.00  0.00    -0.232 NA 
HETATM   18  N   UNL     1      -7.105  17.734  68.432  1.00  0.00    -0.229 NA 
HETATM   19  N   UNL     1      -6.404  18.361  69.402  1.00  0.00    -0.257 NA 
BRANCH  18  20
HETATM   20  C   UNL     1      -7.800  18.543  67.445  1.00  0.00    -0.235 C  
BRANCH  20  21
HETATM   21  C   UNL     1      -9.098  19.121  68.038  1.00  0.00    -0.311 C  
BRANCH  21  22
HETATM   22  N   UNL     1     -10.326  19.023  67.217  1.00  0.00    -0.397 NA 
HETATM   23  C   UNL     1     -10.505  17.621  66.796  1.00  0.00    -0.289 C  
HETATM   24  C   UNL     1     -10.289  19.859  66.011  1.00  0.00    -0.486 C  
ENDBRANCH  21  22
ENDBRANCH  20  21
ENDBRANCH  18  20
ENDBRANCH  14  15
ENDBRANCH  13  14
ENDBRANCH   4  13
BRANCH   8  25
HETATM   25  N   UNL     1     -10.045   7.841  67.981  1.00  0.00    -0.178 N  
HETATM   26  C   UNL     1     -10.777   6.683  67.835  1.00  0.00    -0.274 C  
HETATM   27  H   UNL     1      -9.706   8.098  68.908  1.00  0.00     0.000 HD 
HETATM   28  O   UNL     1     -11.114   6.247  66.734  1.00  0.00    -0.343 OA 
BRANCH  26  29
HETATM   29  C   UNL     1     -11.152   5.996  69.132  1.00  0.00    -0.405 C  
BRANCH  29  30
HETATM   30  C   UNL     1     -11.085   6.941  70.279  1.00  0.00    -0.297 A  
HETATM   31  N   UNL     1      -8.943   8.527  72.556  1.00  0.00    -0.333 NA 
HETATM   32  C   UNL     1     -12.144   7.617  70.855  1.00  0.00    -0.202 A  
HETATM   33  S   UNL     1     -11.583   8.611  72.129  1.00  0.00    -0.356 SA 
HETATM   34  H2  UNL     1      -9.112   9.203  73.301  1.00  0.00     0.000 HD 
HETATM   35  H1  UNL     1      -7.991   8.209  72.378  1.00  0.00     0.000 HD 
HETATM   36  N   UNL     1      -9.845   7.220  70.842  1.00  0.00    -0.184 NA 
HETATM   37  C   UNL     1      -9.981   8.076  71.829  1.00  0.00    -0.187 A  
ENDBRANCH  29  30
ENDBRANCH  26  29
ENDBRANCH   8  25
TORSDOF 9
ENDMDL
MODEL      156
REMARK 921   NORMALIZED FREE ENERGY PREDICTED BY IDOCK:   -4.56 KCAL/MOL
REMARK 922        TOTAL FREE ENERGY PREDICTED BY IDOCK:   -8.90 KCAL/MOL
REMARK 923 INTER-LIGAND FREE ENERGY PREDICTED BY IDOCK:   -7.51 KCAL/MOL
REMARK 924 INTRA-LIGAND FREE ENERGY PREDICTED BY IDOCK:   -1.39 KCAL/MOL
REMARK 927      BINDING AFFINITY PREDICTED BY RF-SCORE:    0.00 PKD
ROOT
HETATM    1  C   UNL     1      -9.877  10.425  66.860  1.00  0.00    -0.191 C  
HETATM    2  S   UNL     1      -8.312  11.325  66.776  1.00  0.00    -0.159 SA 
HETATM    3  C   UNL     1      -7.458  10.199  67.901  1.00  0.00    -0.088 C  
HETATM    4  C   UNL     1      -8.222   9.855  69.173  1.00  0.00    -0.128 C  
HETATM    5  C   UNL     1     -11.515  11.011  68.019  1.00  0.00    -0.290 C  
HETATM    6  CA  UNL     1      -9.574  10.000  69.311  1.00  0.00    -0.216 C  
HETATM    7  C   UNL     1     -10.240   9.695  70.639  1.00  0.00    -0.278 C  
HETATM    8  CA  UNL     1     -11.158  11.252  66.518  1.00  0.00    -0.216 C  
HETATM    9  N   UNL     1     -10.323  10.421  68.243  1.00  0.00    -0.162 N  
HETATM   10  O   UNL     1     -11.443  10.246  70.875  1.00  0.00    -0.338 OA 
HETATM   11  OXT UNL     1      -9.737   8.966  71.482  1.00  0.00    -0.261 OA 
HETATM   12  O   UNL     1     -12.387  11.325  68.801  1.00  0.00    -0.518 OA 
ENDROOT
BRANCH   4  13
HETATM   13  C   UNL     1      -7.256   9.481  70.303  1.00  0.00    -0.118 C  
BRANCH  13  14
HETATM   14  S   UNL     1      -6.320   7.946  69.963  1.00  0.00    -0.033 SA 
BRANCH  14  15
HETATM   15  C   UNL     1      -7.282   6.726  70.707  1.00  0.00    -0.070 A  
HETATM   16  N   UNL     1      -7.370   6.494  71.997  1.00  0.00    -0.090 NA 
HETATM   17  N   UNL     1      -8.167   5.388  72.135  1.00  0.00    -0.114 NA 
HETATM   18  N   UNL     1      -8.062   5.811  70.048  1.00  0.00    -0.106 NA 
HETATM   19  N   UNL     1      -8.583   4.955  70.954  1.00  0.00    -0.113 NA 
BRANCH  18  20
HETATM   20  C   UNL     1      -8.431   5.654  68.652  1.00  0.00    -0.105 C  
BRANCH  20  21
HETATM   21  C   UNL     1      -8.032   4.257  68.143  1.00  0.00    -0.078 C  
BRANCH  21  22
HETATM   22  N   UNL     1      -9.059   3.474  67.418  1.00  0.00    -0.151 NA 
HETATM   23  C   UNL     1      -8.388   2.419  66.637  1.00  0.00    -0.092 C  
HETATM   24  C   UNL     1      -9.863   4.284  66.494  1.00  0.00    -0.219 C  
ENDBRANCH  21  22
ENDBRANCH  20  21
ENDBRANCH  18  20
ENDBRANCH  14  15
ENDBRANCH  13  14
ENDBRANCH   4  13
BRANCH   8  25
HETATM   25  N   UNL     1     -10.954  12.681  66.133  1.00  0.00    -0.275 N  
HETATM   26  C   UNL     1     -11.886  13.381  65.398  1.00  0.00    -0.353 C  
HETATM   27  H   UNL     1     -10.098  13.154  66.425  1.00  0.00     0.000 HD 
HETATM   28  O   UNL     1     -12.991  12.918  65.117  1.00  0.00    -0.758 OA 
BRANCH  26  29
HETATM   29  C   UNL     1     -11.441  14.757  64.947  1.00  0.00    -0.412 C  
BRANCH  29  30
HETATM   30  C   UNL     1     -10.532  15.382  65.944  1.00  0.00    -0.340 A  
HETATM   31  N   UNL     1      -7.261  16.505  66.524  1.00  0.00    -0.209 NA 
HETATM   32  C   UNL     1     -10.867  15.803  67.218  1.00  0.00    -0.298 A  
HETATM   33  S   UNL     1      -9.500  16.483  67.989  1.00  0.00    -0.225 SA 
HETATM   34  H2  UNL     1      -6.822  16.953  67.328  1.00  0.00     0.000 HD 
HETATM   35  H1  UNL     1      -6.704  16.319  65.690  1.00  0.00     0.000 HD 
HETATM   36  N   UNL     1      -9.206  15.607  65.590  1.00  0.00    -0.228 NA 
HETATM   37  C   UNL     1      -8.563  16.171  66.587  1.00  0.00    -0.276 A  
ENDBRANCH  29  30
ENDBRANCH  26  29
ENDBRANCH   8  25
TORSDOF 9
ENDMDL
MODEL      157
REMARK 921   NORMALIZED FREE ENERGY PREDICTED BY IDOCK:   -4.56 KCAL/MOL
REMARK 922        TOTAL FREE ENERGY PREDICTED BY IDOCK:   -8.90 KCAL/MOL
REMARK 923 INTER-LIGAND FREE ENERGY PREDICTED BY IDOCK:   -7.27 KCAL/MOL
REMARK 924 INTRA-LIGAND FREE ENERGY PREDICTED BY IDOCK:   -1.63 KCAL/MOL
REMARK 927      BINDING AFFINITY PREDICTED BY RF-SCORE:    0.00 PKD
ROOT
HETATM    1  C   UNL     1     -10.911   8.674  68.975  1.00  0.00     0.090 C  
HETATM    2  S   UNL     1     -10.871   7.995  67.301  1.00  0.00     0.076 SA 
HETATM    3  C   UNL     1     -10.842   6.278  67.862  1.00  0.00    -0.333 C  
HETATM    4  C   UNL     1      -9.841   5.979  68.971  1.00  0.00    -0.182 C  
HETATM    5  C   UNL     1      -9.252   9.467  69.968  1.00  0.00    -0.234 C  
HETATM    6  CA  UNL     1      -9.305   6.933  69.789  1.00  0.00    -0.146 C  
HETATM    7  C   UNL     1      -8.264   6.550  70.823  1.00  0.00    -0.125 C  
HETATM    8  CA  UNL     1     -10.386  10.138  69.129  1.00  0.00    -0.219 C  
HETATM    9  N   UNL     1      -9.713   8.236  69.671  1.00  0.00    -0.172 N  
HETATM   10  O   UNL     1      -7.459   7.520  71.289  1.00  0.00    -0.077 OA 
HETATM   11  OXT UNL     1      -8.141   5.411  71.253  1.00  0.00    -0.110 OA 
HETATM   12  O   UNL     1      -8.236   9.799  70.542  1.00  0.00    -0.209 OA 
ENDROOT
BRANCH   4  13
HETATM   13  C   UNL     1      -9.413   4.507  68.933  1.00  0.00    -0.160 C  
BRANCH  13  14
HETATM   14  S   UNL     1      -8.814   3.980  67.287  1.00  0.00    -0.128 SA 
BRANCH  14  15
HETATM   15  C   UNL     1      -7.451   5.000  67.020  1.00  0.00    -0.087 A  
HETATM   16  N   UNL     1      -6.379   5.068  67.777  1.00  0.00    -0.039 NA 
HETATM   17  N   UNL     1      -5.600   6.064  67.250  1.00  0.00    -0.012 NA 
HETATM   18  N   UNL     1      -7.317   5.904  65.998  1.00  0.00    -0.075 NA 
HETATM   19  N   UNL     1      -6.167   6.590  66.175  1.00  0.00    -0.036 NA 
BRANCH  18  20
HETATM   20  C   UNL     1      -8.121   6.188  64.822  1.00  0.00    -0.132 C  
BRANCH  20  21
HETATM   21  C   UNL     1      -8.066   7.687  64.480  1.00  0.00    -0.098 C  
BRANCH  21  22
HETATM   22  N   UNL     1      -7.468   8.070  63.180  1.00  0.00    -0.111 NA 
HETATM   23  C   UNL     1      -8.489   8.764  62.374  1.00  0.00    -0.204 C  
HETATM   24  C   UNL     1      -6.977   6.924  62.405  1.00  0.00    -0.052 C  
ENDBRANCH  21  22
ENDBRANCH  20  21
ENDBRANCH  18  20
ENDBRANCH  14  15
ENDBRANCH  13  14
ENDBRANCH   4  13
BRANCH   8  25
HETATM   25  N   UNL     1      -9.934  10.826  67.882  1.00  0.00    -0.171 N  
HETATM   26  C   UNL     1     -10.731  11.731  67.215  1.00  0.00    -0.237 C  
HETATM   27  H   UNL     1      -9.005  10.620  67.514  1.00  0.00     0.000 HD 
HETATM   28  O   UNL     1     -11.808  12.121  67.665  1.00  0.00    -0.478 OA 
BRANCH  26  29
HETATM   29  C   UNL     1     -10.189  12.197  65.880  1.00  0.00    -0.272 C  
BRANCH  29  30
HETATM   30  C   UNL     1     -10.235  13.679  65.769  1.00  0.00    -0.308 A  
HETATM   31  N   UNL     1     -11.550  16.370  63.946  1.00  0.00    -1.602 NA 
HETATM   32  C   UNL     1      -9.617  14.590  66.605  1.00  0.00    -0.276 A  
HETATM   33  S   UNL     1      -9.974  16.185  66.100  1.00  0.00    -0.357 SA 
HETATM   34  H2  UNL     1     -11.468  17.381  64.058  1.00  0.00     0.000 HD 
HETATM   35  H1  UNL     1     -12.110  15.998  63.180  1.00  0.00     0.000 HD 
HETATM   36  N   UNL     1     -10.986  14.249  64.746  1.00  0.00    -0.395 NA 
HETATM   37  C   UNL     1     -10.916  15.558  64.812  1.00  0.00    -0.399 A  
ENDBRANCH  29  30
ENDBRANCH  26  29
ENDBRANCH   8  25
TORSDOF 9
ENDMDL
MODEL      158
REMARK 921   NORMALIZED FREE ENERGY PREDICTED BY IDOCK:   -4.54 KCAL/MOL
REMARK 922        TOTAL FREE ENERGY PREDICTED BY IDOCK:   -8.87 KCAL/MOL
REMARK 923 INTER-LIGAND FREE ENERGY PREDICTED BY IDOCK:   -7.58 KCAL/MOL
REMARK 924 INTRA-LIGAND FREE ENERGY PREDICTED BY IDOCK:   -1.30 KCAL/MOL
REMARK 927      BINDING AFFINITY PREDICTED BY RF-SCORE:    0.00 PKD
ROOT
HETATM    1  C   UNL     1      -8.871   7.297  67.935  1.00  0.00    -0.128 C  
HETATM    2  S   UNL     1     -10.549   7.697  68.474  1.00  0.00    -0.067 SA 
HETATM    3  C   UNL     1     -10.561   9.311  67.662  1.00  0.00    -0.261 C  
HETATM    4  C   UNL     1      -9.320  10.162  67.900  1.00  0.00    -0.151 C  
HETATM    5  C   UNL     1      -7.174   7.450  69.144  1.00  0.00    -0.084 C  
HETATM    6  CA  UNL     1      -8.119   9.657  68.311  1.00  0.00    -0.105 C  
HETATM    7  C   UNL     1      -6.956  10.590  68.587  1.00  0.00    -0.067 C  
HETATM    8  CA  UNL     1      -8.109   6.246  68.804  1.00  0.00    -0.109 C  
HETATM    9  N   UNL     1      -7.971   8.303  68.471  1.00  0.00    -0.120 N  
HETATM   10  O   UNL     1      -5.969  10.141  69.381  1.00  0.00    -0.037 OA 
HETATM   11  OXT UNL     1      -6.877  11.713  68.109  1.00  0.00    -0.064 OA 
HETATM   12  O   UNL     1      -6.211   7.675  69.847  1.00  0.00    -0.027 OA 
ENDROOT
BRANCH   4  13
HETATM   13  C   UNL     1      -9.651  11.653  67.768  1.00  0.00    -0.178 C  
BRANCH  13  14
HETATM   14  S   UNL     1      -9.475  12.274  66.057  1.00  0.00    -0.138 SA 
BRANCH  14  15
HETATM   15  C   UNL     1     -11.099  12.620  65.596  1.00  0.00    -0.292 A  
HETATM   16  N   UNL     1     -11.800  11.970  64.695  1.00  0.00    -0.304 NA 
HETATM   17  N   UNL     1     -12.993  12.633  64.585  1.00  0.00    -0.844 NA 
HETATM   18  N   UNL     1     -11.867  13.645  66.085  1.00  0.00    -0.371 NA 
HETATM   19  N   UNL     1     -13.041  13.664  65.417  1.00  0.00    -0.678 NA 
BRANCH  18  20
HETATM   20  C   UNL     1     -11.662  14.607  67.155  1.00  0.00    -0.373 C  
BRANCH  20  21
HETATM   21  C   UNL     1     -10.728  15.738  66.692  1.00  0.00    -0.287 C  
BRANCH  21  22
HETATM   22  N   UNL     1     -10.091  16.571  67.738  1.00  0.00    -0.257 NA 
HETATM   23  C   UNL     1     -10.888  17.798  67.918  1.00  0.00    -0.218 C  
HETATM   24  C   UNL     1      -8.716  16.965  67.410  1.00  0.00    -0.203 C  
ENDBRANCH  21  22
ENDBRANCH  20  21
ENDBRANCH  18  20
ENDBRANCH  14  15
ENDBRANCH  13  14
ENDBRANCH   4  13
BRANCH   8  25
HETATM   25  N   UNL     1      -8.849   5.666  69.965  1.00  0.00    -0.128 N  
HETATM   26  C   UNL     1      -8.974   4.306  70.148  1.00  0.00    -0.087 C  
HETATM   27  H   UNL     1      -9.275   6.298  70.643  1.00  0.00     0.000 HD 
HETATM   28  O   UNL     1      -8.387   3.487  69.443  1.00  0.00    -0.059 OA 
BRANCH  26  29
HETATM   29  C   UNL     1      -9.903   3.896  71.272  1.00  0.00    -0.227 C  
BRANCH  29  30
HETATM   30  C   UNL     1     -10.187   5.040  72.179  1.00  0.00    -0.201 A  
HETATM   31  N   UNL     1     -12.180   7.885  72.658  1.00  0.00    -0.597 NA 
HETATM   32  C   UNL     1      -9.577   5.304  73.391  1.00  0.00    -0.141 A  
HETATM   33  S   UNL     1     -10.247   6.714  74.091  1.00  0.00    -0.303 SA 
HETATM   34  H2  UNL     1     -12.231   8.568  73.414  1.00  0.00     0.000 HD 
HETATM   35  H1  UNL     1     -12.802   7.981  71.856  1.00  0.00     0.000 HD 
HETATM   36  N   UNL     1     -11.179   5.946  71.821  1.00  0.00    -0.269 NA 
HETATM   37  C   UNL     1     -11.294   6.876  72.742  1.00  0.00    -0.199 A  
ENDBRANCH  29  30
ENDBRANCH  26  29
ENDBRANCH   8  25
TORSDOF 9
ENDMDL
MODEL      159
REMARK 921   NORMALIZED FREE ENERGY PREDICTED BY IDOCK:   -4.54 KCAL/MOL
REMARK 922        TOTAL FREE ENERGY PREDICTED BY IDOCK:   -8.86 KCAL/MOL
REMARK 923 INTER-LIGAND FREE ENERGY PREDICTED BY IDOCK:   -7.65 KCAL/MOL
REMARK 924 INTRA-LIGAND FREE ENERGY PREDICTED BY IDOCK:   -1.22 KCAL/MOL
REMARK 927      BINDING AFFINITY PREDICTED BY RF-SCORE:    0.00 PKD
ROOT
HETATM    1  C   UNL     1     -10.158  11.587  67.453  1.00  0.00    -0.191 C  
HETATM    2  S   UNL     1      -8.418  11.383  67.897  1.00  0.00    -0.146 SA 
HETATM    3  C   UNL     1      -8.211  13.107  68.393  1.00  0.00    -0.130 C  
HETATM    4  C   UNL     1      -8.768  14.132  67.413  1.00  0.00    -0.217 C  
HETATM    5  C   UNL     1     -10.861  11.797  65.496  1.00  0.00    -0.297 C  
HETATM    6  CA  UNL     1      -9.708  13.844  66.464  1.00  0.00    -0.294 C  
HETATM    7  C   UNL     1     -10.154  14.915  65.487  1.00  0.00    -0.370 C  
HETATM    8  CA  UNL     1     -10.726  10.552  66.430  1.00  0.00    -0.096 C  
HETATM    9  N   UNL     1     -10.243  12.584  66.400  1.00  0.00    -0.240 N  
HETATM   10  O   UNL     1     -10.716  14.513  64.334  1.00  0.00    -0.270 OA 
HETATM   11  OXT UNL     1     -10.037  16.111  65.713  1.00  0.00    -0.334 OA 
HETATM   12  O   UNL     1     -11.202  12.039  64.358  1.00  0.00    -0.315 OA 
ENDROOT
BRANCH   4  13
HETATM   13  C   UNL     1      -8.023  15.467  67.541  1.00  0.00    -0.170 C  
BRANCH  13  14
HETATM   14  S   UNL     1      -7.068  15.605  69.095  1.00  0.00    -0.182 SA 
BRANCH  14  15
HETATM   15  C   UNL     1      -6.633  17.271  69.141  1.00  0.00    -0.239 A  
HETATM   16  N   UNL     1      -5.447  17.750  69.442  1.00  0.00    -0.192 NA 
HETATM   17  N   UNL     1      -5.574  19.114  69.445  1.00  0.00    -0.204 NA 
HETATM   18  N   UNL     1      -7.478  18.324  68.902  1.00  0.00    -0.272 NA 
HETATM   19  N   UNL     1      -6.809  19.476  69.131  1.00  0.00    -0.336 NA 
BRANCH  18  20
HETATM   20  C   UNL     1      -8.850  18.400  68.431  1.00  0.00    -0.320 C  
BRANCH  20  21
HETATM   21  C   UNL     1      -9.219  19.852  68.078  1.00  0.00    -0.313 C  
BRANCH  21  22
HETATM   22  N   UNL     1      -9.322  20.202  66.643  1.00  0.00    -0.373 NA 
HETATM   23  C   UNL     1     -10.508  19.535  66.076  1.00  0.00    -0.516 C  
HETATM   24  C   UNL     1      -8.151  19.793  65.859  1.00  0.00    -0.252 C  
ENDBRANCH  21  22
ENDBRANCH  20  21
ENDBRANCH  18  20
ENDBRANCH  14  15
ENDBRANCH  13  14
ENDBRANCH   4  13
BRANCH   8  25
HETATM   25  N   UNL     1      -9.787   9.495  65.949  1.00  0.00    -0.285 N  
HETATM   26  C   UNL     1      -9.851   8.196  66.405  1.00  0.00    -0.190 C  
HETATM   27  H   UNL     1      -9.076   9.742  65.260  1.00  0.00     0.000 HD 
HETATM   28  O   UNL     1     -10.754   7.796  67.140  1.00  0.00    -0.333 OA 
BRANCH  26  29
HETATM   29  C   UNL     1      -8.716   7.302  65.949  1.00  0.00    -0.150 C  
BRANCH  29  30
HETATM   30  C   UNL     1      -7.425   8.041  65.928  1.00  0.00    -0.081 A  
HETATM   31  N   UNL     1      -5.344  10.106  64.005  1.00  0.00    -0.102 NA 
HETATM   32  C   UNL     1      -6.505   8.127  66.956  1.00  0.00    -0.057 A  
HETATM   33  S   UNL     1      -5.185   9.106  66.482  1.00  0.00    -0.037 SA 
HETATM   34  H2  UNL     1      -4.447  10.550  64.202  1.00  0.00     0.000 HD 
HETATM   35  H1  UNL     1      -5.782  10.247  63.095  1.00  0.00     0.000 HD 
HETATM   36  N   UNL     1      -7.083   8.753  64.784  1.00  0.00    -0.076 NA 
HETATM   37  C   UNL     1      -5.923   9.345  64.952  1.00  0.00    -0.066 A  
ENDBRANCH  29  30
ENDBRANCH  26  29
ENDBRANCH   8  25
TORSDOF 9
ENDMDL
MODEL      160
REMARK 921   NORMALIZED FREE ENERGY PREDICTED BY IDOCK:   -4.53 KCAL/MOL
REMARK 922        TOTAL FREE ENERGY PREDICTED BY IDOCK:   -8.85 KCAL/MOL
REMARK 923 INTER-LIGAND FREE ENERGY PREDICTED BY IDOCK:   -7.12 KCAL/MOL
REMARK 924 INTRA-LIGAND FREE ENERGY PREDICTED BY IDOCK:   -1.73 KCAL/MOL
REMARK 927      BINDING AFFINITY PREDICTED BY RF-SCORE:    0.00 PKD
ROOT
HETATM    1  C   UNL     1     -10.962  10.724  68.429  1.00  0.00    -0.248 C  
HETATM    2  S   UNL     1      -9.229  10.215  68.492  1.00  0.00    -0.150 SA 
HETATM    3  C   UNL     1      -9.617   8.501  68.909  1.00  0.00    -0.160 C  
HETATM    4  C   UNL     1     -10.641   8.324  70.024  1.00  0.00    -0.235 C  
HETATM    5  C   UNL     1     -11.945  11.760  69.955  1.00  0.00    -0.344 C  
HETATM    6  CA  UNL     1     -11.522   9.296  70.409  1.00  0.00    -0.213 C  
HETATM    7  C   UNL     1     -12.461   9.052  71.575  1.00  0.00    -0.331 C  
HETATM    8  CA  UNL     1     -11.233  12.247  68.653  1.00  0.00    -0.259 C  
HETATM    9  N   UNL     1     -11.552  10.489  69.735  1.00  0.00    -0.278 N  
HETATM   10  O   UNL     1     -12.979  10.126  72.194  1.00  0.00    -0.415 OA 
HETATM   11  OXT UNL     1     -12.770   7.932  71.956  1.00  0.00    -0.311 OA 
HETATM   12  O   UNL     1     -12.499  12.247  70.918  1.00  0.00    -0.371 OA 
ENDROOT
BRANCH   4  13
HETATM   13  C   UNL     1     -10.438   6.983  70.741  1.00  0.00    -0.212 C  
BRANCH  13  14
HETATM   14  S   UNL     1      -9.255   7.090  72.131  1.00  0.00    -0.129 SA 
BRANCH  14  15
HETATM   15  C   UNL     1      -9.576   5.655  73.030  1.00  0.00    -0.150 A  
HETATM   16  N   UNL     1     -10.484   5.522  73.971  1.00  0.00    -0.275 NA 
HETATM   17  N   UNL     1     -10.333   4.257  74.474  1.00  0.00    -0.232 NA 
HETATM   18  N   UNL     1      -8.903   4.467  72.906  1.00  0.00    -0.115 NA 
HETATM   19  N   UNL     1      -9.364   3.609  73.843  1.00  0.00    -0.092 NA 
BRANCH  18  20
HETATM   20  C   UNL     1      -7.892   3.999  71.974  1.00  0.00    -0.079 C  
BRANCH  20  21
HETATM   21  C   UNL     1      -8.545   3.239  70.806  1.00  0.00    -0.071 C  
BRANCH  21  22
HETATM   22  N   UNL     1      -8.328   3.768  69.440  1.00  0.00    -0.060 NA 
HETATM   23  C   UNL     1      -7.463   4.959  69.524  1.00  0.00    -0.056 C  
HETATM   24  C   UNL     1      -9.571   4.155  68.762  1.00  0.00    -0.140 C  
ENDBRANCH  21  22
ENDBRANCH  20  21
ENDBRANCH  18  20
ENDBRANCH  14  15
ENDBRANCH  13  14
ENDBRANCH   4  13
BRANCH   8  25
HETATM   25  N   UNL     1     -10.039  13.119  68.869  1.00  0.00    -0.434 N  
HETATM   26  C   UNL     1     -10.041  14.457  68.537  1.00  0.00    -0.244 C  
HETATM   27  H   UNL     1      -9.197  12.711  69.274  1.00  0.00     0.000 HD 
HETATM   28  O   UNL     1     -11.054  15.044  68.160  1.00  0.00    -0.268 OA 
BRANCH  26  29
HETATM   29  C   UNL     1      -8.697  15.145  68.656  1.00  0.00    -0.174 C  
BRANCH  29  30
HETATM   30  C   UNL     1      -7.580  14.171  68.530  1.00  0.00    -0.129 A  
HETATM   31  N   UNL     1      -6.052  11.831  66.412  1.00  0.00    -0.475 NA 
HETATM   32  C   UNL     1      -6.603  13.908  69.471  1.00  0.00    -0.097 A  
HETATM   33  S   UNL     1      -5.515  12.730  68.874  1.00  0.00    -0.069 SA 
HETATM   34  H2  UNL     1      -5.224  11.246  66.520  1.00  0.00     0.000 HD 
HETATM   35  H1  UNL     1      -6.588  11.783  65.545  1.00  0.00     0.000 HD 
HETATM   36  N   UNL     1      -7.457  13.447  67.349  1.00  0.00    -0.154 NA 
HETATM   37  C   UNL     1      -6.415  12.650  67.416  1.00  0.00    -0.149 A  
ENDBRANCH  29  30
ENDBRANCH  26  29
ENDBRANCH   8  25
TORSDOF 9
ENDMDL
MODEL      161
REMARK 921   NORMALIZED FREE ENERGY PREDICTED BY IDOCK:   -4.51 KCAL/MOL
REMARK 922        TOTAL FREE ENERGY PREDICTED BY IDOCK:   -8.82 KCAL/MOL
REMARK 923 INTER-LIGAND FREE ENERGY PREDICTED BY IDOCK:   -6.25 KCAL/MOL
REMARK 924 INTRA-LIGAND FREE ENERGY PREDICTED BY IDOCK:   -2.57 KCAL/MOL
REMARK 927      BINDING AFFINITY PREDICTED BY RF-SCORE:    0.00 PKD
ROOT
HETATM    1  C   UNL     1     -11.314   7.935  72.300  1.00  0.00    -0.337 C  
HETATM    2  S   UNL     1     -12.083   6.797  71.126  1.00  0.00    -0.342 SA 
HETATM    3  C   UNL     1     -11.831   5.346  72.172  1.00  0.00     0.230 C  
HETATM    4  C   UNL     1     -10.433   5.211  72.762  1.00  0.00    -0.261 C  
HETATM    5  C   UNL     1      -9.365   8.671  72.129  1.00  0.00    -0.273 C  
HETATM    6  CA  UNL     1      -9.553   6.250  72.879  1.00  0.00    -0.153 C  
HETATM    7  C   UNL     1      -8.156   6.006  73.417  1.00  0.00    -0.111 C  
HETATM    8  CA  UNL     1     -10.745   9.258  71.694  1.00  0.00    -0.323 C  
HETATM    9  N   UNL     1      -9.940   7.512  72.508  1.00  0.00    -0.184 N  
HETATM   10  O   UNL     1      -7.206   6.908  73.119  1.00  0.00    -0.075 OA 
HETATM   11  OXT UNL     1      -7.871   5.042  74.114  1.00  0.00    -0.096 OA 
HETATM   12  O   UNL     1      -8.192   8.968  72.050  1.00  0.00    -0.360 OA 
ENDROOT
BRANCH   4  13
HETATM   13  C   UNL     1     -10.106   3.741  73.052  1.00  0.00    -0.151 C  
BRANCH  13  14
HETATM   14  S   UNL     1      -9.785   2.768  71.536  1.00  0.00    -0.125 SA 
BRANCH  14  15
HETATM   15  C   UNL     1      -8.315   3.443  70.941  1.00  0.00    -0.065 A  
HETATM   16  N   UNL     1      -7.102   3.040  71.247  1.00  0.00    -0.032 NA 
HETATM   17  N   UNL     1      -6.242   3.906  70.626  1.00  0.00    -0.018 NA 
HETATM   18  N   UNL     1      -8.214   4.514  70.092  1.00  0.00    -0.066 NA 
HETATM   19  N   UNL     1      -6.907   4.817  69.931  1.00  0.00    -0.046 NA 
BRANCH  18  20
HETATM   20  C   UNL     1      -9.201   5.285  69.355  1.00  0.00    -0.114 C  
BRANCH  20  21
HETATM   21  C   UNL     1      -8.722   6.736  69.169  1.00  0.00    -0.131 C  
BRANCH  21  22
HETATM   22  N   UNL     1      -9.550   7.625  68.322  1.00  0.00    -0.152 NA 
HETATM   23  C   UNL     1     -10.487   6.798  67.539  1.00  0.00    -0.239 C  
HETATM   24  C   UNL     1      -8.762   8.432  67.382  1.00  0.00    -0.135 C  
ENDBRANCH  21  22
ENDBRANCH  20  21
ENDBRANCH  18  20
ENDBRANCH  14  15
ENDBRANCH  13  14
ENDBRANCH   4  13
BRANCH   8  25
HETATM   25  N   UNL     1     -10.919   9.455  70.223  1.00  0.00    -0.249 N  
HETATM   26  C   UNL     1     -11.497  10.591  69.700  1.00  0.00    -0.282 C  
HETATM   27  H   UNL     1     -10.598   8.725  69.587  1.00  0.00     0.000 HD 
HETATM   28  O   UNL     1     -11.795  11.562  70.394  1.00  0.00    -0.346 OA 
BRANCH  26  29
HETATM   29  C   UNL     1     -11.755  10.546  68.208  1.00  0.00    -0.051 C  
BRANCH  29  30
HETATM   30  C   UNL     1     -11.109  11.694  67.516  1.00  0.00    -0.276 A  
HETATM   31  N   UNL     1      -8.081  13.386  67.003  1.00  0.00    -0.391 NA 
HETATM   32  C   UNL     1     -11.718  12.591  66.659  1.00  0.00    -0.387 A  
HETATM   33  S   UNL     1     -10.572  13.724  66.085  1.00  0.00    -0.296 SA 
HETATM   34  H2  UNL     1      -7.835  14.196  66.434  1.00  0.00     0.000 HD 
HETATM   35  H1  UNL     1      -7.358  12.926  67.554  1.00  0.00     0.000 HD 
HETATM   36  N   UNL     1      -9.748  11.905  67.704  1.00  0.00    -0.181 NA 
HETATM   37  C   UNL     1      -9.354  12.949  67.012  1.00  0.00    -0.235 A  
ENDBRANCH  29  30
ENDBRANCH  26  29
ENDBRANCH   8  25
TORSDOF 9
ENDMDL
MODEL      162
REMARK 921   NORMALIZED FREE ENERGY PREDICTED BY IDOCK:   -4.51 KCAL/MOL
REMARK 922        TOTAL FREE ENERGY PREDICTED BY IDOCK:   -8.82 KCAL/MOL
REMARK 923 INTER-LIGAND FREE ENERGY PREDICTED BY IDOCK:   -7.33 KCAL/MOL
REMARK 924 INTRA-LIGAND FREE ENERGY PREDICTED BY IDOCK:   -1.49 KCAL/MOL
REMARK 927      BINDING AFFINITY PREDICTED BY RF-SCORE:    0.00 PKD
ROOT
HETATM    1  C   UNL     1      -8.052  10.750  69.120  1.00  0.00    -0.131 C  
HETATM    2  S   UNL     1      -7.084  10.786  67.595  1.00  0.00    -0.093 SA 
HETATM    3  C   UNL     1      -7.644  12.439  67.129  1.00  0.00    -0.104 C  
HETATM    4  C   UNL     1      -9.147  12.665  67.238  1.00  0.00    -0.191 C  
HETATM    5  C   UNL     1      -9.868   9.739  69.343  1.00  0.00    -0.205 C  
HETATM    6  CA  UNL     1      -9.979  11.894  68.001  1.00  0.00    -0.190 C  
HETATM    7  C   UNL     1     -11.473  12.153  67.995  1.00  0.00    -0.319 C  
HETATM    8  CA  UNL     1      -8.398   9.330  69.674  1.00  0.00    -0.140 C  
HETATM    9  N   UNL     1      -9.455  10.887  68.770  1.00  0.00    -0.190 N  
HETATM   10  O   UNL     1     -12.282  11.151  68.380  1.00  0.00    -0.610 OA 
HETATM   11  OXT UNL     1     -11.960  13.228  67.673  1.00  0.00    -0.355 OA 
HETATM   12  O   UNL     1     -10.974   9.242  69.381  1.00  0.00    -0.212 OA 
ENDROOT
BRANCH   4  13
HETATM   13  C   UNL     1      -9.604  13.760  66.266  1.00  0.00    -0.249 C  
BRANCH  13  14
HETATM   14  S   UNL     1      -8.874  15.395  66.640  1.00  0.00    -0.308 SA 
BRANCH  14  15
HETATM   15  C   UNL     1      -9.576  15.800  68.160  1.00  0.00    -0.199 A  
HETATM   16  N   UNL     1      -9.367  15.174  69.297  1.00  0.00    -0.221 NA 
HETATM   17  N   UNL     1     -10.188  15.769  70.218  1.00  0.00    -0.178 NA 
HETATM   18  N   UNL     1     -10.474  16.812  68.381  1.00  0.00    -0.319 NA 
HETATM   19  N   UNL     1     -10.877  16.759  69.670  1.00  0.00    -0.295 NA 
BRANCH  18  20
HETATM   20  C   UNL     1     -10.984  17.879  67.538  1.00  0.00    -0.089 C  
BRANCH  20  21
HETATM   21  C   UNL     1     -10.460  19.244  68.019  1.00  0.00    -0.386 C  
BRANCH  21  22
HETATM   22  N   UNL     1      -9.835  20.130  67.010  1.00  0.00    -0.428 NA 
HETATM   23  C   UNL     1     -10.521  19.936  65.719  1.00  0.00    -0.414 C  
HETATM   24  C   UNL     1      -8.405  19.866  66.810  1.00  0.00    -0.322 C  
ENDBRANCH  21  22
ENDBRANCH  20  21
ENDBRANCH  18  20
ENDBRANCH  14  15
ENDBRANCH  13  14
ENDBRANCH   4  13
BRANCH   8  25
HETATM   25  N   UNL     1      -7.873   8.161  68.906  1.00  0.00    -0.110 N  
HETATM   26  C   UNL     1      -7.079   7.197  69.490  1.00  0.00    -0.071 C  
HETATM   27  H   UNL     1      -8.111   8.073  67.918  1.00  0.00     0.000 HD 
HETATM   28  O   UNL     1      -6.853   7.171  70.699  1.00  0.00    -0.052 OA 
BRANCH  26  29
HETATM   29  C   UNL     1      -6.492   6.185  68.529  1.00  0.00    -0.053 C  
BRANCH  29  30
HETATM   30  C   UNL     1      -7.441   5.879  67.425  1.00  0.00    -0.078 A  
HETATM   31  N   UNL     1      -8.478   6.805  64.206  1.00  0.00    -0.332 NA 
HETATM   32  C   UNL     1      -8.375   4.860  67.397  1.00  0.00    -0.105 A  
HETATM   33  S   UNL     1      -9.222   4.882  65.910  1.00  0.00    -0.160 SA 
HETATM   34  H2  UNL     1      -9.182   6.423  63.575  1.00  0.00     0.000 HD 
HETATM   35  H1  UNL     1      -7.928   7.611  63.910  1.00  0.00     0.000 HD 
HETATM   36  N   UNL     1      -7.399   6.658  66.274  1.00  0.00    -0.072 NA 
HETATM   37  C   UNL     1      -8.296   6.237  65.412  1.00  0.00    -0.148 A  
ENDBRANCH  29  30
ENDBRANCH  26  29
ENDBRANCH   8  25
TORSDOF 9
ENDMDL
MODEL      163
REMARK 921   NORMALIZED FREE ENERGY PREDICTED BY IDOCK:   -4.50 KCAL/MOL
REMARK 922        TOTAL FREE ENERGY PREDICTED BY IDOCK:   -8.81 KCAL/MOL
REMARK 923 INTER-LIGAND FREE ENERGY PREDICTED BY IDOCK:   -7.62 KCAL/MOL
REMARK 924 INTRA-LIGAND FREE ENERGY PREDICTED BY IDOCK:   -1.19 KCAL/MOL
REMARK 927      BINDING AFFINITY PREDICTED BY RF-SCORE:    0.00 PKD
ROOT
HETATM    1  C   UNL     1      -9.788  10.304  68.936  1.00  0.00    -0.195 C  
HETATM    2  S   UNL     1     -11.169  10.952  69.903  1.00  0.00    -0.259 SA 
HETATM    3  C   UNL     1     -11.264   9.502  70.976  1.00  0.00    -0.362 C  
HETATM    4  C   UNL     1     -11.232   8.161  70.252  1.00  0.00    -0.182 C  
HETATM    5  C   UNL     1      -9.976   9.438  67.042  1.00  0.00    -0.221 C  
HETATM    6  CA  UNL     1     -10.756   7.993  68.982  1.00  0.00    -0.088 C  
HETATM    7  C   UNL     1     -10.826   6.632  68.317  1.00  0.00    -0.254 C  
HETATM    8  CA  UNL     1      -9.629  10.891  67.496  1.00  0.00    -0.155 C  
HETATM    9  N   UNL     1     -10.213   9.061  68.315  1.00  0.00    -0.197 N  
HETATM   10  O   UNL     1     -10.769   6.589  66.975  1.00  0.00    -0.287 OA 
HETATM   11  OXT UNL     1     -10.917   5.588  68.948  1.00  0.00    -0.165 OA 
HETATM   12  O   UNL     1     -10.155   8.834  66.006  1.00  0.00    -0.228 OA 
ENDROOT
BRANCH   4  13
HETATM   13  C   UNL     1     -11.943   7.081  71.077  1.00  0.00    -0.361 C  
BRANCH  13  14
HETATM   14  S   UNL     1     -11.314   6.964  72.791  1.00  0.00    -0.149 SA 
BRANCH  14  15
HETATM   15  C   UNL     1     -10.873   5.304  72.934  1.00  0.00    -0.270 A  
HETATM   16  N   UNL     1     -11.583   4.366  73.519  1.00  0.00    -0.209 NA 
HETATM   17  N   UNL     1     -10.821   3.228  73.481  1.00  0.00    -0.209 NA 
HETATM   18  N   UNL     1      -9.705   4.746  72.484  1.00  0.00    -0.145 NA 
HETATM   19  N   UNL     1      -9.669   3.451  72.866  1.00  0.00    -0.125 NA 
BRANCH  18  20
HETATM   20  C   UNL     1      -8.608   5.265  71.685  1.00  0.00    -0.134 C  
BRANCH  20  21
HETATM   21  C   UNL     1      -7.285   5.187  72.468  1.00  0.00    -0.092 C  
BRANCH  21  22
HETATM   22  N   UNL     1      -6.613   6.463  72.803  1.00  0.00    -0.063 NA 
HETATM   23  C   UNL     1      -5.403   6.168  73.592  1.00  0.00    -0.040 C  
HETATM   24  C   UNL     1      -7.455   7.376  73.584  1.00  0.00    -0.099 C  
ENDBRANCH  21  22
ENDBRANCH  20  21
ENDBRANCH  18  20
ENDBRANCH  14  15
ENDBRANCH  13  14
ENDBRANCH   4  13
BRANCH   8  25
HETATM   25  N   UNL     1     -10.612  11.939  67.084  1.00  0.00    -0.224 N  
HETATM   26  C   UNL     1     -10.293  13.279  67.076  1.00  0.00    -0.246 C  
HETATM   27  H   UNL     1     -11.548  11.652  66.798  1.00  0.00     0.000 HD 
HETATM   28  O   UNL     1      -9.153  13.690  67.288  1.00  0.00    -0.208 OA 
BRANCH  26  29
HETATM   29  C   UNL     1     -11.456  14.211  66.804  1.00  0.00    -0.383 C  
BRANCH  29  30
HETATM   30  C   UNL     1     -11.028  15.634  66.855  1.00  0.00    -0.243 A  
HETATM   31  N   UNL     1     -10.527  18.396  68.957  1.00  0.00    -0.394 NA 
HETATM   32  C   UNL     1     -10.583  16.402  65.795  1.00  0.00    -0.315 A  
HETATM   33  S   UNL     1     -10.178  17.973  66.338  1.00  0.00    -0.381 SA 
HETATM   34  H2  UNL     1     -10.183  19.340  68.779  1.00  0.00     0.000 HD 
HETATM   35  H1  UNL     1     -10.791  18.131  69.905  1.00  0.00     0.000 HD 
HETATM   36  N   UNL     1     -11.038  16.290  68.081  1.00  0.00    -0.347 NA 
HETATM   37  C   UNL     1     -10.622  17.527  67.933  1.00  0.00    -0.390 A  
ENDBRANCH  29  30
ENDBRANCH  26  29
ENDBRANCH   8  25
TORSDOF 9
ENDMDL
MODEL      164
REMARK 921   NORMALIZED FREE ENERGY PREDICTED BY IDOCK:   -4.50 KCAL/MOL
REMARK 922        TOTAL FREE ENERGY PREDICTED BY IDOCK:   -8.81 KCAL/MOL
REMARK 923 INTER-LIGAND FREE ENERGY PREDICTED BY IDOCK:   -7.75 KCAL/MOL
REMARK 924 INTRA-LIGAND FREE ENERGY PREDICTED BY IDOCK:   -1.05 KCAL/MOL
REMARK 927      BINDING AFFINITY PREDICTED BY RF-SCORE:    0.00 PKD
ROOT
HETATM    1  C   UNL     1      -9.533  11.271  68.514  1.00  0.00    -0.191 C  
HETATM    2  S   UNL     1     -11.070  11.919  69.207  1.00  0.00    -0.163 SA 
HETATM    3  C   UNL     1     -11.321  10.504  70.302  1.00  0.00    -0.327 C  
HETATM    4  C   UNL     1     -11.142   9.141  69.647  1.00  0.00    -0.103 C  
HETATM    5  C   UNL     1      -9.378  10.335  66.651  1.00  0.00    -0.161 C  
HETATM    6  CA  UNL     1     -10.452   8.940  68.484  1.00  0.00    -0.182 C  
HETATM    7  C   UNL     1     -10.382   7.556  67.870  1.00  0.00    -0.210 C  
HETATM    8  CA  UNL     1      -9.141  11.812  67.101  1.00  0.00    -0.175 C  
HETATM    9  N   UNL     1      -9.823   9.997  67.878  1.00  0.00    -0.143 N  
HETATM   10  O   UNL     1     -10.096   7.467  66.560  1.00  0.00    -0.198 OA 
HETATM   11  OXT UNL     1     -10.561   6.532  68.516  1.00  0.00    -0.197 OA 
HETATM   12  O   UNL     1      -9.367   9.691  65.623  1.00  0.00    -0.198 OA 
ENDROOT
BRANCH   4  13
HETATM   13  C   UNL     1     -11.963   8.073  70.380  1.00  0.00     0.171 C  
BRANCH  13  14
HETATM   14  S   UNL     1     -12.036   8.346  72.187  1.00  0.00    -0.392 SA 
BRANCH  14  15
HETATM   15  C   UNL     1     -10.493   7.801  72.728  1.00  0.00    -0.328 A  
HETATM   16  N   UNL     1      -9.431   8.551  72.912  1.00  0.00    -0.199 NA 
HETATM   17  N   UNL     1      -8.414   7.700  73.255  1.00  0.00    -0.142 NA 
HETATM   18  N   UNL     1     -10.159   6.501  73.009  1.00  0.00    -0.182 NA 
HETATM   19  N   UNL     1      -8.842   6.447  73.304  1.00  0.00    -0.125 NA 
BRANCH  18  20
HETATM   20  C   UNL     1     -10.938   5.277  73.086  1.00  0.00    -0.305 C  
BRANCH  20  21
HETATM   21  C   UNL     1     -10.010   4.051  73.157  1.00  0.00    -0.141 C  
BRANCH  21  22
HETATM   22  N   UNL     1     -10.173   3.008  72.119  1.00  0.00    -0.126 NA 
HETATM   23  C   UNL     1      -9.749   1.711  72.678  1.00  0.00    -0.087 C  
HETATM   24  C   UNL     1      -9.381   3.263  70.909  1.00  0.00    -0.150 C  
ENDBRANCH  21  22
ENDBRANCH  20  21
ENDBRANCH  18  20
ENDBRANCH  14  15
ENDBRANCH  13  14
ENDBRANCH   4  13
BRANCH   8  25
HETATM   25  N   UNL     1     -10.057  12.819  66.487  1.00  0.00    -0.253 N  
HETATM   26  C   UNL     1      -9.706  14.146  66.358  1.00  0.00    -0.298 C  
HETATM   27  H   UNL     1     -10.972  12.515  66.152  1.00  0.00     0.000 HD 
HETATM   28  O   UNL     1      -8.579  14.561  66.625  1.00  0.00    -0.188 OA 
BRANCH  26  29
HETATM   29  C   UNL     1     -10.817  15.057  65.880  1.00  0.00    -0.339 C  
BRANCH  29  30
HETATM   30  C   UNL     1     -10.659  16.431  66.428  1.00  0.00    -0.236 A  
HETATM   31  N   UNL     1     -10.222  19.809  65.594  1.00  0.00    -0.429 NA 
HETATM   32  C   UNL     1     -10.677  16.796  67.761  1.00  0.00    -0.321 A  
HETATM   33  S   UNL     1     -10.483  18.490  67.908  1.00  0.00    -0.353 SA 
HETATM   34  H2  UNL     1     -10.154  20.653  66.163  1.00  0.00     0.000 HD 
HETATM   35  H1  UNL     1     -10.164  19.885  64.579  1.00  0.00     0.000 HD 
HETATM   36  N   UNL     1     -10.499  17.489  65.540  1.00  0.00    -0.637 NA 
HETATM   37  C   UNL     1     -10.386  18.618  66.200  1.00  0.00    -0.443 A  
ENDBRANCH  29  30
ENDBRANCH  26  29
ENDBRANCH   8  25
TORSDOF 9
ENDMDL
MODEL      165
REMARK 921   NORMALIZED FREE ENERGY PREDICTED BY IDOCK:   -4.48 KCAL/MOL
REMARK 922        TOTAL FREE ENERGY PREDICTED BY IDOCK:   -8.78 KCAL/MOL
REMARK 923 INTER-LIGAND FREE ENERGY PREDICTED BY IDOCK:   -7.71 KCAL/MOL
REMARK 924 INTRA-LIGAND FREE ENERGY PREDICTED BY IDOCK:   -1.08 KCAL/MOL
REMARK 927      BINDING AFFINITY PREDICTED BY RF-SCORE:    0.00 PKD
ROOT
HETATM    1  C   UNL     1      -9.944  12.615  67.305  1.00  0.00    -0.212 C  
HETATM    2  S   UNL     1     -10.400  13.837  68.555  1.00  0.00    -0.233 SA 
HETATM    3  C   UNL     1      -9.142  15.024  68.035  1.00  0.00    -0.178 C  
HETATM    4  C   UNL     1      -7.751  14.440  67.825  1.00  0.00    -0.172 C  
HETATM    5  C   UNL     1      -8.786  10.916  67.681  1.00  0.00    -0.133 C  
HETATM    6  CA  UNL     1      -7.508  13.111  67.615  1.00  0.00    -0.164 C  
HETATM    7  C   UNL     1      -6.083  12.610  67.482  1.00  0.00    -0.157 C  
HETATM    8  CA  UNL     1     -10.331  11.135  67.625  1.00  0.00    -0.192 C  
HETATM    9  N   UNL     1      -8.559  12.235  67.526  1.00  0.00    -0.164 N  
HETATM   10  O   UNL     1      -5.854  11.307  67.715  1.00  0.00    -0.046 OA 
HETATM   11  OXT UNL     1      -5.151  13.335  67.161  1.00  0.00    -0.324 OA 
HETATM   12  O   UNL     1      -8.010  10.016  67.927  1.00  0.00    -0.103 OA 
ENDROOT
BRANCH   4  13
HETATM   13  C   UNL     1      -6.674  15.511  68.034  1.00  0.00    -0.140 C  
BRANCH  13  14
HETATM   14  S   UNL     1      -6.818  16.907  66.861  1.00  0.00    -0.234 SA 
BRANCH  14  15
HETATM   15  C   UNL     1      -6.516  18.284  67.852  1.00  0.00    -0.195 A  
HETATM   16  N   UNL     1      -5.686  18.336  68.869  1.00  0.00    -0.201 NA 
HETATM   17  N   UNL     1      -5.828  19.583  69.417  1.00  0.00    -0.233 NA 
HETATM   18  N   UNL     1      -7.129  19.504  67.731  1.00  0.00    -0.246 NA 
HETATM   19  N   UNL     1      -6.715  20.299  68.742  1.00  0.00    -0.276 NA 
BRANCH  18  20
HETATM   20  C   UNL     1      -8.040  20.057  66.743  1.00  0.00    -0.317 C  
BRANCH  20  21
HETATM   21  C   UNL     1      -9.335  20.545  67.417  1.00  0.00    -0.375 C  
BRANCH  21  22
HETATM   22  N   UNL     1     -10.412  19.550  67.628  1.00  0.00    -0.447 NA 
HETATM   23  C   UNL     1     -10.188  18.876  68.920  1.00  0.00    -0.205 C  
HETATM   24  C   UNL     1     -10.468  18.522  66.582  1.00  0.00    -0.398 C  
ENDBRANCH  21  22
ENDBRANCH  20  21
ENDBRANCH  18  20
ENDBRANCH  14  15
ENDBRANCH  13  14
ENDBRANCH   4  13
BRANCH   8  25
HETATM   25  N   UNL     1     -11.056  10.891  68.909  1.00  0.00    -0.230 N  
HETATM   26  C   UNL     1     -11.268   9.621  69.400  1.00  0.00    -0.077 C  
HETATM   27  H   UNL     1     -11.405  11.691  69.438  1.00  0.00     0.000 HD 
HETATM   28  O   UNL     1     -10.773   8.621  68.883  1.00  0.00    -0.187 OA 
BRANCH  26  29
HETATM   29  C   UNL     1     -12.171   9.549  70.614  1.00  0.00    -0.191 C  
BRANCH  29  30
HETATM   30  C   UNL     1     -11.646   8.583  71.617  1.00  0.00    -0.299 A  
HETATM   31  N   UNL     1     -12.062   5.388  72.999  1.00  0.00    -0.491 NA 
HETATM   32  C   UNL     1     -10.558   8.765  72.448  1.00  0.00    -0.144 A  
HETATM   33  S   UNL     1     -10.317   7.373  73.413  1.00  0.00    -0.349 SA 
HETATM   34  H2  UNL     1     -11.544   4.876  73.712  1.00  0.00     0.000 HD 
HETATM   35  H1  UNL     1     -12.867   4.946  72.554  1.00  0.00     0.000 HD 
HETATM   36  N   UNL     1     -12.273   7.348  71.745  1.00  0.00    -0.313 NA 
HETATM   37  C   UNL     1     -11.670   6.631  72.665  1.00  0.00    -0.084 A  
ENDBRANCH  29  30
ENDBRANCH  26  29
ENDBRANCH   8  25
TORSDOF 9
ENDMDL
MODEL      166
REMARK 921   NORMALIZED FREE ENERGY PREDICTED BY IDOCK:   -4.47 KCAL/MOL
REMARK 922        TOTAL FREE ENERGY PREDICTED BY IDOCK:   -8.76 KCAL/MOL
REMARK 923 INTER-LIGAND FREE ENERGY PREDICTED BY IDOCK:   -7.97 KCAL/MOL
REMARK 924 INTRA-LIGAND FREE ENERGY PREDICTED BY IDOCK:   -0.80 KCAL/MOL
REMARK 927      BINDING AFFINITY PREDICTED BY RF-SCORE:    0.00 PKD
ROOT
HETATM    1  C   UNL     1     -10.468  16.413  66.808  1.00  0.00    -0.273 C  
HETATM    2  S   UNL     1      -8.807  15.889  66.328  1.00  0.00    -0.337 SA 
HETATM    3  C   UNL     1      -9.353  14.276  65.724  1.00  0.00     0.061 C  
HETATM    4  C   UNL     1     -10.292  13.522  66.657  1.00  0.00    -0.271 C  
HETATM    5  C   UNL     1     -11.193  16.393  68.769  1.00  0.00    -0.313 C  
HETATM    6  CA  UNL     1     -11.020  14.118  67.649  1.00  0.00    -0.267 C  
HETATM    7  C   UNL     1     -11.878  13.277  68.573  1.00  0.00    -0.349 C  
HETATM    8  CA  UNL     1     -10.542  17.521  67.907  1.00  0.00    -0.390 C  
HETATM    9  N   UNL     1     -10.969  15.480  67.803  1.00  0.00    -0.309 N  
HETATM   10  O   UNL     1     -12.215  13.802  69.763  1.00  0.00    -0.324 OA 
HETATM   11  OXT UNL     1     -12.281  12.161  68.273  1.00  0.00    -0.356 OA 
HETATM   12  O   UNL     1     -11.604  16.244  69.900  1.00  0.00    -0.277 OA 
ENDROOT
BRANCH   4  13
HETATM   13  C   UNL     1     -10.186  12.009  66.430  1.00  0.00    -0.216 C  
BRANCH  13  14
HETATM   14  S   UNL     1      -9.175  11.166  67.700  1.00  0.00    -0.153 SA 
BRANCH  14  15
HETATM   15  C   UNL     1      -8.931   9.598  67.030  1.00  0.00    -0.134 A  
HETATM   16  N   UNL     1      -8.833   9.312  65.751  1.00  0.00    -0.165 NA 
HETATM   17  N   UNL     1      -8.737   7.948  65.669  1.00  0.00    -0.145 NA 
HETATM   18  N   UNL     1      -8.839   8.430  67.742  1.00  0.00    -0.137 NA 
HETATM   19  N   UNL     1      -8.753   7.399  66.874  1.00  0.00    -0.122 NA 
BRANCH  18  20
HETATM   20  C   UNL     1      -8.773   8.146  69.166  1.00  0.00    -0.140 C  
BRANCH  20  21
HETATM   21  C   UNL     1      -9.287   6.725  69.456  1.00  0.00    -0.146 C  
BRANCH  21  22
HETATM   22  N   UNL     1      -9.701   6.419  70.845  1.00  0.00    -0.176 NA 
HETATM   23  C   UNL     1     -10.010   4.980  70.941  1.00  0.00    -0.216 C  
HETATM   24  C   UNL     1     -10.886   7.169  71.278  1.00  0.00    -0.233 C  
ENDBRANCH  21  22
ENDBRANCH  20  21
ENDBRANCH  18  20
ENDBRANCH  14  15
ENDBRANCH  13  14
ENDBRANCH   4  13
BRANCH   8  25
HETATM   25  N   UNL     1      -9.242  18.047  68.423  1.00  0.00    -0.288 N  
HETATM   26  C   UNL     1      -9.163  19.207  69.161  1.00  0.00    -0.157 C  
HETATM   27  H   UNL     1      -8.386  17.529  68.222  1.00  0.00     0.000 HD 
HETATM   28  O   UNL     1     -10.160  19.816  69.546  1.00  0.00    -0.338 OA 
BRANCH  26  29
HETATM   29  C   UNL     1      -7.755  19.686  69.449  1.00  0.00    -0.067 C  
BRANCH  29  30
HETATM   30  C   UNL     1      -7.044  20.051  68.194  1.00  0.00    -0.289 A  
HETATM   31  N   UNL     1      -6.478  19.132  64.858  1.00  0.00    -0.470 NA 
HETATM   32  C   UNL     1      -6.239  21.156  67.992  1.00  0.00    -0.292 A  
HETATM   33  S   UNL     1      -5.659  21.173  66.383  1.00  0.00    -0.267 SA 
HETATM   34  H2  UNL     1      -5.935  19.563  64.110  1.00  0.00     0.000 HD 
HETATM   35  H1  UNL     1      -6.984  18.267  64.672  1.00  0.00     0.000 HD 
HETATM   36  N   UNL     1      -7.199  19.236  67.079  1.00  0.00    -0.207 NA 
HETATM   37  C   UNL     1      -6.511  19.718  66.069  1.00  0.00    -0.205 A  
ENDBRANCH  29  30
ENDBRANCH  26  29
ENDBRANCH   8  25
TORSDOF 9
ENDMDL
MODEL      167
REMARK 921   NORMALIZED FREE ENERGY PREDICTED BY IDOCK:   -4.45 KCAL/MOL
REMARK 922        TOTAL FREE ENERGY PREDICTED BY IDOCK:   -8.74 KCAL/MOL
REMARK 923 INTER-LIGAND FREE ENERGY PREDICTED BY IDOCK:   -7.22 KCAL/MOL
REMARK 924 INTRA-LIGAND FREE ENERGY PREDICTED BY IDOCK:   -1.52 KCAL/MOL
REMARK 927      BINDING AFFINITY PREDICTED BY RF-SCORE:    0.00 PKD
ROOT
HETATM    1  C   UNL     1      -9.067  15.478  68.986  1.00  0.00    -0.236 C  
HETATM    2  S   UNL     1      -8.126  14.738  67.633  1.00  0.00    -0.185 SA 
HETATM    3  C   UNL     1      -7.142  16.223  67.336  1.00  0.00    -0.168 C  
HETATM    4  C   UNL     1      -7.937  17.521  67.266  1.00  0.00    -0.222 C  
HETATM    5  C   UNL     1     -11.012  16.221  68.804  1.00  0.00    -0.343 C  
HETATM    6  CA  UNL     1      -9.192  17.673  67.785  1.00  0.00    -0.251 C  
HETATM    7  C   UNL     1      -9.935  18.983  67.608  1.00  0.00    -0.351 C  
HETATM    8  CA  UNL     1     -10.463  14.837  69.276  1.00  0.00    -0.224 C  
HETATM    9  N   UNL     1      -9.774  16.636  68.467  1.00  0.00    -0.235 N  
HETATM   10  O   UNL     1     -11.273  18.964  67.727  1.00  0.00    -0.160 OA 
HETATM   11  OXT UNL     1      -9.367  20.043  67.379  1.00  0.00    -0.334 OA 
HETATM   12  O   UNL     1     -12.088  16.749  68.615  1.00  0.00     0.449 OA 
ENDROOT
BRANCH   4  13
HETATM   13  C   UNL     1      -7.206  18.560  66.408  1.00  0.00    -0.240 C  
BRANCH  13  14
HETATM   14  S   UNL     1      -5.583  19.043  67.101  1.00  0.00    -0.162 SA 
BRANCH  14  15
HETATM   15  C   UNL     1      -5.917  19.237  68.781  1.00  0.00    -0.218 A  
HETATM   16  N   UNL     1      -6.460  20.293  69.343  1.00  0.00    -0.289 NA 
HETATM   17  N   UNL     1      -6.456  20.055  70.692  1.00  0.00    -0.258 NA 
HETATM   18  N   UNL     1      -5.628  18.325  69.763  1.00  0.00    -0.215 NA 
HETATM   19  N   UNL     1      -5.938  18.865  70.961  1.00  0.00     0.090 NA 
BRANCH  18  20
HETATM   20  C   UNL     1      -5.130  16.960  69.726  1.00  0.00    -0.162 C  
BRANCH  20  21
HETATM   21  C   UNL     1      -5.900  16.077  70.724  1.00  0.00     0.172 C  
BRANCH  21  22
HETATM   22  N   UNL     1      -5.208  14.880  71.254  1.00  0.00    -0.139 NA 
HETATM   23  C   UNL     1      -5.498  13.735  70.371  1.00  0.00    -0.127 C  
HETATM   24  C   UNL     1      -5.624  14.523  72.615  1.00  0.00     0.044 C  
ENDBRANCH  21  22
ENDBRANCH  20  21
ENDBRANCH  18  20
ENDBRANCH  14  15
ENDBRANCH  13  14
ENDBRANCH   4  13
BRANCH   8  25
HETATM   25  N   UNL     1     -10.859  13.673  68.428  1.00  0.00    -0.248 N  
HETATM   26  C   UNL     1     -11.744  12.713  68.869  1.00  0.00    -0.325 C  
HETATM   27  H   UNL     1     -10.462  13.586  67.492  1.00  0.00     0.000 HD 
HETATM   28  O   UNL     1     -12.355  12.815  69.932  1.00  0.00    -0.195 OA 
BRANCH  26  29
HETATM   29  C   UNL     1     -11.894  11.515  67.955  1.00  0.00    -0.255 C  
BRANCH  29  30
HETATM   30  C   UNL     1     -11.612  11.879  66.540  1.00  0.00    -0.255 A  
HETATM   31  N   UNL     1     -12.168  14.270  64.038  1.00  0.00    -0.836 NA 
HETATM   32  C   UNL     1     -10.828  11.174  65.647  1.00  0.00    -0.138 A  
HETATM   33  S   UNL     1     -10.773  11.990  64.144  1.00  0.00    -0.398 SA 
HETATM   34  H2  UNL     1     -11.842  14.344  63.074  1.00  0.00     0.000 HD 
HETATM   35  H1  UNL     1     -12.774  14.998  64.416  1.00  0.00     0.000 HD 
HETATM   36  N   UNL     1     -12.153  13.055  66.034  1.00  0.00    -0.432 NA 
HETATM   37  C   UNL     1     -11.791  13.214  64.781  1.00  0.00    -0.369 A  
ENDBRANCH  29  30
ENDBRANCH  26  29
ENDBRANCH   8  25
TORSDOF 9
ENDMDL
MODEL      168
REMARK 921   NORMALIZED FREE ENERGY PREDICTED BY IDOCK:   -4.45 KCAL/MOL
REMARK 922        TOTAL FREE ENERGY PREDICTED BY IDOCK:   -8.73 KCAL/MOL
REMARK 923 INTER-LIGAND FREE ENERGY PREDICTED BY IDOCK:   -7.26 KCAL/MOL
REMARK 924 INTRA-LIGAND FREE ENERGY PREDICTED BY IDOCK:   -1.47 KCAL/MOL
REMARK 927      BINDING AFFINITY PREDICTED BY RF-SCORE:    0.00 PKD
ROOT
HETATM    1  C   UNL     1      -9.354  11.911  68.777  1.00  0.00     0.024 C  
HETATM    2  S   UNL     1     -11.058  11.403  68.456  1.00  0.00    -0.261 SA 
HETATM    3  C   UNL     1     -10.897   9.846  69.359  1.00  0.00    -0.237 C  
HETATM    4  C   UNL     1      -9.648   9.038  69.033  1.00  0.00    -0.160 C  
HETATM    5  C   UNL     1      -7.795  11.756  67.394  1.00  0.00    -0.155 C  
HETATM    6  CA  UNL     1      -8.526   9.568  68.459  1.00  0.00    -0.119 C  
HETATM    7  C   UNL     1      -7.354   8.672  68.109  1.00  0.00    -0.091 C  
HETATM    8  CA  UNL     1      -8.748  12.937  67.766  1.00  0.00    -0.188 C  
HETATM    9  N   UNL     1      -8.468  10.914  68.203  1.00  0.00    -0.126 N  
HETATM   10  O   UNL     1      -6.486   9.112  67.183  1.00  0.00    -0.059 OA 
HETATM   11  OXT UNL     1      -7.165   7.587  68.642  1.00  0.00    -0.081 OA 
HETATM   12  O   UNL     1      -6.905  11.529  66.601  1.00  0.00    -0.134 OA 
ENDROOT
BRANCH   4  13
HETATM   13  C   UNL     1      -9.884   7.545  69.291  1.00  0.00    -0.170 C  
BRANCH  13  14
HETATM   14  S   UNL     1     -10.770   6.716  67.922  1.00  0.00    -0.286 SA 
BRANCH  14  15
HETATM   15  C   UNL     1     -10.140   5.112  67.961  1.00  0.00    -0.128 A  
HETATM   16  N   UNL     1      -9.915   4.398  69.040  1.00  0.00    -0.104 NA 
HETATM   17  N   UNL     1      -9.335   3.233  68.616  1.00  0.00    -0.171 NA 
HETATM   18  N   UNL     1      -9.757   4.378  66.868  1.00  0.00    -0.199 NA 
HETATM   19  N   UNL     1      -9.220   3.214  67.296  1.00  0.00    -0.182 NA 
BRANCH  18  20
HETATM   20  C   UNL     1      -9.871   4.605  65.438  1.00  0.00    -0.156 C  
BRANCH  20  21
HETATM   21  C   UNL     1      -8.673   3.986  64.696  1.00  0.00    -0.123 C  
BRANCH  21  22
HETATM   22  N   UNL     1      -8.959   2.929  63.698  1.00  0.00    -0.095 NA 
HETATM   23  C   UNL     1      -8.610   3.436  62.358  1.00  0.00    -0.074 C  
HETATM   24  C   UNL     1     -10.367   2.515  63.676  1.00  0.00    -0.160 C  
ENDBRANCH  21  22
ENDBRANCH  20  21
ENDBRANCH  18  20
ENDBRANCH  14  15
ENDBRANCH  13  14
ENDBRANCH   4  13
BRANCH   8  25
HETATM   25  N   UNL     1      -9.641  13.406  66.664  1.00  0.00    -0.264 N  
HETATM   26  C   UNL     1      -9.566  14.684  66.154  1.00  0.00    -0.307 C  
HETATM   27  H   UNL     1     -10.328  12.758  66.276  1.00  0.00     0.000 HD 
HETATM   28  O   UNL     1      -8.686  15.477  66.485  1.00  0.00    -0.267 OA 
BRANCH  26  29
HETATM   29  C   UNL     1     -10.660  15.044  65.170  1.00  0.00    -0.440 C  
BRANCH  29  30
HETATM   30  C   UNL     1     -11.184  13.834  64.483  1.00  0.00    -0.373 A  
HETATM   31  N   UNL     1     -10.295  10.935  62.722  1.00  0.00    -0.783 NA 
HETATM   32  C   UNL     1     -12.509  13.457  64.369  1.00  0.00    -0.277 A  
HETATM   33  S   UNL     1     -12.628  11.979  63.516  1.00  0.00    -0.358 SA 
HETATM   34  H2  UNL     1     -10.849  10.174  62.328  1.00  0.00     0.000 HD 
HETATM   35  H1  UNL     1      -9.281  10.915  62.626  1.00  0.00     0.000 HD 
HETATM   36  N   UNL     1     -10.279  12.952  63.903  1.00  0.00    -0.359 NA 
HETATM   37  C   UNL     1     -10.920  11.945  63.355  1.00  0.00    -0.395 A  
ENDBRANCH  29  30
ENDBRANCH  26  29
ENDBRANCH   8  25
TORSDOF 9
ENDMDL
MODEL      169
REMARK 921   NORMALIZED FREE ENERGY PREDICTED BY IDOCK:   -4.44 KCAL/MOL
REMARK 922        TOTAL FREE ENERGY PREDICTED BY IDOCK:   -8.72 KCAL/MOL
REMARK 923 INTER-LIGAND FREE ENERGY PREDICTED BY IDOCK:   -6.59 KCAL/MOL
REMARK 924 INTRA-LIGAND FREE ENERGY PREDICTED BY IDOCK:   -2.13 KCAL/MOL
REMARK 927      BINDING AFFINITY PREDICTED BY RF-SCORE:    0.00 PKD
ROOT
HETATM    1  C   UNL     1      -9.791  12.162  67.495  1.00  0.00    -0.191 C  
HETATM    2  S   UNL     1      -9.104  10.659  68.226  1.00  0.00    -0.159 SA 
HETATM    3  C   UNL     1      -7.806  10.495  66.981  1.00  0.00    -0.114 C  
HETATM    4  C   UNL     1      -8.270  10.655  65.539  1.00  0.00    -0.141 C  
HETATM    5  C   UNL     1     -11.507  12.219  66.304  1.00  0.00    -0.380 C  
HETATM    6  CA  UNL     1      -9.433  11.277  65.179  1.00  0.00    -0.215 C  
HETATM    7  C   UNL     1      -9.847  11.330  63.721  1.00  0.00    -0.322 C  
HETATM    8  CA  UNL     1     -11.287  12.461  67.831  1.00  0.00    -0.289 C  
HETATM    9  N   UNL     1     -10.220  11.854  66.142  1.00  0.00    -0.220 N  
HETATM   10  O   UNL     1     -11.146  11.539  63.448  1.00  0.00    -0.391 OA 
HETATM   11  OXT UNL     1      -9.052  11.205  62.800  1.00  0.00    -0.303 OA 
HETATM   12  O   UNL     1     -12.432  12.179  65.520  1.00  0.00    -0.517 OA 
ENDROOT
BRANCH   4  13
HETATM   13  C   UNL     1      -7.344   9.894  64.582  1.00  0.00    -0.140 C  
BRANCH  13  14
HETATM   14  S   UNL     1      -6.295   8.662  65.434  1.00  0.00    -0.056 SA 
BRANCH  14  15
HETATM   15  C   UNL     1      -7.419   7.438  65.890  1.00  0.00    -0.080 A  
HETATM   16  N   UNL     1      -8.706   7.434  65.623  1.00  0.00    -0.119 NA 
HETATM   17  N   UNL     1      -9.224   6.329  66.245  1.00  0.00    -0.157 NA 
HETATM   18  N   UNL     1      -7.126   6.317  66.623  1.00  0.00    -0.067 NA 
HETATM   19  N   UNL     1      -8.274   5.648  66.869  1.00  0.00    -0.105 NA 
BRANCH  18  20
HETATM   20  C   UNL     1      -5.876   5.748  67.097  1.00  0.00    -0.017 C  
BRANCH  20  21
HETATM   21  C   UNL     1      -5.695   6.024  68.601  1.00  0.00    -0.012 C  
BRANCH  21  22
HETATM   22  N   UNL     1      -6.889   6.449  69.366  1.00  0.00    -0.063 NA 
HETATM   23  C   UNL     1      -6.675   7.826  69.851  1.00  0.00    -0.042 C  
HETATM   24  C   UNL     1      -7.170   5.596  70.527  1.00  0.00    -0.074 C  
ENDBRANCH  21  22
ENDBRANCH  20  21
ENDBRANCH  18  20
ENDBRANCH  14  15
ENDBRANCH  13  14
ENDBRANCH   4  13
BRANCH   8  25
HETATM   25  N   UNL     1     -11.981  11.495  68.735  1.00  0.00    -0.319 N  
HETATM   26  C   UNL     1     -12.156  11.746  70.079  1.00  0.00    -0.310 C  
HETATM   27  H   UNL     1     -12.337  10.622  68.345  1.00  0.00     0.000 HD 
HETATM   28  O   UNL     1     -11.865  12.825  70.594  1.00  0.00    -0.209 OA 
BRANCH  26  29
HETATM   29  C   UNL     1     -12.718  10.588  70.877  1.00  0.00    -0.495 C  
BRANCH  29  30
HETATM   30  C   UNL     1     -11.739   9.472  70.966  1.00  0.00    -0.343 A  
HETATM   31  N   UNL     1     -10.199   6.871  69.188  1.00  0.00    -0.180 NA 
HETATM   32  C   UNL     1     -10.983   9.121  72.069  1.00  0.00    -0.192 A  
HETATM   33  S   UNL     1      -9.979   7.788  71.692  1.00  0.00    -0.178 SA 
HETATM   34  H2  UNL     1      -9.489   6.187  69.450  1.00  0.00     0.000 HD 
HETATM   35  H1  UNL     1     -10.577   6.859  68.242  1.00  0.00     0.000 HD 
HETATM   36  N   UNL     1     -11.512   8.692  69.837  1.00  0.00     0.045 NA 
HETATM   37  C   UNL     1     -10.615   7.769  70.100  1.00  0.00    -0.237 A  
ENDBRANCH  29  30
ENDBRANCH  26  29
ENDBRANCH   8  25
TORSDOF 9
ENDMDL
MODEL      170
REMARK 921   NORMALIZED FREE ENERGY PREDICTED BY IDOCK:   -4.43 KCAL/MOL
REMARK 922        TOTAL FREE ENERGY PREDICTED BY IDOCK:   -8.71 KCAL/MOL
REMARK 923 INTER-LIGAND FREE ENERGY PREDICTED BY IDOCK:   -7.76 KCAL/MOL
REMARK 924 INTRA-LIGAND FREE ENERGY PREDICTED BY IDOCK:   -0.95 KCAL/MOL
REMARK 927      BINDING AFFINITY PREDICTED BY RF-SCORE:    0.00 PKD
ROOT
HETATM    1  C   UNL     1      -9.200  10.920  68.678  1.00  0.00    -0.187 C  
HETATM    2  S   UNL     1     -10.849  10.862  69.415  1.00  0.00    -0.229 SA 
HETATM    3  C   UNL     1     -10.782   9.086  69.734  1.00  0.00    -0.225 C  
HETATM    4  C   UNL     1     -10.296   8.238  68.565  1.00  0.00    -0.230 C  
HETATM    5  C   UNL     1      -8.826  10.990  66.623  1.00  0.00    -0.164 C  
HETATM    6  CA  UNL     1      -9.571   8.731  67.517  1.00  0.00    -0.152 C  
HETATM    7  C   UNL     1      -9.188   7.825  66.364  1.00  0.00    -0.180 C  
HETATM    8  CA  UNL     1      -8.930  12.112  67.704  1.00  0.00    -0.178 C  
HETATM    9  N   UNL     1      -9.191  10.049  67.516  1.00  0.00    -0.137 N  
HETATM   10  O   UNL     1      -8.879   8.403  65.190  1.00  0.00    -0.143 OA 
HETATM   11  OXT UNL     1      -9.136   6.607  66.465  1.00  0.00    -0.141 OA 
HETATM   12  O   UNL     1      -8.663  10.904  65.424  1.00  0.00    -0.188 OA 
ENDROOT
BRANCH   4  13
HETATM   13  C   UNL     1     -10.862   6.815  68.654  1.00  0.00    -0.224 C  
BRANCH  13  14
HETATM   14  S   UNL     1     -11.763   6.502  70.214  1.00  0.00    -0.258 SA 
BRANCH  14  15
HETATM   15  C   UNL     1     -10.589   5.707  71.193  1.00  0.00    -0.245 A  
HETATM   16  N   UNL     1      -9.957   4.595  70.890  1.00  0.00    -0.206 NA 
HETATM   17  N   UNL     1      -9.193   4.278  71.981  1.00  0.00    -0.121 NA 
HETATM   18  N   UNL     1     -10.180   6.111  72.438  1.00  0.00    -0.186 NA 
HETATM   19  N   UNL     1      -9.331   5.186  72.936  1.00  0.00    -0.134 NA 
BRANCH  18  20
HETATM   20  C   UNL     1     -10.450   7.301  73.226  1.00  0.00    -0.370 C  
BRANCH  20  21
HETATM   21  C   UNL     1      -9.496   8.441  72.825  1.00  0.00    -0.242 C  
BRANCH  21  22
HETATM   22  N   UNL     1      -8.057   8.115  72.699  1.00  0.00    -0.149 NA 
HETATM   23  C   UNL     1      -7.398   8.371  73.993  1.00  0.00    -0.131 C  
HETATM   24  C   UNL     1      -7.369   8.908  71.673  1.00  0.00    -0.019 C  
ENDBRANCH  21  22
ENDBRANCH  20  21
ENDBRANCH  18  20
ENDBRANCH  14  15
ENDBRANCH  13  14
ENDBRANCH   4  13
BRANCH   8  25
HETATM   25  N   UNL     1     -10.045  13.086  67.506  1.00  0.00    -0.216 N  
HETATM   26  C   UNL     1      -9.821  14.382  67.094  1.00  0.00    -0.254 C  
HETATM   27  H   UNL     1     -11.003  12.782  67.681  1.00  0.00     0.000 HD 
HETATM   28  O   UNL     1      -8.711  14.783  66.747  1.00  0.00    -0.240 OA 
BRANCH  26  29
HETATM   29  C   UNL     1     -11.040  15.280  67.117  1.00  0.00    -0.323 C  
BRANCH  29  30
HETATM   30  C   UNL     1     -10.652  16.715  67.078  1.00  0.00    -0.247 A  
HETATM   31  N   UNL     1     -10.140  19.592  69.015  1.00  0.00    -0.586 NA 
HETATM   32  C   UNL     1     -10.277  17.439  65.962  1.00  0.00    -0.300 A  
HETATM   33  S   UNL     1      -9.895  19.046  66.407  1.00  0.00    -0.391 SA 
HETATM   34  H2  UNL     1      -9.833  20.535  68.776  1.00  0.00     0.000 HD 
HETATM   35  H1  UNL     1     -10.355  19.369  69.987  1.00  0.00     0.000 HD 
HETATM   36  N   UNL     1     -10.628  17.432  68.269  1.00  0.00    -0.376 NA 
HETATM   37  C   UNL     1     -10.255  18.670  68.042  1.00  0.00    -0.385 A  
ENDBRANCH  29  30
ENDBRANCH  26  29
ENDBRANCH   8  25
TORSDOF 9
ENDMDL
MODEL      171
REMARK 921   NORMALIZED FREE ENERGY PREDICTED BY IDOCK:   -4.41 KCAL/MOL
REMARK 922        TOTAL FREE ENERGY PREDICTED BY IDOCK:   -8.67 KCAL/MOL
REMARK 923 INTER-LIGAND FREE ENERGY PREDICTED BY IDOCK:   -7.33 KCAL/MOL
REMARK 924 INTRA-LIGAND FREE ENERGY PREDICTED BY IDOCK:   -1.34 KCAL/MOL
REMARK 927      BINDING AFFINITY PREDICTED BY RF-SCORE:    0.00 PKD
ROOT
HETATM    1  C   UNL     1      -9.390   9.769  65.491  1.00  0.00    -0.240 C  
HETATM    2  S   UNL     1     -10.487   9.326  66.857  1.00  0.00    -0.172 SA 
HETATM    3  C   UNL     1     -10.893  11.040  67.254  1.00  0.00    -0.281 C  
HETATM    4  C   UNL     1      -9.700  11.983  67.338  1.00  0.00    -0.185 C  
HETATM    5  C   UNL     1      -7.303   9.795  65.613  1.00  0.00    -0.106 C  
HETATM    6  CA  UNL     1      -8.484  11.725  66.769  1.00  0.00    -0.177 C  
HETATM    7  C   UNL     1      -7.333  12.693  66.962  1.00  0.00     0.055 C  
HETATM    8  CA  UNL     1      -8.307   8.707  65.114  1.00  0.00    -0.168 C  
HETATM    9  N   UNL     1      -8.313  10.588  66.022  1.00  0.00    -0.152 N  
HETATM   10  O   UNL     1      -6.086  12.225  66.781  1.00  0.00    -0.222 OA 
HETATM   11  OXT UNL     1      -7.496  13.869  67.257  1.00  0.00    -0.155 OA 
HETATM   12  O   UNL     1      -6.107   9.914  65.773  1.00  0.00    -0.066 OA 
ENDROOT
BRANCH   4  13
HETATM   13  C   UNL     1     -10.005  13.164  68.268  1.00  0.00    -0.236 C  
BRANCH  13  14
HETATM   14  S   UNL     1     -11.702  13.815  68.061  1.00  0.00    -0.370 SA 
BRANCH  14  15
HETATM   15  C   UNL     1     -12.014  14.584  69.571  1.00  0.00    -0.319 A  
HETATM   16  N   UNL     1     -12.886  14.191  70.471  1.00  0.00    -0.301 NA 
HETATM   17  N   UNL     1     -12.868  15.136  71.462  1.00  0.00    -0.337 NA 
HETATM   18  N   UNL     1     -11.415  15.732  70.021  1.00  0.00    -0.328 NA 
HETATM   19  N   UNL     1     -11.986  16.087  71.193  1.00  0.00    -0.422 NA 
BRANCH  18  20
HETATM   20  C   UNL     1     -10.319  16.538  69.511  1.00  0.00    -0.266 C  
BRANCH  20  21
HETATM   21  C   UNL     1     -10.772  17.349  68.283  1.00  0.00    -0.327 C  
BRANCH  21  22
HETATM   22  N   UNL     1     -10.253  18.729  68.147  1.00  0.00    -0.374 NA 
HETATM   23  C   UNL     1     -10.884  19.359  66.972  1.00  0.00    -0.432 C  
HETATM   24  C   UNL     1      -8.797  18.789  67.968  1.00  0.00    -0.300 C  
ENDBRANCH  21  22
ENDBRANCH  20  21
ENDBRANCH  18  20
ENDBRANCH  14  15
ENDBRANCH  13  14
ENDBRANCH   4  13
BRANCH   8  25
HETATM   25  N   UNL     1      -8.309   7.435  65.898  1.00  0.00    -0.133 N  
HETATM   26  C   UNL     1      -8.425   6.203  65.293  1.00  0.00    -0.120 C  
HETATM   27  H   UNL     1      -8.222   7.481  66.914  1.00  0.00     0.000 HD 
HETATM   28  O   UNL     1      -8.411   6.061  64.071  1.00  0.00    -0.085 OA 
BRANCH  26  29
HETATM   29  C   UNL     1      -8.588   5.037  66.246  1.00  0.00    -0.113 C  
BRANCH  29  30
HETATM   30  C   UNL     1      -9.193   5.474  67.533  1.00  0.00    -0.110 A  
HETATM   31  N   UNL     1      -8.506   6.737  70.731  1.00  0.00    -0.132 NA 
HETATM   32  C   UNL     1     -10.539   5.520  67.840  1.00  0.00    -0.145 A  
HETATM   33  S   UNL     1     -10.759   6.115  69.429  1.00  0.00    -0.356 SA 
HETATM   34  H2  UNL     1      -9.110   7.007  71.507  1.00  0.00     0.000 HD 
HETATM   35  H1  UNL     1      -7.495   6.827  70.832  1.00  0.00     0.000 HD 
HETATM   36  N   UNL     1      -8.352   5.915  68.549  1.00  0.00    -0.108 NA 
HETATM   37  C   UNL     1      -9.059   6.268  69.598  1.00  0.00    -0.142 A  
ENDBRANCH  29  30
ENDBRANCH  26  29
ENDBRANCH   8  25
TORSDOF 9
ENDMDL
MODEL      172
REMARK 921   NORMALIZED FREE ENERGY PREDICTED BY IDOCK:   -4.41 KCAL/MOL
REMARK 922        TOTAL FREE ENERGY PREDICTED BY IDOCK:   -8.67 KCAL/MOL
REMARK 923 INTER-LIGAND FREE ENERGY PREDICTED BY IDOCK:   -7.24 KCAL/MOL
REMARK 924 INTRA-LIGAND FREE ENERGY PREDICTED BY IDOCK:   -1.43 KCAL/MOL
REMARK 927      BINDING AFFINITY PREDICTED BY RF-SCORE:    0.00 PKD
ROOT
HETATM    1  C   UNL     1      -7.558   7.660  69.345  1.00  0.00    -0.095 C  
HETATM    2  S   UNL     1      -7.537   9.318  68.627  1.00  0.00    -0.081 SA 
HETATM    3  C   UNL     1      -8.629  10.015  69.886  1.00  0.00    -0.146 C  
HETATM    4  C   UNL     1      -9.873   9.189  70.190  1.00  0.00    -0.229 C  
HETATM    5  C   UNL     1      -8.711   6.074  68.622  1.00  0.00    -0.110 C  
HETATM    6  CA  UNL     1      -9.993   7.860  69.897  1.00  0.00    -0.192 C  
HETATM    7  C   UNL     1     -11.296   7.134  70.176  1.00  0.00    -0.241 C  
HETATM    8  CA  UNL     1      -7.228   6.489  68.365  1.00  0.00    -0.085 C  
HETATM    9  N   UNL     1      -8.931   7.186  69.352  1.00  0.00    -0.136 N  
HETATM   10  O   UNL     1     -11.534   5.997  69.501  1.00  0.00    -0.384 OA 
HETATM   11  OXT UNL     1     -12.117   7.534  70.990  1.00  0.00    -0.308 OA 
HETATM   12  O   UNL     1      -9.491   5.227  68.241  1.00  0.00    -0.114 OA 
ENDROOT
BRANCH   4  13
HETATM   13  C   UNL     1     -11.003  10.082  70.716  1.00  0.00    -0.305 C  
BRANCH  13  14
HETATM   14  S   UNL     1     -11.956  10.888  69.379  1.00  0.00    -0.284 SA 
BRANCH  14  15
HETATM   15  C   UNL     1     -12.110  12.513  69.930  1.00  0.00    -0.252 A  
HETATM   16  N   UNL     1     -12.632  12.893  71.074  1.00  0.00    -0.345 NA 
HETATM   17  N   UNL     1     -12.633  14.263  71.059  1.00  0.00    -0.335 NA 
HETATM   18  N   UNL     1     -11.736  13.632  69.232  1.00  0.00    -0.304 NA 
HETATM   19  N   UNL     1     -12.102  14.724  69.937  1.00  0.00    -0.319 NA 
BRANCH  18  20
HETATM   20  C   UNL     1     -11.021  13.821  67.981  1.00  0.00    -0.250 C  
BRANCH  20  21
HETATM   21  C   UNL     1     -11.993  13.758  66.790  1.00  0.00    -0.426 C  
BRANCH  21  22
HETATM   22  N   UNL     1     -11.436  13.373  65.473  1.00  0.00    -0.301 NA 
HETATM   23  C   UNL     1     -11.036  14.596  64.751  1.00  0.00    -0.386 C  
HETATM   24  C   UNL     1     -12.388  12.639  64.630  1.00  0.00    -0.476 C  
ENDBRANCH  21  22
ENDBRANCH  20  21
ENDBRANCH  18  20
ENDBRANCH  14  15
ENDBRANCH  13  14
ENDBRANCH   4  13
BRANCH   8  25
HETATM   25  N   UNL     1      -6.906   6.861  66.954  1.00  0.00    -0.063 N  
HETATM   26  C   UNL     1      -6.709   5.913  65.973  1.00  0.00    -0.059 C  
HETATM   27  H   UNL     1      -6.830   7.848  66.709  1.00  0.00     0.000 HD 
HETATM   28  O   UNL     1      -6.904   4.713  66.164  1.00  0.00    -0.052 OA 
BRANCH  26  29
HETATM   29  C   UNL     1      -6.218   6.457  64.648  1.00  0.00    -0.030 C  
BRANCH  29  30
HETATM   30  C   UNL     1      -7.031   7.624  64.212  1.00  0.00    -0.060 A  
HETATM   31  N   UNL     1      -7.871  10.952  64.930  1.00  0.00    -0.345 NA 
HETATM   32  C   UNL     1      -7.850   7.692  63.101  1.00  0.00    -0.134 A  
HETATM   33  S   UNL     1      -8.562   9.243  62.990  1.00  0.00    -0.192 SA 
HETATM   34  H2  UNL     1      -8.475  11.624  64.457  1.00  0.00     0.000 HD 
HETATM   35  H1  UNL     1      -7.382  11.231  65.780  1.00  0.00     0.000 HD 
HETATM   36  N   UNL     1      -6.968   8.797  64.957  1.00  0.00    -0.076 NA 
HETATM   37  C   UNL     1      -7.738   9.714  64.419  1.00  0.00    -0.128 A  
ENDBRANCH  29  30
ENDBRANCH  26  29
ENDBRANCH   8  25
TORSDOF 9
ENDMDL
MODEL      173
REMARK 921   NORMALIZED FREE ENERGY PREDICTED BY IDOCK:   -4.41 KCAL/MOL
REMARK 922        TOTAL FREE ENERGY PREDICTED BY IDOCK:   -8.67 KCAL/MOL
REMARK 923 INTER-LIGAND FREE ENERGY PREDICTED BY IDOCK:   -7.25 KCAL/MOL
REMARK 924 INTRA-LIGAND FREE ENERGY PREDICTED BY IDOCK:   -1.42 KCAL/MOL
REMARK 927      BINDING AFFINITY PREDICTED BY RF-SCORE:    0.00 PKD
ROOT
HETATM    1  C   UNL     1      -6.481  10.386  68.287  1.00  0.00    -0.059 C  
HETATM    2  S   UNL     1      -8.179  10.292  67.678  1.00  0.00    -0.113 SA 
HETATM    3  C   UNL     1      -8.178  11.981  67.038  1.00  0.00    -0.169 C  
HETATM    4  C   UNL     1      -7.629  13.033  67.995  1.00  0.00    -0.139 C  
HETATM    5  C   UNL     1      -5.958  10.695  70.287  1.00  0.00    -0.111 C  
HETATM    6  CA  UNL     1      -6.818  12.746  69.057  1.00  0.00    -0.081 C  
HETATM    7  C   UNL     1      -6.374  13.851  69.996  1.00  0.00    -0.099 C  
HETATM    8  CA  UNL     1      -6.113   9.394  69.437  1.00  0.00    -0.037 C  
HETATM    9  N   UNL     1      -6.409  11.454  69.268  1.00  0.00    -0.074 N  
HETATM   10  O   UNL     1      -5.969  13.499  71.227  1.00  0.00    -0.270 OA 
HETATM   11  OXT UNL     1      -6.359  15.031  69.672  1.00  0.00    -0.120 OA 
HETATM   12  O   UNL     1      -5.711  11.000  71.434  1.00  0.00    -0.349 OA 
ENDROOT
BRANCH   4  13
HETATM   13  C   UNL     1      -8.232  14.410  67.693  1.00  0.00    -0.176 C  
BRANCH  13  14
HETATM   14  S   UNL     1      -9.719  14.773  68.695  1.00  0.00    -0.228 SA 
BRANCH  14  15
HETATM   15  C   UNL     1     -10.811  13.518  68.246  1.00  0.00    -0.259 A  
HETATM   16  N   UNL     1     -11.197  12.522  69.010  1.00  0.00    -0.264 NA 
HETATM   17  N   UNL     1     -11.987  11.722  68.227  1.00  0.00    -0.528 NA 
HETATM   18  N   UNL     1     -11.399  13.374  67.016  1.00  0.00    -0.305 NA 
HETATM   19  N   UNL     1     -12.107  12.223  67.006  1.00  0.00    -0.543 NA 
BRANCH  18  20
HETATM   20  C   UNL     1     -11.426  14.215  65.831  1.00  0.00    -0.338 C  
BRANCH  20  21
HETATM   21  C   UNL     1     -12.455  13.684  64.816  1.00  0.00    -0.350 C  
BRANCH  21  22
HETATM   22  N   UNL     1     -11.934  13.008  63.606  1.00  0.00    -0.517 NA 
HETATM   23  C   UNL     1     -12.798  11.853  63.298  1.00  0.00    -0.161 C  
HETATM   24  C   UNL     1     -10.559  12.520  63.758  1.00  0.00    -0.436 C  
ENDBRANCH  21  22
ENDBRANCH  20  21
ENDBRANCH  18  20
ENDBRANCH  14  15
ENDBRANCH  13  14
ENDBRANCH   4  13
BRANCH   8  25
HETATM   25  N   UNL     1      -7.188   8.461  69.892  1.00  0.00    -0.054 N  
HETATM   26  C   UNL     1      -7.146   7.109  69.625  1.00  0.00    -0.074 C  
HETATM   27  H   UNL     1      -7.978   8.837  70.416  1.00  0.00     0.000 HD 
HETATM   28  O   UNL     1      -6.170   6.568  69.108  1.00  0.00    -0.031 OA 
BRANCH  26  29
HETATM   29  C   UNL     1      -8.398   6.345  70.001  1.00  0.00    -0.130 C  
BRANCH  29  30
HETATM   30  C   UNL     1      -9.264   6.114  68.814  1.00  0.00    -0.124 A  
HETATM   31  N   UNL     1     -10.117   3.825  66.299  1.00  0.00    -0.396 NA 
HETATM   32  C   UNL     1     -10.212   6.979  68.303  1.00  0.00    -0.182 A  
HETATM   33  S   UNL     1     -10.979   6.274  66.946  1.00  0.00    -0.224 SA 
HETATM   34  H2  UNL     1     -10.801   3.859  65.543  1.00  0.00     0.000 HD 
HETATM   35  H1  UNL     1      -9.535   2.995  66.408  1.00  0.00     0.000 HD 
HETATM   36  N   UNL     1      -9.158   4.905  68.136  1.00  0.00    -0.110 NA 
HETATM   37  C   UNL     1     -10.001   4.877  67.130  1.00  0.00    -0.197 A  
ENDBRANCH  29  30
ENDBRANCH  26  29
ENDBRANCH   8  25
TORSDOF 9
ENDMDL
MODEL      174
REMARK 921   NORMALIZED FREE ENERGY PREDICTED BY IDOCK:   -4.38 KCAL/MOL
REMARK 922        TOTAL FREE ENERGY PREDICTED BY IDOCK:   -8.62 KCAL/MOL
REMARK 923 INTER-LIGAND FREE ENERGY PREDICTED BY IDOCK:   -7.00 KCAL/MOL
REMARK 924 INTRA-LIGAND FREE ENERGY PREDICTED BY IDOCK:   -1.62 KCAL/MOL
REMARK 927      BINDING AFFINITY PREDICTED BY RF-SCORE:    0.00 PKD
ROOT
HETATM    1  C   UNL     1      -9.777   9.828  67.887  1.00  0.00    -0.144 C  
HETATM    2  S   UNL     1      -8.105  10.397  68.269  1.00  0.00    -0.117 SA 
HETATM    3  C   UNL     1      -7.879   9.222  69.623  1.00  0.00    -0.090 C  
HETATM    4  C   UNL     1      -9.040   9.140  70.606  1.00  0.00    -0.307 C  
HETATM    5  C   UNL     1     -11.523  10.814  68.475  1.00  0.00    -0.292 C  
HETATM    6  CA  UNL     1     -10.310   9.556  70.320  1.00  0.00    -0.269 C  
HETATM    7  C   UNL     1     -11.388   9.496  71.385  1.00  0.00    -0.392 C  
HETATM    8  CA  UNL     1     -10.695  10.857  67.152  1.00  0.00    -0.270 C  
HETATM    9  N   UNL     1     -10.603  10.025  69.065  1.00  0.00    -0.204 N  
HETATM   10  O   UNL     1     -12.463  10.288  71.231  1.00  0.00    -0.339 OA 
HETATM   11  OXT UNL     1     -11.322   8.756  72.356  1.00  0.00    -0.338 OA 
HETATM   12  O   UNL     1     -12.501  11.356  68.947  1.00  0.00    -0.386 OA 
ENDROOT
BRANCH   4  13
HETATM   13  C   UNL     1      -8.553   8.679  71.985  1.00  0.00    -0.146 C  
BRANCH  13  14
HETATM   14  S   UNL     1      -8.669   6.868  72.214  1.00  0.00    -0.126 SA 
BRANCH  14  15
HETATM   15  C   UNL     1      -7.331   6.271  71.308  1.00  0.00    -0.081 A  
HETATM   16  N   UNL     1      -6.064   6.394  71.631  1.00  0.00    -0.040 NA 
HETATM   17  N   UNL     1      -5.349   5.859  70.593  1.00  0.00    -0.012 NA 
HETATM   18  N   UNL     1      -7.410   5.614  70.107  1.00  0.00    -0.067 NA 
HETATM   19  N   UNL     1      -6.157   5.393  69.652  1.00  0.00    -0.020 NA 
BRANCH  18  20
HETATM   20  C   UNL     1      -8.529   5.111  69.329  1.00  0.00    -0.093 C  
BRANCH  20  21
HETATM   21  C   UNL     1      -8.849   6.066  68.165  1.00  0.00    -0.111 C  
BRANCH  21  22
HETATM   22  N   UNL     1     -10.217   6.629  68.099  1.00  0.00    -0.158 NA 
HETATM   23  C   UNL     1     -10.959   6.214  69.304  1.00  0.00    -0.381 C  
HETATM   24  C   UNL     1     -10.974   6.183  66.923  1.00  0.00    -0.305 C  
ENDBRANCH  21  22
ENDBRANCH  20  21
ENDBRANCH  18  20
ENDBRANCH  14  15
ENDBRANCH  13  14
ENDBRANCH   4  13
BRANCH   8  25
HETATM   25  N   UNL     1     -10.092  12.183  66.821  1.00  0.00    -0.199 N  
HETATM   26  C   UNL     1     -10.802  13.170  66.173  1.00  0.00    -0.279 C  
HETATM   27  H   UNL     1      -9.122  12.363  67.083  1.00  0.00     0.000 HD 
HETATM   28  O   UNL     1     -12.006  13.072  65.936  1.00  0.00    -0.392 OA 
BRANCH  26  29
HETATM   29  C   UNL     1      -9.987  14.377  65.759  1.00  0.00    -0.354 C  
BRANCH  29  30
HETATM   30  C   UNL     1      -9.318  15.002  66.932  1.00  0.00    -0.241 A  
HETATM   31  N   UNL     1      -6.239  15.526  68.524  1.00  0.00    -0.095 NA 
HETATM   32  C   UNL     1      -9.922  15.748  67.927  1.00  0.00    -0.227 A  
HETATM   33  S   UNL     1      -8.750  16.283  69.052  1.00  0.00    -0.220 SA 
HETATM   34  H2  UNL     1      -5.980  16.038  69.368  1.00  0.00     0.000 HD 
HETATM   35  H1  UNL     1      -5.513  15.054  67.985  1.00  0.00     0.000 HD 
HETATM   36  N   UNL     1      -7.941  14.868  67.064  1.00  0.00    -0.189 NA 
HETATM   37  C   UNL     1      -7.529  15.489  68.146  1.00  0.00    -0.114 A  
ENDBRANCH  29  30
ENDBRANCH  26  29
ENDBRANCH   8  25
TORSDOF 9
ENDMDL
MODEL      175
REMARK 921   NORMALIZED FREE ENERGY PREDICTED BY IDOCK:   -4.38 KCAL/MOL
REMARK 922        TOTAL FREE ENERGY PREDICTED BY IDOCK:   -8.62 KCAL/MOL
REMARK 923 INTER-LIGAND FREE ENERGY PREDICTED BY IDOCK:   -6.94 KCAL/MOL
REMARK 924 INTRA-LIGAND FREE ENERGY PREDICTED BY IDOCK:   -1.68 KCAL/MOL
REMARK 927      BINDING AFFINITY PREDICTED BY RF-SCORE:    0.00 PKD
ROOT
HETATM    1  C   UNL     1      -7.896   8.994  67.629  1.00  0.00    -0.101 C  
HETATM    2  S   UNL     1      -8.050   7.194  67.632  1.00  0.00    -0.114 SA 
HETATM    3  C   UNL     1      -7.453   7.014  65.937  1.00  0.00    -0.080 C  
HETATM    4  C   UNL     1      -8.086   7.962  64.926  1.00  0.00    -0.144 C  
HETATM    5  C   UNL     1      -9.494  10.316  67.373  1.00  0.00    -0.153 C  
HETATM    6  CA  UNL     1      -8.717   9.126  65.266  1.00  0.00    -0.188 C  
HETATM    7  C   UNL     1      -9.376   9.975  64.196  1.00  0.00    -0.280 C  
HETATM    8  CA  UNL     1      -8.797   9.756  68.653  1.00  0.00    -0.126 C  
HETATM    9  N   UNL     1      -8.749   9.521  66.579  1.00  0.00    -0.133 N  
HETATM   10  O   UNL     1     -10.330  10.838  64.584  1.00  0.00    -0.335 OA 
HETATM   11  OXT UNL     1      -9.066   9.913  63.015  1.00  0.00    -0.245 OA 
HETATM   12  O   UNL     1     -10.432  11.033  67.095  1.00  0.00    -0.209 OA 
ENDROOT
BRANCH   4  13
HETATM   13  C   UNL     1      -8.051   7.358  63.517  1.00  0.00    -0.006 C  
BRANCH  13  14
HETATM   14  S   UNL     1      -7.331   5.676  63.480  1.00  0.00    -0.062 SA 
BRANCH  14  15
HETATM   15  C   UNL     1      -8.718   4.658  63.384  1.00  0.00    -0.132 A  
HETATM   16  N   UNL     1      -9.549   4.581  62.370  1.00  0.00    -0.121 NA 
HETATM   17  N   UNL     1     -10.546   3.724  62.754  1.00  0.00    -0.206 NA 
HETATM   18  N   UNL     1      -9.158   3.814  64.370  1.00  0.00    -0.122 NA 
HETATM   19  N   UNL     1     -10.326   3.260  63.976  1.00  0.00    -0.199 NA 
BRANCH  18  20
HETATM   20  C   UNL     1      -8.595   3.409  65.647  1.00  0.00    -0.116 C  
BRANCH  20  21
HETATM   21  C   UNL     1      -9.592   3.682  66.787  1.00  0.00    -0.149 C  
BRANCH  21  22
HETATM   22  N   UNL     1      -9.334   3.030  68.091  1.00  0.00    -0.203 NA 
HETATM   23  C   UNL     1      -9.354   4.058  69.148  1.00  0.00    -0.167 C  
HETATM   24  C   UNL     1      -8.039   2.341  68.151  1.00  0.00    -0.058 C  
ENDBRANCH  21  22
ENDBRANCH  20  21
ENDBRANCH  18  20
ENDBRANCH  14  15
ENDBRANCH  13  14
ENDBRANCH   4  13
BRANCH   8  25
HETATM   25  N   UNL     1      -9.665   8.923  69.538  1.00  0.00    -0.170 N  
HETATM   26  C   UNL     1      -9.311   8.617  70.834  1.00  0.00    -0.189 C  
HETATM   27  H   UNL     1     -10.549   8.569  69.171  1.00  0.00     0.000 HD 
HETATM   28  O   UNL     1      -8.324   9.106  71.383  1.00  0.00    -0.321 OA 
BRANCH  26  29
HETATM   29  C   UNL     1     -10.216   7.619  71.526  1.00  0.00    -0.212 C  
BRANCH  29  30
HETATM   30  C   UNL     1     -11.602   8.146  71.648  1.00  0.00    -0.279 A  
HETATM   31  N   UNL     1     -13.532  11.038  72.101  1.00  0.00    -0.529 NA 
HETATM   32  C   UNL     1     -12.773   7.417  71.563  1.00  0.00    -0.372 A  
HETATM   33  S   UNL     1     -14.123   8.453  71.739  1.00  0.00    -0.441 SA 
HETATM   34  H2  UNL     1     -14.540  11.192  72.136  1.00  0.00     0.000 HD 
HETATM   35  H1  UNL     1     -12.902  11.832  72.207  1.00  0.00     0.000 HD 
HETATM   36  N   UNL     1     -11.782   9.511  71.843  1.00  0.00    -0.334 NA 
HETATM   37  C   UNL     1     -13.063   9.790  71.916  1.00  0.00    -0.446 A  
ENDBRANCH  29  30
ENDBRANCH  26  29
ENDBRANCH   8  25
TORSDOF 9
ENDMDL
MODEL      176
REMARK 921   NORMALIZED FREE ENERGY PREDICTED BY IDOCK:   -4.37 KCAL/MOL
REMARK 922        TOTAL FREE ENERGY PREDICTED BY IDOCK:   -8.61 KCAL/MOL
REMARK 923 INTER-LIGAND FREE ENERGY PREDICTED BY IDOCK:   -7.69 KCAL/MOL
REMARK 924 INTRA-LIGAND FREE ENERGY PREDICTED BY IDOCK:   -0.92 KCAL/MOL
REMARK 927      BINDING AFFINITY PREDICTED BY RF-SCORE:    0.00 PKD
ROOT
HETATM    1  C   UNL     1      -8.942   9.581  65.688  1.00  0.00    -0.183 C  
HETATM    2  S   UNL     1     -10.626   9.951  66.227  1.00  0.00     0.068 SA 
HETATM    3  C   UNL     1     -10.467  11.726  65.932  1.00  0.00    -0.255 C  
HETATM    4  C   UNL     1      -9.194  12.360  66.480  1.00  0.00    -0.215 C  
HETATM    5  C   UNL     1      -7.338   9.227  66.981  1.00  0.00    -0.091 C  
HETATM    6  CA  UNL     1      -8.065  11.654  66.788  1.00  0.00    -0.150 C  
HETATM    7  C   UNL     1      -6.867  12.361  67.393  1.00  0.00    -0.147 C  
HETATM    8  CA  UNL     1      -8.322   8.260  66.247  1.00  0.00    -0.124 C  
HETATM    9  N   UNL     1      -8.021  10.305  66.547  1.00  0.00    -0.115 N  
HETATM   10  O   UNL     1      -5.979  11.616  68.072  1.00  0.00    -0.046 OA 
HETATM   11  OXT UNL     1      -6.677  13.564  67.274  1.00  0.00    -0.211 OA 
HETATM   12  O   UNL     1      -6.421   9.153  67.770  1.00  0.00    -0.055 OA 
ENDROOT
BRANCH   4  13
HETATM   13  C   UNL     1      -9.413  13.848  66.778  1.00  0.00    -0.279 C  
BRANCH  13  14
HETATM   14  S   UNL     1     -11.174  14.274  67.027  1.00  0.00    -0.336 SA 
BRANCH  14  15
HETATM   15  C   UNL     1     -11.567  15.166  65.605  1.00  0.00    -0.118 A  
HETATM   16  N   UNL     1     -12.480  14.840  64.719  1.00  0.00    -0.422 NA 
HETATM   17  N   UNL     1     -12.392  15.771  63.718  1.00  0.00    -0.560 NA 
HETATM   18  N   UNL     1     -10.953  16.320  65.192  1.00  0.00    -0.431 NA 
HETATM   19  N   UNL     1     -11.457  16.670  63.988  1.00  0.00    -1.136 NA 
BRANCH  18  20
HETATM   20  C   UNL     1      -9.966  17.188  65.809  1.00  0.00    -0.119 C  
BRANCH  20  21
HETATM   21  C   UNL     1     -10.575  18.568  66.113  1.00  0.00    -0.338 C  
BRANCH  21  22
HETATM   22  N   UNL     1      -9.640  19.683  66.388  1.00  0.00    -0.378 NA 
HETATM   23  C   UNL     1      -8.264  19.223  66.127  1.00  0.00    -0.282 C  
HETATM   24  C   UNL     1      -9.704  20.168  67.772  1.00  0.00    -0.394 C  
ENDBRANCH  21  22
ENDBRANCH  20  21
ENDBRANCH  18  20
ENDBRANCH  14  15
ENDBRANCH  13  14
ENDBRANCH   4  13
BRANCH   8  25
HETATM   25  N   UNL     1      -9.189   7.435  67.141  1.00  0.00    -0.131 N  
HETATM   26  C   UNL     1      -9.152   6.057  67.128  1.00  0.00    -0.113 C  
HETATM   27  H   UNL     1      -9.828   7.906  67.781  1.00  0.00     0.000 HD 
HETATM   28  O   UNL     1      -8.323   5.424  66.475  1.00  0.00    -0.108 OA 
BRANCH  26  29
HETATM   29  C   UNL     1     -10.218   5.382  67.965  1.00  0.00    -0.221 C  
BRANCH  29  30
HETATM   30  C   UNL     1      -9.634   4.773  69.190  1.00  0.00    -0.167 A  
HETATM   31  N   UNL     1      -9.115   5.208  72.630  1.00  0.00    -0.131 NA 
HETATM   32  C   UNL     1      -9.012   3.543  69.285  1.00  0.00    -0.119 A  
HETATM   33  S   UNL     1      -8.525   3.255  70.899  1.00  0.00    -0.067 SA 
HETATM   34  H2  UNL     1      -8.680   4.617  73.339  1.00  0.00     0.000 HD 
HETATM   35  H1  UNL     1      -9.498   6.113  72.902  1.00  0.00     0.000 HD 
HETATM   36  N   UNL     1      -9.727   5.469  70.390  1.00  0.00    -0.174 NA 
HETATM   37  C   UNL     1      -9.170   4.777  71.357  1.00  0.00    -0.142 A  
ENDBRANCH  29  30
ENDBRANCH  26  29
ENDBRANCH   8  25
TORSDOF 9
ENDMDL
MODEL      177
REMARK 921   NORMALIZED FREE ENERGY PREDICTED BY IDOCK:   -4.37 KCAL/MOL
REMARK 922        TOTAL FREE ENERGY PREDICTED BY IDOCK:   -8.61 KCAL/MOL
REMARK 923 INTER-LIGAND FREE ENERGY PREDICTED BY IDOCK:   -7.02 KCAL/MOL
REMARK 924 INTRA-LIGAND FREE ENERGY PREDICTED BY IDOCK:   -1.59 KCAL/MOL
REMARK 927      BINDING AFFINITY PREDICTED BY RF-SCORE:    0.00 PKD
ROOT
HETATM    1  C   UNL     1     -11.026   9.359  68.657  1.00  0.00    -0.032 C  
HETATM    2  S   UNL     1      -9.267   9.384  68.244  1.00  0.00    -0.130 SA 
HETATM    3  C   UNL     1      -9.003   7.660  68.713  1.00  0.00    -0.133 C  
HETATM    4  C   UNL     1      -9.598   7.259  70.057  1.00  0.00    -0.167 C  
HETATM    5  C   UNL     1     -11.839  10.151  70.412  1.00  0.00    -0.288 C  
HETATM    6  CA  UNL     1     -10.596   7.951  70.684  1.00  0.00    -0.219 C  
HETATM    7  C   UNL     1     -11.081   7.515  72.053  1.00  0.00    -0.247 C  
HETATM    8  CA  UNL     1     -11.671  10.746  68.978  1.00  0.00    -0.286 C  
HETATM    9  N   UNL     1     -11.156   9.041  70.068  1.00  0.00    -0.220 N  
HETATM   10  O   UNL     1     -11.715   8.425  72.811  1.00  0.00    -0.367 OA 
HETATM   11  OXT UNL     1     -10.930   6.378  72.480  1.00  0.00    -0.230 OA 
HETATM   12  O   UNL     1     -12.241  10.512  71.498  1.00  0.00    -0.355 OA 
ENDROOT
BRANCH   4  13
HETATM   13  C   UNL     1      -8.825   6.083  70.665  1.00  0.00    -0.142 C  
BRANCH  13  14
HETATM   14  S   UNL     1      -9.263   4.475  69.911  1.00  0.00    -0.143 SA 
BRANCH  14  15
HETATM   15  C   UNL     1      -7.909   4.134  68.900  1.00  0.00    -0.061 A  
HETATM   16  N   UNL     1      -6.769   3.610  69.290  1.00  0.00    -0.037 NA 
HETATM   17  N   UNL     1      -5.955   3.599  68.188  1.00  0.00    -0.026 NA 
HETATM   18  N   UNL     1      -7.830   4.395  67.557  1.00  0.00    -0.085 NA 
HETATM   19  N   UNL     1      -6.585   4.087  67.129  1.00  0.00    -0.045 NA 
BRANCH  18  20
HETATM   20  C   UNL     1      -8.802   4.862  66.584  1.00  0.00    -0.110 C  
BRANCH  20  21
HETATM   21  C   UNL     1      -8.091   5.421  65.338  1.00  0.00    -0.120 C  
BRANCH  21  22
HETATM   22  N   UNL     1      -7.902   6.888  65.259  1.00  0.00    -0.110 NA 
HETATM   23  C   UNL     1      -7.907   7.292  63.841  1.00  0.00    -0.111 C  
HETATM   24  C   UNL     1      -6.642   7.345  65.858  1.00  0.00    -0.045 C  
ENDBRANCH  21  22
ENDBRANCH  20  21
ENDBRANCH  18  20
ENDBRANCH  14  15
ENDBRANCH  13  14
ENDBRANCH   4  13
BRANCH   8  25
HETATM   25  N   UNL     1     -10.779  11.941  68.885  1.00  0.00    -0.290 N  
HETATM   26  C   UNL     1     -11.237  13.217  69.134  1.00  0.00    -0.251 C  
HETATM   27  H   UNL     1      -9.801  11.808  68.628  1.00  0.00     0.000 HD 
HETATM   28  O   UNL     1     -12.367  13.442  69.565  1.00  0.00    -0.238 OA 
BRANCH  26  29
HETATM   29  C   UNL     1     -10.249  14.322  68.821  1.00  0.00    -0.226 C  
BRANCH  29  30
HETATM   30  C   UNL     1     -10.318  14.714  67.387  1.00  0.00    -0.241 A  
HETATM   31  N   UNL     1     -10.184  13.530  64.090  1.00  0.00    -0.758 NA 
HETATM   32  C   UNL     1     -10.536  15.984  66.888  1.00  0.00    -0.306 A  
HETATM   33  S   UNL     1     -10.559  15.946  65.178  1.00  0.00    -0.330 SA 
HETATM   34  H2  UNL     1     -10.282  13.997  63.188  1.00  0.00     0.000 HD 
HETATM   35  H1  UNL     1     -10.016  12.525  64.115  1.00  0.00     0.000 HD 
HETATM   36  N   UNL     1     -10.180  13.726  66.418  1.00  0.00    -0.285 NA 
HETATM   37  C   UNL     1     -10.278  14.254  65.220  1.00  0.00    -0.382 A  
ENDBRANCH  29  30
ENDBRANCH  26  29
ENDBRANCH   8  25
TORSDOF 9
ENDMDL
MODEL      178
REMARK 921   NORMALIZED FREE ENERGY PREDICTED BY IDOCK:   -4.37 KCAL/MOL
REMARK 922        TOTAL FREE ENERGY PREDICTED BY IDOCK:   -8.61 KCAL/MOL
REMARK 923 INTER-LIGAND FREE ENERGY PREDICTED BY IDOCK:   -7.68 KCAL/MOL
REMARK 924 INTRA-LIGAND FREE ENERGY PREDICTED BY IDOCK:   -0.93 KCAL/MOL
REMARK 927      BINDING AFFINITY PREDICTED BY RF-SCORE:    0.00 PKD
ROOT
HETATM    1  C   UNL     1      -9.367  11.236  68.731  1.00  0.00    -0.128 C  
HETATM    2  S   UNL     1     -10.966  10.807  69.454  1.00  0.00    -0.269 SA 
HETATM    3  C   UNL     1     -10.728   9.029  69.240  1.00  0.00    -0.174 C  
HETATM    4  C   UNL     1     -10.228   8.606  67.864  1.00  0.00    -0.273 C  
HETATM    5  C   UNL     1      -9.102  11.932  66.778  1.00  0.00    -0.197 C  
HETATM    6  CA  UNL     1      -9.601   9.450  66.990  1.00  0.00    -0.158 C  
HETATM    7  C   UNL     1      -9.197   8.957  65.614  1.00  0.00    -0.204 C  
HETATM    8  CA  UNL     1      -9.251  12.679  68.142  1.00  0.00    -0.209 C  
HETATM    9  N   UNL     1      -9.339  10.742  67.365  1.00  0.00    -0.150 N  
HETATM   10  O   UNL     1      -8.999   9.876  64.655  1.00  0.00    -0.188 OA 
HETATM   11  OXT UNL     1      -9.034   7.772  65.355  1.00  0.00    -0.028 OA 
HETATM   12  O   UNL     1      -8.991  12.212  65.603  1.00  0.00     0.032 OA 
ENDROOT
BRANCH   4  13
HETATM   13  C   UNL     1     -10.661   7.170  67.546  1.00  0.00    -0.278 C  
BRANCH  13  14
HETATM   14  S   UNL     1     -11.068   6.200  69.042  1.00  0.00    -0.287 SA 
BRANCH  14  15
HETATM   15  C   UNL     1      -9.752   5.093  69.162  1.00  0.00    -0.163 A  
HETATM   16  N   UNL     1      -8.931   4.764  68.191  1.00  0.00    -0.108 NA 
HETATM   17  N   UNL     1      -8.104   3.797  68.699  1.00  0.00    -0.073 NA 
HETATM   18  N   UNL     1      -9.407   4.381  70.281  1.00  0.00    -0.132 NA 
HETATM   19  N   UNL     1      -8.394   3.545  69.967  1.00  0.00    -0.051 NA 
BRANCH  18  20
HETATM   20  C   UNL     1      -9.880   4.411  71.655  1.00  0.00    -0.185 C  
BRANCH  20  21
HETATM   21  C   UNL     1     -10.053   5.864  72.134  1.00  0.00    -0.180 C  
BRANCH  21  22
HETATM   22  N   UNL     1      -8.881   6.521  72.757  1.00  0.00    -0.124 NA 
HETATM   23  C   UNL     1      -8.260   7.421  71.768  1.00  0.00    -0.103 C  
HETATM   24  C   UNL     1      -7.859   5.574  73.217  1.00  0.00    -0.104 C  
ENDBRANCH  21  22
ENDBRANCH  20  21
ENDBRANCH  18  20
ENDBRANCH  14  15
ENDBRANCH  13  14
ENDBRANCH   4  13
BRANCH   8  25
HETATM   25  N   UNL     1     -10.456  13.554  68.261  1.00  0.00    -0.246 N  
HETATM   26  C   UNL     1     -10.465  14.685  69.048  1.00  0.00    -0.246 C  
HETATM   27  H   UNL     1     -11.299  13.307  67.742  1.00  0.00     0.000 HD 
HETATM   28  O   UNL     1      -9.453  15.113  69.603  1.00  0.00    -0.193 OA 
BRANCH  26  29
HETATM   29  C   UNL     1     -11.817  15.352  69.193  1.00  0.00    -0.357 C  
BRANCH  29  30
HETATM   30  C   UNL     1     -12.480  14.954  70.464  1.00  0.00    -0.363 A  
HETATM   31  N   UNL     1     -13.747  16.124  73.516  1.00  0.00    -0.843 NA 
HETATM   32  C   UNL     1     -12.882  13.681  70.822  1.00  0.00    -0.202 A  
HETATM   33  S   UNL     1     -13.621  13.712  72.365  1.00  0.00    -0.597 SA 
HETATM   34  H2  UNL     1     -14.212  15.653  74.292  1.00  0.00     0.000 HD 
HETATM   35  H1  UNL     1     -13.588  17.130  73.567  1.00  0.00     0.000 HD 
HETATM   36  N   UNL     1     -12.765  15.938  71.404  1.00  0.00    -0.439 NA 
HETATM   37  C   UNL     1     -13.354  15.405  72.449  1.00  0.00    -0.458 A  
ENDBRANCH  29  30
ENDBRANCH  26  29
ENDBRANCH   8  25
TORSDOF 9
ENDMDL
MODEL      179
REMARK 921   NORMALIZED FREE ENERGY PREDICTED BY IDOCK:   -4.36 KCAL/MOL
REMARK 922        TOTAL FREE ENERGY PREDICTED BY IDOCK:   -8.60 KCAL/MOL
REMARK 923 INTER-LIGAND FREE ENERGY PREDICTED BY IDOCK:   -7.27 KCAL/MOL
REMARK 924 INTRA-LIGAND FREE ENERGY PREDICTED BY IDOCK:   -1.33 KCAL/MOL
REMARK 927      BINDING AFFINITY PREDICTED BY RF-SCORE:    0.00 PKD
ROOT
HETATM    1  C   UNL     1      -8.398  12.385  68.736  1.00  0.00     0.125 C  
HETATM    2  S   UNL     1     -10.154  12.516  68.329  1.00  0.00    -0.223 SA 
HETATM    3  C   UNL     1     -10.552  10.871  68.960  1.00  0.00    -0.216 C  
HETATM    4  C   UNL     1      -9.611   9.761  68.508  1.00  0.00    -0.155 C  
HETATM    5  C   UNL     1      -6.894  11.949  67.351  1.00  0.00    -0.130 C  
HETATM    6  CA  UNL     1      -8.348   9.980  68.035  1.00  0.00    -0.117 C  
HETATM    7  C   UNL     1      -7.507   8.817  67.545  1.00  0.00    -0.089 C  
HETATM    8  CA  UNL     1      -7.437  13.302  67.912  1.00  0.00    -0.143 C  
HETATM    9  N   UNL     1      -7.846  11.256  68.007  1.00  0.00    -0.110 N  
HETATM   10  O   UNL     1      -6.492   9.090  66.708  1.00  0.00    -0.062 OA 
HETATM   11  OXT UNL     1      -7.707   7.661  67.890  1.00  0.00    -0.110 OA 
HETATM   12  O   UNL     1      -6.080  11.571  66.535  1.00  0.00    -0.145 OA 
ENDROOT
BRANCH   4  13
HETATM   13  C   UNL     1     -10.328   8.405  68.513  1.00  0.00    -0.200 C  
BRANCH  13  14
HETATM   14  S   UNL     1     -11.004   7.962  70.154  1.00  0.00    -0.196 SA 
BRANCH  14  15
HETATM   15  C   UNL     1      -9.612   7.977  71.169  1.00  0.00    -0.160 A  
HETATM   16  N   UNL     1      -9.252   8.954  71.970  1.00  0.00    -0.386 NA 
HETATM   17  N   UNL     1      -8.049   8.585  72.511  1.00  0.00    -0.339 NA 
HETATM   18  N   UNL     1      -8.673   6.982  71.252  1.00  0.00    -0.130 NA 
HETATM   19  N   UNL     1      -7.679   7.391  72.070  1.00  0.00    -0.087 NA 
BRANCH  18  20
HETATM   20  C   UNL     1      -8.601   5.644  70.689  1.00  0.00    -0.130 C  
BRANCH  20  21
HETATM   21  C   UNL     1      -9.703   4.749  71.283  1.00  0.00    -0.178 C  
BRANCH  21  22
HETATM   22  N   UNL     1      -9.930   4.822  72.744  1.00  0.00    -0.158 NA 
HETATM   23  C   UNL     1      -9.560   3.528  73.347  1.00  0.00    -0.108 C  
HETATM   24  C   UNL     1     -11.324   5.110  73.103  1.00  0.00    -0.313 C  
ENDBRANCH  21  22
ENDBRANCH  20  21
ENDBRANCH  18  20
ENDBRANCH  14  15
ENDBRANCH  13  14
ENDBRANCH   4  13
BRANCH   8  25
HETATM   25  N   UNL     1      -8.068  14.202  66.900  1.00  0.00    -0.381 N  
HETATM   26  C   UNL     1      -8.287  15.540  67.146  1.00  0.00    -0.214 C  
HETATM   27  H   UNL     1      -8.346  13.814  65.998  1.00  0.00     0.000 HD 
HETATM   28  O   UNL     1      -7.870  16.104  68.157  1.00  0.00    -0.141 OA 
BRANCH  26  29
HETATM   29  C   UNL     1      -9.094  16.261  66.087  1.00  0.00    -0.377 C  
BRANCH  29  30
HETATM   30  C   UNL     1      -9.115  17.728  66.332  1.00  0.00    -0.234 A  
HETATM   31  N   UNL     1      -7.411  20.743  65.787  1.00  0.00    -0.501 NA 
HETATM   32  C   UNL     1     -10.097  18.441  66.994  1.00  0.00    -0.364 A  
HETATM   33  S   UNL     1      -9.705  20.106  67.008  1.00  0.00    -0.459 SA 
HETATM   34  H2  UNL     1      -7.625  21.708  66.040  1.00  0.00     0.000 HD 
HETATM   35  H1  UNL     1      -6.555  20.541  65.271  1.00  0.00     0.000 HD 
HETATM   36  N   UNL     1      -8.071  18.502  65.838  1.00  0.00    -0.496 NA 
HETATM   37  C   UNL     1      -8.265  19.765  66.141  1.00  0.00    -0.344 A  
ENDBRANCH  29  30
ENDBRANCH  26  29
ENDBRANCH   8  25
TORSDOF 9
ENDMDL
MODEL      180
REMARK 921   NORMALIZED FREE ENERGY PREDICTED BY IDOCK:   -4.36 KCAL/MOL
REMARK 922        TOTAL FREE ENERGY PREDICTED BY IDOCK:   -8.60 KCAL/MOL
REMARK 923 INTER-LIGAND FREE ENERGY PREDICTED BY IDOCK:   -6.98 KCAL/MOL
REMARK 924 INTRA-LIGAND FREE ENERGY PREDICTED BY IDOCK:   -1.62 KCAL/MOL
REMARK 927      BINDING AFFINITY PREDICTED BY RF-SCORE:    0.00 PKD
ROOT
HETATM    1  C   UNL     1      -6.231  10.550  68.462  1.00  0.00    -0.046 C  
HETATM    2  S   UNL     1      -7.429  10.073  69.728  1.00  0.00    -0.165 SA 
HETATM    3  C   UNL     1      -6.784   8.393  69.884  1.00  0.00    -0.042 C  
HETATM    4  C   UNL     1      -6.542   7.669  68.566  1.00  0.00    -0.053 C  
HETATM    5  C   UNL     1      -6.650  10.649  66.416  1.00  0.00    -0.120 C  
HETATM    6  CA  UNL     1      -6.398   8.304  67.364  1.00  0.00    -0.057 C  
HETATM    7  C   UNL     1      -6.227   7.497  66.092  1.00  0.00    -0.041 C  
HETATM    8  CA  UNL     1      -6.654  11.737  67.537  1.00  0.00    -0.097 C  
HETATM    9  N   UNL     1      -6.408   9.675  67.316  1.00  0.00    -0.067 N  
HETATM   10  O   UNL     1      -6.524   8.096  64.927  1.00  0.00    -0.048 OA 
HETATM   11  OXT UNL     1      -5.822   6.343  66.087  1.00  0.00    -0.023 OA 
HETATM   12  O   UNL     1      -6.910  10.569  65.234  1.00  0.00    -0.123 OA 
ENDROOT
BRANCH   4  13
HETATM   13  C   UNL     1      -6.639   6.150  68.754  1.00  0.00    -0.055 C  
BRANCH  13  14
HETATM   14  S   UNL     1      -8.325   5.592  69.191  1.00  0.00    -0.098 SA 
BRANCH  14  15
HETATM   15  C   UNL     1      -9.335   6.595  68.220  1.00  0.00    -0.119 A  
HETATM   16  N   UNL     1      -9.400   6.584  66.907  1.00  0.00    -0.141 NA 
HETATM   17  N   UNL     1     -10.254   7.595  66.557  1.00  0.00    -0.178 NA 
HETATM   18  N   UNL     1     -10.183   7.564  68.687  1.00  0.00    -0.193 NA 
HETATM   19  N   UNL     1     -10.728   8.209  67.631  1.00  0.00    -0.186 NA 
BRANCH  18  20
HETATM   20  C   UNL     1     -10.600   7.950  70.025  1.00  0.00    -0.242 C  
BRANCH  20  21
HETATM   21  C   UNL     1     -11.036   9.426  70.050  1.00  0.00    -0.239 C  
BRANCH  21  22
HETATM   22  N   UNL     1     -11.883   9.869  71.180  1.00  0.00    -0.356 NA 
HETATM   23  C   UNL     1     -12.882   8.822  71.464  1.00  0.00    -0.325 C  
HETATM   24  C   UNL     1     -12.601  11.121  70.913  1.00  0.00    -0.386 C  
ENDBRANCH  21  22
ENDBRANCH  20  21
ENDBRANCH  18  20
ENDBRANCH  14  15
ENDBRANCH  13  14
ENDBRANCH   4  13
BRANCH   8  25
HETATM   25  N   UNL     1      -7.982  12.364  67.810  1.00  0.00    -0.143 N  
HETATM   26  C   UNL     1      -8.207  13.712  67.626  1.00  0.00    -0.178 C  
HETATM   27  H   UNL     1      -8.746  11.777  68.144  1.00  0.00     0.000 HD 
HETATM   28  O   UNL     1      -7.374  14.457  67.113  1.00  0.00    -0.115 OA 
BRANCH  26  29
HETATM   29  C   UNL     1      -9.550  14.208  68.120  1.00  0.00    -0.218 C  
BRANCH  29  30
HETATM   30  C   UNL     1     -10.539  14.276  67.010  1.00  0.00    -0.280 A  
HETATM   31  N   UNL     1     -11.518  16.066  64.159  1.00  0.00    -1.123 NA 
HETATM   32  C   UNL     1     -11.570  13.389  66.767  1.00  0.00    -0.365 A  
HETATM   33  S   UNL     1     -12.429  13.858  65.364  1.00  0.00    -0.503 SA 
HETATM   34  H2  UNL     1     -12.265  15.921  63.480  1.00  0.00     0.000 HD 
HETATM   35  H1  UNL     1     -10.894  16.865  64.050  1.00  0.00     0.000 HD 
HETATM   36  N   UNL     1     -10.434  15.309  66.086  1.00  0.00    -0.296 NA 
HETATM   37  C   UNL     1     -11.379  15.201  65.180  1.00  0.00    -0.357 A  
ENDBRANCH  29  30
ENDBRANCH  26  29
ENDBRANCH   8  25
TORSDOF 9
ENDMDL
MODEL      181
REMARK 921   NORMALIZED FREE ENERGY PREDICTED BY IDOCK:   -4.36 KCAL/MOL
REMARK 922        TOTAL FREE ENERGY PREDICTED BY IDOCK:   -8.59 KCAL/MOL
REMARK 923 INTER-LIGAND FREE ENERGY PREDICTED BY IDOCK:   -7.54 KCAL/MOL
REMARK 924 INTRA-LIGAND FREE ENERGY PREDICTED BY IDOCK:   -1.05 KCAL/MOL
REMARK 927      BINDING AFFINITY PREDICTED BY RF-SCORE:    0.00 PKD
ROOT
HETATM    1  C   UNL     1      -9.416  12.960  67.404  1.00  0.00    -0.198 C  
HETATM    2  S   UNL     1     -10.498  12.107  68.574  1.00  0.00    -0.221 SA 
HETATM    3  C   UNL     1      -9.974  10.459  68.051  1.00  0.00    -0.155 C  
HETATM    4  C   UNL     1      -9.941  10.241  66.544  1.00  0.00    -0.280 C  
HETATM    5  C   UNL     1     -10.054  13.790  65.595  1.00  0.00    -0.298 C  
HETATM    6  CA  UNL     1      -9.883  11.255  65.629  1.00  0.00    -0.234 C  
HETATM    7  C   UNL     1      -9.921  10.944  64.145  1.00  0.00    -0.344 C  
HETATM    8  CA  UNL     1      -9.845  14.411  67.013  1.00  0.00    -0.252 C  
HETATM    9  N   UNL     1      -9.790  12.553  66.061  1.00  0.00    -0.257 N  
HETATM   10  O   UNL     1     -10.299  11.927  63.311  1.00  0.00    -0.424 OA 
HETATM   11  OXT UNL     1      -9.611   9.853  63.687  1.00  0.00    -0.225 OA 
HETATM   12  O   UNL     1     -10.450  14.142  64.504  1.00  0.00    -0.408 OA 
ENDROOT
BRANCH   4  13
HETATM   13  C   UNL     1     -10.136   8.758  66.205  1.00  0.00    -0.184 C  
BRANCH  13  14
HETATM   14  S   UNL     1      -8.556   7.855  66.016  1.00  0.00    -0.155 SA 
BRANCH  14  15
HETATM   15  C   UNL     1      -7.976   7.736  67.634  1.00  0.00    -0.124 A  
HETATM   16  N   UNL     1      -7.000   8.443  68.158  1.00  0.00    -0.079 NA 
HETATM   17  N   UNL     1      -6.815   7.962  69.427  1.00  0.00    -0.046 NA 
HETATM   18  N   UNL     1      -8.435   6.862  68.585  1.00  0.00    -0.121 NA 
HETATM   19  N   UNL     1      -7.674   6.989  69.694  1.00  0.00    -0.107 NA 
BRANCH  18  20
HETATM   20  C   UNL     1      -9.549   5.930  68.611  1.00  0.00    -0.123 C  
BRANCH  20  21
HETATM   21  C   UNL     1      -9.088   4.525  68.185  1.00  0.00    -0.124 C  
BRANCH  21  22
HETATM   22  N   UNL     1      -8.994   3.487  69.238  1.00  0.00    -0.105 NA 
HETATM   23  C   UNL     1      -9.569   2.232  68.719  1.00  0.00    -0.021 C  
HETATM   24  C   UNL     1      -9.710   3.842  70.469  1.00  0.00    -0.160 C  
ENDBRANCH  21  22
ENDBRANCH  20  21
ENDBRANCH  18  20
ENDBRANCH  14  15
ENDBRANCH  13  14
ENDBRANCH   4  13
BRANCH   8  25
HETATM   25  N   UNL     1     -11.080  14.947  67.661  1.00  0.00    -0.301 N  
HETATM   26  C   UNL     1     -11.029  15.774  68.762  1.00  0.00    -0.291 C  
HETATM   27  H   UNL     1     -11.990  14.691  67.276  1.00  0.00     0.000 HD 
HETATM   28  O   UNL     1      -9.972  16.222  69.204  1.00  0.00    -0.235 OA 
BRANCH  26  29
HETATM   29  C   UNL     1     -12.371  16.077  69.396  1.00  0.00     0.176 C  
BRANCH  29  30
HETATM   30  C   UNL     1     -12.605  15.225  70.592  1.00  0.00    -0.417 A  
HETATM   31  N   UNL     1     -12.927  11.925  71.732  1.00  0.00    -0.399 NA 
HETATM   32  C   UNL     1     -12.772  15.656  71.894  1.00  0.00    -0.442 A  
HETATM   33  S   UNL     1     -12.988  14.315  72.934  1.00  0.00    -0.372 SA 
HETATM   34  H2  UNL     1     -13.075  11.531  72.662  1.00  0.00     0.000 HD 
HETATM   35  H1  UNL     1     -12.844  11.298  70.933  1.00  0.00     0.000 HD 
HETATM   36  N   UNL     1     -12.642  13.844  70.430  1.00  0.00    -0.312 NA 
HETATM   37  C   UNL     1     -12.847  13.260  71.588  1.00  0.00    -0.302 A  
ENDBRANCH  29  30
ENDBRANCH  26  29
ENDBRANCH   8  25
TORSDOF 9
ENDMDL
MODEL      182
REMARK 921   NORMALIZED FREE ENERGY PREDICTED BY IDOCK:   -4.34 KCAL/MOL
REMARK 922        TOTAL FREE ENERGY PREDICTED BY IDOCK:   -8.56 KCAL/MOL
REMARK 923 INTER-LIGAND FREE ENERGY PREDICTED BY IDOCK:   -7.95 KCAL/MOL
REMARK 924 INTRA-LIGAND FREE ENERGY PREDICTED BY IDOCK:   -0.62 KCAL/MOL
REMARK 927      BINDING AFFINITY PREDICTED BY RF-SCORE:    0.00 PKD
ROOT
HETATM    1  C   UNL     1     -10.158  11.587  67.453  1.00  0.00    -0.191 C  
HETATM    2  S   UNL     1      -8.418  11.383  67.897  1.00  0.00    -0.146 SA 
HETATM    3  C   UNL     1      -8.211  13.107  68.393  1.00  0.00    -0.130 C  
HETATM    4  C   UNL     1      -8.768  14.132  67.413  1.00  0.00    -0.217 C  
HETATM    5  C   UNL     1     -10.861  11.797  65.496  1.00  0.00    -0.297 C  
HETATM    6  CA  UNL     1      -9.708  13.844  66.464  1.00  0.00    -0.294 C  
HETATM    7  C   UNL     1     -10.154  14.915  65.487  1.00  0.00    -0.370 C  
HETATM    8  CA  UNL     1     -10.726  10.552  66.430  1.00  0.00    -0.096 C  
HETATM    9  N   UNL     1     -10.243  12.584  66.400  1.00  0.00    -0.240 N  
HETATM   10  O   UNL     1     -10.716  14.513  64.334  1.00  0.00    -0.270 OA 
HETATM   11  OXT UNL     1     -10.037  16.111  65.713  1.00  0.00    -0.334 OA 
HETATM   12  O   UNL     1     -11.202  12.039  64.358  1.00  0.00    -0.315 OA 
ENDROOT
BRANCH   4  13
HETATM   13  C   UNL     1      -8.023  15.467  67.541  1.00  0.00    -0.170 C  
BRANCH  13  14
HETATM   14  S   UNL     1      -7.068  15.605  69.095  1.00  0.00    -0.182 SA 
BRANCH  14  15
HETATM   15  C   UNL     1      -6.633  17.271  69.141  1.00  0.00    -0.239 A  
HETATM   16  N   UNL     1      -5.447  17.750  69.442  1.00  0.00    -0.192 NA 
HETATM   17  N   UNL     1      -5.574  19.114  69.445  1.00  0.00    -0.204 NA 
HETATM   18  N   UNL     1      -7.478  18.324  68.902  1.00  0.00    -0.272 NA 
HETATM   19  N   UNL     1      -6.809  19.476  69.131  1.00  0.00    -0.336 NA 
BRANCH  18  20
HETATM   20  C   UNL     1      -8.850  18.400  68.431  1.00  0.00    -0.320 C  
BRANCH  20  21
HETATM   21  C   UNL     1      -9.219  19.852  68.078  1.00  0.00    -0.313 C  
BRANCH  21  22
HETATM   22  N   UNL     1      -9.322  20.202  66.643  1.00  0.00    -0.373 NA 
HETATM   23  C   UNL     1     -10.508  19.535  66.076  1.00  0.00    -0.516 C  
HETATM   24  C   UNL     1      -8.151  19.793  65.859  1.00  0.00    -0.252 C  
ENDBRANCH  21  22
ENDBRANCH  20  21
ENDBRANCH  18  20
ENDBRANCH  14  15
ENDBRANCH  13  14
ENDBRANCH   4  13
BRANCH   8  25
HETATM   25  N   UNL     1      -9.787   9.495  65.949  1.00  0.00    -0.285 N  
HETATM   26  C   UNL     1      -9.851   8.196  66.405  1.00  0.00    -0.190 C  
HETATM   27  H   UNL     1      -9.076   9.742  65.260  1.00  0.00     0.000 HD 
HETATM   28  O   UNL     1     -10.754   7.796  67.140  1.00  0.00    -0.333 OA 
BRANCH  26  29
HETATM   29  C   UNL     1      -8.716   7.302  65.949  1.00  0.00    -0.150 C  
BRANCH  29  30
HETATM   30  C   UNL     1      -8.825   5.946  66.551  1.00  0.00    -0.128 A  
HETATM   31  N   UNL     1      -8.020   3.985  69.344  1.00  0.00    -0.056 NA 
HETATM   32  C   UNL     1      -9.467   4.850  66.008  1.00  0.00    -0.163 A  
HETATM   33  S   UNL     1      -9.352   3.515  67.071  1.00  0.00    -0.176 SA 
HETATM   34  H2  UNL     1      -8.221   3.014  69.582  1.00  0.00     0.000 HD 
HETATM   35  H1  UNL     1      -7.489   4.558  69.998  1.00  0.00     0.000 HD 
HETATM   36  N   UNL     1      -8.256   5.724  67.801  1.00  0.00    -0.102 NA 
HETATM   37  C   UNL     1      -8.459   4.481  68.173  1.00  0.00    -0.094 A  
ENDBRANCH  29  30
ENDBRANCH  26  29
ENDBRANCH   8  25
TORSDOF 9
ENDMDL
MODEL      183
REMARK 921   NORMALIZED FREE ENERGY PREDICTED BY IDOCK:   -4.33 KCAL/MOL
REMARK 922        TOTAL FREE ENERGY PREDICTED BY IDOCK:   -8.56 KCAL/MOL
REMARK 923 INTER-LIGAND FREE ENERGY PREDICTED BY IDOCK:   -5.97 KCAL/MOL
REMARK 924 INTRA-LIGAND FREE ENERGY PREDICTED BY IDOCK:   -2.59 KCAL/MOL
REMARK 927      BINDING AFFINITY PREDICTED BY RF-SCORE:    0.00 PKD
ROOT
HETATM    1  C   UNL     1     -10.912   6.575  68.243  1.00  0.00    -0.281 C  
HETATM    2  S   UNL     1      -9.615   5.326  68.396  1.00  0.00    -0.141 SA 
HETATM    3  C   UNL     1     -10.159   4.778  70.029  1.00  0.00    -0.238 C  
HETATM    4  C   UNL     1     -10.443   5.898  71.023  1.00  0.00    -0.296 C  
HETATM    5  C   UNL     1     -10.625   8.621  68.561  1.00  0.00    -0.119 C  
HETATM    6  CA  UNL     1     -10.694   7.191  70.661  1.00  0.00    -0.235 C  
HETATM    7  C   UNL     1     -10.899   8.253  71.725  1.00  0.00    -0.267 C  
HETATM    8  CA  UNL     1     -10.610   7.754  67.262  1.00  0.00    -0.306 C  
HETATM    9  N   UNL     1     -10.759   7.523  69.333  1.00  0.00    -0.220 N  
HETATM   10  O   UNL     1     -10.707   9.535  71.373  1.00  0.00    -0.346 OA 
HETATM   11  OXT UNL     1     -11.243   7.989  72.869  1.00  0.00    -0.401 OA 
HETATM   12  O   UNL     1     -10.434   9.776  68.878  1.00  0.00    -0.199 OA 
ENDROOT
BRANCH   4  13
HETATM   13  C   UNL     1     -10.254   5.406  72.464  1.00  0.00    -0.195 C  
BRANCH  13  14
HETATM   14  S   UNL     1      -8.499   5.135  72.901  1.00  0.00    -0.115 SA 
BRANCH  14  15
HETATM   15  C   UNL     1      -7.953   6.712  73.329  1.00  0.00    -0.100 A  
HETATM   16  N   UNL     1      -8.231   7.347  74.445  1.00  0.00    -0.175 NA 
HETATM   17  N   UNL     1      -7.673   8.593  74.327  1.00  0.00    -0.412 NA 
HETATM   18  N   UNL     1      -7.181   7.530  72.546  1.00  0.00    -0.071 NA 
HETATM   19  N   UNL     1      -7.043   8.721  73.169  1.00  0.00    -0.344 NA 
BRANCH  18  20
HETATM   20  C   UNL     1      -6.499   7.327  71.280  1.00  0.00    -0.040 C  
BRANCH  20  21
HETATM   21  C   UNL     1      -7.171   8.150  70.167  1.00  0.00    -0.056 C  
BRANCH  21  22
HETATM   22  N   UNL     1      -6.381   9.241  69.551  1.00  0.00    -0.042 NA 
HETATM   23  C   UNL     1      -6.868  10.532  70.071  1.00  0.00    -0.153 C  
HETATM   24  C   UNL     1      -6.477   9.274  68.087  1.00  0.00    -0.058 C  
ENDBRANCH  21  22
ENDBRANCH  20  21
ENDBRANCH  18  20
ENDBRANCH  14  15
ENDBRANCH  13  14
ENDBRANCH   4  13
BRANCH   8  25
HETATM   25  N   UNL     1      -9.303   7.712  66.540  1.00  0.00    -0.184 N  
HETATM   26  C   UNL     1      -8.989   8.608  65.542  1.00  0.00    -0.158 C  
HETATM   27  H   UNL     1      -8.621   6.996  66.794  1.00  0.00     0.000 HD 
HETATM   28  O   UNL     1      -9.706   9.569  65.266  1.00  0.00    -0.293 OA 
BRANCH  26  29
HETATM   29  C   UNL     1      -7.703   8.311  64.798  1.00  0.00    -0.114 C  
BRANCH  29  30
HETATM   30  C   UNL     1      -7.474   6.846  64.684  1.00  0.00    -0.098 A  
HETATM   31  N   UNL     1      -6.195   4.017  66.312  1.00  0.00    -0.031 NA 
HETATM   32  C   UNL     1      -7.835   6.033  63.626  1.00  0.00    -0.112 A  
HETATM   33  S   UNL     1      -7.391   4.414  63.952  1.00  0.00    -0.055 SA 
HETATM   34  H2  UNL     1      -6.153   3.033  66.047  1.00  0.00     0.000 HD 
HETATM   35  H1  UNL     1      -5.815   4.307  67.212  1.00  0.00     0.000 HD 
HETATM   36  N   UNL     1      -6.859   6.183  65.740  1.00  0.00    -0.055 NA 
HETATM   37  C   UNL     1      -6.751   4.903  65.466  1.00  0.00    -0.056 A  
ENDBRANCH  29  30
ENDBRANCH  26  29
ENDBRANCH   8  25
TORSDOF 9
ENDMDL
MODEL      184
REMARK 921   NORMALIZED FREE ENERGY PREDICTED BY IDOCK:   -4.33 KCAL/MOL
REMARK 922        TOTAL FREE ENERGY PREDICTED BY IDOCK:   -8.55 KCAL/MOL
REMARK 923 INTER-LIGAND FREE ENERGY PREDICTED BY IDOCK:   -7.58 KCAL/MOL
REMARK 924 INTRA-LIGAND FREE ENERGY PREDICTED BY IDOCK:   -0.97 KCAL/MOL
REMARK 927      BINDING AFFINITY PREDICTED BY RF-SCORE:    0.00 PKD
ROOT
HETATM    1  C   UNL     1      -8.614  17.271  66.275  1.00  0.00    -0.229 C  
HETATM    2  S   UNL     1      -7.001  16.712  66.867  1.00  0.00    -0.230 SA 
HETATM    3  C   UNL     1      -7.490  14.974  66.940  1.00  0.00     0.197 C  
HETATM    4  C   UNL     1      -8.830  14.709  67.615  1.00  0.00    -0.184 C  
HETATM    5  C   UNL     1     -10.069  18.166  67.479  1.00  0.00    -0.349 C  
HETATM    6  CA  UNL     1      -9.799  15.658  67.781  1.00  0.00    -0.220 C  
HETATM    7  C   UNL     1     -11.076  15.319  68.525  1.00  0.00    -0.282 C  
HETATM    8  CA  UNL     1      -8.962  18.768  66.557  1.00  0.00    -0.319 C  
HETATM    9  N   UNL     1      -9.611  16.916  67.270  1.00  0.00    -0.242 N  
HETATM   10  O   UNL     1     -11.785  16.335  69.044  1.00  0.00    -0.299 OA 
HETATM   11  OXT UNL     1     -11.485  14.173  68.656  1.00  0.00    -0.263 OA 
HETATM   12  O   UNL     1     -10.923  18.565  68.244  1.00  0.00    -0.047 OA 
ENDROOT
BRANCH   4  13
HETATM   13  C   UNL     1      -8.869  13.295  68.209  1.00  0.00    -0.168 C  
BRANCH  13  14
HETATM   14  S   UNL     1      -8.114  12.040  67.113  1.00  0.00    -0.169 SA 
BRANCH  14  15
HETATM   15  C   UNL     1      -9.266  11.887  65.840  1.00  0.00    -0.141 A  
HETATM   16  N   UNL     1      -9.799  12.876  65.159  1.00  0.00    -0.135 NA 
HETATM   17  N   UNL     1     -10.720  12.311  64.318  1.00  0.00    -0.323 NA 
HETATM   18  N   UNL     1      -9.808  10.711  65.391  1.00  0.00    -0.247 NA 
HETATM   19  N   UNL     1     -10.745  10.994  64.460  1.00  0.00    -0.317 NA 
BRANCH  18  20
HETATM   20  C   UNL     1      -9.526   9.317  65.690  1.00  0.00    -0.256 C  
BRANCH  20  21
HETATM   21  C   UNL     1      -8.136   8.922  65.158  1.00  0.00    -0.133 C  
BRANCH  21  22
HETATM   22  N   UNL     1      -7.960   8.853  63.690  1.00  0.00    -0.146 NA 
HETATM   23  C   UNL     1      -7.331   7.564  63.348  1.00  0.00    -0.087 C  
HETATM   24  C   UNL     1      -7.116   9.927  63.154  1.00  0.00    -0.126 C  
ENDBRANCH  21  22
ENDBRANCH  20  21
ENDBRANCH  18  20
ENDBRANCH  14  15
ENDBRANCH  13  14
ENDBRANCH   4  13
BRANCH   8  25
HETATM   25  N   UNL     1      -7.922  19.581  67.258  1.00  0.00    -0.265 N  
HETATM   26  C   UNL     1      -6.950  20.276  66.571  1.00  0.00    -0.247 C  
HETATM   27  H   UNL     1      -7.932  19.623  68.277  1.00  0.00     0.000 HD 
HETATM   28  O   UNL     1      -6.947  20.372  65.344  1.00  0.00    -0.280 OA 
BRANCH  26  29
HETATM   29  C   UNL     1      -5.875  20.897  67.439  1.00  0.00    -0.317 C  
BRANCH  29  30
HETATM   30  C   UNL     1      -5.699  20.135  68.704  1.00  0.00    -0.250 A  
HETATM   31  N   UNL     1      -6.242  20.180  72.168  1.00  0.00    -0.410 NA 
HETATM   32  C   UNL     1      -5.150  18.874  68.840  1.00  0.00    -0.191 A  
HETATM   33  S   UNL     1      -5.180  18.395  70.481  1.00  0.00    -0.265 SA 
HETATM   34  H2  UNL     1      -6.051  19.498  72.901  1.00  0.00     0.000 HD 
HETATM   35  H1  UNL     1      -6.678  21.068  72.414  1.00  0.00     0.000 HD 
HETATM   36  N   UNL     1      -6.142  20.705  69.893  1.00  0.00    -0.382 NA 
HETATM   37  C   UNL     1      -5.914  19.888  70.896  1.00  0.00    -0.260 A  
ENDBRANCH  29  30
ENDBRANCH  26  29
ENDBRANCH   8  25
TORSDOF 9
ENDMDL
MODEL      185
REMARK 921   NORMALIZED FREE ENERGY PREDICTED BY IDOCK:   -4.32 KCAL/MOL
REMARK 922        TOTAL FREE ENERGY PREDICTED BY IDOCK:   -8.53 KCAL/MOL
REMARK 923 INTER-LIGAND FREE ENERGY PREDICTED BY IDOCK:   -6.91 KCAL/MOL
REMARK 924 INTRA-LIGAND FREE ENERGY PREDICTED BY IDOCK:   -1.62 KCAL/MOL
REMARK 927      BINDING AFFINITY PREDICTED BY RF-SCORE:    0.00 PKD
ROOT
HETATM    1  C   UNL     1     -10.068  11.371  68.528  1.00  0.00    -0.206 C  
HETATM    2  S   UNL     1     -10.934  10.516  67.192  1.00  0.00    -0.163 SA 
HETATM    3  C   UNL     1     -10.573   8.869  67.842  1.00  0.00    -0.183 C  
HETATM    4  C   UNL     1      -9.125   8.642  68.257  1.00  0.00    -0.141 C  
HETATM    5  C   UNL     1      -8.150  12.185  68.362  1.00  0.00    -0.149 C  
HETATM    6  CA  UNL     1      -8.247   9.651  68.536  1.00  0.00    -0.105 C  
HETATM    7  C   UNL     1      -6.804   9.331  68.877  1.00  0.00    -0.056 C  
HETATM    8  CA  UNL     1      -9.570  12.816  68.202  1.00  0.00    -0.223 C  
HETATM    9  N   UNL     1      -8.677  10.953  68.508  1.00  0.00    -0.146 N  
HETATM   10  O   UNL     1      -5.893  10.306  68.715  1.00  0.00    -0.041 OA 
HETATM   11  OXT UNL     1      -6.448   8.240  69.300  1.00  0.00    -0.038 OA 
HETATM   12  O   UNL     1      -6.992  12.527  68.251  1.00  0.00    -0.075 OA 
ENDROOT
BRANCH   4  13
HETATM   13  C   UNL     1      -8.760   7.156  68.164  1.00  0.00    -0.127 C  
BRANCH  13  14
HETATM   14  S   UNL     1     -10.222   6.072  67.986  1.00  0.00    -0.204 SA 
BRANCH  14  15
HETATM   15  C   UNL     1     -10.067   4.982  69.311  1.00  0.00    -0.200 A  
HETATM   16  N   UNL     1     -10.375   5.241  70.562  1.00  0.00    -0.268 NA 
HETATM   17  N   UNL     1     -10.011   4.135  71.284  1.00  0.00    -0.176 NA 
HETATM   18  N   UNL     1      -9.569   3.707  69.243  1.00  0.00    -0.167 NA 
HETATM   19  N   UNL     1      -9.506   3.199  70.493  1.00  0.00    -0.168 NA 
BRANCH  18  20
HETATM   20  C   UNL     1      -9.177   2.860  68.129  1.00  0.00    -0.196 C  
BRANCH  20  21
HETATM   21  C   UNL     1      -7.661   2.960  67.883  1.00  0.00    -0.056 C  
BRANCH  21  22
HETATM   22  N   UNL     1      -7.185   4.029  66.977  1.00  0.00    -0.067 NA 
HETATM   23  C   UNL     1      -7.990   3.998  65.742  1.00  0.00    -0.097 C  
HETATM   24  C   UNL     1      -5.773   3.889  66.603  1.00  0.00    -0.022 C  
ENDBRANCH  21  22
ENDBRANCH  20  21
ENDBRANCH  18  20
ENDBRANCH  14  15
ENDBRANCH  13  14
ENDBRANCH   4  13
BRANCH   8  25
HETATM   25  N   UNL     1      -9.881  13.345  66.839  1.00  0.00    -0.249 N  
HETATM   26  C   UNL     1      -9.901  14.695  66.565  1.00  0.00    -0.275 C  
HETATM   27  H   UNL     1     -10.084  12.685  66.088  1.00  0.00     0.000 HD 
HETATM   28  O   UNL     1      -9.548  15.542  67.385  1.00  0.00    -0.212 OA 
BRANCH  26  29
HETATM   29  C   UNL     1     -10.408  15.059  65.185  1.00  0.00    -0.422 C  
BRANCH  29  30
HETATM   30  C   UNL     1     -11.090  13.904  64.541  1.00  0.00    -0.366 A  
HETATM   31  N   UNL     1     -10.604  10.954  62.710  1.00  0.00    -0.757 NA 
HETATM   32  C   UNL     1     -12.448  13.644  64.536  1.00  0.00    -0.287 A  
HETATM   33  S   UNL     1     -12.764  12.190  63.694  1.00  0.00    -0.312 SA 
HETATM   34  H2  UNL     1     -11.252  10.247  62.362  1.00  0.00     0.000 HD 
HETATM   35  H1  UNL     1      -9.606  10.847  62.531  1.00  0.00     0.000 HD 
HETATM   36  N   UNL     1     -10.316  12.952  63.888  1.00  0.00    -0.359 NA 
HETATM   37  C   UNL     1     -11.085  12.009  63.393  1.00  0.00    -0.398 A  
ENDBRANCH  29  30
ENDBRANCH  26  29
ENDBRANCH   8  25
TORSDOF 9
ENDMDL
MODEL      186
REMARK 921   NORMALIZED FREE ENERGY PREDICTED BY IDOCK:   -4.32 KCAL/MOL
REMARK 922        TOTAL FREE ENERGY PREDICTED BY IDOCK:   -8.53 KCAL/MOL
REMARK 923 INTER-LIGAND FREE ENERGY PREDICTED BY IDOCK:   -7.29 KCAL/MOL
REMARK 924 INTRA-LIGAND FREE ENERGY PREDICTED BY IDOCK:   -1.24 KCAL/MOL
REMARK 927      BINDING AFFINITY PREDICTED BY RF-SCORE:    0.00 PKD
ROOT
HETATM    1  C   UNL     1      -9.634   9.847  69.473  1.00  0.00    -0.225 C  
HETATM    2  S   UNL     1     -10.969  10.202  70.638  1.00  0.00    -0.205 SA 
HETATM    3  C   UNL     1     -10.939   8.552  71.371  1.00  0.00    -0.264 C  
HETATM    4  C   UNL     1     -10.909   7.402  70.371  1.00  0.00    -0.258 C  
HETATM    5  C   UNL     1      -9.919   9.402  67.451  1.00  0.00    -0.199 C  
HETATM    6  CA  UNL     1     -10.514   7.536  69.070  1.00  0.00    -0.208 C  
HETATM    7  C   UNL     1     -10.581   6.349  68.129  1.00  0.00    -0.255 C  
HETATM    8  CA  UNL     1      -9.594  10.739  68.190  1.00  0.00    -0.160 C  
HETATM    9  N   UNL     1     -10.056   8.748  68.621  1.00  0.00    -0.184 N  
HETATM   10  O   UNL     1     -10.613   6.599  66.809  1.00  0.00    -0.263 OA 
HETATM   11  OXT UNL     1     -10.592   5.190  68.521  1.00  0.00    -0.083 OA 
HETATM   12  O   UNL     1     -10.147   9.028  66.319  1.00  0.00    -0.295 OA 
ENDROOT
BRANCH   4  13
HETATM   13  C   UNL     1     -11.524   6.136  70.981  1.00  0.00    -0.248 C  
BRANCH  13  14
HETATM   14  S   UNL     1     -11.159   5.953  72.764  1.00  0.00    -0.278 SA 
BRANCH  14  15
HETATM   15  C   UNL     1     -10.532   4.352  72.874  1.00  0.00    -0.186 A  
HETATM   16  N   UNL     1     -11.054   3.365  73.567  1.00  0.00    -0.230 NA 
HETATM   17  N   UNL     1     -10.189   2.311  73.444  1.00  0.00    -0.106 NA 
HETATM   18  N   UNL     1      -9.383   3.902  72.277  1.00  0.00    -0.117 NA 
HETATM   19  N   UNL     1      -9.160   2.629  72.672  1.00  0.00    -0.078 NA 
BRANCH  18  20
HETATM   20  C   UNL     1      -8.464   4.504  71.326  1.00  0.00    -0.107 C  
BRANCH  20  21
HETATM   21  C   UNL     1      -7.519   5.488  72.037  1.00  0.00    -0.095 C  
BRANCH  21  22
HETATM   22  N   UNL     1      -6.694   4.962  73.148  1.00  0.00    -0.065 NA 
HETATM   23  C   UNL     1      -7.156   5.569  74.410  1.00  0.00    -0.085 C  
HETATM   24  C   UNL     1      -5.263   5.254  72.999  1.00  0.00    -0.017 C  
ENDBRANCH  21  22
ENDBRANCH  20  21
ENDBRANCH  18  20
ENDBRANCH  14  15
ENDBRANCH  13  14
ENDBRANCH   4  13
BRANCH   8  25
HETATM   25  N   UNL     1     -10.638  11.801  68.075  1.00  0.00    -0.199 N  
HETATM   26  C   UNL     1     -10.356  13.132  68.290  1.00  0.00    -0.252 C  
HETATM   27  H   UNL     1     -11.591  11.531  67.828  1.00  0.00     0.000 HD 
HETATM   28  O   UNL     1      -9.211  13.545  68.469  1.00  0.00    -0.180 OA 
BRANCH  26  29
HETATM   29  C   UNL     1     -11.563  14.046  68.307  1.00  0.00    -0.364 C  
BRANCH  29  30
HETATM   30  C   UNL     1     -12.030  14.295  69.697  1.00  0.00    -0.336 A  
HETATM   31  N   UNL     1     -12.028  16.592  72.346  1.00  0.00    -0.598 NA 
HETATM   32  C   UNL     1     -12.809  13.454  70.470  1.00  0.00    -0.024 A  
HETATM   33  S   UNL     1     -13.116  14.173  71.991  1.00  0.00    -0.415 SA 
HETATM   34  H2  UNL     1     -12.457  16.573  73.271  1.00  0.00     0.000 HD 
HETATM   35  H1  UNL     1     -11.481  17.405  72.067  1.00  0.00     0.000 HD 
HETATM   36  N   UNL     1     -11.691  15.496  70.310  1.00  0.00    -0.315 NA 
HETATM   37  C   UNL     1     -12.196  15.542  71.521  1.00  0.00    -0.397 A  
ENDBRANCH  29  30
ENDBRANCH  26  29
ENDBRANCH   8  25
TORSDOF 9
ENDMDL
MODEL      187
REMARK 921   NORMALIZED FREE ENERGY PREDICTED BY IDOCK:   -4.29 KCAL/MOL
REMARK 922        TOTAL FREE ENERGY PREDICTED BY IDOCK:   -8.49 KCAL/MOL
REMARK 923 INTER-LIGAND FREE ENERGY PREDICTED BY IDOCK:   -6.96 KCAL/MOL
REMARK 924 INTRA-LIGAND FREE ENERGY PREDICTED BY IDOCK:   -1.53 KCAL/MOL
REMARK 927      BINDING AFFINITY PREDICTED BY RF-SCORE:    0.00 PKD
ROOT
HETATM    1  C   UNL     1      -7.963   8.291  69.063  1.00  0.00    -0.112 C  
HETATM    2  S   UNL     1      -8.348  10.055  69.002  1.00  0.00    -0.145 SA 
HETATM    3  C   UNL     1      -9.251  10.041  70.566  1.00  0.00     0.327 C  
HETATM    4  C   UNL     1     -10.262   8.911  70.718  1.00  0.00    -0.282 C  
HETATM    5  C   UNL     1      -8.980   6.820  67.980  1.00  0.00    -0.117 C  
HETATM    6  CA  UNL     1     -10.232   7.760  69.981  1.00  0.00    -0.210 C  
HETATM    7  C   UNL     1     -11.321   6.718  70.155  1.00  0.00    -0.350 C  
HETATM    8  CA  UNL     1      -7.664   7.610  67.688  1.00  0.00    -0.122 C  
HETATM    9  N   UNL     1      -9.214   7.553  69.087  1.00  0.00    -0.145 N  
HETATM   10  O   UNL     1     -11.514   5.844  69.152  1.00  0.00    -0.199 OA 
HETATM   11  OXT UNL     1     -12.008   6.637  71.163  1.00  0.00    -0.348 OA 
HETATM   12  O   UNL     1      -9.680   5.998  67.429  1.00  0.00    -0.109 OA 
ENDROOT
BRANCH   4  13
HETATM   13  C   UNL     1     -11.384   9.312  71.683  1.00  0.00    -0.397 C  
BRANCH  13  14
HETATM   14  S   UNL     1     -12.812  10.081  70.838  1.00  0.00    -0.290 SA 
BRANCH  14  15
HETATM   15  C   UNL     1     -12.614  11.758  71.181  1.00  0.00    -0.309 A  
HETATM   16  N   UNL     1     -12.914  12.354  72.313  1.00  0.00    -0.221 NA 
HETATM   17  N   UNL     1     -12.683  13.690  72.115  1.00  0.00    -0.214 NA 
HETATM   18  N   UNL     1     -12.147  12.703  70.304  1.00  0.00    -0.341 NA 
HETATM   19  N   UNL     1     -12.229  13.916  70.891  1.00  0.00    -0.358 NA 
BRANCH  18  20
HETATM   20  C   UNL     1     -11.576  12.614  68.971  1.00  0.00    -0.317 C  
BRANCH  20  21
HETATM   21  C   UNL     1     -10.164  13.227  68.948  1.00  0.00    -0.019 C  
BRANCH  21  22
HETATM   22  N   UNL     1      -9.962  14.446  68.131  1.00  0.00    -0.218 NA 
HETATM   23  C   UNL     1      -9.471  15.527  69.005  1.00  0.00    -0.242 C  
HETATM   24  C   UNL     1     -11.187  14.915  67.472  1.00  0.00    -0.328 C  
ENDBRANCH  21  22
ENDBRANCH  20  21
ENDBRANCH  18  20
ENDBRANCH  14  15
ENDBRANCH  13  14
ENDBRANCH   4  13
BRANCH   8  25
HETATM   25  N   UNL     1      -7.702   8.487  66.480  1.00  0.00    -0.091 N  
HETATM   26  C   UNL     1      -7.901   7.981  65.213  1.00  0.00    -0.113 C  
HETATM   27  H   UNL     1      -7.578   9.493  66.596  1.00  0.00     0.000 HD 
HETATM   28  O   UNL     1      -8.179   6.800  65.009  1.00  0.00    -0.131 OA 
BRANCH  26  29
HETATM   29  C   UNL     1      -7.733   8.984  64.091  1.00  0.00    -0.124 C  
BRANCH  29  30
HETATM   30  C   UNL     1      -8.910   9.888  63.997  1.00  0.00    -0.228 A  
HETATM   31  N   UNL     1     -11.478  11.437  65.814  1.00  0.00    -0.131 NA 
HETATM   32  C   UNL     1      -9.378  10.519  62.860  1.00  0.00    -0.326 A  
HETATM   33  S   UNL     1     -10.742  11.479  63.242  1.00  0.00    -0.222 SA 
HETATM   34  H2  UNL     1     -12.220  12.081  65.540  1.00  0.00     0.000 HD 
HETATM   35  H1  UNL     1     -11.404  11.146  66.788  1.00  0.00     0.000 HD 
HETATM   36  N   UNL     1      -9.626  10.173  65.154  1.00  0.00    -0.269 NA 
HETATM   37  C   UNL     1     -10.618  10.990  64.881  1.00  0.00    -0.258 A  
ENDBRANCH  29  30
ENDBRANCH  26  29
ENDBRANCH   8  25
TORSDOF 9
ENDMDL
MODEL      188
REMARK 921   NORMALIZED FREE ENERGY PREDICTED BY IDOCK:   -4.29 KCAL/MOL
REMARK 922        TOTAL FREE ENERGY PREDICTED BY IDOCK:   -8.49 KCAL/MOL
REMARK 923 INTER-LIGAND FREE ENERGY PREDICTED BY IDOCK:   -7.14 KCAL/MOL
REMARK 924 INTRA-LIGAND FREE ENERGY PREDICTED BY IDOCK:   -1.35 KCAL/MOL
REMARK 927      BINDING AFFINITY PREDICTED BY RF-SCORE:    0.00 PKD
ROOT
HETATM    1  C   UNL     1      -6.661   9.501  68.335  1.00  0.00    -0.058 C  
HETATM    2  S   UNL     1      -8.172  10.043  67.504  1.00  0.00    -0.114 SA 
HETATM    3  C   UNL     1      -7.500  11.661  67.064  1.00  0.00    -0.150 C  
HETATM    4  C   UNL     1      -6.791  12.395  68.196  1.00  0.00    -0.081 C  
HETATM    5  C   UNL     1      -6.393   9.486  70.408  1.00  0.00    -0.073 C  
HETATM    6  CA  UNL     1      -6.306  11.779  69.315  1.00  0.00    -0.103 C  
HETATM    7  C   UNL     1      -5.673  12.601  70.422  1.00  0.00    -0.172 C  
HETATM    8  CA  UNL     1      -6.838   8.376  69.404  1.00  0.00    -0.046 C  
HETATM    9  N   UNL     1      -6.393  10.416  69.431  1.00  0.00    -0.048 N  
HETATM   10  O   UNL     1      -5.613  12.056  71.648  1.00  0.00    -0.371 OA 
HETATM   11  OXT UNL     1      -5.211  13.718  70.238  1.00  0.00    -0.091 OA 
HETATM   12  O   UNL     1      -6.246   9.616  71.605  1.00  0.00    -0.270 OA 
ENDROOT
BRANCH   4  13
HETATM   13  C   UNL     1      -6.840  13.912  67.975  1.00  0.00    -0.144 C  
BRANCH  13  14
HETATM   14  S   UNL     1      -8.270  14.706  68.795  1.00  0.00    -0.142 SA 
BRANCH  14  15
HETATM   15  C   UNL     1      -9.467  14.734  67.556  1.00  0.00    -0.197 A  
HETATM   16  N   UNL     1      -9.258  14.519  66.276  1.00  0.00    -0.242 NA 
HETATM   17  N   UNL     1     -10.458  14.728  65.651  1.00  0.00    -0.325 NA 
HETATM   18  N   UNL     1     -10.796  15.018  67.735  1.00  0.00    -0.276 NA 
HETATM   19  N   UNL     1     -11.400  15.046  66.527  1.00  0.00    -0.319 NA 
BRANCH  18  20
HETATM   20  C   UNL     1     -11.608  15.227  68.922  1.00  0.00    -0.347 C  
BRANCH  20  21
HETATM   21  C   UNL     1     -12.077  13.880  69.499  1.00  0.00    -0.342 C  
BRANCH  21  22
HETATM   22  N   UNL     1     -13.159  13.908  70.509  1.00  0.00    -0.107 NA 
HETATM   23  C   UNL     1     -13.235  15.264  71.085  1.00  0.00    -0.498 C  
HETATM   24  C   UNL     1     -12.954  12.957  71.609  1.00  0.00    -0.313 C  
ENDBRANCH  21  22
ENDBRANCH  20  21
ENDBRANCH  18  20
ENDBRANCH  14  15
ENDBRANCH  13  14
ENDBRANCH   4  13
BRANCH   8  25
HETATM   25  N   UNL     1      -8.222   7.850  69.607  1.00  0.00    -0.121 N  
HETATM   26  C   UNL     1      -8.752   6.857  68.813  1.00  0.00    -0.129 C  
HETATM   27  H   UNL     1      -8.792   8.240  70.359  1.00  0.00     0.000 HD 
HETATM   28  O   UNL     1      -8.086   6.257  67.971  1.00  0.00    -0.113 OA 
BRANCH  26  29
HETATM   29  C   UNL     1     -10.222   6.573  69.043  1.00  0.00    -0.204 C  
BRANCH  29  30
HETATM   30  C   UNL     1     -10.758   7.387  70.165  1.00  0.00    -0.242 A  
HETATM   31  N   UNL     1     -11.355   7.454  73.620  1.00  0.00    -0.450 NA 
HETATM   32  C   UNL     1     -11.263   8.672  70.087  1.00  0.00    -0.146 A  
HETATM   33  S   UNL     1     -11.738   9.212  71.639  1.00  0.00    -0.398 SA 
HETATM   34  H2  UNL     1     -11.740   8.170  74.236  1.00  0.00     0.000 HD 
HETATM   35  H1  UNL     1     -11.063   6.560  74.015  1.00  0.00     0.000 HD 
HETATM   36  N   UNL     1     -10.746   6.848  71.447  1.00  0.00    -0.220 NA 
HETATM   37  C   UNL     1     -11.245   7.709  72.303  1.00  0.00    -0.293 A  
ENDBRANCH  29  30
ENDBRANCH  26  29
ENDBRANCH   8  25
TORSDOF 9
ENDMDL
MODEL      189
REMARK 921   NORMALIZED FREE ENERGY PREDICTED BY IDOCK:   -4.29 KCAL/MOL
REMARK 922        TOTAL FREE ENERGY PREDICTED BY IDOCK:   -8.49 KCAL/MOL
REMARK 923 INTER-LIGAND FREE ENERGY PREDICTED BY IDOCK:   -7.11 KCAL/MOL
REMARK 924 INTRA-LIGAND FREE ENERGY PREDICTED BY IDOCK:   -1.37 KCAL/MOL
REMARK 927      BINDING AFFINITY PREDICTED BY RF-SCORE:    0.00 PKD
ROOT
HETATM    1  C   UNL     1      -9.045   9.991  69.697  1.00  0.00    -0.210 C  
HETATM    2  S   UNL     1      -7.301   9.618  69.403  1.00  0.00    -0.091 SA 
HETATM    3  C   UNL     1      -6.840  11.349  69.168  1.00  0.00    -0.111 C  
HETATM    4  C   UNL     1      -7.753  12.139  68.239  1.00  0.00    -0.135 C  
HETATM    5  C   UNL     1     -10.558   9.764  68.273  1.00  0.00    -0.229 C  
HETATM    6  CA  UNL     1      -9.030  11.765  67.928  1.00  0.00    -0.180 C  
HETATM    7  C   UNL     1      -9.843  12.580  66.940  1.00  0.00    -0.227 C  
HETATM    8  CA  UNL     1     -10.048   8.827  69.414  1.00  0.00    -0.203 C  
HETATM    9  N   UNL     1      -9.573  10.652  68.516  1.00  0.00    -0.168 N  
HETATM   10  O   UNL     1     -10.880  11.976  66.336  1.00  0.00    -0.256 OA 
HETATM   11  OXT UNL     1      -9.600  13.752  66.688  1.00  0.00    -0.271 OA 
HETATM   12  O   UNL     1     -11.373   9.733  67.376  1.00  0.00    -0.030 OA 
ENDROOT
BRANCH   4  13
HETATM   13  C   UNL     1      -6.993  13.304  67.593  1.00  0.00    -0.160 C  
BRANCH  13  14
HETATM   14  S   UNL     1      -6.547  14.615  68.788  1.00  0.00    -0.096 SA 
BRANCH  14  15
HETATM   15  C   UNL     1      -7.959  15.602  68.832  1.00  0.00    -0.193 A  
HETATM   16  N   UNL     1      -9.040  15.370  69.543  1.00  0.00    -0.259 NA 
HETATM   17  N   UNL     1      -9.936  16.351  69.209  1.00  0.00    -0.268 NA 
HETATM   18  N   UNL     1      -8.156  16.748  68.105  1.00  0.00    -0.191 NA 
HETATM   19  N   UNL     1      -9.414  17.187  68.324  1.00  0.00    -0.267 NA 
BRANCH  18  20
HETATM   20  C   UNL     1      -7.286  17.532  67.246  1.00  0.00    -0.181 C  
BRANCH  20  21
HETATM   21  C   UNL     1      -8.022  17.934  65.955  1.00  0.00    -0.127 C  
BRANCH  21  22
HETATM   22  N   UNL     1      -8.276  19.376  65.734  1.00  0.00    -0.417 NA 
HETATM   23  C   UNL     1      -7.478  20.152  66.700  1.00  0.00    -0.279 C  
HETATM   24  C   UNL     1      -9.685  19.751  65.903  1.00  0.00    -0.281 C  
ENDBRANCH  21  22
ENDBRANCH  20  21
ENDBRANCH  18  20
ENDBRANCH  14  15
ENDBRANCH  13  14
ENDBRANCH   4  13
BRANCH   8  25
HETATM   25  N   UNL     1      -9.463   7.530  68.958  1.00  0.00    -0.146 N  
HETATM   26  C   UNL     1     -10.212   6.375  68.884  1.00  0.00    -0.184 C  
HETATM   27  H   UNL     1      -8.478   7.498  68.693  1.00  0.00     0.000 HD 
HETATM   28  O   UNL     1     -11.428   6.362  69.069  1.00  0.00    -0.337 OA 
BRANCH  26  29
HETATM   29  C   UNL     1      -9.421   5.120  68.577  1.00  0.00    -0.175 C  
BRANCH  29  30
HETATM   30  C   UNL     1      -9.309   4.902  67.109  1.00  0.00    -0.130 A  
HETATM   31  N   UNL     1     -11.048   3.947  64.219  1.00  0.00    -0.702 NA 
HETATM   32  C   UNL     1      -8.188   5.107  66.328  1.00  0.00    -0.109 A  
HETATM   33  S   UNL     1      -8.539   4.748  64.692  1.00  0.00    -0.150 SA 
HETATM   34  H2  UNL     1     -10.768   3.881  63.240  1.00  0.00     0.000 HD 
HETATM   35  H1  UNL     1     -12.003   3.707  64.482  1.00  0.00     0.000 HD 
HETATM   36  N   UNL     1     -10.432   4.473  66.410  1.00  0.00    -0.172 NA 
HETATM   37  C   UNL     1     -10.147   4.347  65.135  1.00  0.00    -0.176 A  
ENDBRANCH  29  30
ENDBRANCH  26  29
ENDBRANCH   8  25
TORSDOF 9
ENDMDL
MODEL      190
REMARK 921   NORMALIZED FREE ENERGY PREDICTED BY IDOCK:   -4.29 KCAL/MOL
REMARK 922        TOTAL FREE ENERGY PREDICTED BY IDOCK:   -8.48 KCAL/MOL
REMARK 923 INTER-LIGAND FREE ENERGY PREDICTED BY IDOCK:   -6.91 KCAL/MOL
REMARK 924 INTRA-LIGAND FREE ENERGY PREDICTED BY IDOCK:   -1.57 KCAL/MOL
REMARK 927      BINDING AFFINITY PREDICTED BY RF-SCORE:    0.00 PKD
ROOT
HETATM    1  C   UNL     1     -10.812   9.744  68.366  1.00  0.00    -0.201 C  
HETATM    2  S   UNL     1      -9.476   8.727  69.031  1.00  0.00    -0.161 SA 
HETATM    3  C   UNL     1     -10.570   7.761  70.095  1.00  0.00    -0.237 C  
HETATM    4  C   UNL     1     -11.562   8.578  70.913  1.00  0.00    -0.295 C  
HETATM    5  C   UNL     1     -11.236  11.694  68.990  1.00  0.00    -0.262 C  
HETATM    6  CA  UNL     1     -11.928   9.859  70.606  1.00  0.00    -0.277 C  
HETATM    7  C   UNL     1     -12.872  10.619  71.517  1.00  0.00    -0.462 C  
HETATM    8  CA  UNL     1     -10.391  11.139  67.800  1.00  0.00    -0.187 C  
HETATM    9  N   UNL     1     -11.438  10.451  69.470  1.00  0.00    -0.253 N  
HETATM   10  O   UNL     1     -12.866  11.961  71.444  1.00  0.00    -0.389 OA 
HETATM   11  OXT UNL     1     -13.637  10.064  72.294  1.00  0.00    -0.381 OA 
HETATM   12  O   UNL     1     -11.516  12.770  69.474  1.00  0.00    -0.267 OA 
ENDROOT
BRANCH   4  13
HETATM   13  C   UNL     1     -11.960   7.830  72.190  1.00  0.00    -0.317 C  
BRANCH  13  14
HETATM   14  S   UNL     1     -10.524   7.383  73.232  1.00  0.00    -0.375 SA 
BRANCH  14  15
HETATM   15  C   UNL     1     -10.601   5.662  73.288  1.00  0.00    -0.250 A  
HETATM   16  N   UNL     1     -11.695   4.942  73.386  1.00  0.00    -0.155 NA 
HETATM   17  N   UNL     1     -11.288   3.638  73.488  1.00  0.00    -0.202 NA 
HETATM   18  N   UNL     1      -9.524   4.814  73.272  1.00  0.00    -0.123 NA 
HETATM   19  N   UNL     1      -9.968   3.548  73.434  1.00  0.00    -0.111 NA 
BRANCH  18  20
HETATM   20  C   UNL     1      -8.101   5.030  73.073  1.00  0.00    -0.105 C  
BRANCH  20  21
HETATM   21  C   UNL     1      -7.662   4.502  71.696  1.00  0.00    -0.083 C  
BRANCH  21  22
HETATM   22  N   UNL     1      -8.141   5.232  70.499  1.00  0.00    -0.101 NA 
HETATM   23  C   UNL     1      -9.091   4.373  69.769  1.00  0.00    -0.112 C  
HETATM   24  C   UNL     1      -7.063   5.606  69.576  1.00  0.00    -0.064 C  
ENDBRANCH  21  22
ENDBRANCH  20  21
ENDBRANCH  18  20
ENDBRANCH  14  15
ENDBRANCH  13  14
ENDBRANCH   4  13
BRANCH   8  25
HETATM   25  N   UNL     1      -8.935  11.471  67.843  1.00  0.00    -0.154 N  
HETATM   26  C   UNL     1      -8.407  12.540  67.153  1.00  0.00    -0.179 C  
HETATM   27  H   UNL     1      -8.312  10.888  68.403  1.00  0.00     0.000 HD 
HETATM   28  O   UNL     1      -9.110  13.357  66.559  1.00  0.00    -0.211 OA 
BRANCH  26  29
HETATM   29  C   UNL     1      -6.895  12.625  67.165  1.00  0.00    -0.028 C  
BRANCH  29  30
HETATM   30  C   UNL     1      -6.349  12.298  68.509  1.00  0.00    -0.057 A  
HETATM   31  N   UNL     1      -5.831  13.512  71.758  1.00  0.00    -0.553 NA 
HETATM   32  C   UNL     1      -5.786  11.099  68.903  1.00  0.00    -0.039 A  
HETATM   33  S   UNL     1      -5.323  11.180  70.548  1.00  0.00    -0.125 SA 
HETATM   34  H2  UNL     1      -5.430  13.087  72.594  1.00  0.00     0.000 HD 
HETATM   35  H1  UNL     1      -6.172  14.471  71.801  1.00  0.00     0.000 HD 
HETATM   36  N   UNL     1      -6.416  13.262  69.509  1.00  0.00    -0.103 NA 
HETATM   37  C   UNL     1      -5.898  12.794  70.622  1.00  0.00    -0.095 A  
ENDBRANCH  29  30
ENDBRANCH  26  29
ENDBRANCH   8  25
TORSDOF 9
ENDMDL
MODEL      191
REMARK 921   NORMALIZED FREE ENERGY PREDICTED BY IDOCK:   -4.26 KCAL/MOL
REMARK 922        TOTAL FREE ENERGY PREDICTED BY IDOCK:   -8.44 KCAL/MOL
REMARK 923 INTER-LIGAND FREE ENERGY PREDICTED BY IDOCK:   -7.56 KCAL/MOL
REMARK 924 INTRA-LIGAND FREE ENERGY PREDICTED BY IDOCK:   -0.88 KCAL/MOL
REMARK 927      BINDING AFFINITY PREDICTED BY RF-SCORE:    0.00 PKD
ROOT
HETATM    1  C   UNL     1     -10.233   6.584  67.631  1.00  0.00    -0.170 C  
HETATM    2  S   UNL     1     -10.768   7.849  68.806  1.00  0.00     0.029 SA 
HETATM    3  C   UNL     1     -10.645   9.194  67.607  1.00  0.00    -0.242 C  
HETATM    4  C   UNL     1      -9.356   9.218  66.795  1.00  0.00    -0.202 C  
HETATM    5  C   UNL     1      -8.305   5.780  67.558  1.00  0.00    -0.104 C  
HETATM    6  CA  UNL     1      -8.538   8.135  66.634  1.00  0.00    -0.135 C  
HETATM    7  C   UNL     1      -7.239   8.271  65.862  1.00  0.00    -0.072 C  
HETATM    8  CA  UNL     1      -9.614   5.292  68.256  1.00  0.00    -0.130 C  
HETATM    9  N   UNL     1      -8.898   6.927  67.172  1.00  0.00    -0.119 N  
HETATM   10  O   UNL     1      -6.281   7.357  66.087  1.00  0.00    -0.039 OA 
HETATM   11  OXT UNL     1      -7.042   9.160  65.045  1.00  0.00    -0.089 OA 
HETATM   12  O   UNL     1      -7.144   5.439  67.478  1.00  0.00    -0.064 OA 
ENDROOT
BRANCH   4  13
HETATM   13  C   UNL     1      -9.036  10.643  66.326  1.00  0.00    -0.165 C  
BRANCH  13  14
HETATM   14  S   UNL     1      -9.601  10.976  64.618  1.00  0.00    -0.267 SA 
BRANCH  14  15
HETATM   15  C   UNL     1     -11.124  11.747  64.852  1.00  0.00    -0.285 A  
HETATM   16  N   UNL     1     -12.185  11.605  64.091  1.00  0.00    -0.150 NA 
HETATM   17  N   UNL     1     -13.131  12.462  64.588  1.00  0.00    -0.786 NA 
HETATM   18  N   UNL     1     -11.422  12.639  65.849  1.00  0.00    -0.343 NA 
HETATM   19  N   UNL     1     -12.674  13.108  65.650  1.00  0.00    -0.480 NA 
BRANCH  18  20
HETATM   20  C   UNL     1     -10.691  13.091  67.020  1.00  0.00    -0.258 C  
BRANCH  20  21
HETATM   21  C   UNL     1     -11.467  12.753  68.305  1.00  0.00    -0.314 C  
BRANCH  21  22
HETATM   22  N   UNL     1     -12.053  13.880  69.066  1.00  0.00    -0.356 NA 
HETATM   23  C   UNL     1     -11.231  15.082  68.842  1.00  0.00    -0.277 C  
HETATM   24  C   UNL     1     -12.116  13.634  70.512  1.00  0.00    -0.339 C  
ENDBRANCH  21  22
ENDBRANCH  20  21
ENDBRANCH  18  20
ENDBRANCH  14  15
ENDBRANCH  13  14
ENDBRANCH   4  13
BRANCH   8  25
HETATM   25  N   UNL     1      -9.554   5.227  69.748  1.00  0.00    -0.154 N  
HETATM   26  C   UNL     1      -9.563   4.029  70.429  1.00  0.00    -0.195 C  
HETATM   27  H   UNL     1      -9.505   6.097  70.278  1.00  0.00     0.000 HD 
HETATM   28  O   UNL     1      -9.497   2.942  69.857  1.00  0.00    -0.150 OA 
BRANCH  26  29
HETATM   29  C   UNL     1      -9.677   4.151  71.934  1.00  0.00    -0.235 C  
BRANCH  29  30
HETATM   30  C   UNL     1      -9.970   5.553  72.339  1.00  0.00    -0.168 A  
HETATM   31  N   UNL     1      -8.547   8.587  73.369  1.00  0.00    -0.357 NA 
HETATM   32  C   UNL     1     -11.213   6.155  72.394  1.00  0.00    -0.287 A  
HETATM   33  S   UNL     1     -11.054   7.784  72.890  1.00  0.00    -0.341 SA 
HETATM   34  H2  UNL     1      -8.954   9.496  73.591  1.00  0.00     0.000 HD 
HETATM   35  H1  UNL     1      -7.537   8.464  73.434  1.00  0.00     0.000 HD 
HETATM   36  N   UNL     1      -8.908   6.384  72.681  1.00  0.00    -0.126 NA 
HETATM   37  C   UNL     1      -9.355   7.577  72.998  1.00  0.00    -0.191 A  
ENDBRANCH  29  30
ENDBRANCH  26  29
ENDBRANCH   8  25
TORSDOF 9
ENDMDL
MODEL      192
REMARK 921   NORMALIZED FREE ENERGY PREDICTED BY IDOCK:   -4.25 KCAL/MOL
REMARK 922        TOTAL FREE ENERGY PREDICTED BY IDOCK:   -8.42 KCAL/MOL
REMARK 923 INTER-LIGAND FREE ENERGY PREDICTED BY IDOCK:   -6.84 KCAL/MOL
REMARK 924 INTRA-LIGAND FREE ENERGY PREDICTED BY IDOCK:   -1.58 KCAL/MOL
REMARK 927      BINDING AFFINITY PREDICTED BY RF-SCORE:    0.00 PKD
ROOT
HETATM    1  C   UNL     1      -7.953   9.925  69.824  1.00  0.00    -0.174 C  
HETATM    2  S   UNL     1      -9.539   9.446  70.545  1.00  0.00    -0.262 SA 
HETATM    3  C   UNL     1      -9.008   7.758  70.908  1.00  0.00    -0.147 C  
HETATM    4  C   UNL     1      -8.295   7.046  69.764  1.00  0.00    -0.132 C  
HETATM    5  C   UNL     1      -7.578  10.050  67.771  1.00  0.00    -0.090 C  
HETATM    6  CA  UNL     1      -7.710   7.693  68.712  1.00  0.00    -0.118 C  
HETATM    7  C   UNL     1      -7.081   6.898  67.585  1.00  0.00    -0.085 C  
HETATM    8  CA  UNL     1      -7.994  11.126  68.824  1.00  0.00    -0.144 C  
HETATM    9  N   UNL     1      -7.695   9.064  68.683  1.00  0.00    -0.095 N  
HETATM   10  O   UNL     1      -6.919   7.513  66.401  1.00  0.00    -0.066 OA 
HETATM   11  OXT UNL     1      -6.710   5.740  67.716  1.00  0.00    -0.054 OA 
HETATM   12  O   UNL     1      -7.378   9.985  66.576  1.00  0.00    -0.097 OA 
ENDROOT
BRANCH   4  13
HETATM   13  C   UNL     1      -8.464   5.527  69.882  1.00  0.00    -0.116 C  
BRANCH  13  14
HETATM   14  S   UNL     1     -10.124   4.951  69.374  1.00  0.00    -0.153 SA 
BRANCH  14  15
HETATM   15  C   UNL     1      -9.871   4.397  67.762  1.00  0.00    -0.094 A  
HETATM   16  N   UNL     1     -10.175   5.052  66.664  1.00  0.00    -0.242 NA 
HETATM   17  N   UNL     1      -9.889   4.210  65.623  1.00  0.00    -0.201 NA 
HETATM   18  N   UNL     1      -9.347   3.180  67.409  1.00  0.00    -0.203 NA 
HETATM   19  N   UNL     1      -9.397   3.061  66.064  1.00  0.00    -0.117 NA 
BRANCH  18  20
HETATM   20  C   UNL     1      -8.748   2.104  68.178  1.00  0.00    -0.095 C  
BRANCH  20  21
HETATM   21  C   UNL     1      -7.253   2.381  68.420  1.00  0.00    -0.048 C  
BRANCH  21  22
HETATM   22  N   UNL     1      -6.699   2.032  69.748  1.00  0.00    -0.033 NA 
HETATM   23  C   UNL     1      -7.796   2.027  70.733  1.00  0.00    -0.038 C  
HETATM   24  C   UNL     1      -5.673   2.972  70.215  1.00  0.00    -0.017 C  
ENDBRANCH  21  22
ENDBRANCH  20  21
ENDBRANCH  18  20
ENDBRANCH  14  15
ENDBRANCH  13  14
ENDBRANCH   4  13
BRANCH   8  25
HETATM   25  N   UNL     1      -9.325  11.764  68.591  1.00  0.00    -0.352 N  
HETATM   26  C   UNL     1      -9.446  13.039  68.084  1.00  0.00    -0.218 C  
HETATM   27  H   UNL     1     -10.170  11.238  68.815  1.00  0.00     0.000 HD 
HETATM   28  O   UNL     1      -8.481  13.685  67.677  1.00  0.00    -0.158 OA 
BRANCH  26  29
HETATM   29  C   UNL     1     -10.856  13.593  68.080  1.00  0.00    -0.261 C  
BRANCH  29  30
HETATM   30  C   UNL     1     -11.360  13.771  66.691  1.00  0.00    -0.328 A  
HETATM   31  N   UNL     1     -11.642  16.022  64.018  1.00  0.00    -1.278 NA 
HETATM   32  C   UNL     1     -11.985  12.817  65.911  1.00  0.00    -0.449 A  
HETATM   33  S   UNL     1     -12.364  13.470  64.376  1.00  0.00    -0.301 SA 
HETATM   34  H2  UNL     1     -12.032  15.928  63.080  1.00  0.00     0.000 HD 
HETATM   35  H1  UNL     1     -11.234  16.912  64.302  1.00  0.00     0.000 HD 
HETATM   36  N   UNL     1     -11.181  15.001  66.069  1.00  0.00    -0.336 NA 
HETATM   37  C   UNL     1     -11.677  14.968  64.854  1.00  0.00    -0.336 A  
ENDBRANCH  29  30
ENDBRANCH  26  29
ENDBRANCH   8  25
TORSDOF 9
ENDMDL
MODEL      193
REMARK 921   NORMALIZED FREE ENERGY PREDICTED BY IDOCK:   -4.25 KCAL/MOL
REMARK 922        TOTAL FREE ENERGY PREDICTED BY IDOCK:   -8.42 KCAL/MOL
REMARK 923 INTER-LIGAND FREE ENERGY PREDICTED BY IDOCK:   -7.11 KCAL/MOL
REMARK 924 INTRA-LIGAND FREE ENERGY PREDICTED BY IDOCK:   -1.31 KCAL/MOL
REMARK 927      BINDING AFFINITY PREDICTED BY RF-SCORE:    0.00 PKD
ROOT
HETATM    1  C   UNL     1     -10.564  16.639  66.723  1.00  0.00    -0.214 C  
HETATM    2  S   UNL     1      -9.525  15.678  65.601  1.00  0.00    -0.127 SA 
HETATM    3  C   UNL     1     -10.719  14.330  65.447  1.00  0.00    -0.343 C  
HETATM    4  C   UNL     1     -11.307  13.836  66.763  1.00  0.00    -0.345 C  
HETATM    5  C   UNL     1     -10.298  16.728  68.795  1.00  0.00    -0.318 C  
HETATM    6  CA  UNL     1     -11.305  14.566  67.919  1.00  0.00    -0.310 C  
HETATM    7  C   UNL     1     -11.854  13.965  69.198  1.00  0.00    -0.358 C  
HETATM    8  CA  UNL     1      -9.815  17.661  67.639  1.00  0.00    -0.294 C  
HETATM    9  N   UNL     1     -10.805  15.842  67.914  1.00  0.00    -0.318 N  
HETATM   10  O   UNL     1     -11.452  14.501  70.363  1.00  0.00    -0.261 OA 
HETATM   11  OXT UNL     1     -12.647  13.034  69.208  1.00  0.00     0.128 OA 
HETATM   12  O   UNL     1     -10.177  16.646  69.999  1.00  0.00    -0.030 OA 
ENDROOT
BRANCH   4  13
HETATM   13  C   UNL     1     -11.750  12.373  66.644  1.00  0.00    -0.372 C  
BRANCH  13  14
HETATM   14  S   UNL     1     -10.443  11.190  67.131  1.00  0.00    -0.243 SA 
BRANCH  14  15
HETATM   15  C   UNL     1      -9.712  10.772  65.628  1.00  0.00    -0.237 A  
HETATM   16  N   UNL     1     -10.312  10.746  64.460  1.00  0.00    -0.355 NA 
HETATM   17  N   UNL     1      -9.388  10.277  63.564  1.00  0.00    -0.283 NA 
HETATM   18  N   UNL     1      -8.410  10.379  65.455  1.00  0.00    -0.164 NA 
HETATM   19  N   UNL     1      -8.230  10.036  64.161  1.00  0.00    -0.152 NA 
BRANCH  18  20
HETATM   20  C   UNL     1      -7.269  10.322  66.353  1.00  0.00    -0.113 C  
BRANCH  20  21
HETATM   21  C   UNL     1      -7.417   9.149  67.339  1.00  0.00    -0.084 C  
BRANCH  21  22
HETATM   22  N   UNL     1      -7.374   9.464  68.786  1.00  0.00    -0.074 NA 
HETATM   23  C   UNL     1      -8.597   8.940  69.422  1.00  0.00    -0.133 C  
HETATM   24  C   UNL     1      -7.295  10.902  69.067  1.00  0.00    -0.113 C  
ENDBRANCH  21  22
ENDBRANCH  20  21
ENDBRANCH  18  20
ENDBRANCH  14  15
ENDBRANCH  13  14
ENDBRANCH   4  13
BRANCH   8  25
HETATM   25  N   UNL     1      -8.333  17.754  67.473  1.00  0.00    -0.224 N  
HETATM   26  C   UNL     1      -7.540  18.453  68.356  1.00  0.00    -0.291 C  
HETATM   27  H   UNL     1      -7.895  17.284  66.680  1.00  0.00     0.000 HD 
HETATM   28  O   UNL     1      -7.979  18.939  69.398  1.00  0.00    -0.038 OA 
BRANCH  26  29
HETATM   29  C   UNL     1      -6.090  18.592  67.940  1.00  0.00    -0.191 C  
BRANCH  29  30
HETATM   30  C   UNL     1      -5.973  19.270  66.621  1.00  0.00    -0.165 A  
HETATM   31  N   UNL     1      -5.142  18.826  63.244  1.00  0.00    -0.187 NA 
HETATM   32  C   UNL     1      -6.270  20.590  66.340  1.00  0.00    -0.210 A  
HETATM   33  S   UNL     1      -6.005  20.911  64.681  1.00  0.00    -0.270 SA 
HETATM   34  H2  UNL     1      -5.150  19.461  62.445  1.00  0.00     0.000 HD 
HETATM   35  H1  UNL     1      -4.850  17.859  63.108  1.00  0.00     0.000 HD 
HETATM   36  N   UNL     1      -5.548  18.526  65.525  1.00  0.00    -0.175 NA 
HETATM   37  C   UNL     1      -5.515  19.283  64.453  1.00  0.00    -0.246 A  
ENDBRANCH  29  30
ENDBRANCH  26  29
ENDBRANCH   8  25
TORSDOF 9
ENDMDL
MODEL      194
REMARK 921   NORMALIZED FREE ENERGY PREDICTED BY IDOCK:   -4.24 KCAL/MOL
REMARK 922        TOTAL FREE ENERGY PREDICTED BY IDOCK:   -8.41 KCAL/MOL
REMARK 923 INTER-LIGAND FREE ENERGY PREDICTED BY IDOCK:   -7.09 KCAL/MOL
REMARK 924 INTRA-LIGAND FREE ENERGY PREDICTED BY IDOCK:   -1.32 KCAL/MOL
REMARK 927      BINDING AFFINITY PREDICTED BY RF-SCORE:    0.00 PKD
ROOT
HETATM    1  C   UNL     1     -11.404   8.925  71.197  1.00  0.00    -0.291 C  
HETATM    2  S   UNL     1     -12.071   7.386  70.526  1.00  0.00     0.029 SA 
HETATM    3  C   UNL     1     -12.008   6.519  72.109  1.00  0.00    -0.290 C  
HETATM    4  C   UNL     1     -10.698   6.667  72.874  1.00  0.00    -0.285 C  
HETATM    5  C   UNL     1      -9.421   9.547  70.981  1.00  0.00    -0.047 C  
HETATM    6  CA  UNL     1      -9.797   7.670  72.652  1.00  0.00    -0.206 C  
HETATM    7  C   UNL     1      -8.487   7.699  73.416  1.00  0.00    -0.172 C  
HETATM    8  CA  UNL     1     -10.713   9.875  70.167  1.00  0.00    -0.308 C  
HETATM    9  N   UNL     1     -10.084   8.650  71.738  1.00  0.00    -0.281 N  
HETATM   10  O   UNL     1      -7.471   8.402  72.888  1.00  0.00    -0.213 OA 
HETATM   11  OXT UNL     1      -8.329   7.125  74.485  1.00  0.00    -0.161 OA 
HETATM   12  O   UNL     1      -8.235   9.800  70.934  1.00  0.00    -0.234 OA 
ENDROOT
BRANCH   4  13
HETATM   13  C   UNL     1     -10.469   5.464  73.796  1.00  0.00    -0.271 C  
BRANCH  13  14
HETATM   14  S   UNL     1     -11.344   3.958  73.237  1.00  0.00    -0.012 SA 
BRANCH  14  15
HETATM   15  C   UNL     1     -10.129   3.097  72.370  1.00  0.00    -0.157 A  
HETATM   16  N   UNL     1      -9.543   1.988  72.760  1.00  0.00    -0.083 NA 
HETATM   17  N   UNL     1      -8.589   1.707  71.819  1.00  0.00    -0.054 NA 
HETATM   18  N   UNL     1      -9.587   3.474  71.168  1.00  0.00    -0.163 NA 
HETATM   19  N   UNL     1      -8.596   2.612  70.852  1.00  0.00    -0.057 NA 
BRANCH  18  20
HETATM   20  C   UNL     1      -9.910   4.534  70.229  1.00  0.00    -0.229 C  
BRANCH  20  21
HETATM   21  C   UNL     1      -8.626   5.123  69.618  1.00  0.00    -0.092 C  
BRANCH  21  22
HETATM   22  N   UNL     1      -8.583   5.288  68.147  1.00  0.00    -0.100 NA 
HETATM   23  C   UNL     1      -7.713   4.241  67.579  1.00  0.00    -0.084 C  
HETATM   24  C   UNL     1      -8.061   6.593  67.723  1.00  0.00    -0.116 C  
ENDBRANCH  21  22
ENDBRANCH  20  21
ENDBRANCH  18  20
ENDBRANCH  14  15
ENDBRANCH  13  14
ENDBRANCH   4  13
BRANCH   8  25
HETATM   25  N   UNL     1     -10.698   9.427  68.742  1.00  0.00    -0.339 N  
HETATM   26  C   UNL     1     -10.086  10.162  67.749  1.00  0.00    -0.180 C  
HETATM   27  H   UNL     1     -11.155   8.549  68.495  1.00  0.00     0.000 HD 
HETATM   28  O   UNL     1      -9.412  11.163  67.988  1.00  0.00    -0.163 OA 
BRANCH  26  29
HETATM   29  C   UNL     1     -10.320   9.654  66.342  1.00  0.00    -0.246 C  
BRANCH  29  30
HETATM   30  C   UNL     1     -10.719  10.760  65.431  1.00  0.00    -0.079 A  
HETATM   31  N   UNL     1     -12.862  13.506  65.034  1.00  0.00    -0.727 NA 
HETATM   32  C   UNL     1     -10.166  11.056  64.199  1.00  0.00    -0.357 A  
HETATM   33  S   UNL     1     -10.930  12.431  63.528  1.00  0.00    -0.393 SA 
HETATM   34  H2  UNL     1     -12.966  14.194  64.289  1.00  0.00     0.000 HD 
HETATM   35  H1  UNL     1     -13.462  13.568  65.857  1.00  0.00     0.000 HD 
HETATM   36  N   UNL     1     -11.732  11.623  65.833  1.00  0.00    -0.311 NA 
HETATM   37  C   UNL     1     -11.938  12.536  64.911  1.00  0.00    -0.412 A  
ENDBRANCH  29  30
ENDBRANCH  26  29
ENDBRANCH   8  25
TORSDOF 9
ENDMDL
MODEL      195
REMARK 921   NORMALIZED FREE ENERGY PREDICTED BY IDOCK:   -4.22 KCAL/MOL
REMARK 922        TOTAL FREE ENERGY PREDICTED BY IDOCK:   -8.38 KCAL/MOL
REMARK 923 INTER-LIGAND FREE ENERGY PREDICTED BY IDOCK:   -7.56 KCAL/MOL
REMARK 924 INTRA-LIGAND FREE ENERGY PREDICTED BY IDOCK:   -0.82 KCAL/MOL
REMARK 927      BINDING AFFINITY PREDICTED BY RF-SCORE:    0.00 PKD
ROOT
HETATM    1  C   UNL     1      -7.420   9.912  68.066  1.00  0.00    -0.085 C  
HETATM    2  S   UNL     1      -8.274  10.473  69.556  1.00  0.00    -0.007 SA 
HETATM    3  C   UNL     1      -7.531   9.209  70.611  1.00  0.00    -0.124 C  
HETATM    4  C   UNL     1      -7.563   7.795  70.043  1.00  0.00    -0.085 C  
HETATM    5  C   UNL     1      -8.298   8.746  66.570  1.00  0.00    -0.112 C  
HETATM    6  CA  UNL     1      -7.727   7.512  68.716  1.00  0.00    -0.119 C  
HETATM    7  C   UNL     1      -7.812   6.071  68.251  1.00  0.00    -0.106 C  
HETATM    8  CA  UNL     1      -8.098  10.289  66.709  1.00  0.00    -0.121 C  
HETATM    9  N   UNL     1      -7.812   8.537  67.809  1.00  0.00    -0.102 N  
HETATM   10  O   UNL     1      -8.395   5.832  67.064  1.00  0.00    -0.108 OA 
HETATM   11  OXT UNL     1      -7.365   5.136  68.900  1.00  0.00    -0.063 OA 
HETATM   12  O   UNL     1      -8.817   7.970  65.796  1.00  0.00    -0.165 OA 
ENDROOT
BRANCH   4  13
HETATM   13  C   UNL     1      -7.543   6.756  71.170  1.00  0.00    -0.088 C  
BRANCH  13  14
HETATM   14  S   UNL     1      -8.126   7.427  72.769  1.00  0.00    -0.109 SA 
BRANCH  14  15
HETATM   15  C   UNL     1      -9.383   6.337  73.217  1.00  0.00    -0.131 A  
HETATM   16  N   UNL     1      -9.546   5.793  74.402  1.00  0.00    -0.160 NA 
HETATM   17  N   UNL     1     -10.605   4.932  74.286  1.00  0.00    -0.291 NA 
HETATM   18  N   UNL     1     -10.364   5.864  72.385  1.00  0.00    -0.192 NA 
HETATM   19  N   UNL     1     -11.103   4.956  73.059  1.00  0.00    -0.284 NA 
BRANCH  18  20
HETATM   20  C   UNL     1     -10.742   6.191  71.020  1.00  0.00    -0.260 C  
BRANCH  20  21
HETATM   21  C   UNL     1     -12.183   6.731  70.975  1.00  0.00    -0.352 C  
BRANCH  21  22
HETATM   22  N   UNL     1     -12.380   8.176  71.232  1.00  0.00    -0.293 NA 
HETATM   23  C   UNL     1     -11.286   8.926  70.588  1.00  0.00    -0.259 C  
HETATM   24  C   UNL     1     -12.386   8.516  72.660  1.00  0.00    -0.222 C  
ENDBRANCH  21  22
ENDBRANCH  20  21
ENDBRANCH  18  20
ENDBRANCH  14  15
ENDBRANCH  13  14
ENDBRANCH   4  13
BRANCH   8  25
HETATM   25  N   UNL     1      -9.357  11.090  66.785  1.00  0.00    -0.179 N  
HETATM   26  C   UNL     1      -9.352  12.434  67.090  1.00  0.00    -0.199 C  
HETATM   27  H   UNL     1     -10.248  10.628  66.604  1.00  0.00     0.000 HD 
HETATM   28  O   UNL     1      -8.313  13.084  67.198  1.00  0.00    -0.184 OA 
BRANCH  26  29
HETATM   29  C   UNL     1     -10.721  13.047  67.298  1.00  0.00    -0.261 C  
BRANCH  29  30
HETATM   30  C   UNL     1     -11.285  13.551  66.018  1.00  0.00    -0.295 A  
HETATM   31  N   UNL     1     -11.748  16.396  64.021  1.00  0.00    -1.461 NA 
HETATM   32  C   UNL     1     -11.908  12.802  65.038  1.00  0.00    -0.382 A  
HETATM   33  S   UNL     1     -12.369  13.809  63.734  1.00  0.00    -0.093 SA 
HETATM   34  H2  UNL     1     -12.172  16.528  63.103  1.00  0.00     0.000 HD 
HETATM   35  H1  UNL     1     -11.359  17.200  64.512  1.00  0.00     0.000 HD 
HETATM   36  N   UNL     1     -11.173  14.906  65.727  1.00  0.00    -0.338 NA 
HETATM   37  C   UNL     1     -11.715  15.163  64.559  1.00  0.00    -0.328 A  
ENDBRANCH  29  30
ENDBRANCH  26  29
ENDBRANCH   8  25
TORSDOF 9
ENDMDL
MODEL      196
REMARK 921   NORMALIZED FREE ENERGY PREDICTED BY IDOCK:   -4.21 KCAL/MOL
REMARK 922        TOTAL FREE ENERGY PREDICTED BY IDOCK:   -8.37 KCAL/MOL
REMARK 923 INTER-LIGAND FREE ENERGY PREDICTED BY IDOCK:   -7.49 KCAL/MOL
REMARK 924 INTRA-LIGAND FREE ENERGY PREDICTED BY IDOCK:   -0.88 KCAL/MOL
REMARK 927      BINDING AFFINITY PREDICTED BY RF-SCORE:    0.00 PKD
ROOT
HETATM    1  C   UNL     1      -8.654  11.458  68.406  1.00  0.00    -0.156 C  
HETATM    2  S   UNL     1      -7.183  12.071  67.556  1.00  0.00    -0.139 SA 
HETATM    3  C   UNL     1      -7.728  13.793  67.586  1.00  0.00    -0.179 C  
HETATM    4  C   UNL     1      -9.171  14.020  67.151  1.00  0.00    -0.240 C  
HETATM    5  C   UNL     1     -10.265  10.525  67.455  1.00  0.00    -0.206 C  
HETATM    6  CA  UNL     1     -10.125  13.042  67.141  1.00  0.00    -0.244 C  
HETATM    7  C   UNL     1     -11.520  13.346  66.628  1.00  0.00    -0.344 C  
HETATM    8  CA  UNL     1      -9.000   9.952  68.170  1.00  0.00    -0.118 C  
HETATM    9  N   UNL     1      -9.816  11.788  67.598  1.00  0.00    -0.182 N  
HETATM   10  O   UNL     1     -12.276  12.311  66.225  1.00  0.00    -0.628 OA 
HETATM   11  OXT UNL     1     -11.978  14.479  66.581  1.00  0.00    -0.393 OA 
HETATM   12  O   UNL     1     -11.223  10.105  66.842  1.00  0.00    -0.075 OA 
ENDROOT
BRANCH   4  13
HETATM   13  C   UNL     1      -9.352  15.436  66.589  1.00  0.00    -0.263 C  
BRANCH  13  14
HETATM   14  S   UNL     1      -9.722  16.675  67.882  1.00  0.00    -0.248 SA 
BRANCH  14  15
HETATM   15  C   UNL     1      -9.783  18.155  67.002  1.00  0.00    -0.307 A  
HETATM   16  N   UNL     1     -10.867  18.844  66.726  1.00  0.00    -0.310 NA 
HETATM   17  N   UNL     1     -10.466  19.891  65.939  1.00  0.00    -0.505 NA 
HETATM   18  N   UNL     1      -8.708  18.795  66.441  1.00  0.00    -0.355 NA 
HETATM   19  N   UNL     1      -9.155  19.864  65.747  1.00  0.00    -0.303 NA 
BRANCH  18  20
HETATM   20  C   UNL     1      -7.276  18.560  66.507  1.00  0.00    -0.227 C  
BRANCH  20  21
HETATM   21  C   UNL     1      -6.644  19.399  67.633  1.00  0.00    -0.217 C  
BRANCH  21  22
HETATM   22  N   UNL     1      -6.878  18.959  69.027  1.00  0.00    -0.299 NA 
HETATM   23  C   UNL     1      -6.145  19.857  69.938  1.00  0.00    -0.336 C  
HETATM   24  C   UNL     1      -6.432  17.585  69.287  1.00  0.00    -0.243 C  
ENDBRANCH  21  22
ENDBRANCH  20  21
ENDBRANCH  18  20
ENDBRANCH  14  15
ENDBRANCH  13  14
ENDBRANCH   4  13
BRANCH   8  25
HETATM   25  N   UNL     1      -8.070   9.177  67.294  1.00  0.00    -0.106 N  
HETATM   26  C   UNL     1      -8.382   7.919  66.826  1.00  0.00    -0.120 C  
HETATM   27  H   UNL     1      -7.175   9.593  67.034  1.00  0.00     0.000 HD 
HETATM   28  O   UNL     1      -9.488   7.406  66.996  1.00  0.00    -0.142 OA 
BRANCH  26  29
HETATM   29  C   UNL     1      -7.257   7.208  66.104  1.00  0.00    -0.074 C  
BRANCH  29  30
HETATM   30  C   UNL     1      -7.566   5.765  65.915  1.00  0.00    -0.086 A  
HETATM   31  N   UNL     1      -7.419   2.592  67.399  1.00  0.00    -0.057 NA 
HETATM   32  C   UNL     1      -8.172   5.187  64.816  1.00  0.00    -0.130 A  
HETATM   33  S   UNL     1      -8.344   3.502  65.059  1.00  0.00    -0.098 SA 
HETATM   34  H2  UNL     1      -7.726   1.672  67.084  1.00  0.00     0.000 HD 
HETATM   35  H1  UNL     1      -6.978   2.684  68.314  1.00  0.00     0.000 HD 
HETATM   36  N   UNL     1      -7.251   4.877  66.937  1.00  0.00    -0.076 NA 
HETATM   37  C   UNL     1      -7.603   3.658  66.598  1.00  0.00    -0.080 A  
ENDBRANCH  29  30
ENDBRANCH  26  29
ENDBRANCH   8  25
TORSDOF 9
ENDMDL
MODEL      197
REMARK 921   NORMALIZED FREE ENERGY PREDICTED BY IDOCK:   -4.21 KCAL/MOL
REMARK 922        TOTAL FREE ENERGY PREDICTED BY IDOCK:   -8.36 KCAL/MOL
REMARK 923 INTER-LIGAND FREE ENERGY PREDICTED BY IDOCK:   -6.31 KCAL/MOL
REMARK 924 INTRA-LIGAND FREE ENERGY PREDICTED BY IDOCK:   -2.05 KCAL/MOL
REMARK 927      BINDING AFFINITY PREDICTED BY RF-SCORE:    0.00 PKD
ROOT
HETATM    1  C   UNL     1     -10.906   8.350  69.798  1.00  0.00    -0.183 C  
HETATM    2  S   UNL     1     -10.511   7.937  68.083  1.00  0.00    -0.132 SA 
HETATM    3  C   UNL     1     -10.748   6.162  68.323  1.00  0.00    -0.290 C  
HETATM    4  C   UNL     1     -10.072   5.583  69.560  1.00  0.00    -0.305 C  
HETATM    5  C   UNL     1      -9.483   8.785  71.266  1.00  0.00    -0.250 C  
HETATM    6  CA  UNL     1      -9.680   6.331  70.634  1.00  0.00    -0.176 C  
HETATM    7  C   UNL     1      -8.953   5.676  71.793  1.00  0.00    -0.136 C  
HETATM    8  CA  UNL     1     -10.326   9.702  70.324  1.00  0.00    -0.280 C  
HETATM    9  N   UNL     1      -9.949   7.675  70.658  1.00  0.00    -0.183 N  
HETATM   10  O   UNL     1      -8.215   6.464  72.593  1.00  0.00    -0.109 OA 
HETATM   11  OXT UNL     1      -9.024   4.478  72.030  1.00  0.00    -0.122 OA 
HETATM   12  O   UNL     1      -8.615   8.906  72.105  1.00  0.00    -0.381 OA 
ENDROOT
BRANCH   4  13
HETATM   13  C   UNL     1      -9.758   4.095  69.360  1.00  0.00    -0.163 C  
BRANCH  13  14
HETATM   14  S   UNL     1      -8.736   3.774  67.878  1.00  0.00    -0.112 SA 
BRANCH  14  15
HETATM   15  C   UNL     1      -7.142   4.152  68.412  1.00  0.00    -0.055 A  
HETATM   16  N   UNL     1      -6.264   3.297  68.886  1.00  0.00    -0.028 NA 
HETATM   17  N   UNL     1      -5.176   4.036  69.268  1.00  0.00    -0.007 NA 
HETATM   18  N   UNL     1      -6.586   5.405  68.443  1.00  0.00    -0.047 NA 
HETATM   19  N   UNL     1      -5.366   5.323  69.016  1.00  0.00    -0.003 NA 
BRANCH  18  20
HETATM   20  C   UNL     1      -7.038   6.696  67.954  1.00  0.00    -0.085 C  
BRANCH  20  21
HETATM   21  C   UNL     1      -6.392   7.013  66.593  1.00  0.00    -0.050 C  
BRANCH  21  22
HETATM   22  N   UNL     1      -6.987   6.386  65.391  1.00  0.00    -0.051 NA 
HETATM   23  C   UNL     1      -6.502   7.098  64.195  1.00  0.00    -0.043 C  
HETATM   24  C   UNL     1      -8.454   6.425  65.380  1.00  0.00    -0.123 C  
ENDBRANCH  21  22
ENDBRANCH  20  21
ENDBRANCH  18  20
ENDBRANCH  14  15
ENDBRANCH  13  14
ENDBRANCH   4  13
BRANCH   8  25
HETATM   25  N   UNL     1      -9.534  10.518  69.355  1.00  0.00    -0.366 N  
HETATM   26  C   UNL     1     -10.106  11.525  68.606  1.00  0.00    -0.207 C  
HETATM   27  H   UNL     1      -8.538  10.324  69.244  1.00  0.00     0.000 HD 
HETATM   28  O   UNL     1     -11.267  11.896  68.774  1.00  0.00    -0.220 OA 
BRANCH  26  29
HETATM   29  C   UNL     1      -9.203  12.127  67.550  1.00  0.00    -0.182 C  
BRANCH  29  30
HETATM   30  C   UNL     1      -9.343  11.414  66.253  1.00  0.00    -0.212 A  
HETATM   31  N   UNL     1     -11.236  11.175  63.311  1.00  0.00    -0.769 NA 
HETATM   32  C   UNL     1      -8.515  10.423  65.761  1.00  0.00    -0.166 A  
HETATM   33  S   UNL     1      -9.055   9.919  64.218  1.00  0.00    -0.254 SA 
HETATM   34  H2  UNL     1     -11.142  10.592  62.479  1.00  0.00     0.000 HD 
HETATM   35  H1  UNL     1     -12.004  11.844  63.367  1.00  0.00     0.000 HD 
HETATM   36  N   UNL     1     -10.387  11.768  65.406  1.00  0.00    -0.257 NA 
HETATM   37  C   UNL     1     -10.345  11.044  64.311  1.00  0.00    -0.364 A  
ENDBRANCH  29  30
ENDBRANCH  26  29
ENDBRANCH   8  25
TORSDOF 9
ENDMDL
MODEL      198
REMARK 921   NORMALIZED FREE ENERGY PREDICTED BY IDOCK:   -4.20 KCAL/MOL
REMARK 922        TOTAL FREE ENERGY PREDICTED BY IDOCK:   -8.34 KCAL/MOL
REMARK 923 INTER-LIGAND FREE ENERGY PREDICTED BY IDOCK:   -7.51 KCAL/MOL
REMARK 924 INTRA-LIGAND FREE ENERGY PREDICTED BY IDOCK:   -0.83 KCAL/MOL
REMARK 927      BINDING AFFINITY PREDICTED BY RF-SCORE:    0.00 PKD
ROOT
HETATM    1  C   UNL     1     -11.066   8.908  68.316  1.00  0.00     0.262 C  
HETATM    2  S   UNL     1     -10.505   9.963  69.672  1.00  0.00    -0.267 SA 
HETATM    3  C   UNL     1     -10.972  11.496  68.841  1.00  0.00    -0.229 C  
HETATM    4  C   UNL     1     -10.531  11.602  67.386  1.00  0.00    -0.239 C  
HETATM    5  C   UNL     1      -9.802   8.033  66.900  1.00  0.00    -0.248 C  
HETATM    6  CA  UNL     1     -10.198  10.526  66.612  1.00  0.00    -0.233 C  
HETATM    7  C   UNL     1      -9.705  10.734  65.193  1.00  0.00    -0.265 C  
HETATM    8  CA  UNL     1     -10.407   7.494  68.235  1.00  0.00    -0.195 C  
HETATM    9  N   UNL     1     -10.312   9.260  67.126  1.00  0.00    -0.254 N  
HETATM   10  O   UNL     1      -8.990   9.745  64.629  1.00  0.00    -0.199 OA 
HETATM   11  OXT UNL     1      -9.943  11.746  64.548  1.00  0.00    -0.249 OA 
HETATM   12  O   UNL     1      -9.042   7.653  66.035  1.00  0.00    -0.166 OA 
ENDROOT
BRANCH   4  13
HETATM   13  C   UNL     1     -10.368  13.070  66.973  1.00  0.00    -0.247 C  
BRANCH  13  14
HETATM   14  S   UNL     1     -11.907  14.039  67.160  1.00  0.00    -0.421 SA 
BRANCH  14  15
HETATM   15  C   UNL     1     -11.610  14.980  68.573  1.00  0.00    -0.326 A  
HETATM   16  N   UNL     1     -11.823  14.598  69.813  1.00  0.00    -0.297 NA 
HETATM   17  N   UNL     1     -11.537  15.680  70.602  1.00  0.00    -0.332 NA 
HETATM   18  N   UNL     1     -11.141  16.268  68.592  1.00  0.00    -0.342 NA 
HETATM   19  N   UNL     1     -11.134  16.707  69.869  1.00  0.00    -0.235 NA 
BRANCH  18  20
HETATM   20  C   UNL     1     -10.643  17.151  67.551  1.00  0.00    -0.323 C  
BRANCH  20  21
HETATM   21  C   UNL     1      -9.421  17.940  68.054  1.00  0.00    -0.279 C  
BRANCH  21  22
HETATM   22  N   UNL     1      -9.447  19.412  67.899  1.00  0.00    -0.318 NA 
HETATM   23  C   UNL     1     -10.067  20.005  69.098  1.00  0.00    -0.172 C  
HETATM   24  C   UNL     1     -10.207  19.860  66.725  1.00  0.00    -0.477 C  
ENDBRANCH  21  22
ENDBRANCH  20  21
ENDBRANCH  18  20
ENDBRANCH  14  15
ENDBRANCH  13  14
ENDBRANCH   4  13
BRANCH   8  25
HETATM   25  N   UNL     1      -9.409   7.153  69.294  1.00  0.00    -0.146 N  
HETATM   26  C   UNL     1      -9.696   6.273  70.315  1.00  0.00    -0.164 C  
HETATM   27  H   UNL     1      -8.486   7.587  69.260  1.00  0.00     0.000 HD 
HETATM   28  O   UNL     1     -10.738   5.621  70.352  1.00  0.00    -0.282 OA 
BRANCH  26  29
HETATM   29  C   UNL     1      -8.638   6.181  71.395  1.00  0.00    -0.128 C  
BRANCH  29  30
HETATM   30  C   UNL     1      -9.040   5.224  72.460  1.00  0.00    -0.136 A  
HETATM   31  N   UNL     1      -8.870   1.884  73.516  1.00  0.00    -0.065 NA 
HETATM   32  C   UNL     1      -9.747   5.517  73.611  1.00  0.00    -0.151 A  
HETATM   33  S   UNL     1      -9.952   4.102  74.551  1.00  0.00    -0.200 SA 
HETATM   34  H2  UNL     1      -9.220   1.409  74.348  1.00  0.00     0.000 HD 
HETATM   35  H1  UNL     1      -8.360   1.350  72.813  1.00  0.00     0.000 HD 
HETATM   36  N   UNL     1      -8.662   3.891  72.337  1.00  0.00    -0.103 NA 
HETATM   37  C   UNL     1      -9.093   3.203  73.369  1.00  0.00    -0.085 A  
ENDBRANCH  29  30
ENDBRANCH  26  29
ENDBRANCH   8  25
TORSDOF 9
ENDMDL
MODEL      199
REMARK 921   NORMALIZED FREE ENERGY PREDICTED BY IDOCK:   -4.18 KCAL/MOL
REMARK 922        TOTAL FREE ENERGY PREDICTED BY IDOCK:   -8.31 KCAL/MOL
REMARK 923 INTER-LIGAND FREE ENERGY PREDICTED BY IDOCK:   -7.12 KCAL/MOL
REMARK 924 INTRA-LIGAND FREE ENERGY PREDICTED BY IDOCK:   -1.19 KCAL/MOL
REMARK 927      BINDING AFFINITY PREDICTED BY RF-SCORE:    0.00 PKD
ROOT
HETATM    1  C   UNL     1      -9.469   9.135  67.120  1.00  0.00    -0.154 C  
HETATM    2  S   UNL     1     -10.249   9.739  68.634  1.00  0.00    -0.199 SA 
HETATM    3  C   UNL     1      -9.841  11.467  68.305  1.00  0.00    -0.203 C  
HETATM    4  C   UNL     1      -8.399  11.721  67.882  1.00  0.00    -0.149 C  
HETATM    5  C   UNL     1      -7.583   8.237  67.040  1.00  0.00    -0.092 C  
HETATM    6  CA  UNL     1      -7.576  10.756  67.372  1.00  0.00    -0.099 C  
HETATM    7  C   UNL     1      -6.133  11.086  67.040  1.00  0.00    -0.082 C  
HETATM    8  CA  UNL     1      -9.022   7.638  67.134  1.00  0.00    -0.126 C  
HETATM    9  N   UNL     1      -8.061   9.491  67.162  1.00  0.00    -0.106 N  
HETATM   10  O   UNL     1      -5.260  10.067  66.968  1.00  0.00    -0.040 OA 
HETATM   11  OXT UNL     1      -5.745  12.226  66.825  1.00  0.00    -0.307 OA 
HETATM   12  O   UNL     1      -6.438   7.838  67.032  1.00  0.00    -0.052 OA 
ENDROOT
BRANCH   4  13
HETATM   13  C   UNL     1      -7.967  13.145  68.250  1.00  0.00    -0.148 C  
BRANCH  13  14
HETATM   14  S   UNL     1      -8.480  14.389  67.011  1.00  0.00    -0.134 SA 
BRANCH  14  15
HETATM   15  C   UNL     1     -10.201  14.321  67.076  1.00  0.00    -0.260 A  
HETATM   16  N   UNL     1     -10.995  13.940  66.102  1.00  0.00    -0.292 NA 
HETATM   17  N   UNL     1     -12.274  14.128  66.554  1.00  0.00    -0.457 NA 
HETATM   18  N   UNL     1     -10.974  14.689  68.147  1.00  0.00    -0.254 NA 
HETATM   19  N   UNL     1     -12.274  14.597  67.793  1.00  0.00    -0.171 NA 
BRANCH  18  20
HETATM   20  C   UNL     1     -10.651  15.082  69.508  1.00  0.00    -0.254 C  
BRANCH  20  21
HETATM   21  C   UNL     1     -11.910  15.586  70.237  1.00  0.00    -0.357 C  
BRANCH  21  22
HETATM   22  N   UNL     1     -12.338  14.850  71.448  1.00  0.00    -0.313 NA 
HETATM   23  C   UNL     1     -12.475  13.421  71.112  1.00  0.00    -0.327 C  
HETATM   24  C   UNL     1     -13.622  15.315  71.988  1.00  0.00    -0.469 C  
ENDBRANCH  21  22
ENDBRANCH  20  21
ENDBRANCH  18  20
ENDBRANCH  14  15
ENDBRANCH  13  14
ENDBRANCH   4  13
BRANCH   8  25
HETATM   25  N   UNL     1      -9.309   6.861  68.378  1.00  0.00    -0.130 N  
HETATM   26  C   UNL     1      -9.351   5.483  68.387  1.00  0.00    -0.111 C  
HETATM   27  H   UNL     1      -9.478   7.366  69.248  1.00  0.00     0.000 HD 
HETATM   28  O   UNL     1      -9.038   4.805  67.409  1.00  0.00    -0.111 OA 
BRANCH  26  29
HETATM   29  C   UNL     1      -9.829   4.868  69.686  1.00  0.00    -0.288 C  
BRANCH  29  30
HETATM   30  C   UNL     1     -10.203   5.917  70.672  1.00  0.00    -0.209 A  
HETATM   31  N   UNL     1      -8.961   8.385  72.831  1.00  0.00    -0.293 NA 
HETATM   32  C   UNL     1     -11.482   6.275  71.051  1.00  0.00    -0.306 A  
HETATM   33  S   UNL     1     -11.421   7.548  72.193  1.00  0.00    -0.307 SA 
HETATM   34  H2  UNL     1      -9.424   9.055  73.446  1.00  0.00     0.000 HD 
HETATM   35  H1  UNL     1      -7.943   8.376  72.779  1.00  0.00     0.000 HD 
HETATM   36  N   UNL     1      -9.191   6.653  71.279  1.00  0.00    -0.155 NA 
HETATM   37  C   UNL     1      -9.708   7.533  72.106  1.00  0.00    -0.164 A  
ENDBRANCH  29  30
ENDBRANCH  26  29
ENDBRANCH   8  25
TORSDOF 9
ENDMDL
MODEL      200
REMARK 921   NORMALIZED FREE ENERGY PREDICTED BY IDOCK:   -4.17 KCAL/MOL
REMARK 922        TOTAL FREE ENERGY PREDICTED BY IDOCK:   -8.31 KCAL/MOL
REMARK 923 INTER-LIGAND FREE ENERGY PREDICTED BY IDOCK:   -7.32 KCAL/MOL
REMARK 924 INTRA-LIGAND FREE ENERGY PREDICTED BY IDOCK:   -0.99 KCAL/MOL
REMARK 927      BINDING AFFINITY PREDICTED BY RF-SCORE:    0.00 PKD
ROOT
HETATM    1  C   UNL     1      -9.129   8.071  70.868  1.00  0.00    -0.148 C  
HETATM    2  S   UNL     1      -8.928   9.099  69.396  1.00  0.00    -0.153 SA 
HETATM    3  C   UNL     1      -9.928  10.453  70.050  1.00  0.00     0.039 C  
HETATM    4  C   UNL     1     -11.255  10.034  70.671  1.00  0.00    -0.425 C  
HETATM    5  C   UNL     1     -10.455   6.462  71.013  1.00  0.00    -0.223 C  
HETATM    6  CA  UNL     1     -11.524   8.766  71.105  1.00  0.00    -0.286 C  
HETATM    7  C   UNL     1     -12.898   8.424  71.650  1.00  0.00    -0.334 C  
HETATM    8  CA  UNL     1      -8.936   6.535  70.658  1.00  0.00    -0.148 C  
HETATM    9  N   UNL     1     -10.546   7.807  71.046  1.00  0.00    -0.212 N  
HETATM   10  O   UNL     1     -13.265   7.132  71.652  1.00  0.00    -0.374 OA 
HETATM   11  OXT UNL     1     -13.665   9.268  72.093  1.00  0.00    -0.427 OA 
HETATM   12  O   UNL     1     -11.327   5.622  71.086  1.00  0.00    -0.157 OA 
ENDROOT
BRANCH   4  13
HETATM   13  C   UNL     1     -12.275  11.175  70.595  1.00  0.00    -0.397 C  
BRANCH  13  14
HETATM   14  S   UNL     1     -11.548  12.744  70.000  1.00  0.00    -0.028 SA 
BRANCH  14  15
HETATM   15  C   UNL     1     -11.501  12.531  68.291  1.00  0.00    -0.308 A  
HETATM   16  N   UNL     1     -12.055  11.546  67.621  1.00  0.00    -0.541 NA 
HETATM   17  N   UNL     1     -11.695  11.722  66.311  1.00  0.00    -0.470 NA 
HETATM   18  N   UNL     1     -10.848  13.346  67.402  1.00  0.00    -0.265 NA 
HETATM   19  N   UNL     1     -10.948  12.806  66.167  1.00  0.00    -0.277 NA 
BRANCH  18  20
HETATM   20  C   UNL     1     -10.165  14.619  67.549  1.00  0.00    -0.225 C  
BRANCH  20  21
HETATM   21  C   UNL     1     -10.769  15.669  66.600  1.00  0.00    -0.296 C  
BRANCH  21  22
HETATM   22  N   UNL     1     -10.320  17.071  66.757  1.00  0.00    -0.313 NA 
HETATM   23  C   UNL     1     -10.879  17.611  68.011  1.00  0.00    -0.234 C  
HETATM   24  C   UNL     1     -10.746  17.945  65.657  1.00  0.00    -0.052 C  
ENDBRANCH  21  22
ENDBRANCH  20  21
ENDBRANCH  18  20
ENDBRANCH  14  15
ENDBRANCH  13  14
ENDBRANCH   4  13
BRANCH   8  25
HETATM   25  N   UNL     1      -8.583   6.082  69.278  1.00  0.00    -0.117 N  
HETATM   26  C   UNL     1      -7.344   5.562  68.973  1.00  0.00    -0.077 C  
HETATM   27  H   UNL     1      -9.282   6.161  68.539  1.00  0.00     0.000 HD 
HETATM   28  O   UNL     1      -6.496   5.324  69.833  1.00  0.00    -0.032 OA 
BRANCH  26  29
HETATM   29  C   UNL     1      -7.097   5.322  67.498  1.00  0.00    -0.067 C  
BRANCH  29  30
HETATM   30  C   UNL     1      -7.055   6.604  66.745  1.00  0.00    -0.069 A  
HETATM   31  N   UNL     1      -8.477   8.413  64.098  1.00  0.00    -0.379 NA 
HETATM   32  C   UNL     1      -6.236   7.687  67.001  1.00  0.00    -0.053 A  
HETATM   33  S   UNL     1      -6.561   8.945  65.889  1.00  0.00    -0.057 SA 
HETATM   34  H2  UNL     1      -8.304   9.351  63.737  1.00  0.00     0.000 HD 
HETATM   35  H1  UNL     1      -9.189   7.832  63.657  1.00  0.00     0.000 HD 
HETATM   36  N   UNL     1      -7.933   6.781  65.681  1.00  0.00    -0.109 NA 
HETATM   37  C   UNL     1      -7.760   7.968  65.147  1.00  0.00    -0.105 A  
ENDBRANCH  29  30
ENDBRANCH  26  29
ENDBRANCH   8  25
TORSDOF 9
ENDMDL
MODEL      201
REMARK 921   NORMALIZED FREE ENERGY PREDICTED BY IDOCK:   -4.16 KCAL/MOL
REMARK 922        TOTAL FREE ENERGY PREDICTED BY IDOCK:   -8.29 KCAL/MOL
REMARK 923 INTER-LIGAND FREE ENERGY PREDICTED BY IDOCK:   -6.78 KCAL/MOL
REMARK 924 INTRA-LIGAND FREE ENERGY PREDICTED BY IDOCK:   -1.51 KCAL/MOL
REMARK 927      BINDING AFFINITY PREDICTED BY RF-SCORE:    0.00 PKD
ROOT
HETATM    1  C   UNL     1      -9.866  11.935  67.940  1.00  0.00    -0.190 C  
HETATM    2  S   UNL     1      -9.760  10.149  68.194  1.00  0.00    -0.141 SA 
HETATM    3  C   UNL     1      -8.737   9.874  66.730  1.00  0.00    -0.128 C  
HETATM    4  C   UNL     1      -9.223  10.568  65.464  1.00  0.00    -0.223 C  
HETATM    5  C   UNL     1     -11.520  12.914  67.117  1.00  0.00    -0.336 C  
HETATM    6  CA  UNL     1     -10.078  11.635  65.462  1.00  0.00    -0.246 C  
HETATM    7  C   UNL     1     -10.561  12.220  64.148  1.00  0.00    -0.376 C  
HETATM    8  CA  UNL     1     -11.095  12.644  68.596  1.00  0.00    -0.266 C  
HETATM    9  N   UNL     1     -10.495  12.173  66.652  1.00  0.00    -0.217 N  
HETATM   10  O   UNL     1     -11.694  12.941  64.165  1.00  0.00    -0.353 OA 
HETATM   11  OXT UNL     1      -9.958  12.072  63.094  1.00  0.00    -0.407 OA 
HETATM   12  O   UNL     1     -12.450  13.416  66.522  1.00  0.00    -0.331 OA 
ENDROOT
BRANCH   4  13
HETATM   13  C   UNL     1      -8.750   9.814  64.216  1.00  0.00    -0.206 C  
BRANCH  13  14
HETATM   14  S   UNL     1      -6.930   9.802  64.037  1.00  0.00    -0.123 SA 
BRANCH  14  15
HETATM   15  C   UNL     1      -6.579   8.147  63.708  1.00  0.00    -0.071 A  
HETATM   16  N   UNL     1      -6.521   7.593  62.518  1.00  0.00    -0.071 NA 
HETATM   17  N   UNL     1      -6.305   6.257  62.728  1.00  0.00    -0.029 NA 
HETATM   18  N   UNL     1      -6.345   7.179  64.649  1.00  0.00    -0.037 NA 
HETATM   19  N   UNL     1      -6.211   5.990  64.022  1.00  0.00    -0.029 NA 
BRANCH  18  20
HETATM   20  C   UNL     1      -6.181   7.224  66.092  1.00  0.00    -0.041 C  
BRANCH  20  21
HETATM   21  C   UNL     1      -6.428   5.835  66.707  1.00  0.00    -0.050 C  
BRANCH  21  22
HETATM   22  N   UNL     1      -7.771   5.566  67.270  1.00  0.00    -0.099 NA 
HETATM   23  C   UNL     1      -8.062   4.126  67.135  1.00  0.00    -0.100 C  
HETATM   24  C   UNL     1      -8.843   6.311  66.599  1.00  0.00    -0.132 C  
ENDBRANCH  21  22
ENDBRANCH  20  21
ENDBRANCH  18  20
ENDBRANCH  14  15
ENDBRANCH  13  14
ENDBRANCH   4  13
BRANCH   8  25
HETATM   25  N   UNL     1     -12.031  11.783  69.380  1.00  0.00    -0.310 N  
HETATM   26  C   UNL     1     -12.546  12.180  70.595  1.00  0.00    -0.169 C  
HETATM   27  H   UNL     1     -12.296  10.873  69.004  1.00  0.00     0.000 HD 
HETATM   28  O   UNL     1     -12.370  13.309  71.052  1.00  0.00    -0.362 OA 
BRANCH  26  29
HETATM   29  C   UNL     1     -13.332  11.116  71.333  1.00  0.00    -0.139 C  
BRANCH  29  30
HETATM   30  C   UNL     1     -12.624   9.809  71.306  1.00  0.00    -0.365 A  
HETATM   31  N   UNL     1      -9.480   8.257  71.378  1.00  0.00    -0.162 NA 
HETATM   32  C   UNL     1     -13.205   8.555  71.256  1.00  0.00    -0.132 A  
HETATM   33  S   UNL     1     -11.994   7.347  71.268  1.00  0.00    -0.325 SA 
HETATM   34  H2  UNL     1      -9.198   7.277  71.370  1.00  0.00     0.000 HD 
HETATM   35  H1  UNL     1      -8.764   8.982  71.417  1.00  0.00     0.000 HD 
HETATM   36  N   UNL     1     -11.234   9.801  71.360  1.00  0.00    -0.352 NA 
HETATM   37  C   UNL     1     -10.789   8.566  71.336  1.00  0.00    -0.260 A  
ENDBRANCH  29  30
ENDBRANCH  26  29
ENDBRANCH   8  25
TORSDOF 9
ENDMDL
MODEL      202
REMARK 921   NORMALIZED FREE ENERGY PREDICTED BY IDOCK:   -4.12 KCAL/MOL
REMARK 922        TOTAL FREE ENERGY PREDICTED BY IDOCK:   -8.22 KCAL/MOL
REMARK 923 INTER-LIGAND FREE ENERGY PREDICTED BY IDOCK:   -7.29 KCAL/MOL
REMARK 924 INTRA-LIGAND FREE ENERGY PREDICTED BY IDOCK:   -0.93 KCAL/MOL
REMARK 927      BINDING AFFINITY PREDICTED BY RF-SCORE:    0.00 PKD
ROOT
HETATM    1  C   UNL     1      -9.599  11.044  67.601  1.00  0.00    -0.168 C  
HETATM    2  S   UNL     1     -10.547  11.544  69.056  1.00  0.00    -0.129 SA 
HETATM    3  C   UNL     1     -10.514  13.299  68.631  1.00  0.00    -0.228 C  
HETATM    4  C   UNL     1      -9.148  13.839  68.227  1.00  0.00    -0.195 C  
HETATM    5  C   UNL     1      -7.561  10.579  67.622  1.00  0.00    -0.093 C  
HETATM    6  CA  UNL     1      -8.116  13.053  67.797  1.00  0.00    -0.168 C  
HETATM    7  C   UNL     1      -6.769  13.673  67.480  1.00  0.00    -0.124 C  
HETATM    8  CA  UNL     1      -8.837   9.684  67.718  1.00  0.00    -0.125 C  
HETATM    9  N   UNL     1      -8.306  11.703  67.654  1.00  0.00    -0.136 N  
HETATM   10  O   UNL     1      -5.693  12.869  67.491  1.00  0.00    -0.179 OA 
HETATM   11  OXT UNL     1      -6.631  14.857  67.204  1.00  0.00    -0.269 OA 
HETATM   12  O   UNL     1      -6.357  10.443  67.665  1.00  0.00    -0.057 OA 
ENDROOT
BRANCH   4  13
HETATM   13  C   UNL     1      -9.051  15.342  68.516  1.00  0.00    -0.197 C  
BRANCH  13  14
HETATM   14  S   UNL     1      -9.764  16.372  67.183  1.00  0.00    -0.245 SA 
BRANCH  14  15
HETATM   15  C   UNL     1      -9.817  17.944  67.888  1.00  0.00    -0.309 A  
HETATM   16  N   UNL     1     -10.329  18.246  69.060  1.00  0.00    -0.226 NA 
HETATM   17  N   UNL     1     -10.240  19.608  69.178  1.00  0.00    -0.327 NA 
HETATM   18  N   UNL     1      -9.361  19.097  67.304  1.00  0.00    -0.297 NA 
HETATM   19  N   UNL     1      -9.665  20.139  68.109  1.00  0.00    -0.334 NA 
BRANCH  18  20
HETATM   20  C   UNL     1      -8.618  19.357  66.083  1.00  0.00    -0.284 C  
BRANCH  20  21
HETATM   21  C   UNL     1      -7.225  18.704  66.150  1.00  0.00    -0.262 C  
BRANCH  21  22
HETATM   22  N   UNL     1      -6.316  19.141  67.234  1.00  0.00    -0.184 NA 
HETATM   23  C   UNL     1      -5.132  19.779  66.631  1.00  0.00    -0.160 C  
HETATM   24  C   UNL     1      -5.855  18.039  68.086  1.00  0.00    -0.168 C  
ENDBRANCH  21  22
ENDBRANCH  20  21
ENDBRANCH  18  20
ENDBRANCH  14  15
ENDBRANCH  13  14
ENDBRANCH   4  13
BRANCH   8  25
HETATM   25  N   UNL     1      -8.993   8.933  69.001  1.00  0.00    -0.136 N  
HETATM   26  C   UNL     1      -9.092   7.559  69.037  1.00  0.00    -0.140 C  
HETATM   27  H   UNL     1      -9.026   9.455  69.877  1.00  0.00     0.000 HD 
HETATM   28  O   UNL     1      -8.937   6.858  68.038  1.00  0.00    -0.123 OA 
BRANCH  26  29
HETATM   29  C   UNL     1      -9.423   6.978  70.396  1.00  0.00    -0.162 C  
BRANCH  29  30
HETATM   30  C   UNL     1     -10.702   7.529  70.919  1.00  0.00    -0.235 A  
HETATM   31  N   UNL     1     -14.145   6.950  71.239  1.00  0.00    -0.225 NA 
HETATM   32  C   UNL     1     -10.869   8.712  71.613  1.00  0.00    -0.304 A  
HETATM   33  S   UNL     1     -12.515   8.917  72.034  1.00  0.00    -0.405 SA 
HETATM   34  H2  UNL     1     -14.892   7.483  71.683  1.00  0.00     0.000 HD 
HETATM   35  H1  UNL     1     -14.367   6.066  70.782  1.00  0.00     0.000 HD 
HETATM   36  N   UNL     1     -11.869   6.796  70.733  1.00  0.00    -0.380 NA 
HETATM   37  C   UNL     1     -12.888   7.429  71.267  1.00  0.00    -0.321 A  
ENDBRANCH  29  30
ENDBRANCH  26  29
ENDBRANCH   8  25
TORSDOF 9
ENDMDL
MODEL      203
REMARK 921   NORMALIZED FREE ENERGY PREDICTED BY IDOCK:   -4.12 KCAL/MOL
REMARK 922        TOTAL FREE ENERGY PREDICTED BY IDOCK:   -8.22 KCAL/MOL
REMARK 923 INTER-LIGAND FREE ENERGY PREDICTED BY IDOCK:   -7.17 KCAL/MOL
REMARK 924 INTRA-LIGAND FREE ENERGY PREDICTED BY IDOCK:   -1.05 KCAL/MOL
REMARK 927      BINDING AFFINITY PREDICTED BY RF-SCORE:    0.00 PKD
ROOT
HETATM    1  C   UNL     1     -11.129   7.389  69.938  1.00  0.00    -0.190 C  
HETATM    2  S   UNL     1     -10.710   6.358  68.515  1.00  0.00    -0.313 SA 
HETATM    3  C   UNL     1     -10.394   4.887  69.513  1.00  0.00    -0.084 C  
HETATM    4  C   UNL     1      -9.518   5.114  70.739  1.00  0.00    -0.224 C  
HETATM    5  C   UNL     1      -9.833   8.776  70.815  1.00  0.00    -0.205 C  
HETATM    6  CA  UNL     1      -9.318   6.338  71.314  1.00  0.00    -0.156 C  
HETATM    7  C   UNL     1      -8.374   6.479  72.493  1.00  0.00    -0.114 C  
HETATM    8  CA  UNL     1     -10.955   8.929  69.739  1.00  0.00    -0.156 C  
HETATM    9  N   UNL     1      -9.975   7.435  70.820  1.00  0.00    -0.182 N  
HETATM   10  O   UNL     1      -7.869   7.698  72.746  1.00  0.00    -0.091 OA 
HETATM   11  OXT UNL     1      -8.073   5.541  73.218  1.00  0.00    -0.113 OA 
HETATM   12  O   UNL     1      -9.003   9.472  71.360  1.00  0.00    -0.209 OA 
ENDROOT
BRANCH   4  13
HETATM   13  C   UNL     1      -8.784   3.826  71.129  1.00  0.00    -0.081 C  
BRANCH  13  14
HETATM   14  S   UNL     1      -9.268   2.391  70.103  1.00  0.00    -0.115 SA 
BRANCH  14  15
HETATM   15  C   UNL     1      -8.017   2.315  68.920  1.00  0.00    -0.051 A  
HETATM   16  N   UNL     1      -6.752   2.048  69.151  1.00  0.00    -0.033 NA 
HETATM   17  N   UNL     1      -6.106   2.182  67.951  1.00  0.00    -0.024 NA 
HETATM   18  N   UNL     1      -8.171   2.557  67.579  1.00  0.00    -0.069 NA 
HETATM   19  N   UNL     1      -6.957   2.505  66.988  1.00  0.00    -0.047 NA 
BRANCH  18  20
HETATM   20  C   UNL     1      -9.338   2.792  66.746  1.00  0.00    -0.043 C  
BRANCH  20  21
HETATM   21  C   UNL     1      -8.921   2.995  65.279  1.00  0.00    -0.142 C  
BRANCH  21  22
HETATM   22  N   UNL     1      -9.657   4.013  64.494  1.00  0.00    -0.164 NA 
HETATM   23  C   UNL     1     -10.774   3.355  63.792  1.00  0.00    -0.244 C  
HETATM   24  C   UNL     1      -8.824   4.687  63.491  1.00  0.00    -0.129 C  
ENDBRANCH  21  22
ENDBRANCH  20  21
ENDBRANCH  18  20
ENDBRANCH  14  15
ENDBRANCH  13  14
ENDBRANCH   4  13
BRANCH   8  25
HETATM   25  N   UNL     1     -10.490   9.387  68.395  1.00  0.00    -0.215 N  
HETATM   26  C   UNL     1     -11.137  10.383  67.696  1.00  0.00    -0.293 C  
HETATM   27  H   UNL     1      -9.667   8.948  67.981  1.00  0.00     0.000 HD 
HETATM   28  O   UNL     1     -12.057  11.041  68.181  1.00  0.00    -0.610 OA 
BRANCH  26  29
HETATM   29  C   UNL     1     -10.641  10.596  66.281  1.00  0.00    -0.229 C  
BRANCH  29  30
HETATM   30  C   UNL     1     -10.708  12.032  65.899  1.00  0.00    -0.275 A  
HETATM   31  N   UNL     1     -12.371  14.385  63.901  1.00  0.00    -1.023 NA 
HETATM   32  C   UNL     1      -9.928  13.057  66.400  1.00  0.00    -0.277 A  
HETATM   33  S   UNL     1     -10.380  14.543  65.682  1.00  0.00    -0.371 SA 
HETATM   34  H2  UNL     1     -12.266  15.394  63.798  1.00  0.00     0.000 HD 
HETATM   35  H1  UNL     1     -13.079  13.898  63.352  1.00  0.00     0.000 HD 
HETATM   36  N   UNL     1     -11.655  12.430  64.962  1.00  0.00    -0.333 NA 
HETATM   37  C   UNL     1     -11.572  13.724  64.759  1.00  0.00    -0.362 A  
ENDBRANCH  29  30
ENDBRANCH  26  29
ENDBRANCH   8  25
TORSDOF 9
ENDMDL
MODEL      204
REMARK 921   NORMALIZED FREE ENERGY PREDICTED BY IDOCK:   -4.11 KCAL/MOL
REMARK 922        TOTAL FREE ENERGY PREDICTED BY IDOCK:   -8.22 KCAL/MOL
REMARK 923 INTER-LIGAND FREE ENERGY PREDICTED BY IDOCK:   -6.71 KCAL/MOL
REMARK 924 INTRA-LIGAND FREE ENERGY PREDICTED BY IDOCK:   -1.51 KCAL/MOL
REMARK 927      BINDING AFFINITY PREDICTED BY RF-SCORE:    0.00 PKD
ROOT
HETATM    1  C   UNL     1      -9.487  11.037  68.769  1.00  0.00    -0.183 C  
HETATM    2  S   UNL     1     -11.144  10.591  69.334  1.00  0.00    -0.276 SA 
HETATM    3  C   UNL     1     -10.910   8.826  69.031  1.00  0.00    -0.027 C  
HETATM    4  C   UNL     1     -10.305   8.478  67.677  1.00  0.00    -0.317 C  
HETATM    5  C   UNL     1      -9.056  11.845  66.890  1.00  0.00    -0.196 C  
HETATM    6  CA  UNL     1      -9.599   9.362  66.910  1.00  0.00    -0.164 C  
HETATM    7  C   UNL     1      -9.090   8.946  65.543  1.00  0.00    -0.190 C  
HETATM    8  CA  UNL     1      -9.306  12.510  68.281  1.00  0.00    -0.193 C  
HETATM    9  N   UNL     1      -9.354  10.625  67.382  1.00  0.00    -0.143 N  
HETATM   10  O   UNL     1      -8.804   9.918  64.660  1.00  0.00    -0.172 OA 
HETATM   11  OXT UNL     1      -8.920   7.777  65.225  1.00  0.00     0.021 OA 
HETATM   12  O   UNL     1      -8.847  12.192  65.747  1.00  0.00     0.055 OA 
ENDROOT
BRANCH   4  13
HETATM   13  C   UNL     1     -10.727   7.071  67.238  1.00  0.00    -0.342 C  
BRANCH  13  14
HETATM   14  S   UNL     1     -10.475   5.812  68.541  1.00  0.00    -0.219 SA 
BRANCH  14  15
HETATM   15  C   UNL     1      -8.765   5.804  68.753  1.00  0.00    -0.108 A  
HETATM   16  N   UNL     1      -8.113   6.305  69.778  1.00  0.00    -0.118 NA 
HETATM   17  N   UNL     1      -6.781   6.163  69.493  1.00  0.00    -0.050 NA 
HETATM   18  N   UNL     1      -7.851   5.302  67.863  1.00  0.00    -0.091 NA 
HETATM   19  N   UNL     1      -6.609   5.566  68.323  1.00  0.00    -0.047 NA 
BRANCH  18  20
HETATM   20  C   UNL     1      -7.989   4.548  66.629  1.00  0.00    -0.102 C  
BRANCH  20  21
HETATM   21  C   UNL     1      -7.750   3.049  66.884  1.00  0.00    -0.075 C  
BRANCH  21  22
HETATM   22  N   UNL     1      -7.635   2.164  65.701  1.00  0.00    -0.070 NA 
HETATM   23  C   UNL     1      -6.841   2.854  64.668  1.00  0.00    -0.041 C  
HETATM   24  C   UNL     1      -8.932   1.806  65.115  1.00  0.00    -0.124 C  
ENDBRANCH  21  22
ENDBRANCH  20  21
ENDBRANCH  18  20
ENDBRANCH  14  15
ENDBRANCH  13  14
ENDBRANCH   4  13
BRANCH   8  25
HETATM   25  N   UNL     1     -10.507  13.396  68.355  1.00  0.00    -0.246 N  
HETATM   26  C   UNL     1     -10.482  14.610  69.008  1.00  0.00    -0.246 C  
HETATM   27  H   UNL     1     -11.373  13.093  67.909  1.00  0.00     0.000 HD 
HETATM   28  O   UNL     1      -9.446  15.096  69.462  1.00  0.00    -0.212 OA 
BRANCH  26  29
HETATM   29  C   UNL     1     -11.827  15.293  69.139  1.00  0.00    -0.345 C  
BRANCH  29  30
HETATM   30  C   UNL     1     -12.573  14.789  70.324  1.00  0.00    -0.315 A  
HETATM   31  N   UNL     1     -13.362  11.936  72.204  1.00  0.00    -0.538 NA 
HETATM   32  C   UNL     1     -13.310  15.542  71.218  1.00  0.00    -0.511 A  
HETATM   33  S   UNL     1     -13.966  14.533  72.434  1.00  0.00    -0.441 SA 
HETATM   34  H2  UNL     1     -13.911  11.805  73.054  1.00  0.00     0.000 HD 
HETATM   35  H1  UNL     1     -12.925  11.128  71.762  1.00  0.00     0.000 HD 
HETATM   36  N   UNL     1     -12.527  13.429  70.611  1.00  0.00    -0.334 NA 
HETATM   37  C   UNL     1     -13.230  13.173  71.691  1.00  0.00    -0.346 A  
ENDBRANCH  29  30
ENDBRANCH  26  29
ENDBRANCH   8  25
TORSDOF 9
ENDMDL
MODEL      205
REMARK 921   NORMALIZED FREE ENERGY PREDICTED BY IDOCK:   -4.11 KCAL/MOL
REMARK 922        TOTAL FREE ENERGY PREDICTED BY IDOCK:   -8.21 KCAL/MOL
REMARK 923 INTER-LIGAND FREE ENERGY PREDICTED BY IDOCK:   -7.15 KCAL/MOL
REMARK 924 INTRA-LIGAND FREE ENERGY PREDICTED BY IDOCK:   -1.06 KCAL/MOL
REMARK 927      BINDING AFFINITY PREDICTED BY RF-SCORE:    0.00 PKD
ROOT
HETATM    1  C   UNL     1     -11.911  11.685  68.937  1.00  0.00    -0.292 C  
HETATM    2  S   UNL     1     -10.127  11.499  68.718  1.00  0.00    -0.135 SA 
HETATM    3  C   UNL     1     -10.180   9.694  68.778  1.00  0.00    -0.196 C  
HETATM    4  C   UNL     1     -11.006   9.110  69.918  1.00  0.00    -0.218 C  
HETATM    5  C   UNL     1     -12.834  12.190  70.744  1.00  0.00    -0.024 C  
HETATM    6  CA  UNL     1     -11.970   9.805  70.593  1.00  0.00    -0.259 C  
HETATM    7  C   UNL     1     -12.695   9.162  71.759  1.00  0.00    -0.373 C  
HETATM    8  CA  UNL     1     -12.387  13.054  69.521  1.00  0.00    -0.012 C  
HETATM    9  N   UNL     1     -12.277  11.085  70.209  1.00  0.00    -0.340 N  
HETATM   10  O   UNL     1     -13.289   9.974  72.649  1.00  0.00    -0.144 OA 
HETATM   11  OXT UNL     1     -12.769   7.950  71.908  1.00  0.00    -0.314 OA 
HETATM   12  O   UNL     1     -13.324  12.362  71.840  1.00  0.00    -0.468 OA 
ENDROOT
BRANCH   4  13
HETATM   13  C   UNL     1     -10.500   7.712  70.293  1.00  0.00    -0.224 C  
BRANCH  13  14
HETATM   14  S   UNL     1      -8.868   7.742  71.119  1.00  0.00    -0.139 SA 
BRANCH  14  15
HETATM   15  C   UNL     1      -8.245   6.164  70.814  1.00  0.00    -0.125 A  
HETATM   16  N   UNL     1      -8.624   5.057  71.411  1.00  0.00    -0.124 NA 
HETATM   17  N   UNL     1      -7.811   4.065  70.931  1.00  0.00    -0.055 NA 
HETATM   18  N   UNL     1      -7.245   5.858  69.927  1.00  0.00    -0.071 NA 
HETATM   19  N   UNL     1      -6.958   4.543  70.036  1.00  0.00    -0.044 NA 
BRANCH  18  20
HETATM   20  C   UNL     1      -6.535   6.643  68.932  1.00  0.00    -0.039 C  
BRANCH  20  21
HETATM   21  C   UNL     1      -6.380   5.844  67.626  1.00  0.00    -0.041 C  
BRANCH  21  22
HETATM   22  N   UNL     1      -7.073   6.359  66.423  1.00  0.00    -0.067 NA 
HETATM   23  C   UNL     1      -8.067   7.364  66.842  1.00  0.00    -0.120 C  
HETATM   24  C   UNL     1      -7.773   5.316  65.663  1.00  0.00    -0.087 C  
ENDBRANCH  21  22
ENDBRANCH  20  21
ENDBRANCH  18  20
ENDBRANCH  14  15
ENDBRANCH  13  14
ENDBRANCH   4  13
BRANCH   8  25
HETATM   25  N   UNL     1     -11.328  14.067  69.811  1.00  0.00    -0.406 N  
HETATM   26  C   UNL     1     -11.626  15.396  70.027  1.00  0.00    -0.321 C  
HETATM   27  H   UNL     1     -10.354  13.766  69.850  1.00  0.00     0.000 HD 
HETATM   28  O   UNL     1     -12.781  15.809  70.117  1.00  0.00    -0.302 OA 
BRANCH  26  29
HETATM   29  C   UNL     1     -10.424  16.311  70.128  1.00  0.00    -0.087 C  
BRANCH  29  30
HETATM   30  C   UNL     1     -10.286  17.154  68.910  1.00  0.00    -0.332 A  
HETATM   31  N   UNL     1      -9.664  20.398  67.734  1.00  0.00    -0.378 NA 
HETATM   32  C   UNL     1     -10.371  16.730  67.598  1.00  0.00    -0.309 A  
HETATM   33  S   UNL     1     -10.121  18.048  66.537  1.00  0.00    -0.393 SA 
HETATM   34  H2  UNL     1      -9.586  20.784  66.793  1.00  0.00     0.000 HD 
HETATM   35  H1  UNL     1      -9.545  21.015  68.537  1.00  0.00     0.000 HD 
HETATM   36  N   UNL     1     -10.018  18.510  69.064  1.00  0.00    -0.351 NA 
HETATM   37  C   UNL     1      -9.921  19.086  67.888  1.00  0.00    -0.358 A  
ENDBRANCH  29  30
ENDBRANCH  26  29
ENDBRANCH   8  25
TORSDOF 9
ENDMDL
MODEL      206
REMARK 921   NORMALIZED FREE ENERGY PREDICTED BY IDOCK:   -4.09 KCAL/MOL
REMARK 922        TOTAL FREE ENERGY PREDICTED BY IDOCK:   -8.19 KCAL/MOL
REMARK 923 INTER-LIGAND FREE ENERGY PREDICTED BY IDOCK:   -8.38 KCAL/MOL
REMARK 924 INTRA-LIGAND FREE ENERGY PREDICTED BY IDOCK:    0.19 KCAL/MOL
REMARK 927      BINDING AFFINITY PREDICTED BY RF-SCORE:    0.00 PKD
ROOT
HETATM    1  C   UNL     1      -7.017  10.335  67.431  1.00  0.00    -0.082 C  
HETATM    2  S   UNL     1      -7.000  11.167  69.035  1.00  0.00    -0.110 SA 
HETATM    3  C   UNL     1      -6.486   9.688  69.938  1.00  0.00    -0.057 C  
HETATM    4  C   UNL     1      -7.262   8.422  69.597  1.00  0.00    -0.057 C  
HETATM    5  C   UNL     1      -8.745   9.659  66.469  1.00  0.00    -0.134 C  
HETATM    6  CA  UNL     1      -7.980   8.257  68.445  1.00  0.00    -0.119 C  
HETATM    7  C   UNL     1      -8.776   6.986  68.221  1.00  0.00    -0.127 C  
HETATM    8  CA  UNL     1      -7.926  10.983  66.338  1.00  0.00    -0.161 C  
HETATM    9  N   UNL     1      -7.975   9.245  67.495  1.00  0.00    -0.099 N  
HETATM   10  O   UNL     1      -9.784   7.029  67.334  1.00  0.00    -0.131 OA 
HETATM   11  OXT UNL     1      -8.529   5.937  68.800  1.00  0.00    -0.111 OA 
HETATM   12  O   UNL     1      -9.761   9.177  66.015  1.00  0.00    -0.263 OA 
ENDROOT
BRANCH   4  13
HETATM   13  C   UNL     1      -7.251   7.443  70.777  1.00  0.00    -0.068 C  
BRANCH  13  14
HETATM   14  S   UNL     1      -7.722   8.229  72.360  1.00  0.00    -0.103 SA 
BRANCH  14  15
HETATM   15  C   UNL     1      -9.434   8.373  72.232  1.00  0.00    -0.297 A  
HETATM   16  N   UNL     1     -10.082   9.131  71.376  1.00  0.00    -0.325 NA 
HETATM   17  N   UNL     1     -11.411   9.009  71.685  1.00  0.00    -0.336 NA 
HETATM   18  N   UNL     1     -10.351   7.739  73.030  1.00  0.00    -0.323 NA 
HETATM   19  N   UNL     1     -11.587   8.175  72.699  1.00  0.00    -0.405 NA 
BRANCH  18  20
HETATM   20  C   UNL     1     -10.227   6.719  74.056  1.00  0.00    -0.369 C  
BRANCH  20  21
HETATM   21  C   UNL     1     -10.865   5.399  73.586  1.00  0.00    -0.272 C  
BRANCH  21  22
HETATM   22  N   UNL     1      -9.969   4.234  73.403  1.00  0.00    -0.129 NA 
HETATM   23  C   UNL     1      -9.069   4.501  72.267  1.00  0.00    -0.125 C  
HETATM   24  C   UNL     1     -10.689   2.985  73.130  1.00  0.00    -0.158 C  
ENDBRANCH  21  22
ENDBRANCH  20  21
ENDBRANCH  18  20
ENDBRANCH  14  15
ENDBRANCH  13  14
ENDBRANCH   4  13
BRANCH   8  25
HETATM   25  N   UNL     1      -8.660  12.226  66.721  1.00  0.00    -0.301 N  
HETATM   26  C   UNL     1      -9.797  12.195  67.500  1.00  0.00    -0.191 C  
HETATM   27  H   UNL     1      -8.308  13.127  66.397  1.00  0.00     0.000 HD 
HETATM   28  O   UNL     1     -10.209  11.163  68.028  1.00  0.00    -0.173 OA 
BRANCH  26  29
HETATM   29  C   UNL     1     -10.510  13.524  67.642  1.00  0.00    -0.239 C  
BRANCH  29  30
HETATM   30  C   UNL     1     -11.077  13.972  66.342  1.00  0.00    -0.316 A  
HETATM   31  N   UNL     1     -11.335  16.666  64.112  1.00  0.00    -1.437 NA 
HETATM   32  C   UNL     1     -11.817  13.211  65.457  1.00  0.00    -0.380 A  
HETATM   33  S   UNL     1     -12.230  14.144  64.085  1.00  0.00    -0.288 SA 
HETATM   34  H2  UNL     1     -11.784  16.762  63.202  1.00  0.00     0.000 HD 
HETATM   35  H1  UNL     1     -10.844  17.464  64.514  1.00  0.00     0.000 HD 
HETATM   36  N   UNL     1     -10.838  15.277  65.925  1.00  0.00    -0.335 NA 
HETATM   37  C   UNL     1     -11.404  15.487  64.759  1.00  0.00    -0.357 A  
ENDBRANCH  29  30
ENDBRANCH  26  29
ENDBRANCH   8  25
TORSDOF 9
ENDMDL
MODEL      207
REMARK 921   NORMALIZED FREE ENERGY PREDICTED BY IDOCK:   -4.08 KCAL/MOL
REMARK 922        TOTAL FREE ENERGY PREDICTED BY IDOCK:   -8.17 KCAL/MOL
REMARK 923 INTER-LIGAND FREE ENERGY PREDICTED BY IDOCK:   -7.02 KCAL/MOL
REMARK 924 INTRA-LIGAND FREE ENERGY PREDICTED BY IDOCK:   -1.15 KCAL/MOL
REMARK 927      BINDING AFFINITY PREDICTED BY RF-SCORE:    0.00 PKD
ROOT
HETATM    1  C   UNL     1      -7.743  12.639  67.317  1.00  0.00    -0.140 C  
HETATM    2  S   UNL     1      -7.108  12.715  69.007  1.00  0.00     0.029 SA 
HETATM    3  C   UNL     1      -7.354  10.952  69.313  1.00  0.00    -0.125 C  
HETATM    4  C   UNL     1      -8.715  10.408  68.894  1.00  0.00    -0.157 C  
HETATM    5  C   UNL     1      -9.664  13.238  66.749  1.00  0.00    -0.258 C  
HETATM    6  CA  UNL     1      -9.536  11.026  67.994  1.00  0.00    -0.170 C  
HETATM    7  C   UNL     1     -10.903  10.444  67.688  1.00  0.00    -0.306 C  
HETATM    8  CA  UNL     1      -8.291  13.982  66.734  1.00  0.00     0.105 C  
HETATM    9  N   UNL     1      -9.118  12.173  67.370  1.00  0.00    -0.175 N  
HETATM   10  O   UNL     1     -11.830  11.267  67.168  1.00  0.00    -0.524 OA 
HETATM   11  OXT UNL     1     -11.184   9.269  67.881  1.00  0.00     0.004 OA 
HETATM   12  O   UNL     1     -10.825  13.480  66.496  1.00  0.00    -0.281 OA 
ENDROOT
BRANCH   4  13
HETATM   13  C   UNL     1      -9.088   9.177  69.729  1.00  0.00    -0.167 C  
BRANCH  13  14
HETATM   14  S   UNL     1      -7.628   8.246  70.319  1.00  0.00    -0.074 SA 
BRANCH  14  15
HETATM   15  C   UNL     1      -7.888   8.144  72.019  1.00  0.00    -0.118 A  
HETATM   16  N   UNL     1      -7.218   8.796  72.942  1.00  0.00    -0.346 NA 
HETATM   17  N   UNL     1      -7.692   8.350  74.147  1.00  0.00    -0.340 NA 
HETATM   18  N   UNL     1      -8.811   7.341  72.639  1.00  0.00    -0.124 NA 
HETATM   19  N   UNL     1      -8.653   7.453  73.976  1.00  0.00    -0.189 NA 
BRANCH  18  20
HETATM   20  C   UNL     1      -9.879   6.496  72.135  1.00  0.00    -0.157 C  
BRANCH  20  21
HETATM   21  C   UNL     1     -11.253   7.082  72.508  1.00  0.00    -0.275 C  
BRANCH  21  22
HETATM   22  N   UNL     1     -12.232   7.277  71.414  1.00  0.00    -0.330 NA 
HETATM   23  C   UNL     1     -13.588   7.041  71.945  1.00  0.00    -0.145 C  
HETATM   24  C   UNL     1     -12.024   6.370  70.279  1.00  0.00    -0.077 C  
ENDBRANCH  21  22
ENDBRANCH  20  21
ENDBRANCH  18  20
ENDBRANCH  14  15
ENDBRANCH  13  14
ENDBRANCH   4  13
BRANCH   8  25
HETATM   25  N   UNL     1      -8.209  15.184  67.618  1.00  0.00    -0.153 N  
HETATM   26  C   UNL     1      -7.042  15.900  67.774  1.00  0.00    -0.148 C  
HETATM   27  H   UNL     1      -9.044  15.484  68.123  1.00  0.00     0.000 HD 
HETATM   28  O   UNL     1      -6.033  15.674  67.107  1.00  0.00    -0.328 OA 
BRANCH  26  29
HETATM   29  C   UNL     1      -7.089  16.975  68.839  1.00  0.00    -0.233 C  
BRANCH  29  30
HETATM   30  C   UNL     1      -7.488  18.287  68.261  1.00  0.00    -0.279 A  
HETATM   31  N   UNL     1     -10.069  20.043  66.664  1.00  0.00    -0.456 NA 
HETATM   32  C   UNL     1      -6.731  19.443  68.237  1.00  0.00    -0.259 A  
HETATM   33  S   UNL     1      -7.613  20.706  67.494  1.00  0.00    -0.250 SA 
HETATM   34  H2  UNL     1     -10.149  21.010  66.351  1.00  0.00     0.000 HD 
HETATM   35  H1  UNL     1     -10.852  19.405  66.522  1.00  0.00     0.000 HD 
HETATM   36  N   UNL     1      -8.754  18.412  67.701  1.00  0.00    -0.258 NA 
HETATM   37  C   UNL     1      -8.931  19.635  67.255  1.00  0.00    -0.318 A  
ENDBRANCH  29  30
ENDBRANCH  26  29
ENDBRANCH   8  25
TORSDOF 9
ENDMDL
MODEL      208
REMARK 921   NORMALIZED FREE ENERGY PREDICTED BY IDOCK:   -4.08 KCAL/MOL
REMARK 922        TOTAL FREE ENERGY PREDICTED BY IDOCK:   -8.16 KCAL/MOL
REMARK 923 INTER-LIGAND FREE ENERGY PREDICTED BY IDOCK:   -6.51 KCAL/MOL
REMARK 924 INTRA-LIGAND FREE ENERGY PREDICTED BY IDOCK:   -1.65 KCAL/MOL
REMARK 927      BINDING AFFINITY PREDICTED BY RF-SCORE:    0.00 PKD
ROOT
HETATM    1  C   UNL     1      -7.035  11.071  67.851  1.00  0.00    -0.073 C  
HETATM    2  S   UNL     1      -6.778  11.353  69.617  1.00  0.00    -0.061 SA 
HETATM    3  C   UNL     1      -6.879   9.600  70.041  1.00  0.00    -0.085 C  
HETATM    4  C   UNL     1      -8.050   8.852  69.417  1.00  0.00    -0.105 C  
HETATM    5  C   UNL     1      -8.851  11.366  66.859  1.00  0.00    -0.173 C  
HETATM    6  CA  UNL     1      -8.732   9.288  68.316  1.00  0.00    -0.129 C  
HETATM    7  C   UNL     1      -9.930   8.510  67.805  1.00  0.00    -0.190 C  
HETATM    8  CA  UNL     1      -7.600  12.283  67.042  1.00  0.00    -0.071 C  
HETATM    9  N   UNL     1      -8.328  10.431  67.677  1.00  0.00    -0.114 N  
HETATM   10  O   UNL     1     -10.816   9.162  67.034  1.00  0.00    -0.182 OA 
HETATM   11  OXT UNL     1     -10.107   7.325  68.054  1.00  0.00    -0.159 OA 
HETATM   12  O   UNL     1      -9.954  11.433  66.359  1.00  0.00    -0.203 OA 
ENDROOT
BRANCH   4  13
HETATM   13  C   UNL     1      -8.445   7.646  70.279  1.00  0.00    -0.134 C  
BRANCH  13  14
HETATM   14  S   UNL     1      -9.254   8.124  71.848  1.00  0.00    -0.204 SA 
BRANCH  14  15
HETATM   15  C   UNL     1     -10.841   7.472  71.686  1.00  0.00    -0.219 A  
HETATM   16  N   UNL     1     -11.781   7.921  70.885  1.00  0.00    -0.282 NA 
HETATM   17  N   UNL     1     -12.897   7.170  71.145  1.00  0.00    -0.345 NA 
HETATM   18  N   UNL     1     -11.346   6.415  72.397  1.00  0.00    -0.277 NA 
HETATM   19  N   UNL     1     -12.649   6.258  72.074  1.00  0.00    -0.152 NA 
BRANCH  18  20
HETATM   20  C   UNL     1     -10.746   5.477  73.330  1.00  0.00    -0.278 C  
BRANCH  20  21
HETATM   21  C   UNL     1     -10.523   4.112  72.654  1.00  0.00    -0.155 C  
BRANCH  21  22
HETATM   22  N   UNL     1      -9.161   3.808  72.160  1.00  0.00    -0.111 NA 
HETATM   23  C   UNL     1      -8.188   4.612  72.924  1.00  0.00    -0.100 C  
HETATM   24  C   UNL     1      -8.979   4.109  70.734  1.00  0.00    -0.095 C  
ENDBRANCH  21  22
ENDBRANCH  20  21
ENDBRANCH  18  20
ENDBRANCH  14  15
ENDBRANCH  13  14
ENDBRANCH   4  13
BRANCH   8  25
HETATM   25  N   UNL     1      -7.842  13.546  67.802  1.00  0.00    -0.150 N  
HETATM   26  C   UNL     1      -6.861  14.499  67.970  1.00  0.00    -0.145 C  
HETATM   27  H   UNL     1      -8.763  13.708  68.210  1.00  0.00     0.000 HD 
HETATM   28  O   UNL     1      -5.769  14.431  67.407  1.00  0.00    -0.342 OA 
BRANCH  26  29
HETATM   29  C   UNL     1      -7.221  15.628  68.913  1.00  0.00    -0.146 C  
BRANCH  29  30
HETATM   30  C   UNL     1      -8.580  16.158  68.623  1.00  0.00    -0.210 A  
HETATM   31  N   UNL     1     -12.008  15.715  69.211  1.00  0.00    -0.489 NA 
HETATM   32  C   UNL     1      -8.888  17.271  67.863  1.00  0.00    -0.235 A  
HETATM   33  S   UNL     1     -10.582  17.509  67.830  1.00  0.00    -0.352 SA 
HETATM   34  H2  UNL     1     -12.830  16.241  68.912  1.00  0.00     0.000 HD 
HETATM   35  H1  UNL     1     -12.130  14.890  69.798  1.00  0.00     0.000 HD 
HETATM   36  N   UNL     1      -9.681  15.511  69.174  1.00  0.00    -0.234 NA 
HETATM   37  C   UNL     1     -10.787  16.123  68.819  1.00  0.00    -0.310 A  
ENDBRANCH  29  30
ENDBRANCH  26  29
ENDBRANCH   8  25
TORSDOF 9
ENDMDL
MODEL      209
REMARK 921   NORMALIZED FREE ENERGY PREDICTED BY IDOCK:   -4.07 KCAL/MOL
REMARK 922        TOTAL FREE ENERGY PREDICTED BY IDOCK:   -8.15 KCAL/MOL
REMARK 923 INTER-LIGAND FREE ENERGY PREDICTED BY IDOCK:   -6.62 KCAL/MOL
REMARK 924 INTRA-LIGAND FREE ENERGY PREDICTED BY IDOCK:   -1.52 KCAL/MOL
REMARK 927      BINDING AFFINITY PREDICTED BY RF-SCORE:    0.00 PKD
ROOT
HETATM    1  C   UNL     1     -12.022  11.500  68.350  1.00  0.00    -0.198 C  
HETATM    2  S   UNL     1     -10.845  12.363  67.284  1.00  0.00    -0.252 SA 
HETATM    3  C   UNL     1     -10.612  10.950  66.183  1.00  0.00    -0.206 C  
HETATM    4  C   UNL     1     -10.371   9.619  66.884  1.00  0.00    -0.307 C  
HETATM    5  C   UNL     1     -11.543  10.668  70.206  1.00  0.00    -0.336 C  
HETATM    6  CA  UNL     1     -10.709   9.373  68.186  1.00  0.00    -0.178 C  
HETATM    7  C   UNL     1     -10.370   8.037  68.820  1.00  0.00    -0.206 C  
HETATM    8  CA  UNL     1     -12.151  12.050  69.807  1.00  0.00    -0.248 C  
HETATM    9  N   UNL     1     -11.356  10.338  68.913  1.00  0.00    -0.209 N  
HETATM   10  O   UNL     1     -10.308   7.980  70.161  1.00  0.00    -0.206 OA 
HETATM   11  OXT UNL     1     -10.168   7.024  68.166  1.00  0.00    -0.166 OA 
HETATM   12  O   UNL     1     -11.186  10.096  71.215  1.00  0.00    -0.290 OA 
ENDROOT
BRANCH   4  13
HETATM   13  C   UNL     1      -9.571   8.669  65.986  1.00  0.00    -0.195 C  
BRANCH  13  14
HETATM   14  S   UNL     1      -7.997   9.395  65.402  1.00  0.00    -0.109 SA 
BRANCH  14  15
HETATM   15  C   UNL     1      -7.000   9.354  66.808  1.00  0.00    -0.081 A  
HETATM   16  N   UNL     1      -6.767  10.362  67.617  1.00  0.00    -0.073 NA 
HETATM   17  N   UNL     1      -5.858   9.912  68.538  1.00  0.00    -0.042 NA 
HETATM   18  N   UNL     1      -6.290   8.269  67.252  1.00  0.00    -0.056 NA 
HETATM   19  N   UNL     1      -5.550   8.643  68.318  1.00  0.00    -0.038 NA 
BRANCH  18  20
HETATM   20  C   UNL     1      -6.245   6.880  66.829  1.00  0.00    -0.041 C  
BRANCH  20  21
HETATM   21  C   UNL     1      -6.644   5.950  67.988  1.00  0.00    -0.052 C  
BRANCH  21  22
HETATM   22  N   UNL     1      -6.642   4.492  67.727  1.00  0.00    -0.045 NA 
HETATM   23  C   UNL     1      -5.899   3.818  68.807  1.00  0.00    -0.023 C  
HETATM   24  C   UNL     1      -6.016   4.131  66.450  1.00  0.00    -0.027 C  
ENDBRANCH  21  22
ENDBRANCH  20  21
ENDBRANCH  18  20
ENDBRANCH  14  15
ENDBRANCH  13  14
ENDBRANCH   4  13
BRANCH   8  25
HETATM   25  N   UNL     1     -11.315  13.238  70.156  1.00  0.00    -0.491 N  
HETATM   26  C   UNL     1     -11.854  14.500  70.285  1.00  0.00    -0.308 C  
HETATM   27  H   UNL     1     -10.314  13.111  70.303  1.00  0.00     0.000 HD 
HETATM   28  O   UNL     1     -13.066  14.709  70.244  1.00  0.00    -0.230 OA 
BRANCH  26  29
HETATM   29  C   UNL     1     -10.841  15.611  70.465  1.00  0.00    -0.347 C  
BRANCH  29  30
HETATM   30  C   UNL     1     -10.398  16.153  69.153  1.00  0.00    -0.259 A  
HETATM   31  N   UNL     1     -10.738  15.856  65.676  1.00  0.00    -0.348 NA 
HETATM   32  C   UNL     1      -9.527  17.206  68.945  1.00  0.00    -0.217 A  
HETATM   33  S   UNL     1      -9.336  17.487  67.268  1.00  0.00    -0.248 SA 
HETATM   34  H2  UNL     1     -10.331  16.378  64.899  1.00  0.00     0.000 HD 
HETATM   35  H1  UNL     1     -11.379  15.088  65.479  1.00  0.00     0.000 HD 
HETATM   36  N   UNL     1     -10.909  15.586  67.990  1.00  0.00    -0.290 NA 
HETATM   37  C   UNL     1     -10.416  16.196  66.937  1.00  0.00    -0.300 A  
ENDBRANCH  29  30
ENDBRANCH  26  29
ENDBRANCH   8  25
TORSDOF 9
ENDMDL
MODEL      210
REMARK 921   NORMALIZED FREE ENERGY PREDICTED BY IDOCK:   -4.06 KCAL/MOL
REMARK 922        TOTAL FREE ENERGY PREDICTED BY IDOCK:   -8.13 KCAL/MOL
REMARK 923 INTER-LIGAND FREE ENERGY PREDICTED BY IDOCK:   -6.40 KCAL/MOL
REMARK 924 INTRA-LIGAND FREE ENERGY PREDICTED BY IDOCK:   -1.73 KCAL/MOL
REMARK 927      BINDING AFFINITY PREDICTED BY RF-SCORE:    0.00 PKD
ROOT
HETATM    1  C   UNL     1      -8.631   6.276  71.120  1.00  0.00    -0.125 C  
HETATM    2  S   UNL     1      -7.451   6.581  69.786  1.00  0.00    -0.090 SA 
HETATM    3  C   UNL     1      -7.332   8.351  70.126  1.00  0.00    -0.058 C  
HETATM    4  C   UNL     1      -8.665   9.062  70.318  1.00  0.00    -0.202 C  
HETATM    5  C   UNL     1     -10.690   6.040  70.846  1.00  0.00    -0.267 C  
HETATM    6  CA  UNL     1      -9.829   8.422  70.639  1.00  0.00    -0.181 C  
HETATM    7  C   UNL     1     -11.124   9.206  70.745  1.00  0.00    -0.275 C  
HETATM    8  CA  UNL     1      -9.526   5.005  70.961  1.00  0.00    -0.162 C  
HETATM    9  N   UNL     1      -9.820   7.070  70.865  1.00  0.00    -0.185 N  
HETATM   10  O   UNL     1     -12.277   8.526  70.623  1.00  0.00    -0.095 OA 
HETATM   11  OXT UNL     1     -11.156  10.412  70.948  1.00  0.00    -0.264 OA 
HETATM   12  O   UNL     1     -11.886   6.036  70.646  1.00  0.00    -0.110 OA 
ENDROOT
BRANCH   4  13
HETATM   13  C   UNL     1      -8.547  10.547  69.953  1.00  0.00     0.292 C  
BRANCH  13  14
HETATM   14  S   UNL     1      -8.449  10.833  68.149  1.00  0.00    -0.130 SA 
BRANCH  14  15
HETATM   15  C   UNL     1      -9.995  11.493  67.773  1.00  0.00    -0.183 A  
HETATM   16  N   UNL     1     -10.574  12.501  68.386  1.00  0.00    -0.236 NA 
HETATM   17  N   UNL     1     -11.817  12.628  67.826  1.00  0.00    -0.348 NA 
HETATM   18  N   UNL     1     -10.845  11.033  66.800  1.00  0.00    -0.268 NA 
HETATM   19  N   UNL     1     -11.999  11.731  66.868  1.00  0.00    -0.561 NA 
BRANCH  18  20
HETATM   20  C   UNL     1     -10.701  10.031  65.758  1.00  0.00     0.274 C  
BRANCH  20  21
HETATM   21  C   UNL     1      -9.657  10.480  64.719  1.00  0.00    -0.285 C  
BRANCH  21  22
HETATM   22  N   UNL     1     -10.155  10.920  63.396  1.00  0.00    -0.346 NA 
HETATM   23  C   UNL     1      -9.004  11.101  62.492  1.00  0.00    -0.299 C  
HETATM   24  C   UNL     1     -10.898  12.186  63.445  1.00  0.00    -0.414 C  
ENDBRANCH  21  22
ENDBRANCH  20  21
ENDBRANCH  18  20
ENDBRANCH  14  15
ENDBRANCH  13  14
ENDBRANCH   4  13
BRANCH   8  25
HETATM   25  N   UNL     1      -9.296   4.167  69.745  1.00  0.00    -0.148 N  
HETATM   26  C   UNL     1      -8.360   3.156  69.719  1.00  0.00    -0.051 C  
HETATM   27  H   UNL     1      -9.851   4.349  68.908  1.00  0.00     0.000 HD 
HETATM   28  O   UNL     1      -7.743   2.799  70.722  1.00  0.00    -0.042 OA 
BRANCH  26  29
HETATM   29  C   UNL     1      -8.135   2.530  68.358  1.00  0.00    -0.068 C  
BRANCH  29  30
HETATM   30  C   UNL     1      -8.515   3.466  67.266  1.00  0.00    -0.098 A  
HETATM   31  N   UNL     1     -11.165   4.615  65.279  1.00  0.00    -0.991 NA 
HETATM   32  C   UNL     1      -7.686   4.364  66.621  1.00  0.00    -0.094 A  
HETATM   33  S   UNL     1      -8.571   5.246  65.453  1.00  0.00    -0.150 SA 
HETATM   34  H2  UNL     1     -11.219   5.328  64.551  1.00  0.00     0.000 HD 
HETATM   35  H1  UNL     1     -12.006   4.098  65.533  1.00  0.00     0.000 HD 
HETATM   36  N   UNL     1      -9.838   3.488  66.838  1.00  0.00    -0.001 NA 
HETATM   37  C   UNL     1      -9.986   4.376  65.882  1.00  0.00    -0.240 A  
ENDBRANCH  29  30
ENDBRANCH  26  29
ENDBRANCH   8  25
TORSDOF 9
ENDMDL
MODEL      211
REMARK 921   NORMALIZED FREE ENERGY PREDICTED BY IDOCK:   -4.04 KCAL/MOL
REMARK 922        TOTAL FREE ENERGY PREDICTED BY IDOCK:   -8.10 KCAL/MOL
REMARK 923 INTER-LIGAND FREE ENERGY PREDICTED BY IDOCK:   -7.14 KCAL/MOL
REMARK 924 INTRA-LIGAND FREE ENERGY PREDICTED BY IDOCK:   -0.96 KCAL/MOL
REMARK 927      BINDING AFFINITY PREDICTED BY RF-SCORE:    0.00 PKD
ROOT
HETATM    1  C   UNL     1      -9.391  12.982  67.404  1.00  0.00    -0.209 C  
HETATM    2  S   UNL     1     -10.436  12.095  68.580  1.00  0.00    -0.185 SA 
HETATM    3  C   UNL     1      -9.865  10.464  68.052  1.00  0.00    -0.150 C  
HETATM    4  C   UNL     1      -9.836  10.248  66.544  1.00  0.00    -0.265 C  
HETATM    5  C   UNL     1     -10.067  13.793  65.600  1.00  0.00    -0.298 C  
HETATM    6  CA  UNL     1      -9.817  11.264  65.630  1.00  0.00    -0.234 C  
HETATM    7  C   UNL     1      -9.856  10.954  64.146  1.00  0.00    -0.314 C  
HETATM    8  CA  UNL     1      -9.867  14.419  67.017  1.00  0.00    -0.252 C  
HETATM    9  N   UNL     1      -9.761  12.564  66.062  1.00  0.00    -0.256 N  
HETATM   10  O   UNL     1     -10.270  11.925  63.316  1.00  0.00    -0.427 OA 
HETATM   11  OXT UNL     1      -9.515   9.873  63.685  1.00  0.00    -0.262 OA 
HETATM   12  O   UNL     1     -10.483  14.134  64.512  1.00  0.00    -0.408 OA 
ENDROOT
BRANCH   4  13
HETATM   13  C   UNL     1      -9.987   8.760  66.205  1.00  0.00    -0.245 C  
BRANCH  13  14
HETATM   14  S   UNL     1      -9.107   7.668  67.380  1.00  0.00    -0.127 SA 
BRANCH  14  15
HETATM   15  C   UNL     1      -7.475   8.209  67.271  1.00  0.00    -0.090 A  
HETATM   16  N   UNL     1      -6.875   8.635  66.182  1.00  0.00    -0.072 NA 
HETATM   17  N   UNL     1      -5.572   8.874  66.531  1.00  0.00    -0.045 NA 
HETATM   18  N   UNL     1      -6.572   8.236  68.302  1.00  0.00    -0.059 NA 
HETATM   19  N   UNL     1      -5.371   8.621  67.816  1.00  0.00    -0.034 NA 
BRANCH  18  20
HETATM   20  C   UNL     1      -6.695   7.987  69.728  1.00  0.00    -0.040 C  
BRANCH  20  21
HETATM   21  C   UNL     1      -6.163   6.586  70.079  1.00  0.00    -0.035 C  
BRANCH  21  22
HETATM   22  N   UNL     1      -7.106   5.636  70.711  1.00  0.00    -0.067 NA 
HETATM   23  C   UNL     1      -6.336   4.520  71.291  1.00  0.00    -0.019 C  
HETATM   24  C   UNL     1      -8.083   5.074  69.771  1.00  0.00    -0.074 C  
ENDBRANCH  21  22
ENDBRANCH  20  21
ENDBRANCH  18  20
ENDBRANCH  14  15
ENDBRANCH  13  14
ENDBRANCH   4  13
BRANCH   8  25
HETATM   25  N   UNL     1     -11.114  14.915  67.675  1.00  0.00    -0.301 N  
HETATM   26  C   UNL     1     -11.088  15.596  68.873  1.00  0.00    -0.290 C  
HETATM   27  H   UNL     1     -12.012  14.745  67.222  1.00  0.00     0.000 HD 
HETATM   28  O   UNL     1     -10.039  15.945  69.413  1.00  0.00    -0.233 OA 
BRANCH  26  29
HETATM   29  C   UNL     1     -12.447  15.868  69.482  1.00  0.00     0.156 C  
BRANCH  29  30
HETATM   30  C   UNL     1     -12.625  15.120  70.756  1.00  0.00    -0.393 A  
HETATM   31  N   UNL     1     -12.930  15.430  74.235  1.00  0.00    -0.587 NA 
HETATM   32  C   UNL     1     -12.777  13.754  70.897  1.00  0.00    -0.323 A  
HETATM   33  S   UNL     1     -12.975  13.353  72.548  1.00  0.00    -0.086 SA 
HETATM   34  H2  UNL     1     -13.076  14.743  74.975  1.00  0.00     0.000 HD 
HETATM   35  H1  UNL     1     -12.851  16.417  74.479  1.00  0.00     0.000 HD 
HETATM   36  N   UNL     1     -12.674  15.834  71.948  1.00  0.00    -0.442 NA 
HETATM   37  C   UNL     1     -12.844  15.013  72.958  1.00  0.00    -0.471 A  
ENDBRANCH  29  30
ENDBRANCH  26  29
ENDBRANCH   8  25
TORSDOF 9
ENDMDL
MODEL      212
REMARK 921   NORMALIZED FREE ENERGY PREDICTED BY IDOCK:   -4.03 KCAL/MOL
REMARK 922        TOTAL FREE ENERGY PREDICTED BY IDOCK:   -8.10 KCAL/MOL
REMARK 923 INTER-LIGAND FREE ENERGY PREDICTED BY IDOCK:   -6.96 KCAL/MOL
REMARK 924 INTRA-LIGAND FREE ENERGY PREDICTED BY IDOCK:   -1.14 KCAL/MOL
REMARK 927      BINDING AFFINITY PREDICTED BY RF-SCORE:    0.00 PKD
ROOT
HETATM    1  C   UNL     1      -6.771   9.769  68.384  1.00  0.00    -0.060 C  
HETATM    2  S   UNL     1      -8.387  10.137  67.665  1.00  0.00    -0.114 SA 
HETATM    3  C   UNL     1      -7.905  11.786  67.109  1.00  0.00    -0.166 C  
HETATM    4  C   UNL     1      -7.177  12.630  68.148  1.00  0.00    -0.109 C  
HETATM    5  C   UNL     1      -6.336   9.871  70.426  1.00  0.00    -0.106 C  
HETATM    6  CA  UNL     1      -6.548  12.111  69.244  1.00  0.00    -0.104 C  
HETATM    7  C   UNL     1      -5.906  13.034  70.261  1.00  0.00    -0.157 C  
HETATM    8  CA  UNL     1      -6.756   8.681  69.506  1.00  0.00    -0.040 C  
HETATM    9  N   UNL     1      -6.500  10.752  69.419  1.00  0.00    -0.065 N  
HETATM   10  O   UNL     1      -5.696  12.553  71.498  1.00  0.00    -0.382 OA 
HETATM   11  OXT UNL     1      -5.564  14.179  69.997  1.00  0.00    -0.101 OA 
HETATM   12  O   UNL     1      -6.104  10.067  71.600  1.00  0.00    -0.305 OA 
ENDROOT
BRANCH   4  13
HETATM   13  C   UNL     1      -7.383  14.125  67.875  1.00  0.00    -0.157 C  
BRANCH  13  14
HETATM   14  S   UNL     1      -8.754  14.846  68.848  1.00  0.00    -0.163 SA 
BRANCH  14  15
HETATM   15  C   UNL     1     -10.138  14.529  67.872  1.00  0.00    -0.227 A  
HETATM   16  N   UNL     1     -10.174  14.545  66.558  1.00  0.00    -0.273 NA 
HETATM   17  N   UNL     1     -11.481  14.330  66.208  1.00  0.00    -0.347 NA 
HETATM   18  N   UNL     1     -11.396  14.250  68.336  1.00  0.00    -0.268 NA 
HETATM   19  N   UNL     1     -12.237  14.163  67.283  1.00  0.00    -0.359 NA 
BRANCH  18  20
HETATM   20  C   UNL     1     -11.924  14.002  69.667  1.00  0.00    -0.339 C  
BRANCH  20  21
HETATM   21  C   UNL     1     -12.608  15.265  70.220  1.00  0.00    -0.347 C  
BRANCH  21  22
HETATM   22  N   UNL     1     -12.913  15.299  71.669  1.00  0.00    -0.373 NA 
HETATM   23  C   UNL     1     -11.691  15.679  72.402  1.00  0.00    -0.475 C  
HETATM   24  C   UNL     1     -13.377  14.010  72.196  1.00  0.00    -0.453 C  
ENDBRANCH  21  22
ENDBRANCH  20  21
ENDBRANCH  18  20
ENDBRANCH  14  15
ENDBRANCH  13  14
ENDBRANCH   4  13
BRANCH   8  25
HETATM   25  N   UNL     1      -8.065   8.045  69.846  1.00  0.00    -0.115 N  
HETATM   26  C   UNL     1      -8.164   7.012  70.753  1.00  0.00    -0.121 C  
HETATM   27  H   UNL     1      -8.913   8.388  69.392  1.00  0.00     0.000 HD 
HETATM   28  O   UNL     1      -7.209   6.631  71.428  1.00  0.00    -0.078 OA 
BRANCH  26  29
HETATM   29  C   UNL     1      -9.533   6.371  70.843  1.00  0.00    -0.185 C  
BRANCH  29  30
HETATM   30  C   UNL     1      -9.539   5.025  70.210  1.00  0.00    -0.187 A  
HETATM   31  N   UNL     1      -9.520   3.302  67.157  1.00  0.00    -0.336 NA 
HETATM   32  C   UNL     1      -9.525   3.806  70.861  1.00  0.00    -0.165 A  
HETATM   33  S   UNL     1      -9.513   2.532  69.719  1.00  0.00     0.003 SA 
HETATM   34  H2  UNL     1      -9.504   2.307  66.930  1.00  0.00     0.000 HD 
HETATM   35  H1  UNL     1      -9.531   3.986  66.401  1.00  0.00     0.000 HD 
HETATM   36  N   UNL     1      -9.533   4.941  68.822  1.00  0.00    -0.135 NA 
HETATM   37  C   UNL     1      -9.529   3.682  68.447  1.00  0.00    -0.150 A  
ENDBRANCH  29  30
ENDBRANCH  26  29
ENDBRANCH   8  25
TORSDOF 9
ENDMDL
MODEL      213
REMARK 921   NORMALIZED FREE ENERGY PREDICTED BY IDOCK:   -4.02 KCAL/MOL
REMARK 922        TOTAL FREE ENERGY PREDICTED BY IDOCK:   -8.07 KCAL/MOL
REMARK 923 INTER-LIGAND FREE ENERGY PREDICTED BY IDOCK:   -6.88 KCAL/MOL
REMARK 924 INTRA-LIGAND FREE ENERGY PREDICTED BY IDOCK:   -1.19 KCAL/MOL
REMARK 927      BINDING AFFINITY PREDICTED BY RF-SCORE:    0.00 PKD
ROOT
HETATM    1  C   UNL     1      -7.292   9.187  68.079  1.00  0.00    -0.083 C  
HETATM    2  S   UNL     1      -8.878   9.654  67.352  1.00  0.00    -0.128 SA 
HETATM    3  C   UNL     1      -8.262  11.223  66.703  1.00  0.00    -0.164 C  
HETATM    4  C   UNL     1      -7.453  12.056  67.689  1.00  0.00    -0.132 C  
HETATM    5  C   UNL     1      -6.826   9.362  70.110  1.00  0.00    -0.071 C  
HETATM    6  CA  UNL     1      -6.859  11.544  68.808  1.00  0.00    -0.084 C  
HETATM    7  C   UNL     1      -6.128  12.463  69.768  1.00  0.00    -0.137 C  
HETATM    8  CA  UNL     1      -7.358   8.164  69.260  1.00  0.00    -0.077 C  
HETATM    9  N   UNL     1      -6.926  10.198  69.057  1.00  0.00    -0.055 N  
HETATM   10  O   UNL     1      -5.946  12.032  71.028  1.00  0.00    -0.342 OA 
HETATM   11  OXT UNL     1      -5.692  13.557  69.439  1.00  0.00    -0.081 OA 
HETATM   12  O   UNL     1      -6.565   9.600  71.270  1.00  0.00    -0.273 OA 
ENDROOT
BRANCH   4  13
HETATM   13  C   UNL     1      -7.533  13.546  67.335  1.00  0.00    -0.122 C  
BRANCH  13  14
HETATM   14  S   UNL     1      -8.987  14.377  68.072  1.00  0.00    -0.191 SA 
BRANCH  14  15
HETATM   15  C   UNL     1     -10.310  13.696  67.202  1.00  0.00    -0.250 A  
HETATM   16  N   UNL     1     -10.428  13.644  65.895  1.00  0.00    -0.290 NA 
HETATM   17  N   UNL     1     -11.663  13.109  65.642  1.00  0.00    -0.346 NA 
HETATM   18  N   UNL     1     -11.434  13.146  67.761  1.00  0.00    -0.293 NA 
HETATM   19  N   UNL     1     -12.291  12.814  66.771  1.00  0.00    -0.368 NA 
BRANCH  18  20
HETATM   20  C   UNL     1     -11.806  12.840  69.131  1.00  0.00    -0.301 C  
BRANCH  20  21
HETATM   21  C   UNL     1     -11.600  11.343  69.424  1.00  0.00    -0.323 C  
BRANCH  21  22
HETATM   22  N   UNL     1     -12.441  10.730  70.478  1.00  0.00    -0.344 NA 
HETATM   23  C   UNL     1     -12.798  11.768  71.462  1.00  0.00    -0.345 C  
HETATM   24  C   UNL     1     -11.772   9.636  71.192  1.00  0.00    -0.372 C  
ENDBRANCH  21  22
ENDBRANCH  20  21
ENDBRANCH  18  20
ENDBRANCH  14  15
ENDBRANCH  13  14
ENDBRANCH   4  13
BRANCH   8  25
HETATM   25  N   UNL     1      -8.712   7.664  69.642  1.00  0.00    -0.136 N  
HETATM   26  C   UNL     1      -8.886   6.648  70.558  1.00  0.00    -0.152 C  
HETATM   27  H   UNL     1      -9.535   8.087  69.212  1.00  0.00     0.000 HD 
HETATM   28  O   UNL     1      -7.953   6.175  71.206  1.00  0.00    -0.109 OA 
BRANCH  26  29
HETATM   29  C   UNL     1     -10.308   6.147  70.693  1.00  0.00    -0.268 C  
BRANCH  29  30
HETATM   30  C   UNL     1     -10.423   5.141  71.783  1.00  0.00    -0.200 A  
HETATM   31  N   UNL     1      -9.894   1.782  72.639  1.00  0.00    -0.096 NA 
HETATM   32  C   UNL     1     -10.862   5.366  73.073  1.00  0.00    -0.276 A  
HETATM   33  S   UNL     1     -10.796   3.916  73.978  1.00  0.00    -0.160 SA 
HETATM   34  H2  UNL     1     -10.029   1.266  73.509  1.00  0.00     0.000 HD 
HETATM   35  H1  UNL     1      -9.536   1.293  71.820  1.00  0.00     0.000 HD 
HETATM   36  N   UNL     1     -10.033   3.831  71.525  1.00  0.00    -0.162 NA 
HETATM   37  C   UNL     1     -10.193   3.093  72.599  1.00  0.00    -0.154 A  
ENDBRANCH  29  30
ENDBRANCH  26  29
ENDBRANCH   8  25
TORSDOF 9
ENDMDL
MODEL      214
REMARK 921   NORMALIZED FREE ENERGY PREDICTED BY IDOCK:   -4.01 KCAL/MOL
REMARK 922        TOTAL FREE ENERGY PREDICTED BY IDOCK:   -8.06 KCAL/MOL
REMARK 923 INTER-LIGAND FREE ENERGY PREDICTED BY IDOCK:   -6.56 KCAL/MOL
REMARK 924 INTRA-LIGAND FREE ENERGY PREDICTED BY IDOCK:   -1.50 KCAL/MOL
REMARK 927      BINDING AFFINITY PREDICTED BY RF-SCORE:    0.00 PKD
ROOT
HETATM    1  C   UNL     1      -8.371  10.743  66.173  1.00  0.00    -0.166 C  
HETATM    2  S   UNL     1      -7.461  11.734  67.378  1.00  0.00    -0.152 SA 
HETATM    3  C   UNL     1      -6.065  10.590  67.455  1.00  0.00    -0.053 C  
HETATM    4  C   UNL     1      -6.442   9.122  67.609  1.00  0.00    -0.063 C  
HETATM    5  C   UNL     1      -9.971   9.483  66.645  1.00  0.00    -0.247 C  
HETATM    6  CA  UNL     1      -7.673   8.616  67.298  1.00  0.00    -0.097 C  
HETATM    7  C   UNL     1      -7.978   7.152  67.547  1.00  0.00    -0.113 C  
HETATM    8  CA  UNL     1      -9.918  10.960  66.140  1.00  0.00    -0.233 C  
HETATM    9  N   UNL     1      -8.628   9.439  66.759  1.00  0.00    -0.126 N  
HETATM   10  O   UNL     1      -9.269   6.792  67.651  1.00  0.00    -0.120 OA 
HETATM   11  OXT UNL     1      -7.107   6.298  67.642  1.00  0.00    -0.076 OA 
HETATM   12  O   UNL     1     -10.808   8.676  66.990  1.00  0.00    -0.197 OA 
ENDROOT
BRANCH   4  13
HETATM   13  C   UNL     1      -5.315   8.341  68.296  1.00  0.00    -0.034 C  
BRANCH  13  14
HETATM   14  S   UNL     1      -5.214   8.668  70.093  1.00  0.00    -0.021 SA 
BRANCH  14  15
HETATM   15  C   UNL     1      -6.236   7.457  70.770  1.00  0.00    -0.035 A  
HETATM   16  N   UNL     1      -5.884   6.223  71.057  1.00  0.00    -0.026 NA 
HETATM   17  N   UNL     1      -7.020   5.590  71.485  1.00  0.00    -0.065 NA 
HETATM   18  N   UNL     1      -7.564   7.609  71.071  1.00  0.00    -0.082 NA 
HETATM   19  N   UNL     1      -8.053   6.419  71.485  1.00  0.00    -0.112 NA 
BRANCH  18  20
HETATM   20  C   UNL     1      -8.451   8.759  71.066  1.00  0.00    -0.179 C  
BRANCH  20  21
HETATM   21  C   UNL     1      -9.471   8.659  72.214  1.00  0.00    -0.265 C  
BRANCH  21  22
HETATM   22  N   UNL     1     -10.904   8.567  71.850  1.00  0.00    -0.297 NA 
HETATM   23  C   UNL     1     -11.513   7.452  72.599  1.00  0.00    -0.291 C  
HETATM   24  C   UNL     1     -11.126   8.327  70.419  1.00  0.00    -0.235 C  
ENDBRANCH  21  22
ENDBRANCH  20  21
ENDBRANCH  18  20
ENDBRANCH  14  15
ENDBRANCH  13  14
ENDBRANCH   4  13
BRANCH   8  25
HETATM   25  N   UNL     1     -10.476  11.976  67.083  1.00  0.00    -0.216 N  
HETATM   26  C   UNL     1     -11.683  12.601  66.856  1.00  0.00    -0.383 C  
HETATM   27  H   UNL     1      -9.946  12.214  67.922  1.00  0.00     0.000 HD 
HETATM   28  O   UNL     1     -12.432  12.278  65.935  1.00  0.00    -0.535 OA 
BRANCH  26  29
HETATM   29  C   UNL     1     -12.009  13.727  67.815  1.00  0.00    -0.391 C  
BRANCH  29  30
HETATM   30  C   UNL     1     -11.126  14.901  67.587  1.00  0.00    -0.311 A  
HETATM   31  N   UNL     1     -10.687  18.319  68.237  1.00  0.00    -0.307 NA 
HETATM   32  C   UNL     1      -9.931  14.914  66.893  1.00  0.00    -0.242 A  
HETATM   33  S   UNL     1      -9.256  16.485  66.914  1.00  0.00    -0.238 SA 
HETATM   34  H2  UNL     1      -9.948  18.976  67.987  1.00  0.00     0.000 HD 
HETATM   35  H1  UNL     1     -11.482  18.647  68.785  1.00  0.00     0.000 HD 
HETATM   36  N   UNL     1     -11.491  16.127  68.132  1.00  0.00    -0.284 NA 
HETATM   37  C   UNL     1     -10.592  17.038  67.837  1.00  0.00    -0.365 A  
ENDBRANCH  29  30
ENDBRANCH  26  29
ENDBRANCH   8  25
TORSDOF 9
ENDMDL
MODEL      215
REMARK 921   NORMALIZED FREE ENERGY PREDICTED BY IDOCK:   -4.00 KCAL/MOL
REMARK 922        TOTAL FREE ENERGY PREDICTED BY IDOCK:   -8.05 KCAL/MOL
REMARK 923 INTER-LIGAND FREE ENERGY PREDICTED BY IDOCK:   -7.97 KCAL/MOL
REMARK 924 INTRA-LIGAND FREE ENERGY PREDICTED BY IDOCK:   -0.08 KCAL/MOL
REMARK 927      BINDING AFFINITY PREDICTED BY RF-SCORE:    0.00 PKD
ROOT
HETATM    1  C   UNL     1      -9.400  12.951  67.563  1.00  0.00    -0.190 C  
HETATM    2  S   UNL     1      -8.583  11.606  68.450  1.00  0.00    -0.136 SA 
HETATM    3  C   UNL     1      -7.662  11.041  67.003  1.00  0.00    -0.134 C  
HETATM    4  C   UNL     1      -8.486  10.899  65.729  1.00  0.00    -0.155 C  
HETATM    5  C   UNL     1     -11.368  12.879  66.861  1.00  0.00    -0.312 C  
HETATM    6  CA  UNL     1      -9.686  11.520  65.526  1.00  0.00    -0.230 C  
HETATM    7  C   UNL     1     -10.468  11.267  64.251  1.00  0.00    -0.357 C  
HETATM    8  CA  UNL     1     -10.748  13.452  68.175  1.00  0.00    -0.253 C  
HETATM    9  N   UNL     1     -10.178  12.373  66.480  1.00  0.00    -0.224 N  
HETATM   10  O   UNL     1     -11.787  11.521  64.267  1.00  0.00    -0.184 OA 
HETATM   11  OXT UNL     1      -9.947  10.860  63.222  1.00  0.00    -0.322 OA 
HETATM   12  O   UNL     1     -12.467  12.739  66.367  1.00  0.00    -0.443 OA 
ENDROOT
BRANCH   4  13
HETATM   13  C   UNL     1      -7.863   9.857  64.792  1.00  0.00    -0.141 C  
BRANCH  13  14
HETATM   14  S   UNL     1      -8.477   8.162  65.102  1.00  0.00    -0.070 SA 
BRANCH  14  15
HETATM   15  C   UNL     1      -7.340   7.532  66.233  1.00  0.00    -0.082 A  
HETATM   16  N   UNL     1      -6.032   7.595  66.127  1.00  0.00    -0.037 NA 
HETATM   17  N   UNL     1      -5.527   6.896  67.191  1.00  0.00    -0.016 NA 
HETATM   18  N   UNL     1      -7.649   6.851  67.381  1.00  0.00    -0.106 NA 
HETATM   19  N   UNL     1      -6.502   6.426  67.955  1.00  0.00    -0.046 NA 
BRANCH  18  20
HETATM   20  C   UNL     1      -8.906   6.576  68.057  1.00  0.00    -0.114 C  
BRANCH  20  21
HETATM   21  C   UNL     1      -9.673   5.456  67.334  1.00  0.00    -0.140 C  
BRANCH  21  22
HETATM   22  N   UNL     1      -9.553   4.084  67.877  1.00  0.00    -0.166 NA 
HETATM   23  C   UNL     1      -9.318   4.168  69.330  1.00  0.00    -0.167 C  
HETATM   24  C   UNL     1      -8.452   3.317  67.281  1.00  0.00    -0.099 C  
ENDBRANCH  21  22
ENDBRANCH  20  21
ENDBRANCH  18  20
ENDBRANCH  14  15
ENDBRANCH  13  14
ENDBRANCH   4  13
BRANCH   8  25
HETATM   25  N   UNL     1     -11.203  12.790  69.435  1.00  0.00    -0.430 N  
HETATM   26  C   UNL     1     -11.885  11.592  69.427  1.00  0.00    -0.342 C  
HETATM   27  H   UNL     1     -11.002  13.239  70.329  1.00  0.00     0.000 HD 
HETATM   28  O   UNL     1     -12.055  10.934  68.402  1.00  0.00    -0.559 OA 
BRANCH  26  29
HETATM   29  C   UNL     1     -12.425  11.156  70.774  1.00  0.00    -0.479 C  
BRANCH  29  30
HETATM   30  C   UNL     1     -11.835   9.857  71.194  1.00  0.00    -0.386 A  
HETATM   31  N   UNL     1     -12.564   6.610  72.297  1.00  0.00    -0.551 NA 
HETATM   32  C   UNL     1     -10.492   9.534  71.235  1.00  0.00    -0.250 A  
HETATM   33  S   UNL     1     -10.293   7.917  71.758  1.00  0.00    -0.219 SA 
HETATM   34  H2  UNL     1     -11.970   5.812  72.525  1.00  0.00     0.000 HD 
HETATM   35  H1  UNL     1     -13.576   6.517  72.380  1.00  0.00     0.000 HD 
HETATM   36  N   UNL     1     -12.690   8.826  71.569  1.00  0.00    -0.326 NA 
HETATM   37  C   UNL     1     -11.995   7.761  71.896  1.00  0.00    -0.301 A  
ENDBRANCH  29  30
ENDBRANCH  26  29
ENDBRANCH   8  25
TORSDOF 9
ENDMDL
MODEL      216
REMARK 921   NORMALIZED FREE ENERGY PREDICTED BY IDOCK:   -3.99 KCAL/MOL
REMARK 922        TOTAL FREE ENERGY PREDICTED BY IDOCK:   -8.02 KCAL/MOL
REMARK 923 INTER-LIGAND FREE ENERGY PREDICTED BY IDOCK:   -7.08 KCAL/MOL
REMARK 924 INTRA-LIGAND FREE ENERGY PREDICTED BY IDOCK:   -0.94 KCAL/MOL
REMARK 927      BINDING AFFINITY PREDICTED BY RF-SCORE:    0.00 PKD
ROOT
HETATM    1  C   UNL     1      -7.954   9.736  65.821  1.00  0.00    -0.116 C  
HETATM    2  S   UNL     1      -6.858  10.437  67.074  1.00  0.00    -0.089 SA 
HETATM    3  C   UNL     1      -5.844   8.948  67.202  1.00  0.00    -0.046 C  
HETATM    4  C   UNL     1      -6.624   7.645  67.327  1.00  0.00    -0.063 C  
HETATM    5  C   UNL     1      -9.863   8.978  66.212  1.00  0.00    -0.291 C  
HETATM    6  CA  UNL     1      -7.932   7.504  66.958  1.00  0.00    -0.116 C  
HETATM    7  C   UNL     1      -8.647   6.185  67.181  1.00  0.00    -0.103 C  
HETATM    8  CA  UNL     1      -9.375  10.378  65.721  1.00  0.00    -0.186 C  
HETATM    9  N   UNL     1      -8.593   8.559  66.384  1.00  0.00    -0.119 N  
HETATM   10  O   UNL     1      -9.990   6.202  67.225  1.00  0.00    -0.124 OA 
HETATM   11  OXT UNL     1      -8.056   5.121  67.307  1.00  0.00    -0.103 OA 
HETATM   12  O   UNL     1     -10.907   8.439  66.512  1.00  0.00     0.050 OA 
ENDROOT
BRANCH   4  13
HETATM   13  C   UNL     1      -5.794   6.583  68.057  1.00  0.00    -0.016 C  
BRANCH  13  14
HETATM   14  S   UNL     1      -6.399   6.243  69.749  1.00  0.00    -0.039 SA 
BRANCH  14  15
HETATM   15  C   UNL     1      -6.705   7.816  70.381  1.00  0.00    -0.038 A  
HETATM   16  N   UNL     1      -5.795   8.707  70.705  1.00  0.00    -0.032 NA 
HETATM   17  N   UNL     1      -6.471   9.769  71.244  1.00  0.00    -0.303 NA 
HETATM   18  N   UNL     1      -7.941   8.339  70.661  1.00  0.00    -0.090 NA 
HETATM   19  N   UNL     1      -7.778   9.551  71.235  1.00  0.00    -0.276 NA 
BRANCH  18  20
HETATM   20  C   UNL     1      -9.291   7.863  70.414  1.00  0.00    -0.159 C  
BRANCH  20  21
HETATM   21  C   UNL     1      -9.468   6.435  70.961  1.00  0.00    -0.171 C  
BRANCH  21  22
HETATM   22  N   UNL     1      -9.822   6.290  72.392  1.00  0.00    -0.164 NA 
HETATM   23  C   UNL     1     -10.491   4.990  72.585  1.00  0.00    -0.209 C  
HETATM   24  C   UNL     1     -10.723   7.342  72.878  1.00  0.00    -0.339 C  
ENDBRANCH  21  22
ENDBRANCH  20  21
ENDBRANCH  18  20
ENDBRANCH  14  15
ENDBRANCH  13  14
ENDBRANCH   4  13
BRANCH   8  25
HETATM   25  N   UNL     1      -9.668  11.514  66.647  1.00  0.00    -0.195 N  
HETATM   26  C   UNL     1     -10.926  12.066  66.755  1.00  0.00    -0.285 C  
HETATM   27  H   UNL     1      -8.911  11.892  67.218  1.00  0.00     0.000 HD 
HETATM   28  O   UNL     1     -11.909  11.586  66.193  1.00  0.00    -0.318 OA 
BRANCH  26  29
HETATM   29  C   UNL     1     -11.003  13.318  67.603  1.00  0.00    -0.281 C  
BRANCH  29  30
HETATM   30  C   UNL     1     -10.681  14.530  66.803  1.00  0.00    -0.291 A  
HETATM   31  N   UNL     1     -11.649  16.483  64.056  1.00  0.00    -1.544 NA 
HETATM   32  C   UNL     1      -9.657  15.428  67.038  1.00  0.00    -0.218 A  
HETATM   33  S   UNL     1      -9.693  16.679  65.872  1.00  0.00    -0.180 SA 
HETATM   34  H2  UNL     1     -11.277  17.348  63.664  1.00  0.00     0.000 HD 
HETATM   35  H1  UNL     1     -12.460  16.046  63.620  1.00  0.00     0.000 HD 
HETATM   36  N   UNL     1     -11.485  14.842  65.712  1.00  0.00    -0.320 NA 
HETATM   37  C   UNL     1     -11.058  15.943  65.138  1.00  0.00    -0.311 A  
ENDBRANCH  29  30
ENDBRANCH  26  29
ENDBRANCH   8  25
TORSDOF 9
ENDMDL
MODEL      217
REMARK 921   NORMALIZED FREE ENERGY PREDICTED BY IDOCK:   -3.99 KCAL/MOL
REMARK 922        TOTAL FREE ENERGY PREDICTED BY IDOCK:   -8.02 KCAL/MOL
REMARK 923 INTER-LIGAND FREE ENERGY PREDICTED BY IDOCK:   -7.09 KCAL/MOL
REMARK 924 INTRA-LIGAND FREE ENERGY PREDICTED BY IDOCK:   -0.93 KCAL/MOL
REMARK 927      BINDING AFFINITY PREDICTED BY RF-SCORE:    0.00 PKD
ROOT
HETATM    1  C   UNL     1      -8.778  15.265  68.698  1.00  0.00    -0.182 C  
HETATM    2  S   UNL     1      -7.865  14.492  67.344  1.00  0.00    -0.181 SA 
HETATM    3  C   UNL     1      -6.916  15.981  66.965  1.00  0.00    -0.174 C  
HETATM    4  C   UNL     1      -7.735  17.263  66.873  1.00  0.00    -0.250 C  
HETATM    5  C   UNL     1     -10.740  15.970  68.550  1.00  0.00    -0.287 C  
HETATM    6  CA  UNL     1      -8.976  17.413  67.425  1.00  0.00    -0.231 C  
HETATM    7  C   UNL     1      -9.746  18.704  67.225  1.00  0.00    -0.302 C  
HETATM    8  CA  UNL     1     -10.153  14.613  69.053  1.00  0.00    -0.209 C  
HETATM    9  N   UNL     1      -9.520  16.392  68.160  1.00  0.00    -0.210 N  
HETATM   10  O   UNL     1     -11.080  18.668  67.385  1.00  0.00    -0.305 OA 
HETATM   11  OXT UNL     1      -9.204  19.764  66.941  1.00  0.00    -0.325 OA 
HETATM   12  O   UNL     1     -11.829  16.474  68.375  1.00  0.00    -0.034 OA 
ENDROOT
BRANCH   4  13
HETATM   13  C   UNL     1      -7.047  18.283  65.957  1.00  0.00    -0.271 C  
BRANCH  13  14
HETATM   14  S   UNL     1      -5.460  18.891  66.632  1.00  0.00    -0.149 SA 
BRANCH  14  15
HETATM   15  C   UNL     1      -5.821  19.170  68.294  1.00  0.00    -0.213 A  
HETATM   16  N   UNL     1      -6.336  20.268  68.797  1.00  0.00    -0.310 NA 
HETATM   17  N   UNL     1      -6.369  20.090  70.155  1.00  0.00    -0.359 NA 
HETATM   18  N   UNL     1      -5.587  18.292  69.320  1.00  0.00    -0.202 NA 
HETATM   19  N   UNL     1      -5.902  18.896  70.487  1.00  0.00    -0.172 NA 
BRANCH  18  20
HETATM   20  C   UNL     1      -5.139  16.910  69.353  1.00  0.00    -0.134 C  
BRANCH  20  21
HETATM   21  C   UNL     1      -5.964  16.100  70.370  1.00  0.00    -0.001 C  
BRANCH  21  22
HETATM   22  N   UNL     1      -5.307  14.939  71.013  1.00  0.00    -0.133 NA 
HETATM   23  C   UNL     1      -6.110  13.731  70.745  1.00  0.00    -0.088 C  
HETATM   24  C   UNL     1      -5.169  15.080  72.467  1.00  0.00     0.009 C  
ENDBRANCH  21  22
ENDBRANCH  20  21
ENDBRANCH  18  20
ENDBRANCH  14  15
ENDBRANCH  13  14
ENDBRANCH   4  13
BRANCH   8  25
HETATM   25  N   UNL     1     -10.554  13.413  68.259  1.00  0.00    -0.247 N  
HETATM   26  C   UNL     1     -11.424  12.465  68.753  1.00  0.00    -0.304 C  
HETATM   27  H   UNL     1     -10.172  13.291  67.321  1.00  0.00     0.000 HD 
HETATM   28  O   UNL     1     -12.018  12.605  69.822  1.00  0.00    -0.319 OA 
BRANCH  26  29
HETATM   29  C   UNL     1     -11.581  11.230  67.891  1.00  0.00    -0.330 C  
BRANCH  29  30
HETATM   30  C   UNL     1     -10.763  10.102  68.413  1.00  0.00    -0.230 A  
HETATM   31  N   UNL     1      -9.409   6.960  67.649  1.00  0.00    -0.121 NA 
HETATM   32  C   UNL     1     -10.161  10.024  69.654  1.00  0.00    -0.236 A  
HETATM   33  S   UNL     1      -9.303   8.551  69.798  1.00  0.00    -0.163 SA 
HETATM   34  H2  UNL     1      -8.818   6.319  68.180  1.00  0.00     0.000 HD 
HETATM   35  H1  UNL     1      -9.699   6.704  66.705  1.00  0.00     0.000 HD 
HETATM   36  N   UNL     1     -10.535   9.006  67.588  1.00  0.00    -0.259 NA 
HETATM   37  C   UNL     1      -9.790   8.122  68.210  1.00  0.00    -0.171 A  
ENDBRANCH  29  30
ENDBRANCH  26  29
ENDBRANCH   8  25
TORSDOF 9
ENDMDL
MODEL      218
REMARK 921   NORMALIZED FREE ENERGY PREDICTED BY IDOCK:   -3.97 KCAL/MOL
REMARK 922        TOTAL FREE ENERGY PREDICTED BY IDOCK:   -8.00 KCAL/MOL
REMARK 923 INTER-LIGAND FREE ENERGY PREDICTED BY IDOCK:   -6.69 KCAL/MOL
REMARK 924 INTRA-LIGAND FREE ENERGY PREDICTED BY IDOCK:   -1.31 KCAL/MOL
REMARK 927      BINDING AFFINITY PREDICTED BY RF-SCORE:    0.00 PKD
ROOT
HETATM    1  C   UNL     1      -7.417  12.461  67.417  1.00  0.00    -0.157 C  
HETATM    2  S   UNL     1      -6.871  12.489  69.139  1.00  0.00    -0.017 SA 
HETATM    3  C   UNL     1      -7.099  10.712  69.372  1.00  0.00    -0.120 C  
HETATM    4  C   UNL     1      -8.426  10.160  68.865  1.00  0.00    -0.139 C  
HETATM    5  C   UNL     1      -9.317  13.047  66.770  1.00  0.00    -0.244 C  
HETATM    6  CA  UNL     1      -9.212  10.795  67.945  1.00  0.00    -0.150 C  
HETATM    7  C   UNL     1     -10.550  10.202  67.548  1.00  0.00    -0.273 C  
HETATM    8  CA  UNL     1      -7.959  13.814  66.852  1.00  0.00     0.230 C  
HETATM    9  N   UNL     1      -8.784  11.970  67.382  1.00  0.00    -0.162 N  
HETATM   10  O   UNL     1     -11.464  11.026  67.009  1.00  0.00    -0.415 OA 
HETATM   11  OXT UNL     1     -10.818   9.016  67.687  1.00  0.00    -0.219 OA 
HETATM   12  O   UNL     1     -10.468  13.278  66.466  1.00  0.00    -0.275 OA 
ENDROOT
BRANCH   4  13
HETATM   13  C   UNL     1      -8.818   8.894  69.636  1.00  0.00    -0.142 C  
BRANCH  13  14
HETATM   14  S   UNL     1      -9.667   9.256  71.216  1.00  0.00    -0.147 SA 
BRANCH  14  15
HETATM   15  C   UNL     1     -10.682   7.882  71.440  1.00  0.00    -0.224 A  
HETATM   16  N   UNL     1     -11.516   7.387  70.553  1.00  0.00    -0.277 NA 
HETATM   17  N   UNL     1     -12.177   6.363  71.178  1.00  0.00    -0.181 NA 
HETATM   18  N   UNL     1     -10.779   7.139  72.587  1.00  0.00    -0.247 NA 
HETATM   19  N   UNL     1     -11.746   6.211  72.422  1.00  0.00    -0.298 NA 
BRANCH  18  20
HETATM   20  C   UNL     1     -10.036   7.151  73.836  1.00  0.00    -0.318 C  
BRANCH  20  21
HETATM   21  C   UNL     1      -8.920   6.092  73.810  1.00  0.00    -0.127 C  
BRANCH  21  22
HETATM   22  N   UNL     1      -7.759   6.343  72.925  1.00  0.00    -0.102 NA 
HETATM   23  C   UNL     1      -7.648   5.232  71.961  1.00  0.00    -0.098 C  
HETATM   24  C   UNL     1      -6.487   6.446  73.649  1.00  0.00    -0.066 C  
ENDBRANCH  21  22
ENDBRANCH  20  21
ENDBRANCH  18  20
ENDBRANCH  14  15
ENDBRANCH  13  14
ENDBRANCH   4  13
BRANCH   8  25
HETATM   25  N   UNL     1      -7.944  14.985  67.779  1.00  0.00    -0.131 N  
HETATM   26  C   UNL     1      -6.959  15.947  67.729  1.00  0.00    -0.149 C  
HETATM   27  H   UNL     1      -8.688  15.076  68.472  1.00  0.00     0.000 HD 
HETATM   28  O   UNL     1      -6.102  15.971  66.846  1.00  0.00    -0.318 OA 
BRANCH  26  29
HETATM   29  C   UNL     1      -6.999  16.962  68.852  1.00  0.00    -0.213 C  
BRANCH  29  30
HETATM   30  C   UNL     1      -7.673  18.216  68.420  1.00  0.00    -0.295 A  
HETATM   31  N   UNL     1     -10.774  19.708  67.748  1.00  0.00    -0.394 NA 
HETATM   32  C   UNL     1      -7.066  19.422  68.127  1.00  0.00    -0.275 A  
HETATM   33  S   UNL     1      -8.246  20.585  67.701  1.00  0.00    -0.119 SA 
HETATM   34  H2  UNL     1     -11.034  20.653  67.464  1.00  0.00     0.000 HD 
HETATM   35  H1  UNL     1     -11.504  19.010  67.885  1.00  0.00     0.000 HD 
HETATM   36  N   UNL     1      -9.060  18.224  68.312  1.00  0.00    -0.297 NA 
HETATM   37  C   UNL     1      -9.475  19.410  67.932  1.00  0.00    -0.330 A  
ENDBRANCH  29  30
ENDBRANCH  26  29
ENDBRANCH   8  25
TORSDOF 9
ENDMDL
MODEL      219
REMARK 921   NORMALIZED FREE ENERGY PREDICTED BY IDOCK:   -3.97 KCAL/MOL
REMARK 922        TOTAL FREE ENERGY PREDICTED BY IDOCK:   -8.00 KCAL/MOL
REMARK 923 INTER-LIGAND FREE ENERGY PREDICTED BY IDOCK:   -6.05 KCAL/MOL
REMARK 924 INTRA-LIGAND FREE ENERGY PREDICTED BY IDOCK:   -1.95 KCAL/MOL
REMARK 927      BINDING AFFINITY PREDICTED BY RF-SCORE:    0.00 PKD
ROOT
HETATM    1  C   UNL     1      -8.648  10.940  68.974  1.00  0.00    -0.103 C  
HETATM    2  S   UNL     1     -10.324  10.321  68.709  1.00  0.00    -0.208 SA 
HETATM    3  C   UNL     1      -9.888   8.610  69.089  1.00  0.00    -0.185 C  
HETATM    4  C   UNL     1      -8.628   8.097  68.403  1.00  0.00    -0.130 C  
HETATM    5  C   UNL     1      -7.297  11.386  67.443  1.00  0.00    -0.119 C  
HETATM    6  CA  UNL     1      -7.656   8.911  67.891  1.00  0.00    -0.093 C  
HETATM    7  C   UNL     1      -6.467   8.311  67.165  1.00  0.00    -0.058 C  
HETATM    8  CA  UNL     1      -8.293  12.279  68.249  1.00  0.00    -0.174 C  
HETATM    9  N   UNL     1      -7.763  10.270  68.038  1.00  0.00    -0.088 N  
HETATM   10  O   UNL     1      -5.788   9.104  66.319  1.00  0.00    -0.055 OA 
HETATM   11  OXT UNL     1      -6.102   7.156  67.330  1.00  0.00    -0.034 OA 
HETATM   12  O   UNL     1      -6.513  11.509  66.525  1.00  0.00    -0.121 OA 
ENDROOT
BRANCH   4  13
HETATM   13  C   UNL     1      -8.682   6.574  68.235  1.00  0.00    -0.117 C  
BRANCH  13  14
HETATM   14  S   UNL     1      -9.860   6.041  66.941  1.00  0.00    -0.171 SA 
BRANCH  14  15
HETATM   15  C   UNL     1      -8.873   5.933  65.532  1.00  0.00    -0.092 A  
HETATM   16  N   UNL     1      -8.521   6.935  64.759  1.00  0.00     0.028 NA 
HETATM   17  N   UNL     1      -7.820   6.388  63.717  1.00  0.00    -0.114 NA 
HETATM   18  N   UNL     1      -8.350   4.779  65.010  1.00  0.00    -0.125 NA 
HETATM   19  N   UNL     1      -7.721   5.073  63.852  1.00  0.00    -0.074 NA 
BRANCH  18  20
HETATM   20  C   UNL     1      -8.320   3.406  65.486  1.00  0.00    -0.099 C  
BRANCH  20  21
HETATM   21  C   UNL     1      -7.367   3.273  66.687  1.00  0.00    -0.075 C  
BRANCH  21  22
HETATM   22  N   UNL     1      -7.943   2.808  67.970  1.00  0.00    -0.059 NA 
HETATM   23  C   UNL     1      -6.896   2.104  68.733  1.00  0.00    -0.036 C  
HETATM   24  C   UNL     1      -9.077   1.891  67.799  1.00  0.00    -0.161 C  
ENDBRANCH  21  22
ENDBRANCH  20  21
ENDBRANCH  18  20
ENDBRANCH  14  15
ENDBRANCH  13  14
ENDBRANCH   4  13
BRANCH   8  25
HETATM   25  N   UNL     1      -9.376  12.914  67.440  1.00  0.00    -0.187 N  
HETATM   26  C   UNL     1      -9.250  14.182  66.914  1.00  0.00    -0.257 C  
HETATM   27  H   UNL     1     -10.237  12.393  67.271  1.00  0.00     0.000 HD 
HETATM   28  O   UNL     1      -8.199  14.820  66.971  1.00  0.00    -0.210 OA 
BRANCH  26  29
HETATM   29  C   UNL     1     -10.506  14.737  66.277  1.00  0.00    -0.300 C  
BRANCH  29  30
HETATM   30  C   UNL     1     -11.052  13.800  65.258  1.00  0.00    -0.313 A  
HETATM   31  N   UNL     1     -10.218  11.375  62.867  1.00  0.00    -0.640 NA 
HETATM   32  C   UNL     1     -12.384  13.596  64.953  1.00  0.00    -0.406 A  
HETATM   33  S   UNL     1     -12.531  12.404  63.735  1.00  0.00    -0.466 SA 
HETATM   34  H2  UNL     1     -10.787  10.797  62.248  1.00  0.00     0.000 HD 
HETATM   35  H1  UNL     1      -9.203  11.281  62.844  1.00  0.00     0.000 HD 
HETATM   36  N   UNL     1     -10.164  13.011  64.535  1.00  0.00    -0.341 NA 
HETATM   37  C   UNL     1     -10.823  12.245  63.696  1.00  0.00    -0.469 A  
ENDBRANCH  29  30
ENDBRANCH  26  29
ENDBRANCH   8  25
TORSDOF 9
ENDMDL
MODEL      220
REMARK 921   NORMALIZED FREE ENERGY PREDICTED BY IDOCK:   -3.95 KCAL/MOL
REMARK 922        TOTAL FREE ENERGY PREDICTED BY IDOCK:   -7.97 KCAL/MOL
REMARK 923 INTER-LIGAND FREE ENERGY PREDICTED BY IDOCK:   -6.58 KCAL/MOL
REMARK 924 INTRA-LIGAND FREE ENERGY PREDICTED BY IDOCK:   -1.39 KCAL/MOL
REMARK 927      BINDING AFFINITY PREDICTED BY RF-SCORE:    0.00 PKD
ROOT
HETATM    1  C   UNL     1      -9.104  10.041  68.302  1.00  0.00    -0.122 C  
HETATM    2  S   UNL     1      -7.314  10.028  68.547  1.00  0.00    -0.079 SA 
HETATM    3  C   UNL     1      -7.225  11.795  68.912  1.00  0.00    -0.107 C  
HETATM    4  C   UNL     1      -7.988  12.693  67.946  1.00  0.00    -0.156 C  
HETATM    5  C   UNL     1     -10.042  10.046  66.434  1.00  0.00    -0.241 C  
HETATM    6  CA  UNL     1      -8.995  12.254  67.133  1.00  0.00    -0.192 C  
HETATM    7  C   UNL     1      -9.653  13.207  66.155  1.00  0.00    -0.200 C  
HETATM    8  CA  UNL     1      -9.679   8.888  67.417  1.00  0.00    -0.176 C  
HETATM    9  N   UNL     1      -9.407  10.948  67.209  1.00  0.00    -0.155 N  
HETATM   10  O   UNL     1     -10.298  12.675  65.103  1.00  0.00    -0.283 OA 
HETATM   11  OXT UNL     1      -9.631  14.422  66.294  1.00  0.00    -0.289 OA 
HETATM   12  O   UNL     1     -10.531  10.175  65.331  1.00  0.00    -0.197 OA 
ENDROOT
BRANCH   4  13
HETATM   13  C   UNL     1      -7.369  14.096  67.904  1.00  0.00    -0.157 C  
BRANCH  13  14
HETATM   14  S   UNL     1      -7.479  14.971  69.506  1.00  0.00    -0.160 SA 
BRANCH  14  15
HETATM   15  C   UNL     1      -9.007  15.762  69.418  1.00  0.00    -0.247 A  
HETATM   16  N   UNL     1     -10.139  15.310  69.909  1.00  0.00    -0.232 NA 
HETATM   17  N   UNL     1     -11.105  16.206  69.534  1.00  0.00    -0.327 NA 
HETATM   18  N   UNL     1      -9.253  16.957  68.793  1.00  0.00    -0.266 NA 
HETATM   19  N   UNL     1     -10.580  17.206  68.842  1.00  0.00    -0.336 NA 
BRANCH  18  20
HETATM   20  C   UNL     1      -8.384  17.946  68.179  1.00  0.00    -0.267 C  
BRANCH  20  21
HETATM   21  C   UNL     1      -8.770  18.162  66.704  1.00  0.00    -0.264 C  
BRANCH  21  22
HETATM   22  N   UNL     1      -9.251  19.506  66.313  1.00  0.00    -0.365 NA 
HETATM   23  C   UNL     1      -8.945  20.454  67.400  1.00  0.00    -0.334 C  
HETATM   24  C   UNL     1     -10.695  19.556  66.059  1.00  0.00    -0.430 C  
ENDBRANCH  21  22
ENDBRANCH  20  21
ENDBRANCH  18  20
ENDBRANCH  14  15
ENDBRANCH  13  14
ENDBRANCH   4  13
BRANCH   8  25
HETATM   25  N   UNL     1      -8.700   7.890  66.891  1.00  0.00    -0.127 N  
HETATM   26  C   UNL     1      -9.096   6.666  66.396  1.00  0.00    -0.152 C  
HETATM   27  H   UNL     1      -7.706   8.121  66.899  1.00  0.00     0.000 HD 
HETATM   28  O   UNL     1     -10.279   6.367  66.241  1.00  0.00    -0.040 OA 
BRANCH  26  29
HETATM   29  C   UNL     1      -7.966   5.712  66.072  1.00  0.00    -0.106 C  
BRANCH  29  30
HETATM   30  C   UNL     1      -8.254   4.344  66.582  1.00  0.00    -0.102 A  
HETATM   31  N   UNL     1      -8.775   2.420  69.467  1.00  0.00    -0.068 NA 
HETATM   32  C   UNL     1      -8.465   3.208  65.826  1.00  0.00    -0.108 A  
HETATM   33  S   UNL     1      -8.786   1.874  66.847  1.00  0.00    -0.116 SA 
HETATM   34  H2  UNL     1      -8.995   1.433  69.603  1.00  0.00     0.000 HD 
HETATM   35  H1  UNL     1      -8.676   3.026  70.280  1.00  0.00     0.000 HD 
HETATM   36  N   UNL     1      -8.354   4.153  67.956  1.00  0.00    -0.093 NA 
HETATM   37  C   UNL     1      -8.621   2.893  68.216  1.00  0.00    -0.088 A  
ENDBRANCH  29  30
ENDBRANCH  26  29
ENDBRANCH   8  25
TORSDOF 9
ENDMDL
MODEL      221
REMARK 921   NORMALIZED FREE ENERGY PREDICTED BY IDOCK:   -3.93 KCAL/MOL
REMARK 922        TOTAL FREE ENERGY PREDICTED BY IDOCK:   -7.94 KCAL/MOL
REMARK 923 INTER-LIGAND FREE ENERGY PREDICTED BY IDOCK:   -7.19 KCAL/MOL
REMARK 924 INTRA-LIGAND FREE ENERGY PREDICTED BY IDOCK:   -0.75 KCAL/MOL
REMARK 927      BINDING AFFINITY PREDICTED BY RF-SCORE:    0.00 PKD
ROOT
HETATM    1  C   UNL     1      -6.736  10.033  68.094  1.00  0.00    -0.059 C  
HETATM    2  S   UNL     1      -8.320  10.509  67.366  1.00  0.00    -0.122 SA 
HETATM    3  C   UNL     1      -7.789  12.195  66.999  1.00  0.00    -0.123 C  
HETATM    4  C   UNL     1      -7.080  12.912  68.141  1.00  0.00    -0.108 C  
HETATM    5  C   UNL     1      -6.367   9.916  70.148  1.00  0.00    -0.084 C  
HETATM    6  CA  UNL     1      -6.497  12.269  69.198  1.00  0.00    -0.100 C  
HETATM    7  C   UNL     1      -5.872  13.069  70.324  1.00  0.00    -0.157 C  
HETATM    8  CA  UNL     1      -6.780   8.836  69.098  1.00  0.00    -0.051 C  
HETATM    9  N   UNL     1      -6.481  10.898  69.232  1.00  0.00    -0.062 N  
HETATM   10  O   UNL     1      -5.713  12.458  71.510  1.00  0.00    -0.375 OA 
HETATM   11  OXT UNL     1      -5.500  14.226  70.190  1.00  0.00    -0.096 OA 
HETATM   12  O   UNL     1      -6.171   9.985  71.343  1.00  0.00    -0.302 OA 
ENDROOT
BRANCH   4  13
HETATM   13  C   UNL     1      -7.248  14.431  68.018  1.00  0.00    -0.141 C  
BRANCH  13  14
HETATM   14  S   UNL     1      -8.536  15.099  69.132  1.00  0.00    -0.207 SA 
BRANCH  14  15
HETATM   15  C   UNL     1      -9.989  14.866  68.235  1.00  0.00    -0.222 A  
HETATM   16  N   UNL     1     -10.578  13.714  68.007  1.00  0.00    -0.244 NA 
HETATM   17  N   UNL     1     -11.641  13.982  67.186  1.00  0.00    -0.351 NA 
HETATM   18  N   UNL     1     -10.709  15.851  67.611  1.00  0.00    -0.308 NA 
HETATM   19  N   UNL     1     -11.723  15.278  66.926  1.00  0.00    -0.087 NA 
BRANCH  18  20
HETATM   20  C   UNL     1     -10.600  17.300  67.605  1.00  0.00    -0.350 C  
BRANCH  20  21
HETATM   21  C   UNL     1      -9.558  17.758  66.569  1.00  0.00    -0.308 C  
BRANCH  21  22
HETATM   22  N   UNL     1      -8.463  18.635  67.042  1.00  0.00    -0.264 NA 
HETATM   23  C   UNL     1      -8.941  19.407  68.204  1.00  0.00    -0.326 C  
HETATM   24  C   UNL     1      -7.998  19.586  66.025  1.00  0.00    -0.303 C  
ENDBRANCH  21  22
ENDBRANCH  20  21
ENDBRANCH  18  20
ENDBRANCH  14  15
ENDBRANCH  13  14
ENDBRANCH   4  13
BRANCH   8  25
HETATM   25  N   UNL     1      -8.111   8.198  69.329  1.00  0.00    -0.115 N  
HETATM   26  C   UNL     1      -8.618   7.235  68.484  1.00  0.00    -0.124 C  
HETATM   27  H   UNL     1      -8.662   8.485  70.139  1.00  0.00     0.000 HD 
HETATM   28  O   UNL     1      -7.963   6.752  67.562  1.00  0.00    -0.112 OA 
BRANCH  26  29
HETATM   29  C   UNL     1     -10.050   6.828  68.766  1.00  0.00    -0.165 C  
BRANCH  29  30
HETATM   30  C   UNL     1     -10.674   7.724  69.776  1.00  0.00    -0.236 A  
HETATM   31  N   UNL     1     -11.900   7.920  73.055  1.00  0.00    -0.633 NA 
HETATM   32  C   UNL     1     -10.976   9.063  69.618  1.00  0.00    -0.136 A  
HETATM   33  S   UNL     1     -11.660   9.684  71.058  1.00  0.00    -0.388 SA 
HETATM   34  H2  UNL     1     -12.294   8.690  73.596  1.00  0.00     0.000 HD 
HETATM   35  H1  UNL     1     -11.811   7.001  73.488  1.00  0.00     0.000 HD 
HETATM   36  N   UNL     1     -10.978   7.206  71.031  1.00  0.00    -0.247 NA 
HETATM   37  C   UNL     1     -11.510   8.139  71.786  1.00  0.00    -0.284 A  
ENDBRANCH  29  30
ENDBRANCH  26  29
ENDBRANCH   8  25
TORSDOF 9
ENDMDL
MODEL      222
REMARK 921   NORMALIZED FREE ENERGY PREDICTED BY IDOCK:   -3.92 KCAL/MOL
REMARK 922        TOTAL FREE ENERGY PREDICTED BY IDOCK:   -7.92 KCAL/MOL
REMARK 923 INTER-LIGAND FREE ENERGY PREDICTED BY IDOCK:   -6.76 KCAL/MOL
REMARK 924 INTRA-LIGAND FREE ENERGY PREDICTED BY IDOCK:   -1.16 KCAL/MOL
REMARK 927      BINDING AFFINITY PREDICTED BY RF-SCORE:    0.00 PKD
ROOT
HETATM    1  C   UNL     1      -8.740  10.540  68.480  1.00  0.00    -0.140 C  
HETATM    2  S   UNL     1     -10.363  10.563  69.275  1.00  0.00    -0.227 SA 
HETATM    3  C   UNL     1     -10.401   8.776  69.536  1.00  0.00    -0.213 C  
HETATM    4  C   UNL     1     -10.013   7.939  68.324  1.00  0.00    -0.204 C  
HETATM    5  C   UNL     1      -8.435  10.654  66.415  1.00  0.00    -0.152 C  
HETATM    6  CA  UNL     1      -9.294   8.419  67.265  1.00  0.00    -0.146 C  
HETATM    7  C   UNL     1      -9.012   7.529  66.071  1.00  0.00    -0.127 C  
HETATM    8  CA  UNL     1      -8.427  11.744  67.534  1.00  0.00    -0.154 C  
HETATM    9  N   UNL     1      -8.830   9.709  67.291  1.00  0.00    -0.131 N  
HETATM   10  O   UNL     1      -8.708   8.125  64.905  1.00  0.00    -0.072 OA 
HETATM   11  OXT UNL     1      -9.036   6.308  66.132  1.00  0.00    -0.155 OA 
HETATM   12  O   UNL     1      -8.320  10.598  65.209  1.00  0.00    -0.163 OA 
ENDROOT
BRANCH   4  13
HETATM   13  C   UNL     1     -10.667   6.553  68.389  1.00  0.00    -0.279 C  
BRANCH  13  14
HETATM   14  S   UNL     1      -9.798   5.407  69.520  1.00  0.00    -0.217 SA 
BRANCH  14  15
HETATM   15  C   UNL     1     -10.248   5.981  71.081  1.00  0.00    -0.207 A  
HETATM   16  N   UNL     1     -11.473   6.061  71.550  1.00  0.00    -0.257 NA 
HETATM   17  N   UNL     1     -11.375   6.651  72.782  1.00  0.00    -0.227 NA 
HETATM   18  N   UNL     1      -9.388   6.464  72.033  1.00  0.00    -0.151 NA 
HETATM   19  N   UNL     1     -10.112   6.914  73.082  1.00  0.00    -0.194 NA 
BRANCH  18  20
HETATM   20  C   UNL     1      -7.939   6.520  72.116  1.00  0.00    -0.102 C  
BRANCH  20  21
HETATM   21  C   UNL     1      -7.465   7.974  72.291  1.00  0.00    -0.098 C  
BRANCH  21  22
HETATM   22  N   UNL     1      -6.008   8.231  72.222  1.00  0.00    -0.048 NA 
HETATM   23  C   UNL     1      -5.348   7.061  71.614  1.00  0.00    -0.028 C  
HETATM   24  C   UNL     1      -5.396   8.467  73.535  1.00  0.00    -0.066 C  
ENDBRANCH  21  22
ENDBRANCH  20  21
ENDBRANCH  18  20
ENDBRANCH  14  15
ENDBRANCH  13  14
ENDBRANCH   4  13
BRANCH   8  25
HETATM   25  N   UNL     1      -9.483  12.794  67.408  1.00  0.00    -0.185 N  
HETATM   26  C   UNL     1      -9.372  14.022  68.023  1.00  0.00    -0.205 C  
HETATM   27  H   UNL     1     -10.312  12.595  66.848  1.00  0.00     0.000 HD 
HETATM   28  O   UNL     1      -8.350  14.377  68.610  1.00  0.00    -0.150 OA 
BRANCH  26  29
HETATM   29  C   UNL     1     -10.607  14.893  67.938  1.00  0.00    -0.254 C  
BRANCH  29  30
HETATM   30  C   UNL     1     -11.276  15.010  69.261  1.00  0.00    -0.286 A  
HETATM   31  N   UNL     1     -13.196  13.312  71.653  1.00  0.00    -0.380 NA 
HETATM   32  C   UNL     1     -11.272  16.112  70.095  1.00  0.00    -0.370 A  
HETATM   33  S   UNL     1     -12.153  15.772  71.521  1.00  0.00    -0.491 SA 
HETATM   34  H2  UNL     1     -13.556  13.589  72.567  1.00  0.00     0.000 HD 
HETATM   35  H1  UNL     1     -13.390  12.374  71.304  1.00  0.00     0.000 HD 
HETATM   36  N   UNL     1     -11.965  13.910  69.759  1.00  0.00    -0.319 NA 
HETATM   37  C   UNL     1     -12.477  14.193  70.935  1.00  0.00    -0.365 A  
ENDBRANCH  29  30
ENDBRANCH  26  29
ENDBRANCH   8  25
TORSDOF 9
ENDMDL
MODEL      223
REMARK 921   NORMALIZED FREE ENERGY PREDICTED BY IDOCK:   -3.92 KCAL/MOL
REMARK 922        TOTAL FREE ENERGY PREDICTED BY IDOCK:   -7.92 KCAL/MOL
REMARK 923 INTER-LIGAND FREE ENERGY PREDICTED BY IDOCK:   -6.42 KCAL/MOL
REMARK 924 INTRA-LIGAND FREE ENERGY PREDICTED BY IDOCK:   -1.50 KCAL/MOL
REMARK 927      BINDING AFFINITY PREDICTED BY RF-SCORE:    0.00 PKD
ROOT
HETATM    1  C   UNL     1      -8.082  11.640  68.337  1.00  0.00    -0.153 C  
HETATM    2  S   UNL     1      -9.814  11.271  67.978  1.00  0.00    -0.183 SA 
HETATM    3  C   UNL     1      -9.692   9.553  68.522  1.00  0.00    -0.151 C  
HETATM    4  C   UNL     1      -8.487   8.790  67.986  1.00  0.00    -0.126 C  
HETATM    5  C   UNL     1      -6.570  11.732  66.896  1.00  0.00    -0.114 C  
HETATM    6  CA  UNL     1      -7.361   9.393  67.498  1.00  0.00    -0.084 C  
HETATM    7  C   UNL     1      -6.237   8.553  66.922  1.00  0.00    -0.055 C  
HETATM    8  CA  UNL     1      -7.462  12.837  67.546  1.00  0.00    -0.154 C  
HETATM    9  N   UNL     1      -7.254  10.759  67.532  1.00  0.00    -0.088 N  
HETATM   10  O   UNL     1      -5.378   9.151  66.080  1.00  0.00    -0.039 OA 
HETATM   11  OXT UNL     1      -6.079   7.373  67.204  1.00  0.00    -0.042 OA 
HETATM   12  O   UNL     1      -5.713  11.649  66.042  1.00  0.00    -0.177 OA 
ENDROOT
BRANCH   4  13
HETATM   13  C   UNL     1      -8.777   7.286  67.928  1.00  0.00    -0.123 C  
BRANCH  13  14
HETATM   14  S   UNL     1      -8.451   6.435  69.514  1.00  0.00    -0.134 SA 
BRANCH  14  15
HETATM   15  C   UNL     1      -8.277   4.786  69.047  1.00  0.00    -0.081 A  
HETATM   16  N   UNL     1      -8.252   4.333  67.814  1.00  0.00    -0.094 NA 
HETATM   17  N   UNL     1      -8.190   2.968  67.908  1.00  0.00    -0.077 NA 
HETATM   18  N   UNL     1      -8.174   3.720  69.902  1.00  0.00    -0.053 NA 
HETATM   19  N   UNL     1      -8.157   2.582  69.175  1.00  0.00    -0.051 NA 
BRANCH  18  20
HETATM   20  C   UNL     1      -8.041   3.623  71.346  1.00  0.00    -0.061 C  
BRANCH  20  21
HETATM   21  C   UNL     1      -9.404   3.834  72.029  1.00  0.00    -0.128 C  
BRANCH  21  22
HETATM   22  N   UNL     1      -9.552   5.016  72.908  1.00  0.00    -0.143 NA 
HETATM   23  C   UNL     1      -8.229   5.370  73.454  1.00  0.00    -0.114 C  
HETATM   24  C   UNL     1     -10.464   4.791  74.036  1.00  0.00    -0.276 C  
ENDBRANCH  21  22
ENDBRANCH  20  21
ENDBRANCH  18  20
ENDBRANCH  14  15
ENDBRANCH  13  14
ENDBRANCH   4  13
BRANCH   8  25
HETATM   25  N   UNL     1      -8.366  13.562  66.602  1.00  0.00    -0.396 N  
HETATM   26  C   UNL     1      -8.695  14.889  66.776  1.00  0.00    -0.246 C  
HETATM   27  H   UNL     1      -8.752  13.058  65.803  1.00  0.00     0.000 HD 
HETATM   28  O   UNL     1      -8.174  15.591  67.642  1.00  0.00    -0.141 OA 
BRANCH  26  29
HETATM   29  C   UNL     1      -9.758  15.412  65.834  1.00  0.00    -0.392 C  
BRANCH  29  30
HETATM   30  C   UNL     1     -10.628  14.311  65.340  1.00  0.00    -0.354 A  
HETATM   31  N   UNL     1     -10.887  11.691  63.024  1.00  0.00    -0.696 NA 
HETATM   32  C   UNL     1     -11.868  13.954  65.833  1.00  0.00    -0.382 A  
HETATM   33  S   UNL     1     -12.480  12.612  64.967  1.00  0.00    -0.397 SA 
HETATM   34  H2  UNL     1     -11.611  10.993  62.856  1.00  0.00     0.000 HD 
HETATM   35  H1  UNL     1     -10.045  11.685  62.449  1.00  0.00     0.000 HD 
HETATM   36  N   UNL     1     -10.172  13.520  64.291  1.00  0.00    -0.307 NA 
HETATM   37  C   UNL     1     -11.063  12.601  64.000  1.00  0.00    -0.405 A  
ENDBRANCH  29  30
ENDBRANCH  26  29
ENDBRANCH   8  25
TORSDOF 9
ENDMDL
MODEL      224
REMARK 921   NORMALIZED FREE ENERGY PREDICTED BY IDOCK:   -3.91 KCAL/MOL
REMARK 922        TOTAL FREE ENERGY PREDICTED BY IDOCK:   -7.91 KCAL/MOL
REMARK 923 INTER-LIGAND FREE ENERGY PREDICTED BY IDOCK:   -6.80 KCAL/MOL
REMARK 924 INTRA-LIGAND FREE ENERGY PREDICTED BY IDOCK:   -1.11 KCAL/MOL
REMARK 927      BINDING AFFINITY PREDICTED BY RF-SCORE:    0.00 PKD
ROOT
HETATM    1  C   UNL     1     -11.397   8.939  68.783  1.00  0.00     0.559 C  
HETATM    2  S   UNL     1     -11.643  10.386  69.836  1.00  0.00    -0.282 SA 
HETATM    3  C   UNL     1     -11.817  11.526  68.446  1.00  0.00    -0.283 C  
HETATM    4  C   UNL     1     -10.760  11.383  67.358  1.00  0.00    -0.274 C  
HETATM    5  C   UNL     1      -9.538   8.071  68.383  1.00  0.00    -0.150 C  
HETATM    6  CA  UNL     1      -9.998  10.262  67.180  1.00  0.00    -0.197 C  
HETATM    7  C   UNL     1      -8.922  10.235  66.112  1.00  0.00    -0.154 C  
HETATM    8  CA  UNL     1     -10.639   7.740  69.439  1.00  0.00    -0.208 C  
HETATM    9  N   UNL     1     -10.212   9.164  67.972  1.00  0.00    -0.200 N  
HETATM   10  O   UNL     1      -7.933   9.336  66.244  1.00  0.00    -0.105 OA 
HETATM   11  OXT UNL     1      -8.930  10.981  65.142  1.00  0.00    -0.197 OA 
HETATM   12  O   UNL     1      -8.427   7.685  68.084  1.00  0.00    -0.123 OA 
ENDROOT
BRANCH   4  13
HETATM   13  C   UNL     1     -10.569  12.707  66.608  1.00  0.00    -0.248 C  
BRANCH  13  14
HETATM   14  S   UNL     1     -11.401  14.116  67.426  1.00  0.00    -0.345 SA 
BRANCH  14  15
HETATM   15  C   UNL     1     -10.087  15.026  68.071  1.00  0.00    -0.223 A  
HETATM   16  N   UNL     1      -8.942  14.537  68.490  1.00  0.00    -0.185 NA 
HETATM   17  N   UNL     1      -8.236  15.594  69.000  1.00  0.00    -0.214 NA 
HETATM   18  N   UNL     1     -10.075  16.383  68.265  1.00  0.00    -0.240 NA 
HETATM   19  N   UNL     1      -8.922  16.722  68.882  1.00  0.00    -0.250 NA 
BRANCH  18  20
HETATM   20  C   UNL     1     -11.002  17.440  67.900  1.00  0.00    -0.155 C  
BRANCH  20  21
HETATM   21  C   UNL     1     -10.524  18.161  66.627  1.00  0.00    -0.339 C  
BRANCH  21  22
HETATM   22  N   UNL     1     -10.179  19.596  66.742  1.00  0.00    -0.413 NA 
HETATM   23  C   UNL     1      -8.841  19.810  66.161  1.00  0.00    -0.336 C  
HETATM   24  C   UNL     1     -10.156  20.079  68.128  1.00  0.00    -0.413 C  
ENDBRANCH  21  22
ENDBRANCH  20  21
ENDBRANCH  18  20
ENDBRANCH  14  15
ENDBRANCH  13  14
ENDBRANCH   4  13
BRANCH   8  25
HETATM   25  N   UNL     1     -10.225   7.903  70.865  1.00  0.00    -0.198 N  
HETATM   26  C   UNL     1     -10.740   7.116  71.872  1.00  0.00    -0.216 C  
HETATM   27  H   UNL     1      -9.538   8.620  71.100  1.00  0.00     0.000 HD 
HETATM   28  O   UNL     1     -11.475   6.155  71.650  1.00  0.00    -0.286 OA 
BRANCH  26  29
HETATM   29  C   UNL     1     -10.346   7.534  73.273  1.00  0.00    -0.412 C  
BRANCH  29  30
HETATM   30  C   UNL     1      -8.992   7.030  73.625  1.00  0.00    -0.158 A  
HETATM   31  N   UNL     1      -6.918   4.203  73.675  1.00  0.00    -0.058 NA 
HETATM   32  C   UNL     1      -7.939   7.770  74.129  1.00  0.00    -0.206 A  
HETATM   33  S   UNL     1      -6.571   6.768  74.354  1.00  0.00    -0.083 SA 
HETATM   34  H2  UNL     1      -5.947   4.069  73.956  1.00  0.00     0.000 HD 
HETATM   35  H1  UNL     1      -7.451   3.406  73.329  1.00  0.00     0.000 HD 
HETATM   36  N   UNL     1      -8.706   5.685  73.415  1.00  0.00    -0.118 NA 
HETATM   37  C   UNL     1      -7.468   5.427  73.771  1.00  0.00    -0.091 A  
ENDBRANCH  29  30
ENDBRANCH  26  29
ENDBRANCH   8  25
TORSDOF 9
ENDMDL
MODEL      225
REMARK 921   NORMALIZED FREE ENERGY PREDICTED BY IDOCK:   -3.91 KCAL/MOL
REMARK 922        TOTAL FREE ENERGY PREDICTED BY IDOCK:   -7.91 KCAL/MOL
REMARK 923 INTER-LIGAND FREE ENERGY PREDICTED BY IDOCK:   -6.53 KCAL/MOL
REMARK 924 INTRA-LIGAND FREE ENERGY PREDICTED BY IDOCK:   -1.39 KCAL/MOL
REMARK 927      BINDING AFFINITY PREDICTED BY RF-SCORE:    0.00 PKD
ROOT
HETATM    1  C   UNL     1      -8.610  12.738  68.694  1.00  0.00     0.054 C  
HETATM    2  S   UNL     1     -10.155  12.464  67.797  1.00  0.00    -0.208 SA 
HETATM    3  C   UNL     1      -9.793  10.729  67.450  1.00  0.00    -0.177 C  
HETATM    4  C   UNL     1      -8.392  10.456  66.918  1.00  0.00    -0.124 C  
HETATM    5  C   UNL     1      -6.930  13.686  67.889  1.00  0.00    -0.153 C  
HETATM    6  CA  UNL     1      -7.340  11.316  67.070  1.00  0.00    -0.136 C  
HETATM    7  C   UNL     1      -5.996  10.990  66.448  1.00  0.00    -0.143 C  
HETATM    8  CA  UNL     1      -8.113  14.219  68.758  1.00  0.00    -0.109 C  
HETATM    9  N   UNL     1      -7.507  12.472  67.788  1.00  0.00    -0.117 N  
HETATM   10  O   UNL     1      -5.143  12.006  66.235  1.00  0.00    -0.320 OA 
HETATM   11  OXT UNL     1      -5.660   9.852  66.150  1.00  0.00    -0.052 OA 
HETATM   12  O   UNL     1      -5.945  14.128  67.336  1.00  0.00    -0.348 OA 
ENDROOT
BRANCH   4  13
HETATM   13  C   UNL     1      -8.372   9.179  66.070  1.00  0.00    -0.121 C  
BRANCH  13  14
HETATM   14  S   UNL     1      -9.868   8.151  66.293  1.00  0.00    -0.030 SA 
BRANCH  14  15
HETATM   15  C   UNL     1      -9.243   6.686  66.952  1.00  0.00    -0.142 A  
HETATM   16  N   UNL     1      -8.727   5.691  66.267  1.00  0.00    -0.126 NA 
HETATM   17  N   UNL     1      -8.445   4.705  67.175  1.00  0.00    -0.105 NA 
HETATM   18  N   UNL     1      -9.232   6.350  68.281  1.00  0.00    -0.114 NA 
HETATM   19  N   UNL     1      -8.761   5.089  68.404  1.00  0.00    -0.101 NA 
BRANCH  18  20
HETATM   20  C   UNL     1      -9.568   7.085  69.488  1.00  0.00    -0.153 C  
BRANCH  20  21
HETATM   21  C   UNL     1      -8.363   7.133  70.444  1.00  0.00    -0.128 C  
BRANCH  21  22
HETATM   22  N   UNL     1      -8.239   8.313  71.329  1.00  0.00    -0.114 NA 
HETATM   23  C   UNL     1      -9.577   8.668  71.837  1.00  0.00    -0.307 C  
HETATM   24  C   UNL     1      -7.682   9.491  70.653  1.00  0.00    -0.124 C  
ENDBRANCH  21  22
ENDBRANCH  20  21
ENDBRANCH  18  20
ENDBRANCH  14  15
ENDBRANCH  13  14
ENDBRANCH   4  13
BRANCH   8  25
HETATM   25  N   UNL     1      -8.973  15.248  68.100  1.00  0.00    -0.171 N  
HETATM   26  C   UNL     1     -10.063  15.806  68.733  1.00  0.00    -0.215 C  
HETATM   27  H   UNL     1      -8.747  15.547  67.151  1.00  0.00     0.000 HD 
HETATM   28  O   UNL     1     -10.324  15.586  69.915  1.00  0.00    -0.288 OA 
BRANCH  26  29
HETATM   29  C   UNL     1     -10.923  16.695  67.860  1.00  0.00    -0.276 C  
BRANCH  29  30
HETATM   30  C   UNL     1     -10.186  17.920  67.448  1.00  0.00    -0.360 A  
HETATM   31  N   UNL     1      -7.496  19.139  65.558  1.00  0.00    -0.444 NA 
HETATM   32  C   UNL     1     -10.492  19.223  67.793  1.00  0.00    -0.435 A  
HETATM   33  S   UNL     1      -9.379  20.299  67.064  1.00  0.00    -0.385 SA 
HETATM   34  H2  UNL     1      -7.154  20.083  65.382  1.00  0.00     0.000 HD 
HETATM   35  H1  UNL     1      -7.016  18.346  65.133  1.00  0.00     0.000 HD 
HETATM   36  N   UNL     1      -9.085  17.785  66.610  1.00  0.00    -0.259 NA 
HETATM   37  C   UNL     1      -8.572  18.966  66.348  1.00  0.00    -0.294 A  
ENDBRANCH  29  30
ENDBRANCH  26  29
ENDBRANCH   8  25
TORSDOF 9
ENDMDL
MODEL      226
REMARK 921   NORMALIZED FREE ENERGY PREDICTED BY IDOCK:   -3.91 KCAL/MOL
REMARK 922        TOTAL FREE ENERGY PREDICTED BY IDOCK:   -7.90 KCAL/MOL
REMARK 923 INTER-LIGAND FREE ENERGY PREDICTED BY IDOCK:   -6.30 KCAL/MOL
REMARK 924 INTRA-LIGAND FREE ENERGY PREDICTED BY IDOCK:   -1.60 KCAL/MOL
REMARK 927      BINDING AFFINITY PREDICTED BY RF-SCORE:    0.00 PKD
ROOT
HETATM    1  C   UNL     1      -8.226   8.658  71.020  1.00  0.00    -0.150 C  
HETATM    2  S   UNL     1      -6.744   8.567  69.990  1.00  0.00    -0.043 SA 
HETATM    3  C   UNL     1      -6.678  10.350  69.708  1.00  0.00    -0.117 C  
HETATM    4  C   UNL     1      -8.002  10.991  69.312  1.00  0.00    -0.034 C  
HETATM    5  C   UNL     1     -10.155   8.202  70.357  1.00  0.00    -0.194 C  
HETATM    6  CA  UNL     1      -9.222  10.421  69.545  1.00  0.00    -0.120 C  
HETATM    7  C   UNL     1     -10.486  11.102  69.055  1.00  0.00    -0.206 C  
HETATM    8  CA  UNL     1      -9.079   7.351  71.104  1.00  0.00    -0.148 C  
HETATM    9  N   UNL     1      -9.297   9.233  70.224  1.00  0.00    -0.220 N  
HETATM   10  O   UNL     1     -11.585  10.345  68.904  1.00  0.00    -0.225 OA 
HETATM   11  OXT UNL     1     -10.543  12.299  68.809  1.00  0.00    -0.230 OA 
HETATM   12  O   UNL     1     -11.264   8.046  69.890  1.00  0.00    -0.177 OA 
ENDROOT
BRANCH   4  13
HETATM   13  C   UNL     1      -7.766  12.264  68.491  1.00  0.00    -0.118 C  
BRANCH  13  14
HETATM   14  S   UNL     1      -7.002  11.932  66.862  1.00  0.00    -0.010 SA 
BRANCH  14  15
HETATM   15  C   UNL     1      -8.080  10.792  66.149  1.00  0.00    -0.160 A  
HETATM   16  N   UNL     1      -7.859   9.504  66.012  1.00  0.00    -0.100 NA 
HETATM   17  N   UNL     1      -8.929   9.003  65.319  1.00  0.00    -0.198 NA 
HETATM   18  N   UNL     1      -9.301  11.083  65.599  1.00  0.00    -0.207 NA 
HETATM   19  N   UNL     1      -9.807   9.957  65.049  1.00  0.00    -0.308 NA 
BRANCH  18  20
HETATM   20  C   UNL     1     -10.100  12.295  65.557  1.00  0.00    -0.256 C  
BRANCH  20  21
HETATM   21  C   UNL     1     -11.537  11.978  65.107  1.00  0.00    -0.272 C  
BRANCH  21  22
HETATM   22  N   UNL     1     -12.508  13.096  65.083  1.00  0.00    -0.492 NA 
HETATM   23  C   UNL     1     -12.241  13.930  63.896  1.00  0.00    -0.328 C  
HETATM   24  C   UNL     1     -12.434  13.957  66.270  1.00  0.00    -0.409 C  
ENDBRANCH  21  22
ENDBRANCH  20  21
ENDBRANCH  18  20
ENDBRANCH  14  15
ENDBRANCH  13  14
ENDBRANCH   4  13
BRANCH   8  25
HETATM   25  N   UNL     1      -8.570   6.165  70.352  1.00  0.00    -0.132 N  
HETATM   26  C   UNL     1      -9.306   5.007  70.226  1.00  0.00    -0.154 C  
HETATM   27  H   UNL     1      -7.648   6.214  69.918  1.00  0.00     0.000 HD 
HETATM   28  O   UNL     1     -10.470   4.917  70.616  1.00  0.00    -0.202 OA 
BRANCH  26  29
HETATM   29  C   UNL     1      -8.569   3.848  69.588  1.00  0.00    -0.107 C  
BRANCH  29  30
HETATM   30  C   UNL     1      -8.616   3.933  68.104  1.00  0.00    -0.096 A  
HETATM   31  N   UNL     1      -9.778   2.373  65.186  1.00  0.00    -0.355 NA 
HETATM   32  C   UNL     1      -8.087   4.938  67.316  1.00  0.00    -0.106 A  
HETATM   33  S   UNL     1      -8.408   4.621  65.666  1.00  0.00    -0.119 SA 
HETATM   34  H2  UNL     1      -9.715   2.627  64.200  1.00  0.00     0.000 HD 
HETATM   35  H1  UNL     1     -10.262   1.515  65.450  1.00  0.00     0.000 HD 
HETATM   36  N   UNL     1      -9.274   2.931  67.399  1.00  0.00    -0.184 NA 
HETATM   37  C   UNL     1      -9.222   3.178  66.110  1.00  0.00    -0.128 A  
ENDBRANCH  29  30
ENDBRANCH  26  29
ENDBRANCH   8  25
TORSDOF 9
ENDMDL
MODEL      227
REMARK 921   NORMALIZED FREE ENERGY PREDICTED BY IDOCK:   -3.91 KCAL/MOL
REMARK 922        TOTAL FREE ENERGY PREDICTED BY IDOCK:   -7.90 KCAL/MOL
REMARK 923 INTER-LIGAND FREE ENERGY PREDICTED BY IDOCK:   -7.31 KCAL/MOL
REMARK 924 INTRA-LIGAND FREE ENERGY PREDICTED BY IDOCK:   -0.59 KCAL/MOL
REMARK 927      BINDING AFFINITY PREDICTED BY RF-SCORE:    0.00 PKD
ROOT
HETATM    1  C   UNL     1      -8.365  17.130  66.197  1.00  0.00    -0.223 C  
HETATM    2  S   UNL     1      -6.841  16.812  67.115  1.00  0.00    -0.216 SA 
HETATM    3  C   UNL     1      -7.158  15.041  67.276  1.00  0.00    -0.099 C  
HETATM    4  C   UNL     1      -8.567  14.677  67.730  1.00  0.00    -0.175 C  
HETATM    5  C   UNL     1     -10.099  17.944  67.033  1.00  0.00    -0.340 C  
HETATM    6  CA  UNL     1      -9.640  15.517  67.628  1.00  0.00    -0.210 C  
HETATM    7  C   UNL     1     -10.992  15.093  68.168  1.00  0.00    -0.287 C  
HETATM    8  CA  UNL     1      -8.906  18.595  66.262  1.00  0.00    -0.216 C  
HETATM    9  N   UNL     1      -9.487  16.743  67.034  1.00  0.00    -0.227 N  
HETATM   10  O   UNL     1     -11.883  16.058  68.450  1.00  0.00    -0.304 OA 
HETATM   11  OXT UNL     1     -11.301  13.921  68.340  1.00  0.00    -0.254 OA 
HETATM   12  O   UNL     1     -11.114  18.301  67.592  1.00  0.00    -0.230 OA 
ENDROOT
BRANCH   4  13
HETATM   13  C   UNL     1      -8.573  13.321  68.447  1.00  0.00    -0.130 C  
BRANCH  13  14
HETATM   14  S   UNL     1      -7.608  12.043  67.563  1.00  0.00    -0.158 SA 
BRANCH  14  15
HETATM   15  C   UNL     1      -8.782  10.825  67.232  1.00  0.00    -0.130 A  
HETATM   16  N   UNL     1      -9.561  10.772  66.176  1.00  0.00    -0.187 NA 
HETATM   17  N   UNL     1     -10.392   9.699  66.365  1.00  0.00    -0.214 NA 
HETATM   18  N   UNL     1      -9.083   9.764  68.046  1.00  0.00    -0.125 NA 
HETATM   19  N   UNL     1     -10.120   9.086  67.507  1.00  0.00    -0.211 NA 
BRANCH  18  20
HETATM   20  C   UNL     1      -8.485   9.260  69.271  1.00  0.00    -0.137 C  
BRANCH  20  21
HETATM   21  C   UNL     1      -8.216   7.749  69.156  1.00  0.00    -0.129 C  
BRANCH  21  22
HETATM   22  N   UNL     1      -8.061   6.984  70.415  1.00  0.00    -0.117 NA 
HETATM   23  C   UNL     1      -7.677   5.599  70.085  1.00  0.00    -0.086 C  
HETATM   24  C   UNL     1      -9.288   6.936  71.220  1.00  0.00    -0.164 C  
ENDBRANCH  21  22
ENDBRANCH  20  21
ENDBRANCH  18  20
ENDBRANCH  14  15
ENDBRANCH  13  14
ENDBRANCH   4  13
BRANCH   8  25
HETATM   25  N   UNL     1      -8.100  19.577  67.048  1.00  0.00    -0.266 N  
HETATM   26  C   UNL     1      -7.041  20.264  66.495  1.00  0.00    -0.258 C  
HETATM   27  H   UNL     1      -8.342  19.744  68.025  1.00  0.00     0.000 HD 
HETATM   28  O   UNL     1      -6.769  20.207  65.297  1.00  0.00    -0.281 OA 
BRANCH  26  29
HETATM   29  C   UNL     1      -6.228  21.082  67.477  1.00  0.00    -0.401 C  
BRANCH  29  30
HETATM   30  C   UNL     1      -5.910  20.294  68.699  1.00  0.00    -0.284 A  
HETATM   31  N   UNL     1      -6.205  20.191  72.191  1.00  0.00    -0.410 NA 
HETATM   32  C   UNL     1      -5.270  19.071  68.749  1.00  0.00    -0.192 A  
HETATM   33  S   UNL     1      -5.149  18.538  70.371  1.00  0.00    -0.248 SA 
HETATM   34  H2  UNL     1      -5.916  19.501  72.884  1.00  0.00     0.000 HD 
HETATM   35  H1  UNL     1      -6.681  21.038  72.499  1.00  0.00     0.000 HD 
HETATM   36  N   UNL     1      -6.304  20.793  69.935  1.00  0.00    -0.146 NA 
HETATM   37  C   UNL     1      -5.950  19.964  70.890  1.00  0.00    -0.260 A  
ENDBRANCH  29  30
ENDBRANCH  26  29
ENDBRANCH   8  25
TORSDOF 9
ENDMDL
MODEL      228
REMARK 921   NORMALIZED FREE ENERGY PREDICTED BY IDOCK:   -3.88 KCAL/MOL
REMARK 922        TOTAL FREE ENERGY PREDICTED BY IDOCK:   -7.85 KCAL/MOL
REMARK 923 INTER-LIGAND FREE ENERGY PREDICTED BY IDOCK:   -5.06 KCAL/MOL
REMARK 924 INTRA-LIGAND FREE ENERGY PREDICTED BY IDOCK:   -2.80 KCAL/MOL
REMARK 927      BINDING AFFINITY PREDICTED BY RF-SCORE:    0.00 PKD
ROOT
HETATM    1  C   UNL     1     -10.627   7.622  67.386  1.00  0.00    -0.286 C  
HETATM    2  S   UNL     1     -10.510   5.836  67.640  1.00  0.00    -0.232 SA 
HETATM    3  C   UNL     1     -11.249   5.894  69.287  1.00  0.00    -0.185 C  
HETATM    4  C   UNL     1     -10.684   6.966  70.211  1.00  0.00    -0.274 C  
HETATM    5  C   UNL     1      -9.028   8.952  67.598  1.00  0.00    -0.134 C  
HETATM    6  CA  UNL     1     -10.003   8.067  69.772  1.00  0.00    -0.191 C  
HETATM    7  C   UNL     1      -9.418   9.048  70.770  1.00  0.00    -0.251 C  
HETATM    8  CA  UNL     1      -9.627   8.230  66.350  1.00  0.00    -0.230 C  
HETATM    9  N   UNL     1      -9.853   8.279  68.426  1.00  0.00    -0.167 N  
HETATM   10  O   UNL     1      -8.417   9.841  70.352  1.00  0.00    -0.188 OA 
HETATM   11  OXT UNL     1      -9.828   9.150  71.918  1.00  0.00    -0.289 OA 
HETATM   12  O   UNL     1      -8.102   9.692  67.856  1.00  0.00    -0.105 OA 
ENDROOT
BRANCH   4  13
HETATM   13  C   UNL     1     -10.849   6.559  71.680  1.00  0.00    -0.240 C  
BRANCH  13  14
HETATM   14  S   UNL     1      -9.709   5.220  72.182  1.00  0.00    -0.168 SA 
BRANCH  14  15
HETATM   15  C   UNL     1      -8.290   6.072  72.661  1.00  0.00    -0.118 A  
HETATM   16  N   UNL     1      -8.110   6.687  73.808  1.00  0.00    -0.102 NA 
HETATM   17  N   UNL     1      -6.887   7.300  73.727  1.00  0.00    -0.079 NA 
HETATM   18  N   UNL     1      -7.168   6.250  71.893  1.00  0.00    -0.086 NA 
HETATM   19  N   UNL     1      -6.310   7.052  72.560  1.00  0.00    -0.052 NA 
BRANCH  18  20
HETATM   20  C   UNL     1      -6.760   5.718  70.604  1.00  0.00    -0.052 C  
BRANCH  20  21
HETATM   21  C   UNL     1      -6.414   6.862  69.634  1.00  0.00    -0.044 C  
BRANCH  21  22
HETATM   22  N   UNL     1      -6.617   6.617  68.188  1.00  0.00    -0.056 NA 
HETATM   23  C   UNL     1      -6.647   5.162  67.953  1.00  0.00    -0.050 C  
HETATM   24  C   UNL     1      -5.561   7.192  67.346  1.00  0.00    -0.024 C  
ENDBRANCH  21  22
ENDBRANCH  20  21
ENDBRANCH  18  20
ENDBRANCH  14  15
ENDBRANCH  13  14
ENDBRANCH   4  13
BRANCH   8  25
HETATM   25  N   UNL     1      -8.705   7.275  65.663  1.00  0.00    -0.302 N  
HETATM   26  C   UNL     1      -8.008   7.621  64.525  1.00  0.00    -0.130 C  
HETATM   27  H   UNL     1      -8.588   6.338  66.049  1.00  0.00     0.000 HD 
HETATM   28  O   UNL     1      -8.004   8.766  64.074  1.00  0.00    -0.139 OA 
BRANCH  26  29
HETATM   29  C   UNL     1      -7.262   6.482  63.863  1.00  0.00    -0.063 C  
BRANCH  29  30
HETATM   30  C   UNL     1      -8.161   5.323  63.613  1.00  0.00    -0.126 A  
HETATM   31  N   UNL     1      -9.438   2.351  64.966  1.00  0.00    -0.307 NA 
HETATM   32  C   UNL     1      -8.933   5.104  62.488  1.00  0.00    -0.024 A  
HETATM   33  S   UNL     1      -9.824   3.653  62.661  1.00  0.00    -0.131 SA 
HETATM   34  H2  UNL     1     -10.107   1.668  64.612  1.00  0.00     0.000 HD 
HETATM   35  H1  UNL     1      -9.022   2.211  65.887  1.00  0.00     0.000 HD 
HETATM   36  N   UNL     1      -8.286   4.351  64.600  1.00  0.00    -0.106 NA 
HETATM   37  C   UNL     1      -9.124   3.418  64.209  1.00  0.00    -0.125 A  
ENDBRANCH  29  30
ENDBRANCH  26  29
ENDBRANCH   8  25
TORSDOF 9
ENDMDL
MODEL      229
REMARK 921   NORMALIZED FREE ENERGY PREDICTED BY IDOCK:   -3.87 KCAL/MOL
REMARK 922        TOTAL FREE ENERGY PREDICTED BY IDOCK:   -7.85 KCAL/MOL
REMARK 923 INTER-LIGAND FREE ENERGY PREDICTED BY IDOCK:   -6.33 KCAL/MOL
REMARK 924 INTRA-LIGAND FREE ENERGY PREDICTED BY IDOCK:   -1.52 KCAL/MOL
REMARK 927      BINDING AFFINITY PREDICTED BY RF-SCORE:    0.00 PKD
ROOT
HETATM    1  C   UNL     1     -11.519  11.308  67.654  1.00  0.00    -0.264 C  
HETATM    2  S   UNL     1     -10.022  11.550  66.673  1.00  0.00    -0.212 SA 
HETATM    3  C   UNL     1      -9.973   9.839  66.094  1.00  0.00    -0.268 C  
HETATM    4  C   UNL     1     -10.170   8.786  67.177  1.00  0.00    -0.346 C  
HETATM    5  C   UNL     1     -11.543  11.047  69.728  1.00  0.00    -0.325 C  
HETATM    6  CA  UNL     1     -10.750   9.039  68.388  1.00  0.00    -0.096 C  
HETATM    7  C   UNL     1     -10.844   7.942  69.431  1.00  0.00    -0.106 C  
HETATM    8  CA  UNL     1     -11.732  12.313  68.832  1.00  0.00    -0.328 C  
HETATM    9  N   UNL     1     -11.247  10.289  68.654  1.00  0.00    -0.234 N  
HETATM   10  O   UNL     1     -11.002   8.312  70.713  1.00  0.00    -0.234 OA 
HETATM   11  OXT UNL     1     -10.796   6.753  69.150  1.00  0.00    -0.238 OA 
HETATM   12  O   UNL     1     -11.491  10.777  70.910  1.00  0.00    -0.260 OA 
ENDROOT
BRANCH   4  13
HETATM   13  C   UNL     1      -9.495   7.467  66.781  1.00  0.00    -0.176 C  
BRANCH  13  14
HETATM   14  S   UNL     1      -7.707   7.653  66.445  1.00  0.00    -0.091 SA 
BRANCH  14  15
HETATM   15  C   UNL     1      -6.974   7.065  67.890  1.00  0.00    -0.083 A  
HETATM   16  N   UNL     1      -6.496   5.855  68.075  1.00  0.00    -0.041 NA 
HETATM   17  N   UNL     1      -6.095   5.797  69.383  1.00  0.00    -0.030 NA 
HETATM   18  N   UNL     1      -6.820   7.774  69.053  1.00  0.00    -0.056 NA 
HETATM   19  N   UNL     1      -6.299   6.955  69.993  1.00  0.00    -0.035 NA 
BRANCH  18  20
HETATM   20  C   UNL     1      -7.058   9.164  69.399  1.00  0.00    -0.053 C  
BRANCH  20  21
HETATM   21  C   UNL     1      -5.926  10.056  68.859  1.00  0.00    -0.034 C  
BRANCH  21  22
HETATM   22  N   UNL     1      -6.248  10.964  67.734  1.00  0.00    -0.050 NA 
HETATM   23  C   UNL     1      -5.139  10.929  66.764  1.00  0.00    -0.061 C  
HETATM   24  C   UNL     1      -6.446  12.358  68.150  1.00  0.00    -0.072 C  
ENDBRANCH  21  22
ENDBRANCH  20  21
ENDBRANCH  18  20
ENDBRANCH  14  15
ENDBRANCH  13  14
ENDBRANCH   4  13
BRANCH   8  25
HETATM   25  N   UNL     1     -10.697  13.376  69.006  1.00  0.00    -0.393 N  
HETATM   26  C   UNL     1     -10.970  14.567  69.644  1.00  0.00    -0.193 C  
HETATM   27  H   UNL     1      -9.758  13.215  68.641  1.00  0.00     0.000 HD 
HETATM   28  O   UNL     1     -12.039  14.781  70.215  1.00  0.00    -0.283 OA 
BRANCH  26  29
HETATM   29  C   UNL     1      -9.863  15.597  69.574  1.00  0.00    -0.289 C  
BRANCH  29  30
HETATM   30  C   UNL     1      -9.654  16.069  68.178  1.00  0.00    -0.209 A  
HETATM   31  N   UNL     1      -7.431  17.701  66.014  1.00  0.00    -0.465 NA 
HETATM   32  C   UNL     1     -10.519  15.904  67.113  1.00  0.00    -0.313 A  
HETATM   33  S   UNL     1      -9.844  16.588  65.698  1.00  0.00    -0.047 SA 
HETATM   34  H2  UNL     1      -7.477  17.918  65.018  1.00  0.00     0.000 HD 
HETATM   35  H1  UNL     1      -6.608  17.979  66.547  1.00  0.00     0.000 HD 
HETATM   36  N   UNL     1      -8.469  16.725  67.866  1.00  0.00    -0.197 NA 
HETATM   37  C   UNL     1      -8.458  17.055  66.595  1.00  0.00    -0.248 A  
ENDBRANCH  29  30
ENDBRANCH  26  29
ENDBRANCH   8  25
TORSDOF 9
ENDMDL
MODEL      230
REMARK 921   NORMALIZED FREE ENERGY PREDICTED BY IDOCK:   -3.84 KCAL/MOL
REMARK 922        TOTAL FREE ENERGY PREDICTED BY IDOCK:   -7.80 KCAL/MOL
REMARK 923 INTER-LIGAND FREE ENERGY PREDICTED BY IDOCK:   -8.33 KCAL/MOL
REMARK 924 INTRA-LIGAND FREE ENERGY PREDICTED BY IDOCK:    0.53 KCAL/MOL
REMARK 927      BINDING AFFINITY PREDICTED BY RF-SCORE:    0.00 PKD
ROOT
HETATM    1  C   UNL     1      -8.946  12.848  67.261  1.00  0.00    -0.208 C  
HETATM    2  S   UNL     1      -8.815  11.199  67.987  1.00  0.00    -0.147 SA 
HETATM    3  C   UNL     1      -8.306  10.419  66.439  1.00  0.00    -0.139 C  
HETATM    4  C   UNL     1      -9.143  10.795  65.222  1.00  0.00    -0.217 C  
HETATM    5  C   UNL     1     -10.745  13.753  66.702  1.00  0.00    -0.277 C  
HETATM    6  CA  UNL     1      -9.926  11.913  65.153  1.00  0.00    -0.247 C  
HETATM    7  C   UNL     1     -10.776  12.171  63.925  1.00  0.00    -0.407 C  
HETATM    8  CA  UNL     1      -9.889  13.848  68.005  1.00  0.00    -0.234 C  
HETATM    9  N   UNL     1      -9.937  12.799  66.199  1.00  0.00    -0.263 N  
HETATM   10  O   UNL     1     -11.828  12.997  64.055  1.00  0.00    -0.386 OA 
HETATM   11  OXT UNL     1     -10.536  11.673  62.833  1.00  0.00    -0.232 OA 
HETATM   12  O   UNL     1     -11.800  14.180  66.282  1.00  0.00    -0.377 OA 
ENDROOT
BRANCH   4  13
HETATM   13  C   UNL     1      -9.102   9.680  64.170  1.00  0.00    -0.209 C  
BRANCH  13  14
HETATM   14  S   UNL     1      -7.406   9.095  63.815  1.00  0.00    -0.103 SA 
BRANCH  14  15
HETATM   15  C   UNL     1      -7.610   7.396  63.619  1.00  0.00    -0.121 A  
HETATM   16  N   UNL     1      -7.292   6.699  62.551  1.00  0.00    -0.058 NA 
HETATM   17  N   UNL     1      -7.705   5.416  62.794  1.00  0.00    -0.069 NA 
HETATM   18  N   UNL     1      -8.163   6.546  64.542  1.00  0.00    -0.077 NA 
HETATM   19  N   UNL     1      -8.250   5.313  63.997  1.00  0.00    -0.128 NA 
BRANCH  18  20
HETATM   20  C   UNL     1      -8.592   6.728  65.918  1.00  0.00    -0.147 C  
BRANCH  20  21
HETATM   21  C   UNL     1      -9.463   5.544  66.373  1.00  0.00    -0.155 C  
BRANCH  21  22
HETATM   22  N   UNL     1      -8.810   4.482  67.171  1.00  0.00    -0.108 NA 
HETATM   23  C   UNL     1      -9.146   3.172  66.584  1.00  0.00    -0.162 C  
HETATM   24  C   UNL     1      -9.230   4.471  68.578  1.00  0.00    -0.133 C  
ENDBRANCH  21  22
ENDBRANCH  20  21
ENDBRANCH  18  20
ENDBRANCH  14  15
ENDBRANCH  13  14
ENDBRANCH   4  13
BRANCH   8  25
HETATM   25  N   UNL     1     -10.558  13.348  69.244  1.00  0.00    -0.444 N  
HETATM   26  C   UNL     1     -11.689  12.562  69.199  1.00  0.00    -0.321 C  
HETATM   27  H   UNL     1     -10.164  13.596  70.152  1.00  0.00     0.000 HD 
HETATM   28  O   UNL     1     -12.148  12.122  68.146  1.00  0.00    -0.447 OA 
BRANCH  26  29
HETATM   29  C   UNL     1     -12.334  12.295  70.543  1.00  0.00    -0.349 C  
BRANCH  29  30
HETATM   30  C   UNL     1     -12.822  13.555  71.165  1.00  0.00    -0.309 A  
HETATM   31  N   UNL     1     -11.873  16.726  72.323  1.00  0.00    -0.497 NA 
HETATM   32  C   UNL     1     -14.128  13.860  71.500  1.00  0.00    -0.099 A  
HETATM   33  S   UNL     1     -14.211  15.433  72.166  1.00  0.00    -0.520 SA 
HETATM   34  H2  UNL     1     -12.406  17.498  72.722  1.00  0.00     0.000 HD 
HETATM   35  H1  UNL     1     -10.866  16.824  72.205  1.00  0.00     0.000 HD 
HETATM   36  N   UNL     1     -11.905  14.567  71.430  1.00  0.00    -0.312 NA 
HETATM   37  C   UNL     1     -12.516  15.599  71.965  1.00  0.00    -0.426 A  
ENDBRANCH  29  30
ENDBRANCH  26  29
ENDBRANCH   8  25
TORSDOF 9
ENDMDL
MODEL      231
REMARK 921   NORMALIZED FREE ENERGY PREDICTED BY IDOCK:   -3.83 KCAL/MOL
REMARK 922        TOTAL FREE ENERGY PREDICTED BY IDOCK:   -7.79 KCAL/MOL
REMARK 923 INTER-LIGAND FREE ENERGY PREDICTED BY IDOCK:   -8.19 KCAL/MOL
REMARK 924 INTRA-LIGAND FREE ENERGY PREDICTED BY IDOCK:    0.40 KCAL/MOL
REMARK 927      BINDING AFFINITY PREDICTED BY RF-SCORE:    0.00 PKD
ROOT
HETATM    1  C   UNL     1     -11.139  14.685  67.972  1.00  0.00    -0.281 C  
HETATM    2  S   UNL     1     -11.358  14.706  66.178  1.00  0.00    -0.338 SA 
HETATM    3  C   UNL     1     -10.982  12.949  65.985  1.00  0.00    -0.276 C  
HETATM    4  C   UNL     1      -9.741  12.470  66.727  1.00  0.00    -0.234 C  
HETATM    5  C   UNL     1      -9.431  15.372  68.961  1.00  0.00    -0.236 C  
HETATM    6  CA  UNL     1      -9.179  13.137  67.779  1.00  0.00    -0.203 C  
HETATM    7  C   UNL     1      -7.903  12.618  68.415  1.00  0.00    -0.136 C  
HETATM    8  CA  UNL     1     -10.795  16.058  68.632  1.00  0.00    -0.301 C  
HETATM    9  N   UNL     1      -9.775  14.275  68.257  1.00  0.00    -0.215 N  
HETATM   10  O   UNL     1      -7.157  13.487  69.117  1.00  0.00    -0.098 OA 
HETATM   11  OXT UNL     1      -7.542  11.452  68.324  1.00  0.00    -0.099 OA 
HETATM   12  O   UNL     1      -8.373  15.667  69.475  1.00  0.00    -0.246 OA 
ENDROOT
BRANCH   4  13
HETATM   13  C   UNL     1      -9.136  11.241  66.037  1.00  0.00    -0.209 C  
BRANCH  13  14
HETATM   14  S   UNL     1     -10.066   9.703  66.375  1.00  0.00    -0.226 SA 
BRANCH  14  15
HETATM   15  C   UNL     1      -9.009   8.826  67.415  1.00  0.00    -0.133 A  
HETATM   16  N   UNL     1      -7.762   8.505  67.154  1.00  0.00    -0.096 NA 
HETATM   17  N   UNL     1      -7.334   7.740  68.206  1.00  0.00    -0.099 NA 
HETATM   18  N   UNL     1      -9.340   8.314  68.643  1.00  0.00    -0.143 NA 
HETATM   19  N   UNL     1      -8.291   7.605  69.113  1.00  0.00    -0.130 NA 
BRANCH  18  20
HETATM   20  C   UNL     1     -10.522   8.442  69.478  1.00  0.00    -0.224 C  
BRANCH  20  21
HETATM   21  C   UNL     1     -10.635   9.871  70.037  1.00  0.00    -0.288 C  
BRANCH  21  22
HETATM   22  N   UNL     1     -11.994  10.438  70.194  1.00  0.00    -0.280 NA 
HETATM   23  C   UNL     1     -11.945  11.880  69.887  1.00  0.00    -0.325 C  
HETATM   24  C   UNL     1     -12.538  10.280  71.548  1.00  0.00    -0.440 C  
ENDBRANCH  21  22
ENDBRANCH  20  21
ENDBRANCH  18  20
ENDBRANCH  14  15
ENDBRANCH  13  14
ENDBRANCH   4  13
BRANCH   8  25
HETATM   25  N   UNL     1     -10.709  17.241  67.723  1.00  0.00    -0.361 N  
HETATM   26  C   UNL     1      -9.558  17.552  67.032  1.00  0.00    -0.268 C  
HETATM   27  H   UNL     1     -11.530  17.837  67.610  1.00  0.00     0.000 HD 
HETATM   28  O   UNL     1      -8.573  16.814  67.022  1.00  0.00    -0.192 OA 
BRANCH  26  29
HETATM   29  C   UNL     1      -9.591  18.877  66.299  1.00  0.00    -0.344 C  
BRANCH  29  30
HETATM   30  C   UNL     1      -8.319  19.625  66.485  1.00  0.00    -0.332 A  
HETATM   31  N   UNL     1      -5.338  20.625  64.934  1.00  0.00    -0.176 NA 
HETATM   32  C   UNL     1      -7.920  20.309  67.618  1.00  0.00    -0.276 A  
HETATM   33  S   UNL     1      -6.395  21.037  67.357  1.00  0.00    -0.375 SA 
HETATM   34  H2  UNL     1      -4.554  21.193  65.255  1.00  0.00     0.000 HD 
HETATM   35  H1  UNL     1      -5.322  20.243  63.989  1.00  0.00     0.000 HD 
HETATM   36  N   UNL     1      -7.422  19.690  65.424  1.00  0.00    -0.391 NA 
HETATM   37  C   UNL     1      -6.369  20.395  65.767  1.00  0.00    -0.224 A  
ENDBRANCH  29  30
ENDBRANCH  26  29
ENDBRANCH   8  25
TORSDOF 9
ENDMDL
MODEL      232
REMARK 921   NORMALIZED FREE ENERGY PREDICTED BY IDOCK:   -3.83 KCAL/MOL
REMARK 922        TOTAL FREE ENERGY PREDICTED BY IDOCK:   -7.78 KCAL/MOL
REMARK 923 INTER-LIGAND FREE ENERGY PREDICTED BY IDOCK:   -5.79 KCAL/MOL
REMARK 924 INTRA-LIGAND FREE ENERGY PREDICTED BY IDOCK:   -1.99 KCAL/MOL
REMARK 927      BINDING AFFINITY PREDICTED BY RF-SCORE:    0.00 PKD
ROOT
HETATM    1  C   UNL     1     -10.773   7.906  71.583  1.00  0.00    -0.223 C  
HETATM    2  S   UNL     1     -11.380   6.767  70.318  1.00  0.00    -0.359 SA 
HETATM    3  C   UNL     1     -11.005   5.290  71.288  1.00  0.00     0.011 C  
HETATM    4  C   UNL     1      -9.619   5.267  71.918  1.00  0.00    -0.191 C  
HETATM    5  C   UNL     1      -8.910   8.852  71.524  1.00  0.00    -0.183 C  
HETATM    6  CA  UNL     1      -8.859   6.384  72.127  1.00  0.00    -0.136 C  
HETATM    7  C   UNL     1      -7.461   6.256  72.700  1.00  0.00    -0.099 C  
HETATM    8  CA  UNL     1     -10.331   9.316  71.074  1.00  0.00    -0.318 C  
HETATM    9  N   UNL     1      -9.368   7.618  71.816  1.00  0.00    -0.143 N  
HETATM   10  O   UNL     1      -6.604   7.269  72.488  1.00  0.00    -0.055 OA 
HETATM   11  OXT UNL     1      -7.095   5.287  73.350  1.00  0.00    -0.081 OA 
HETATM   12  O   UNL     1      -7.773   9.275  71.504  1.00  0.00    -0.340 OA 
ENDROOT
BRANCH   4  13
HETATM   13  C   UNL     1      -9.145   3.825  72.136  1.00  0.00    -0.115 C  
BRANCH  13  14
HETATM   14  S   UNL     1      -9.366   2.771  70.657  1.00  0.00    -0.142 SA 
BRANCH  14  15
HETATM   15  C   UNL     1      -7.991   3.156  69.692  1.00  0.00    -0.048 A  
HETATM   16  N   UNL     1      -6.789   3.441  70.140  1.00  0.00    -0.033 NA 
HETATM   17  N   UNL     1      -6.038   3.769  69.043  1.00  0.00    -0.027 NA 
HETATM   18  N   UNL     1      -7.976   3.249  68.324  1.00  0.00    -0.062 NA 
HETATM   19  N   UNL     1      -6.754   3.670  67.932  1.00  0.00    -0.045 NA 
BRANCH  18  20
HETATM   20  C   UNL     1      -8.965   2.946  67.304  1.00  0.00    -0.161 C  
BRANCH  20  21
HETATM   21  C   UNL     1      -9.778   4.204  66.950  1.00  0.00    -0.205 C  
BRANCH  21  22
HETATM   22  N   UNL     1      -9.606   4.768  65.592  1.00  0.00    -0.169 NA 
HETATM   23  C   UNL     1      -9.301   3.670  64.656  1.00  0.00    -0.151 C  
HETATM   24  C   UNL     1      -8.523   5.754  65.504  1.00  0.00    -0.150 C  
ENDBRANCH  21  22
ENDBRANCH  20  21
ENDBRANCH  18  20
ENDBRANCH  14  15
ENDBRANCH  13  14
ENDBRANCH   4  13
BRANCH   8  25
HETATM   25  N   UNL     1     -10.481   9.583  69.612  1.00  0.00    -0.211 N  
HETATM   26  C   UNL     1     -11.147  10.691  69.134  1.00  0.00    -0.255 C  
HETATM   27  H   UNL     1     -10.077   8.924  68.946  1.00  0.00     0.000 HD 
HETATM   28  O   UNL     1     -11.553  11.588  69.872  1.00  0.00    -0.297 OA 
BRANCH  26  29
HETATM   29  C   UNL     1     -11.359  10.711  67.635  1.00  0.00    -0.284 C  
BRANCH  29  30
HETATM   30  C   UNL     1     -10.078  10.498  66.908  1.00  0.00    -0.216 A  
HETATM   31  N   UNL     1      -6.803  11.675  66.482  1.00  0.00    -0.365 NA 
HETATM   32  C   UNL     1      -9.800   9.494  66.000  1.00  0.00    -0.283 A  
HETATM   33  S   UNL     1      -8.189   9.636  65.443  1.00  0.00    -0.135 SA 
HETATM   34  H2  UNL     1      -6.025  11.348  65.909  1.00  0.00     0.000 HD 
HETATM   35  H1  UNL     1      -6.676  12.496  67.074  1.00  0.00     0.000 HD 
HETATM   36  N   UNL     1      -9.017  11.362  67.159  1.00  0.00    -0.159 NA 
HETATM   37  C   UNL     1      -7.975  11.015  66.440  1.00  0.00    -0.161 A  
ENDBRANCH  29  30
ENDBRANCH  26  29
ENDBRANCH   8  25
TORSDOF 9
ENDMDL
MODEL      233
REMARK 921   NORMALIZED FREE ENERGY PREDICTED BY IDOCK:   -3.81 KCAL/MOL
REMARK 922        TOTAL FREE ENERGY PREDICTED BY IDOCK:   -7.76 KCAL/MOL
REMARK 923 INTER-LIGAND FREE ENERGY PREDICTED BY IDOCK:   -6.97 KCAL/MOL
REMARK 924 INTRA-LIGAND FREE ENERGY PREDICTED BY IDOCK:   -0.80 KCAL/MOL
REMARK 927      BINDING AFFINITY PREDICTED BY RF-SCORE:    0.00 PKD
ROOT
HETATM    1  C   UNL     1      -6.415   9.777  68.616  1.00  0.00    -0.047 C  
HETATM    2  S   UNL     1      -7.960  10.089  67.732  1.00  0.00    -0.105 SA 
HETATM    3  C   UNL     1      -7.476  11.751  67.214  1.00  0.00    -0.151 C  
HETATM    4  C   UNL     1      -6.886  12.623  68.315  1.00  0.00    -0.084 C  
HETATM    5  C   UNL     1      -6.194   9.905  70.691  1.00  0.00    -0.102 C  
HETATM    6  CA  UNL     1      -6.356  12.130  69.475  1.00  0.00    -0.122 C  
HETATM    7  C   UNL     1      -5.851  13.079  70.544  1.00  0.00    -0.144 C  
HETATM    8  CA  UNL     1      -6.480   8.697  69.743  1.00  0.00    -0.038 C  
HETATM    9  N   UNL     1      -6.283  10.774  69.664  1.00  0.00    -0.066 N  
HETATM   10  O   UNL     1      -5.754  12.611  71.800  1.00  0.00    -0.341 OA 
HETATM   11  OXT UNL     1      -5.521  14.233  70.306  1.00  0.00    -0.099 OA 
HETATM   12  O   UNL     1      -6.091  10.114  71.881  1.00  0.00    -0.279 OA 
ENDROOT
BRANCH   4  13
HETATM   13  C   UNL     1      -7.110  14.109  68.010  1.00  0.00    -0.144 C  
BRANCH  13  14
HETATM   14  S   UNL     1      -8.419  14.860  69.044  1.00  0.00    -0.151 SA 
BRANCH  14  15
HETATM   15  C   UNL     1      -9.864  14.477  68.186  1.00  0.00    -0.223 A  
HETATM   16  N   UNL     1     -10.227  13.281  67.782  1.00  0.00    -0.224 NA 
HETATM   17  N   UNL     1     -11.385  13.451  67.070  1.00  0.00    -0.305 NA 
HETATM   18  N   UNL     1     -10.814  15.378  67.780  1.00  0.00    -0.294 NA 
HETATM   19  N   UNL     1     -11.745  14.726  67.050  1.00  0.00    -0.351 NA 
BRANCH  18  20
HETATM   20  C   UNL     1     -10.997  16.798  68.029  1.00  0.00    -0.296 C  
BRANCH  20  21
HETATM   21  C   UNL     1     -10.227  17.632  66.989  1.00  0.00    -0.332 C  
BRANCH  21  22
HETATM   22  N   UNL     1      -9.448  18.790  67.483  1.00  0.00    -0.295 NA 
HETATM   23  C   UNL     1      -9.847  19.072  68.874  1.00  0.00    -0.404 C  
HETATM   24  C   UNL     1      -9.657  20.010  66.694  1.00  0.00    -0.425 C  
ENDBRANCH  21  22
ENDBRANCH  20  21
ENDBRANCH  18  20
ENDBRANCH  14  15
ENDBRANCH  13  14
ENDBRANCH   4  13
BRANCH   8  25
HETATM   25  N   UNL     1      -7.796   8.020  69.952  1.00  0.00    -0.100 N  
HETATM   26  C   UNL     1      -7.947   6.967  70.827  1.00  0.00    -0.106 C  
HETATM   27  H   UNL     1      -8.609   8.350  69.431  1.00  0.00     0.000 HD 
HETATM   28  O   UNL     1      -7.045   6.596  71.578  1.00  0.00    -0.076 OA 
BRANCH  26  29
HETATM   29  C   UNL     1      -9.300   6.288  70.783  1.00  0.00    -0.168 C  
BRANCH  29  30
HETATM   30  C   UNL     1      -9.473   5.515  69.524  1.00  0.00    -0.141 A  
HETATM   31  N   UNL     1     -10.841   5.577  66.296  1.00  0.00    -0.701 NA 
HETATM   32  C   UNL     1      -8.975   4.255  69.254  1.00  0.00    -0.102 A  
HETATM   33  S   UNL     1      -9.406   3.782  67.667  1.00  0.00    -0.191 SA 
HETATM   34  H2  UNL     1     -10.826   4.902  65.532  1.00  0.00     0.000 HD 
HETATM   35  H1  UNL     1     -11.326   6.464  66.169  1.00  0.00     0.000 HD 
HETATM   36  N   UNL     1     -10.181   6.095  68.477  1.00  0.00    -0.167 NA 
HETATM   37  C   UNL     1     -10.221   5.275  67.452  1.00  0.00    -0.191 A  
ENDBRANCH  29  30
ENDBRANCH  26  29
ENDBRANCH   8  25
TORSDOF 9
ENDMDL
MODEL      234
REMARK 921   NORMALIZED FREE ENERGY PREDICTED BY IDOCK:   -3.81 KCAL/MOL
REMARK 922        TOTAL FREE ENERGY PREDICTED BY IDOCK:   -7.76 KCAL/MOL
REMARK 923 INTER-LIGAND FREE ENERGY PREDICTED BY IDOCK:   -5.80 KCAL/MOL
REMARK 924 INTRA-LIGAND FREE ENERGY PREDICTED BY IDOCK:   -1.95 KCAL/MOL
REMARK 927      BINDING AFFINITY PREDICTED BY RF-SCORE:    0.00 PKD
ROOT
HETATM    1  C   UNL     1      -5.808  10.488  68.835  1.00  0.00    -0.040 C  
HETATM    2  S   UNL     1      -7.464  10.118  69.456  1.00  0.00    -0.149 SA 
HETATM    3  C   UNL     1      -7.379   8.370  69.009  1.00  0.00    -0.088 C  
HETATM    4  C   UNL     1      -6.870   8.089  67.601  1.00  0.00    -0.070 C  
HETATM    5  C   UNL     1      -5.412  11.410  67.001  1.00  0.00    -0.098 C  
HETATM    6  CA  UNL     1      -6.139   8.978  66.864  1.00  0.00    -0.058 C  
HETATM    7  C   UNL     1      -5.732   8.636  65.444  1.00  0.00    -0.047 C  
HETATM    8  CA  UNL     1      -5.542  11.979  68.450  1.00  0.00    -0.053 C  
HETATM    9  N   UNL     1      -5.776  10.180  67.416  1.00  0.00    -0.042 N  
HETATM   10  O   UNL     1      -5.418   9.652  64.622  1.00  0.00    -0.057 OA 
HETATM   11  OXT UNL     1      -5.666   7.487  65.030  1.00  0.00    -0.036 OA 
HETATM   12  O   UNL     1      -5.235  11.831  65.878  1.00  0.00    -0.245 OA 
ENDROOT
BRANCH   4  13
HETATM   13  C   UNL     1      -7.418   6.754  67.081  1.00  0.00    -0.091 C  
BRANCH  13  14
HETATM   14  S   UNL     1      -9.237   6.760  66.882  1.00  0.00    -0.149 SA 
BRANCH  14  15
HETATM   15  C   UNL     1      -9.551   8.305  66.189  1.00  0.00    -0.147 A  
HETATM   16  N   UNL     1      -9.257   8.675  64.963  1.00  0.00     0.070 NA 
HETATM   17  N   UNL     1      -9.597   9.998  64.869  1.00  0.00    -0.294 NA 
HETATM   18  N   UNL     1     -10.122   9.370  66.837  1.00  0.00    -0.228 NA 
HETATM   19  N   UNL     1     -10.112  10.437  66.008  1.00  0.00    -0.240 NA 
BRANCH  18  20
HETATM   20  C   UNL     1     -10.733   9.515  68.147  1.00  0.00    -0.197 C  
BRANCH  20  21
HETATM   21  C   UNL     1     -11.157  10.975  68.386  1.00  0.00    -0.251 C  
BRANCH  21  22
HETATM   22  N   UNL     1     -12.144  11.234  69.459  1.00  0.00    -0.328 NA 
HETATM   23  C   UNL     1     -11.841  12.537  70.078  1.00  0.00    -0.289 C  
HETATM   24  C   UNL     1     -12.135  10.215  70.515  1.00  0.00    -0.291 C  
ENDBRANCH  21  22
ENDBRANCH  20  21
ENDBRANCH  18  20
ENDBRANCH  14  15
ENDBRANCH  13  14
ENDBRANCH   4  13
BRANCH   8  25
HETATM   25  N   UNL     1      -6.667  12.940  68.658  1.00  0.00    -0.089 N  
HETATM   26  C   UNL     1      -6.501  14.302  68.523  1.00  0.00    -0.095 C  
HETATM   27  H   UNL     1      -7.587  12.576  68.908  1.00  0.00     0.000 HD 
HETATM   28  O   UNL     1      -5.458  14.803  68.106  1.00  0.00    -0.107 OA 
BRANCH  26  29
HETATM   29  C   UNL     1      -7.694  15.134  68.942  1.00  0.00    -0.159 C  
BRANCH  29  30
HETATM   30  C   UNL     1      -8.748  15.131  67.892  1.00  0.00    -0.157 A  
HETATM   31  N   UNL     1     -12.109  14.393  67.218  1.00  0.00    -0.573 NA 
HETATM   32  C   UNL     1      -8.615  15.560  66.586  1.00  0.00    -0.290 A  
HETATM   33  S   UNL     1     -10.101  15.390  65.757  1.00  0.00    -0.388 SA 
HETATM   34  H2  UNL     1     -12.678  14.491  66.377  1.00  0.00     0.000 HD 
HETATM   35  H1  UNL     1     -12.533  14.018  68.066  1.00  0.00     0.000 HD 
HETATM   36  N   UNL     1     -10.021  14.681  68.227  1.00  0.00    -0.216 NA 
HETATM   37  C   UNL     1     -10.815  14.760  67.184  1.00  0.00    -0.311 A  
ENDBRANCH  29  30
ENDBRANCH  26  29
ENDBRANCH   8  25
TORSDOF 9
ENDMDL
MODEL      235
REMARK 921   NORMALIZED FREE ENERGY PREDICTED BY IDOCK:   -3.80 KCAL/MOL
REMARK 922        TOTAL FREE ENERGY PREDICTED BY IDOCK:   -7.75 KCAL/MOL
REMARK 923 INTER-LIGAND FREE ENERGY PREDICTED BY IDOCK:   -5.32 KCAL/MOL
REMARK 924 INTRA-LIGAND FREE ENERGY PREDICTED BY IDOCK:   -2.43 KCAL/MOL
REMARK 927      BINDING AFFINITY PREDICTED BY RF-SCORE:    0.00 PKD
ROOT
HETATM    1  C   UNL     1     -10.634   7.392  67.557  1.00  0.00    -0.269 C  
HETATM    2  S   UNL     1     -10.174   6.129  68.764  1.00  0.00    -0.206 SA 
HETATM    3  C   UNL     1     -11.274   6.771  70.044  1.00  0.00    -0.328 C  
HETATM    4  C   UNL     1     -11.204   8.278  70.258  1.00  0.00    -0.176 C  
HETATM    5  C   UNL     1      -9.479   9.077  67.112  1.00  0.00    -0.152 C  
HETATM    6  CA  UNL     1     -10.709   9.156  69.335  1.00  0.00    -0.198 C  
HETATM    7  C   UNL     1     -10.617  10.633  69.662  1.00  0.00    -0.217 C  
HETATM    8  CA  UNL     1      -9.585   7.675  66.433  1.00  0.00    -0.153 C  
HETATM    9  N   UNL     1     -10.299   8.693  68.111  1.00  0.00    -0.219 N  
HETATM   10  O   UNL     1      -9.756  11.379  68.950  1.00  0.00    -0.179 OA 
HETATM   11  OXT UNL     1     -11.298  11.166  70.528  1.00  0.00    -0.205 OA 
HETATM   12  O   UNL     1      -8.835  10.097  66.984  1.00  0.00    -0.135 OA 
ENDROOT
BRANCH   4  13
HETATM   13  C   UNL     1     -11.613   8.643  71.690  1.00  0.00    -0.310 C  
BRANCH  13  14
HETATM   14  S   UNL     1     -11.061   7.412  72.926  1.00  0.00    -0.334 SA 
BRANCH  14  15
HETATM   15  C   UNL     1      -9.350   7.615  72.944  1.00  0.00    -0.198 A  
HETATM   16  N   UNL     1      -8.692   8.657  72.490  1.00  0.00    -0.405 NA 
HETATM   17  N   UNL     1      -7.362   8.359  72.621  1.00  0.00    -0.227 NA 
HETATM   18  N   UNL     1      -8.442   6.698  73.408  1.00  0.00    -0.118 NA 
HETATM   19  N   UNL     1      -7.197   7.163  73.166  1.00  0.00    -0.072 NA 
BRANCH  18  20
HETATM   20  C   UNL     1      -8.587   5.433  74.107  1.00  0.00    -0.114 C  
BRANCH  20  21
HETATM   21  C   UNL     1      -8.623   4.265  73.105  1.00  0.00    -0.093 C  
BRANCH  21  22
HETATM   22  N   UNL     1      -9.398   3.062  73.485  1.00  0.00    -0.084 NA 
HETATM   23  C   UNL     1      -8.907   1.913  72.701  1.00  0.00    -0.062 C  
HETATM   24  C   UNL     1     -10.839   3.197  73.240  1.00  0.00    -0.180 C  
ENDBRANCH  21  22
ENDBRANCH  20  21
ENDBRANCH  18  20
ENDBRANCH  14  15
ENDBRANCH  13  14
ENDBRANCH   4  13
BRANCH   8  25
HETATM   25  N   UNL     1      -8.333   6.859  66.459  1.00  0.00    -0.116 N  
HETATM   26  C   UNL     1      -8.236   5.647  65.810  1.00  0.00    -0.122 C  
HETATM   27  H   UNL     1      -7.525   7.211  66.972  1.00  0.00     0.000 HD 
HETATM   28  O   UNL     1      -9.123   5.218  65.073  1.00  0.00    -0.126 OA 
BRANCH  26  29
HETATM   29  C   UNL     1      -6.963   4.875  66.088  1.00  0.00    -0.070 C  
BRANCH  29  30
HETATM   30  C   UNL     1      -6.797   4.617  67.543  1.00  0.00    -0.059 A  
HETATM   31  N   UNL     1      -6.096   6.091  70.646  1.00  0.00    -0.029 NA 
HETATM   32  C   UNL     1      -6.946   3.405  68.190  1.00  0.00    -0.050 A  
HETATM   33  S   UNL     1      -6.682   3.599  69.869  1.00  0.00    -0.034 SA 
HETATM   34  H2  UNL     1      -6.049   5.711  71.592  1.00  0.00     0.000 HD 
HETATM   35  H1  UNL     1      -5.921   7.085  70.499  1.00  0.00     0.000 HD 
HETATM   36  N   UNL     1      -6.485   5.684  68.378  1.00  0.00    -0.044 NA 
HETATM   37  C   UNL     1      -6.388   5.270  69.621  1.00  0.00    -0.030 A  
ENDBRANCH  29  30
ENDBRANCH  26  29
ENDBRANCH   8  25
TORSDOF 9
ENDMDL
MODEL      236
REMARK 921   NORMALIZED FREE ENERGY PREDICTED BY IDOCK:   -3.80 KCAL/MOL
REMARK 922        TOTAL FREE ENERGY PREDICTED BY IDOCK:   -7.74 KCAL/MOL
REMARK 923 INTER-LIGAND FREE ENERGY PREDICTED BY IDOCK:   -6.51 KCAL/MOL
REMARK 924 INTRA-LIGAND FREE ENERGY PREDICTED BY IDOCK:   -1.23 KCAL/MOL
REMARK 927      BINDING AFFINITY PREDICTED BY RF-SCORE:    0.00 PKD
ROOT
HETATM    1  C   UNL     1     -10.868   9.221  69.433  1.00  0.00    -0.169 C  
HETATM    2  S   UNL     1      -9.299  10.014  69.014  1.00  0.00    -0.191 SA 
HETATM    3  C   UNL     1      -8.377   8.460  68.985  1.00  0.00    -0.119 C  
HETATM    4  C   UNL     1      -8.623   7.542  70.176  1.00  0.00    -0.141 C  
HETATM    5  C   UNL     1     -11.696   9.181  71.351  1.00  0.00    -0.343 C  
HETATM    6  CA  UNL     1      -9.721   7.624  70.985  1.00  0.00    -0.163 C  
HETATM    7  C   UNL     1      -9.850   6.709  72.188  1.00  0.00    -0.156 C  
HETATM    8  CA  UNL     1     -11.926  10.132  70.134  1.00  0.00    -0.185 C  
HETATM    9  N   UNL     1     -10.705   8.536  70.703  1.00  0.00    -0.214 N  
HETATM   10  O   UNL     1     -10.674   7.090  73.178  1.00  0.00    -0.274 OA 
HETATM   11  OXT UNL     1      -9.250   5.647  72.281  1.00  0.00    -0.145 OA 
HETATM   12  O   UNL     1     -12.069   9.079  72.501  1.00  0.00    -0.284 OA 
ENDROOT
BRANCH   4  13
HETATM   13  C   UNL     1      -7.411   6.635  70.422  1.00  0.00    -0.090 C  
BRANCH  13  14
HETATM   14  S   UNL     1      -7.551   5.014  69.586  1.00  0.00    -0.057 SA 
BRANCH  14  15
HETATM   15  C   UNL     1      -6.843   5.307  68.042  1.00  0.00    -0.060 A  
HETATM   16  N   UNL     1      -5.832   6.109  67.798  1.00  0.00    -0.015 NA 
HETATM   17  N   UNL     1      -5.661   6.107  66.439  1.00  0.00    -0.016 NA 
HETATM   18  N   UNL     1      -7.263   4.765  66.856  1.00  0.00    -0.075 NA 
HETATM   19  N   UNL     1      -6.536   5.303  65.852  1.00  0.00    -0.039 NA 
BRANCH  18  20
HETATM   20  C   UNL     1      -8.250   3.749  66.529  1.00  0.00    -0.100 C  
BRANCH  20  21
HETATM   21  C   UNL     1      -8.429   3.642  65.004  1.00  0.00    -0.104 C  
BRANCH  21  22
HETATM   22  N   UNL     1      -9.589   4.339  64.402  1.00  0.00    -0.155 NA 
HETATM   23  C   UNL     1     -10.497   4.769  65.482  1.00  0.00    -0.134 C  
HETATM   24  C   UNL     1     -10.353   3.499  63.472  1.00  0.00    -0.231 C  
ENDBRANCH  21  22
ENDBRANCH  20  21
ENDBRANCH  18  20
ENDBRANCH  14  15
ENDBRANCH  13  14
ENDBRANCH   4  13
BRANCH   8  25
HETATM   25  N   UNL     1     -11.542  11.559  70.361  1.00  0.00    -0.503 N  
HETATM   26  C   UNL     1     -12.398  12.461  70.955  1.00  0.00    -0.210 C  
HETATM   27  H   UNL     1     -10.618  11.874  70.065  1.00  0.00     0.000 HD 
HETATM   28  O   UNL     1     -13.475  12.127  71.446  1.00  0.00    -0.051 OA 
BRANCH  26  29
HETATM   29  C   UNL     1     -11.918  13.898  70.944  1.00  0.00    -0.310 C  
BRANCH  29  30
HETATM   30  C   UNL     1     -11.659  14.367  69.556  1.00  0.00    -0.304 A  
HETATM   31  N   UNL     1     -12.276  13.736  66.162  1.00  0.00    -0.448 NA 
HETATM   32  C   UNL     1     -10.936  15.484  69.183  1.00  0.00    -0.259 A  
HETATM   33  S   UNL     1     -10.929  15.637  67.479  1.00  0.00    -0.280 SA 
HETATM   34  H2  UNL     1     -12.002  14.229  65.312  1.00  0.00     0.000 HD 
HETATM   35  H1  UNL     1     -12.841  12.891  66.089  1.00  0.00     0.000 HD 
HETATM   36  N   UNL     1     -12.206  13.651  68.497  1.00  0.00    -0.270 NA 
HETATM   37  C   UNL     1     -11.882  14.216  67.356  1.00  0.00    -0.413 A  
ENDBRANCH  29  30
ENDBRANCH  26  29
ENDBRANCH   8  25
TORSDOF 9
ENDMDL
MODEL      237
REMARK 921   NORMALIZED FREE ENERGY PREDICTED BY IDOCK:   -3.79 KCAL/MOL
REMARK 922        TOTAL FREE ENERGY PREDICTED BY IDOCK:   -7.72 KCAL/MOL
REMARK 923 INTER-LIGAND FREE ENERGY PREDICTED BY IDOCK:   -6.76 KCAL/MOL
REMARK 924 INTRA-LIGAND FREE ENERGY PREDICTED BY IDOCK:   -0.96 KCAL/MOL
REMARK 927      BINDING AFFINITY PREDICTED BY RF-SCORE:    0.00 PKD
ROOT
HETATM    1  C   UNL     1      -9.220  10.184  66.840  1.00  0.00    -0.146 C  
HETATM    2  S   UNL     1     -10.284  10.132  68.300  1.00  0.00    -0.175 SA 
HETATM    3  C   UNL     1     -10.549  11.918  68.326  1.00  0.00    -0.213 C  
HETATM    4  C   UNL     1      -9.289  12.761  68.169  1.00  0.00    -0.214 C  
HETATM    5  C   UNL     1      -7.134  10.071  66.894  1.00  0.00    -0.090 C  
HETATM    6  CA  UNL     1      -8.122  12.291  67.635  1.00  0.00    -0.165 C  
HETATM    7  C   UNL     1      -6.897  13.184  67.580  1.00  0.00    -0.158 C  
HETATM    8  CA  UNL     1      -8.233   8.984  66.672  1.00  0.00    -0.118 C  
HETATM    9  N   UNL     1      -8.066  11.010  67.149  1.00  0.00    -0.129 N  
HETATM   10  O   UNL     1      -5.697  12.591  67.471  1.00  0.00    -0.118 OA 
HETATM   11  OXT UNL     1      -6.963  14.405  67.617  1.00  0.00    -0.165 OA 
HETATM   12  O   UNL     1      -5.926  10.126  66.990  1.00  0.00    -0.050 OA 
ENDROOT
BRANCH   4  13
HETATM   13  C   UNL     1      -9.468  14.134  68.828  1.00  0.00    -0.102 C  
BRANCH  13  14
HETATM   14  S   UNL     1     -11.115  14.865  68.517  1.00  0.00    -0.280 SA 
BRANCH  14  15
HETATM   15  C   UNL     1     -10.967  15.502  66.922  1.00  0.00    -0.268 A  
HETATM   16  N   UNL     1     -11.201  14.848  65.807  1.00  0.00    -0.338 NA 
HETATM   17  N   UNL     1     -10.873  15.702  64.786  1.00  0.00    -0.456 NA 
HETATM   18  N   UNL     1     -10.553  16.769  66.604  1.00  0.00    -0.250 NA 
HETATM   19  N   UNL     1     -10.464  16.870  65.259  1.00  0.00    -0.662 NA 
BRANCH  18  20
HETATM   20  C   UNL     1     -10.265  17.944  67.408  1.00  0.00    -0.360 C  
BRANCH  20  21
HETATM   21  C   UNL     1      -8.855  17.848  68.017  1.00  0.00    -0.268 C  
BRANCH  21  22
HETATM   22  N   UNL     1      -7.853  18.849  67.584  1.00  0.00    -0.241 NA 
HETATM   23  C   UNL     1      -7.306  19.519  68.778  1.00  0.00    -0.358 C  
HETATM   24  C   UNL     1      -8.407  19.880  66.698  1.00  0.00    -0.330 C  
ENDBRANCH  21  22
ENDBRANCH  20  21
ENDBRANCH  18  20
ENDBRANCH  14  15
ENDBRANCH  13  14
ENDBRANCH   4  13
BRANCH   8  25
HETATM   25  N   UNL     1      -8.290   7.914  67.713  1.00  0.00    -0.128 N  
HETATM   26  C   UNL     1      -8.884   6.693  67.477  1.00  0.00    -0.116 C  
HETATM   27  H   UNL     1      -7.877   8.094  68.629  1.00  0.00     0.000 HD 
HETATM   28  O   UNL     1      -9.293   6.360  66.365  1.00  0.00    -0.159 OA 
BRANCH  26  29
HETATM   29  C   UNL     1      -9.010   5.798  68.692  1.00  0.00    -0.112 C  
BRANCH  29  30
HETATM   30  C   UNL     1      -8.812   4.369  68.331  1.00  0.00    -0.105 A  
HETATM   31  N   UNL     1      -6.909   2.144  66.402  1.00  0.00    -0.042 NA 
HETATM   32  C   UNL     1      -9.512   3.286  68.829  1.00  0.00    -0.127 A  
HETATM   33  S   UNL     1      -8.919   1.837  68.141  1.00  0.00    -0.155 SA 
HETATM   34  H2  UNL     1      -6.924   1.129  66.310  1.00  0.00     0.000 HD 
HETATM   35  H1  UNL     1      -6.232   2.683  65.862  1.00  0.00     0.000 HD 
HETATM   36  N   UNL     1      -7.813   4.043  67.420  1.00  0.00    -0.090 NA 
HETATM   37  C   UNL     1      -7.781   2.744  67.233  1.00  0.00    -0.069 A  
ENDBRANCH  29  30
ENDBRANCH  26  29
ENDBRANCH   8  25
TORSDOF 9
ENDMDL
MODEL      238
REMARK 921   NORMALIZED FREE ENERGY PREDICTED BY IDOCK:   -3.76 KCAL/MOL
REMARK 922        TOTAL FREE ENERGY PREDICTED BY IDOCK:   -7.67 KCAL/MOL
REMARK 923 INTER-LIGAND FREE ENERGY PREDICTED BY IDOCK:   -5.90 KCAL/MOL
REMARK 924 INTRA-LIGAND FREE ENERGY PREDICTED BY IDOCK:   -1.77 KCAL/MOL
REMARK 927      BINDING AFFINITY PREDICTED BY RF-SCORE:    0.00 PKD
ROOT
HETATM    1  C   UNL     1      -9.572   9.712  65.514  1.00  0.00    -0.283 C  
HETATM    2  S   UNL     1     -10.248   8.351  66.490  1.00  0.00    -0.087 SA 
HETATM    3  C   UNL     1     -10.510   9.368  67.960  1.00  0.00    -0.228 C  
HETATM    4  C   UNL     1      -9.330  10.249  68.353  1.00  0.00    -0.143 C  
HETATM    5  C   UNL     1      -7.534  10.010  65.155  1.00  0.00    -0.139 C  
HETATM    6  CA  UNL     1      -8.325  10.601  67.497  1.00  0.00    -0.115 C  
HETATM    7  C   UNL     1      -7.156  11.428  67.996  1.00  0.00    -0.074 C  
HETATM    8  CA  UNL     1      -8.649   9.302  64.321  1.00  0.00    -0.193 C  
HETATM    9  N   UNL     1      -8.382  10.205  66.185  1.00  0.00    -0.127 N  
HETATM   10  O   UNL     1      -6.014  11.385  67.288  1.00  0.00    -0.060 OA 
HETATM   11  OXT UNL     1      -7.218  12.131  68.995  1.00  0.00    -0.103 OA 
HETATM   12  O   UNL     1      -6.339  10.207  65.083  1.00  0.00    -0.106 OA 
ENDROOT
BRANCH   4  13
HETATM   13  C   UNL     1      -9.352  10.545  69.858  1.00  0.00     0.265 C  
BRANCH  13  14
HETATM   14  S   UNL     1      -9.502   9.036  70.880  1.00  0.00    -0.282 SA 
BRANCH  14  15
HETATM   15  C   UNL     1     -11.187   8.967  71.232  1.00  0.00    -0.298 A  
HETATM   16  N   UNL     1     -11.912   9.943  71.731  1.00  0.00    -0.339 NA 
HETATM   17  N   UNL     1     -13.164   9.427  71.932  1.00  0.00    -0.398 NA 
HETATM   18  N   UNL     1     -11.993   7.870  71.069  1.00  0.00    -0.284 NA 
HETATM   19  N   UNL     1     -13.223   8.161  71.546  1.00  0.00    -0.311 NA 
BRANCH  18  20
HETATM   20  C   UNL     1     -11.772   6.565  70.470  1.00  0.00    -0.375 C  
BRANCH  20  21
HETATM   21  C   UNL     1     -10.850   5.712  71.358  1.00  0.00    -0.222 C  
BRANCH  21  22
HETATM   22  N   UNL     1      -9.720   5.015  70.701  1.00  0.00    -0.183 NA 
HETATM   23  C   UNL     1      -8.551   5.054  71.599  1.00  0.00    -0.128 C  
HETATM   24  C   UNL     1      -9.331   5.619  69.421  1.00  0.00    -0.125 C  
ENDBRANCH  21  22
ENDBRANCH  20  21
ENDBRANCH  18  20
ENDBRANCH  14  15
ENDBRANCH  13  14
ENDBRANCH   4  13
BRANCH   8  25
HETATM   25  N   UNL     1      -8.445   7.839  64.099  1.00  0.00    -0.375 N  
HETATM   26  C   UNL     1      -7.628   7.357  63.098  1.00  0.00    -0.114 C  
HETATM   27  H   UNL     1      -8.926   7.176  64.707  1.00  0.00     0.000 HD 
HETATM   28  O   UNL     1      -6.924   8.092  62.408  1.00  0.00    -0.086 OA 
BRANCH  26  29
HETATM   29  C   UNL     1      -7.677   5.856  62.902  1.00  0.00    -0.088 C  
BRANCH  29  30
HETATM   30  C   UNL     1      -7.786   5.147  64.205  1.00  0.00    -0.098 A  
HETATM   31  N   UNL     1     -10.004   3.623  66.454  1.00  0.00    -0.403 NA 
HETATM   32  C   UNL     1      -6.748   4.810  65.052  1.00  0.00    -0.045 A  
HETATM   33  S   UNL     1      -7.352   3.979  66.420  1.00  0.00    -0.076 SA 
HETATM   34  H2  UNL     1      -9.859   3.144  67.342  1.00  0.00     0.000 HD 
HETATM   35  H1  UNL     1     -10.949   3.711  66.083  1.00  0.00     0.000 HD 
HETATM   36  N   UNL     1      -9.043   4.741  64.640  1.00  0.00    -0.145 NA 
HETATM   37  C   UNL     1      -8.943   4.126  65.796  1.00  0.00    -0.129 A  
ENDBRANCH  29  30
ENDBRANCH  26  29
ENDBRANCH   8  25
TORSDOF 9
ENDMDL
MODEL      239
REMARK 921   NORMALIZED FREE ENERGY PREDICTED BY IDOCK:   -3.74 KCAL/MOL
REMARK 922        TOTAL FREE ENERGY PREDICTED BY IDOCK:   -7.65 KCAL/MOL
REMARK 923 INTER-LIGAND FREE ENERGY PREDICTED BY IDOCK:   -6.60 KCAL/MOL
REMARK 924 INTRA-LIGAND FREE ENERGY PREDICTED BY IDOCK:   -1.05 KCAL/MOL
REMARK 927      BINDING AFFINITY PREDICTED BY RF-SCORE:    0.00 PKD
ROOT
HETATM    1  C   UNL     1      -8.538  10.043  67.959  1.00  0.00    -0.121 C  
HETATM    2  S   UNL     1     -10.191  10.516  68.514  1.00  0.00    -0.184 SA 
HETATM    3  C   UNL     1     -10.572   8.882  69.183  1.00  0.00    -0.195 C  
HETATM    4  C   UNL     1     -10.240   7.714  68.262  1.00  0.00    -0.229 C  
HETATM    5  C   UNL     1      -8.044   9.580  65.981  1.00  0.00    -0.111 C  
HETATM    6  CA  UNL     1      -9.359   7.794  67.220  1.00  0.00    -0.145 C  
HETATM    7  C   UNL     1      -9.141   6.596  66.316  1.00  0.00    -0.145 C  
HETATM    8  CA  UNL     1      -7.935  10.904  66.803  1.00  0.00    -0.143 C  
HETATM    9  N   UNL     1      -8.675   8.961  66.999  1.00  0.00    -0.122 N  
HETATM   10  O   UNL     1      -8.638   6.823  65.091  1.00  0.00    -0.078 OA 
HETATM   11  OXT UNL     1      -9.390   5.449  66.660  1.00  0.00    -0.130 OA 
HETATM   12  O   UNL     1      -7.839   9.202  64.847  1.00  0.00    -0.109 OA 
ENDROOT
BRANCH   4  13
HETATM   13  C   UNL     1     -11.135   6.508  68.571  1.00  0.00    -0.265 C  
BRANCH  13  14
HETATM   14  S   UNL     1     -10.432   5.406  69.850  1.00  0.00    -0.272 SA 
BRANCH  14  15
HETATM   15  C   UNL     1     -10.687   6.286  71.309  1.00  0.00    -0.248 A  
HETATM   16  N   UNL     1     -11.852   6.551  71.856  1.00  0.00    -0.324 NA 
HETATM   17  N   UNL     1     -11.594   7.342  72.944  1.00  0.00    -0.179 NA 
HETATM   18  N   UNL     1      -9.707   6.856  72.080  1.00  0.00    -0.154 NA 
HETATM   19  N   UNL     1     -10.292   7.546  73.083  1.00  0.00    -0.314 NA 
BRANCH  18  20
HETATM   20  C   UNL     1      -8.256   6.803  72.029  1.00  0.00    -0.104 C  
BRANCH  20  21
HETATM   21  C   UNL     1      -7.673   6.617  73.441  1.00  0.00    -0.090 C  
BRANCH  21  22
HETATM   22  N   UNL     1      -6.735   5.491  73.650  1.00  0.00    -0.077 NA 
HETATM   23  C   UNL     1      -5.975   5.269  72.406  1.00  0.00    -0.026 C  
HETATM   24  C   UNL     1      -7.405   4.234  74.005  1.00  0.00    -0.068 C  
ENDBRANCH  21  22
ENDBRANCH  20  21
ENDBRANCH  18  20
ENDBRANCH  14  15
ENDBRANCH  13  14
ENDBRANCH   4  13
BRANCH   8  25
HETATM   25  N   UNL     1      -8.770  12.036  66.299  1.00  0.00    -0.384 N  
HETATM   26  C   UNL     1      -8.566  13.336  66.710  1.00  0.00    -0.026 C  
HETATM   27  H   UNL     1      -9.515  11.840  65.630  1.00  0.00     0.000 HD 
HETATM   28  O   UNL     1      -7.614  13.664  67.417  1.00  0.00    -0.167 OA 
BRANCH  26  29
HETATM   29  C   UNL     1      -9.612  14.325  66.240  1.00  0.00    -0.310 C  
BRANCH  29  30
HETATM   30  C   UNL     1     -10.162  15.107  67.380  1.00  0.00    -0.235 A  
HETATM   31  N   UNL     1     -10.208  18.250  68.934  1.00  0.00    -0.442 NA 
HETATM   32  C   UNL     1     -11.048  14.656  68.341  1.00  0.00    -0.257 A  
HETATM   33  S   UNL     1     -11.418  15.917  69.435  1.00  0.00    -0.345 SA 
HETATM   34  H2  UNL     1     -10.703  18.604  69.752  1.00  0.00     0.000 HD 
HETATM   35  H1  UNL     1      -9.591  18.875  68.415  1.00  0.00     0.000 HD 
HETATM   36  N   UNL     1      -9.793  16.441  67.513  1.00  0.00    -0.236 NA 
HETATM   37  C   UNL     1     -10.381  16.968  68.563  1.00  0.00    -0.359 A  
ENDBRANCH  29  30
ENDBRANCH  26  29
ENDBRANCH   8  25
TORSDOF 9
ENDMDL
MODEL      240
REMARK 921   NORMALIZED FREE ENERGY PREDICTED BY IDOCK:   -3.74 KCAL/MOL
REMARK 922        TOTAL FREE ENERGY PREDICTED BY IDOCK:   -7.65 KCAL/MOL
REMARK 923 INTER-LIGAND FREE ENERGY PREDICTED BY IDOCK:   -6.70 KCAL/MOL
REMARK 924 INTRA-LIGAND FREE ENERGY PREDICTED BY IDOCK:   -0.95 KCAL/MOL
REMARK 927      BINDING AFFINITY PREDICTED BY RF-SCORE:    0.00 PKD
ROOT
HETATM    1  C   UNL     1     -10.945   8.182  69.956  1.00  0.00    -0.199 C  
HETATM    2  S   UNL     1      -9.638   8.934  70.951  1.00  0.00    -0.261 SA 
HETATM    3  C   UNL     1      -9.167  10.116  69.668  1.00  0.00    -0.183 C  
HETATM    4  C   UNL     1      -8.999   9.522  68.274  1.00  0.00    -0.124 C  
HETATM    5  C   UNL     1     -10.760   6.365  68.940  1.00  0.00    -0.288 C  
HETATM    6  CA  UNL     1      -9.544   8.331  67.884  1.00  0.00    -0.152 C  
HETATM    7  C   UNL     1      -9.268   7.787  66.496  1.00  0.00    -0.184 C  
HETATM    8  CA  UNL     1     -11.343   6.722  70.344  1.00  0.00    -0.347 C  
HETATM    9  N   UNL     1     -10.342   7.633  68.754  1.00  0.00    -0.204 N  
HETATM   10  O   UNL     1      -9.433   6.468  66.298  1.00  0.00    -0.157 OA 
HETATM   11  OXT UNL     1      -8.919   8.496  65.562  1.00  0.00    -0.186 OA 
HETATM   12  O   UNL     1     -10.557   5.373  68.271  1.00  0.00    -0.160 OA 
ENDROOT
BRANCH   4  13
HETATM   13  C   UNL     1      -8.021  10.360  67.442  1.00  0.00    -0.107 C  
BRANCH  13  14
HETATM   14  S   UNL     1      -8.862  11.564  66.351  1.00  0.00    -0.178 SA 
BRANCH  14  15
HETATM   15  C   UNL     1     -10.311  11.926  67.210  1.00  0.00    -0.205 A  
HETATM   16  N   UNL     1     -11.417  11.218  67.189  1.00  0.00    -0.490 NA 
HETATM   17  N   UNL     1     -12.332  11.914  67.935  1.00  0.00    -0.170 NA 
HETATM   18  N   UNL     1     -10.513  13.023  68.007  1.00  0.00    -0.222 NA 
HETATM   19  N   UNL     1     -11.798  13.022  68.427  1.00  0.00    -0.340 NA 
BRANCH  18  20
HETATM   20  C   UNL     1      -9.631  14.076  68.478  1.00  0.00    -0.201 C  
BRANCH  20  21
HETATM   21  C   UNL     1     -10.243  15.460  68.195  1.00  0.00    -0.230 C  
BRANCH  21  22
HETATM   22  N   UNL     1      -9.716  16.216  67.036  1.00  0.00    -0.226 NA 
HETATM   23  C   UNL     1     -10.484  15.840  65.835  1.00  0.00    -0.352 C  
HETATM   24  C   UNL     1      -8.296  15.956  66.769  1.00  0.00    -0.271 C  
ENDBRANCH  21  22
ENDBRANCH  20  21
ENDBRANCH  18  20
ENDBRANCH  14  15
ENDBRANCH  13  14
ENDBRANCH   4  13
BRANCH   8  25
HETATM   25  N   UNL     1     -10.624   6.114  71.505  1.00  0.00    -0.231 N  
HETATM   26  C   UNL     1     -11.293   5.635  72.610  1.00  0.00    -0.305 C  
HETATM   27  H   UNL     1      -9.606   6.051  71.477  1.00  0.00     0.000 HD 
HETATM   28  O   UNL     1     -12.520   5.565  72.662  1.00  0.00    -0.023 OA 
BRANCH  26  29
HETATM   29  C   UNL     1     -10.404   5.219  73.764  1.00  0.00    -0.278 C  
BRANCH  29  30
HETATM   30  C   UNL     1      -9.380   4.234  73.324  1.00  0.00    -0.112 A  
HETATM   31  N   UNL     1      -6.291   3.847  71.711  1.00  0.00    -0.014 NA 
HETATM   32  C   UNL     1      -9.406   2.867  73.530  1.00  0.00    -0.084 A  
HETATM   33  S   UNL     1      -8.001   2.147  72.870  1.00  0.00    -0.054 SA 
HETATM   34  H2  UNL     1      -5.714   3.028  71.520  1.00  0.00     0.000 HD 
HETATM   35  H1  UNL     1      -5.969   4.766  71.407  1.00  0.00     0.000 HD 
HETATM   36  N   UNL     1      -8.251   4.697  72.657  1.00  0.00    -0.106 NA 
HETATM   37  C   UNL     1      -7.460   3.693  72.359  1.00  0.00    -0.054 A  
ENDBRANCH  29  30
ENDBRANCH  26  29
ENDBRANCH   8  25
TORSDOF 9
ENDMDL
MODEL      241
REMARK 921   NORMALIZED FREE ENERGY PREDICTED BY IDOCK:   -3.71 KCAL/MOL
REMARK 922        TOTAL FREE ENERGY PREDICTED BY IDOCK:   -7.61 KCAL/MOL
REMARK 923 INTER-LIGAND FREE ENERGY PREDICTED BY IDOCK:   -6.74 KCAL/MOL
REMARK 924 INTRA-LIGAND FREE ENERGY PREDICTED BY IDOCK:   -0.87 KCAL/MOL
REMARK 927      BINDING AFFINITY PREDICTED BY RF-SCORE:    0.00 PKD
ROOT
HETATM    1  C   UNL     1      -8.621   9.468  67.466  1.00  0.00    -0.126 C  
HETATM    2  S   UNL     1      -8.372  10.468  68.951  1.00  0.00    -0.154 SA 
HETATM    3  C   UNL     1      -7.198   9.310  69.688  1.00  0.00    -0.063 C  
HETATM    4  C   UNL     1      -7.627   7.849  69.658  1.00  0.00    -0.098 C  
HETATM    5  C   UNL     1     -10.275   8.233  67.137  1.00  0.00    -0.295 C  
HETATM    6  CA  UNL     1      -8.574   7.351  68.806  1.00  0.00    -0.129 C  
HETATM    7  C   UNL     1      -8.985   5.894  68.894  1.00  0.00    -0.118 C  
HETATM    8  CA  UNL     1      -9.965   9.701  66.704  1.00  0.00    -0.236 C  
HETATM    9  N   UNL     1      -9.147   8.176  67.873  1.00  0.00    -0.133 N  
HETATM   10  O   UNL     1     -10.177   5.550  68.378  1.00  0.00    -0.167 OA 
HETATM   11  OXT UNL     1      -8.276   5.033  69.396  1.00  0.00    -0.081 OA 
HETATM   12  O   UNL     1     -11.189   7.440  67.051  1.00  0.00    -0.145 OA 
ENDROOT
BRANCH   4  13
HETATM   13  C   UNL     1      -6.973   7.067  70.803  1.00  0.00    -0.065 C  
BRANCH  13  14
HETATM   14  S   UNL     1      -7.193   7.869  72.432  1.00  0.00    -0.095 SA 
BRANCH  14  15
HETATM   15  C   UNL     1      -8.796   7.418  72.878  1.00  0.00    -0.134 A  
HETATM   16  N   UNL     1      -9.868   8.167  72.761  1.00  0.00    -0.278 NA 
HETATM   17  N   UNL     1     -10.898   7.453  73.315  1.00  0.00    -0.391 NA 
HETATM   18  N   UNL     1      -9.161   6.225  73.446  1.00  0.00    -0.128 NA 
HETATM   19  N   UNL     1     -10.477   6.274  73.748  1.00  0.00    -0.283 NA 
BRANCH  18  20
HETATM   20  C   UNL     1      -8.434   4.995  73.710  1.00  0.00    -0.104 C  
BRANCH  20  21
HETATM   21  C   UNL     1      -9.297   4.025  74.537  1.00  0.00    -0.107 C  
BRANCH  21  22
HETATM   22  N   UNL     1      -9.792   2.804  73.861  1.00  0.00    -0.096 NA 
HETATM   23  C   UNL     1      -9.268   2.779  72.483  1.00  0.00    -0.095 C  
HETATM   24  C   UNL     1     -11.256   2.729  73.793  1.00  0.00    -0.177 C  
ENDBRANCH  21  22
ENDBRANCH  20  21
ENDBRANCH  18  20
ENDBRANCH  14  15
ENDBRANCH  13  14
ENDBRANCH   4  13
BRANCH   8  25
HETATM   25  N   UNL     1     -10.885  10.738  67.263  1.00  0.00    -0.278 N  
HETATM   26  C   UNL     1     -10.743  12.077  66.971  1.00  0.00    -0.242 C  
HETATM   27  H   UNL     1     -11.643  10.444  67.880  1.00  0.00     0.000 HD 
HETATM   28  O   UNL     1      -9.934  12.491  66.141  1.00  0.00    -0.246 OA 
BRANCH  26  29
HETATM   29  C   UNL     1     -11.646  13.002  67.759  1.00  0.00    -0.385 C  
BRANCH  29  30
HETATM   30  C   UNL     1     -12.019  12.401  69.068  1.00  0.00    -0.241 A  
HETATM   31  N   UNL     1     -12.617   9.394  70.768  1.00  0.00    -0.504 NA 
HETATM   32  C   UNL     1     -12.259  13.078  70.249  1.00  0.00    -0.296 A  
HETATM   33  S   UNL     1     -12.629  11.968  71.497  1.00  0.00    -0.076 SA 
HETATM   34  H2  UNL     1     -12.857   9.189  71.738  1.00  0.00     0.000 HD 
HETATM   35  H1  UNL     1     -12.510   8.624  70.108  1.00  0.00     0.000 HD 
HETATM   36  N   UNL     1     -12.124  11.018  69.162  1.00  0.00    -0.434 NA 
HETATM   37  C   UNL     1     -12.449  10.673  70.387  1.00  0.00    -0.338 A  
ENDBRANCH  29  30
ENDBRANCH  26  29
ENDBRANCH   8  25
TORSDOF 9
ENDMDL
MODEL      242
REMARK 921   NORMALIZED FREE ENERGY PREDICTED BY IDOCK:   -3.69 KCAL/MOL
REMARK 922        TOTAL FREE ENERGY PREDICTED BY IDOCK:   -7.58 KCAL/MOL
REMARK 923 INTER-LIGAND FREE ENERGY PREDICTED BY IDOCK:   -6.80 KCAL/MOL
REMARK 924 INTRA-LIGAND FREE ENERGY PREDICTED BY IDOCK:   -0.78 KCAL/MOL
REMARK 927      BINDING AFFINITY PREDICTED BY RF-SCORE:    0.00 PKD
ROOT
HETATM    1  C   UNL     1      -8.917  11.280  68.258  1.00  0.00    -0.172 C  
HETATM    2  S   UNL     1     -10.547  11.531  68.997  1.00  0.00    -0.129 SA 
HETATM    3  C   UNL     1     -10.552   9.931  69.837  1.00  0.00    -0.273 C  
HETATM    4  C   UNL     1     -10.136   8.747  68.972  1.00  0.00    -0.206 C  
HETATM    5  C   UNL     1      -8.594  10.709  66.273  1.00  0.00    -0.153 C  
HETATM    6  CA  UNL     1      -9.417   8.865  67.816  1.00  0.00    -0.141 C  
HETATM    7  C   UNL     1      -9.105   7.635  66.986  1.00  0.00    -0.135 C  
HETATM    8  CA  UNL     1      -8.619  12.108  66.967  1.00  0.00    -0.191 C  
HETATM    9  N   UNL     1      -8.978  10.100  67.413  1.00  0.00    -0.135 N  
HETATM   10  O   UNL     1      -8.802   7.817  65.689  1.00  0.00    -0.147 OA 
HETATM   11  OXT UNL     1      -9.106   6.503  67.449  1.00  0.00    -0.114 OA 
HETATM   12  O   UNL     1      -8.467  10.258  65.155  1.00  0.00    -0.155 OA 
ENDROOT
BRANCH   4  13
HETATM   13  C   UNL     1     -10.762   7.448  69.493  1.00  0.00    -0.224 C  
BRANCH  13  14
HETATM   14  S   UNL     1     -10.841   7.376  71.319  1.00  0.00    -0.241 SA 
BRANCH  14  15
HETATM   15  C   UNL     1      -9.203   7.627  71.792  1.00  0.00    -0.137 A  
HETATM   16  N   UNL     1      -8.716   8.721  72.333  1.00  0.00    -0.403 NA 
HETATM   17  N   UNL     1      -7.367   8.518  72.461  1.00  0.00    -0.279 NA 
HETATM   18  N   UNL     1      -8.180   6.728  71.637  1.00  0.00    -0.110 NA 
HETATM   19  N   UNL     1      -7.027   7.313  72.028  1.00  0.00    -0.062 NA 
BRANCH  18  20
HETATM   20  C   UNL     1      -8.142   5.341  71.204  1.00  0.00    -0.109 C  
BRANCH  20  21
HETATM   21  C   UNL     1      -6.884   5.075  70.359  1.00  0.00    -0.044 C  
BRANCH  21  22
HETATM   22  N   UNL     1      -6.565   3.666  70.033  1.00  0.00    -0.032 NA 
HETATM   23  C   UNL     1      -7.720   2.822  70.395  1.00  0.00    -0.043 C  
HETATM   24  C   UNL     1      -5.388   3.156  70.747  1.00  0.00    -0.008 C  
ENDBRANCH  21  22
ENDBRANCH  20  21
ENDBRANCH  18  20
ENDBRANCH  14  15
ENDBRANCH  13  14
ENDBRANCH   4  13
BRANCH   8  25
HETATM   25  N   UNL     1      -9.694  13.033  66.497  1.00  0.00    -0.262 N  
HETATM   26  C   UNL     1      -9.549  14.403  66.534  1.00  0.00    -0.293 C  
HETATM   27  H   UNL     1     -10.563  12.638  66.137  1.00  0.00     0.000 HD 
HETATM   28  O   UNL     1      -8.489  14.948  66.838  1.00  0.00    -0.228 OA 
BRANCH  26  29
HETATM   29  C   UNL     1     -10.798  15.187  66.189  1.00  0.00    -0.330 C  
BRANCH  29  30
HETATM   30  C   UNL     1     -10.627  16.633  66.494  1.00  0.00    -0.203 A  
HETATM   31  N   UNL     1     -10.352  18.998  69.068  1.00  0.00    -0.487 NA 
HETATM   32  C   UNL     1     -10.470  17.657  65.580  1.00  0.00    -0.144 A  
HETATM   33  S   UNL     1     -10.283  19.149  66.397  1.00  0.00    -0.469 SA 
HETATM   34  H2  UNL     1     -10.208  20.008  69.059  1.00  0.00     0.000 HD 
HETATM   35  H1  UNL     1     -10.437  18.514  69.961  1.00  0.00     0.000 HD 
HETATM   36  N   UNL     1     -10.591  17.034  67.825  1.00  0.00    -0.352 NA 
HETATM   37  C   UNL     1     -10.425  18.334  67.900  1.00  0.00    -0.388 A  
ENDBRANCH  29  30
ENDBRANCH  26  29
ENDBRANCH   8  25
TORSDOF 9
ENDMDL
MODEL      243
REMARK 921   NORMALIZED FREE ENERGY PREDICTED BY IDOCK:   -3.67 KCAL/MOL
REMARK 922        TOTAL FREE ENERGY PREDICTED BY IDOCK:   -7.54 KCAL/MOL
REMARK 923 INTER-LIGAND FREE ENERGY PREDICTED BY IDOCK:   -6.75 KCAL/MOL
REMARK 924 INTRA-LIGAND FREE ENERGY PREDICTED BY IDOCK:   -0.79 KCAL/MOL
REMARK 927      BINDING AFFINITY PREDICTED BY RF-SCORE:    0.00 PKD
ROOT
HETATM    1  C   UNL     1      -8.505   7.942  66.755  1.00  0.00    -0.129 C  
HETATM    2  S   UNL     1     -10.202   7.774  67.351  1.00  0.00    -0.279 SA 
HETATM    3  C   UNL     1     -10.480   9.556  67.445  1.00  0.00    -0.272 C  
HETATM    4  C   UNL     1      -9.370  10.347  68.125  1.00  0.00    -0.149 C  
HETATM    5  C   UNL     1      -6.805   7.720  67.952  1.00  0.00    -0.068 C  
HETATM    6  CA  UNL     1      -8.093   9.886  68.282  1.00  0.00    -0.104 C  
HETATM    7  C   UNL     1      -7.070  10.718  69.031  1.00  0.00    -0.091 C  
HETATM    8  CA  UNL     1      -7.565   6.722  67.021  1.00  0.00    -0.095 C  
HETATM    9  N   UNL     1      -7.743   8.669  67.756  1.00  0.00    -0.101 N  
HETATM   10  O   UNL     1      -6.001  10.083  69.540  1.00  0.00    -0.040 OA 
HETATM   11  OXT UNL     1      -7.175  11.928  69.176  1.00  0.00    -0.096 OA 
HETATM   12  O   UNL     1      -5.861   7.705  68.713  1.00  0.00    -0.023 OA 
ENDROOT
BRANCH   4  13
HETATM   13  C   UNL     1      -9.921  11.642  68.735  1.00  0.00    -0.135 C  
BRANCH  13  14
HETATM   14  S   UNL     1     -11.561  12.103  68.069  1.00  0.00    -0.349 SA 
BRANCH  14  15
HETATM   15  C   UNL     1     -11.540  13.825  68.132  1.00  0.00    -0.335 A  
HETATM   16  N   UNL     1     -11.623  14.558  69.219  1.00  0.00    -0.284 NA 
HETATM   17  N   UNL     1     -11.659  15.862  68.801  1.00  0.00    -0.390 NA 
HETATM   18  N   UNL     1     -11.468  14.663  67.049  1.00  0.00    -0.359 NA 
HETATM   19  N   UNL     1     -11.580  15.938  67.481  1.00  0.00    -0.011 NA 
BRANCH  18  20
HETATM   20  C   UNL     1     -11.257  14.427  65.631  1.00  0.00    -0.323 C  
BRANCH  20  21
HETATM   21  C   UNL     1     -10.664  13.025  65.401  1.00  0.00    -0.291 C  
BRANCH  21  22
HETATM   22  N   UNL     1     -11.221  12.222  64.288  1.00  0.00    -0.327 NA 
HETATM   23  C   UNL     1     -10.109  11.755  63.438  1.00  0.00    -0.446 C  
HETATM   24  C   UNL     1     -12.157  12.971  63.441  1.00  0.00    -0.515 C  
ENDBRANCH  21  22
ENDBRANCH  20  21
ENDBRANCH  18  20
ENDBRANCH  14  15
ENDBRANCH  13  14
ENDBRANCH   4  13
BRANCH   8  25
HETATM   25  N   UNL     1      -8.170   5.543  67.711  1.00  0.00    -0.101 N  
HETATM   26  C   UNL     1      -8.346   4.334  67.075  1.00  0.00    -0.101 C  
HETATM   27  H   UNL     1      -8.461   5.637  68.685  1.00  0.00     0.000 HD 
HETATM   28  O   UNL     1      -7.909   4.110  65.947  1.00  0.00    -0.092 OA 
BRANCH  26  29
HETATM   29  C   UNL     1      -9.133   3.307  67.862  1.00  0.00    -0.213 C  
BRANCH  29  30
HETATM   30  C   UNL     1      -9.328   3.743  69.271  1.00  0.00    -0.174 A  
HETATM   31  N   UNL     1     -11.129   5.895  71.373  1.00  0.00    -0.271 NA 
HETATM   32  C   UNL     1      -8.683   3.246  70.387  1.00  0.00    -0.068 A  
HETATM   33  S   UNL     1      -9.252   4.036  71.794  1.00  0.00    -0.136 SA 
HETATM   34  H2  UNL     1     -11.124   6.030  72.384  1.00  0.00     0.000 HD 
HETATM   35  H1  UNL     1     -11.757   6.457  70.799  1.00  0.00     0.000 HD 
HETATM   36  N   UNL     1     -10.266   4.735  69.538  1.00  0.00    -0.191 NA 
HETATM   37  C   UNL     1     -10.308   4.980  70.827  1.00  0.00    -0.195 A  
ENDBRANCH  29  30
ENDBRANCH  26  29
ENDBRANCH   8  25
TORSDOF 9
ENDMDL
MODEL      244
REMARK 921   NORMALIZED FREE ENERGY PREDICTED BY IDOCK:   -3.66 KCAL/MOL
REMARK 922        TOTAL FREE ENERGY PREDICTED BY IDOCK:   -7.53 KCAL/MOL
REMARK 923 INTER-LIGAND FREE ENERGY PREDICTED BY IDOCK:   -8.56 KCAL/MOL
REMARK 924 INTRA-LIGAND FREE ENERGY PREDICTED BY IDOCK:    1.02 KCAL/MOL
REMARK 927      BINDING AFFINITY PREDICTED BY RF-SCORE:    0.00 PKD
ROOT
HETATM    1  C   UNL     1      -8.784  14.351  66.859  1.00  0.00    -0.193 C  
HETATM    2  S   UNL     1      -8.380  14.053  68.595  1.00  0.00    -0.054 SA 
HETATM    3  C   UNL     1      -7.674  12.420  68.281  1.00  0.00    -0.140 C  
HETATM    4  C   UNL     1      -8.516  11.513  67.393  1.00  0.00    -0.147 C  
HETATM    5  C   UNL     1     -10.695  14.145  66.039  1.00  0.00    -0.299 C  
HETATM    6  CA  UNL     1      -9.488  11.967  66.547  1.00  0.00    -0.217 C  
HETATM    7  C   UNL     1     -10.322  10.983  65.748  1.00  0.00    -0.257 C  
HETATM    8  CA  UNL     1      -9.924  15.385  66.592  1.00  0.00    -0.260 C  
HETATM    9  N   UNL     1      -9.705  13.315  66.423  1.00  0.00    -0.275 N  
HETATM   10  O   UNL     1     -11.513  11.403  65.288  1.00  0.00    -0.095 OA 
HETATM   11  OXT UNL     1      -9.950   9.844  65.501  1.00  0.00    -0.304 OA 
HETATM   12  O   UNL     1     -11.793  13.890  65.590  1.00  0.00    -0.342 OA 
ENDROOT
BRANCH   4  13
HETATM   13  C   UNL     1      -8.228  10.037  67.694  1.00  0.00    -0.114 C  
BRANCH  13  14
HETATM   14  S   UNL     1      -6.714   9.795  68.692  1.00  0.00    -0.051 SA 
BRANCH  14  15
HETATM   15  C   UNL     1      -7.331   9.435  70.260  1.00  0.00    -0.118 A  
HETATM   16  N   UNL     1      -6.652   9.474  71.384  1.00  0.00    -0.298 NA 
HETATM   17  N   UNL     1      -7.502   9.030  72.362  1.00  0.00    -0.316 NA 
HETATM   18  N   UNL     1      -8.609   9.025  70.541  1.00  0.00    -0.180 NA 
HETATM   19  N   UNL     1      -8.693   8.740  71.859  1.00  0.00    -0.351 NA 
BRANCH  18  20
HETATM   20  C   UNL     1      -9.808   8.906  69.728  1.00  0.00    -0.180 C  
BRANCH  20  21
HETATM   21  C   UNL     1     -10.848   8.015  70.429  1.00  0.00    -0.247 C  
BRANCH  21  22
HETATM   22  N   UNL     1     -12.031   8.681  71.022  1.00  0.00    -0.276 NA 
HETATM   23  C   UNL     1     -11.870  10.140  70.887  1.00  0.00    -0.374 C  
HETATM   24  C   UNL     1     -12.219   8.373  72.445  1.00  0.00    -0.367 C  
ENDBRANCH  21  22
ENDBRANCH  20  21
ENDBRANCH  18  20
ENDBRANCH  14  15
ENDBRANCH  13  14
ENDBRANCH   4  13
BRANCH   8  25
HETATM   25  N   UNL     1     -10.539  16.034  67.790  1.00  0.00    -0.301 N  
HETATM   26  C   UNL     1     -11.485  15.398  68.563  1.00  0.00    -0.350 C  
HETATM   27  H   UNL     1     -10.248  16.979  68.043  1.00  0.00     0.000 HD 
HETATM   28  O   UNL     1     -11.794  14.219  68.394  1.00  0.00    -0.324 OA 
BRANCH  26  29
HETATM   29  C   UNL     1     -12.128  16.263  69.626  1.00  0.00     0.221 C  
BRANCH  29  30
HETATM   30  C   UNL     1     -12.275  15.522  70.907  1.00  0.00    -0.400 A  
HETATM   31  N   UNL     1     -13.936  12.881  72.508  1.00  0.00    -0.668 NA 
HETATM   32  C   UNL     1     -11.580  15.752  72.079  1.00  0.00    -0.446 A  
HETATM   33  S   UNL     1     -12.066  14.633  73.279  1.00  0.00    -0.033 SA 
HETATM   34  H2  UNL     1     -13.869  12.499  73.452  1.00  0.00     0.000 HD 
HETATM   35  H1  UNL     1     -14.587  12.461  71.846  1.00  0.00     0.000 HD 
HETATM   36  N   UNL     1     -13.176  14.464  70.966  1.00  0.00    -0.356 NA 
HETATM   37  C   UNL     1     -13.162  13.927  72.165  1.00  0.00    -0.444 A  
ENDBRANCH  29  30
ENDBRANCH  26  29
ENDBRANCH   8  25
TORSDOF 9
ENDMDL
MODEL      245
REMARK 921   NORMALIZED FREE ENERGY PREDICTED BY IDOCK:   -3.65 KCAL/MOL
REMARK 922        TOTAL FREE ENERGY PREDICTED BY IDOCK:   -7.50 KCAL/MOL
REMARK 923 INTER-LIGAND FREE ENERGY PREDICTED BY IDOCK:   -6.24 KCAL/MOL
REMARK 924 INTRA-LIGAND FREE ENERGY PREDICTED BY IDOCK:   -1.26 KCAL/MOL
REMARK 927      BINDING AFFINITY PREDICTED BY RF-SCORE:    0.00 PKD
ROOT
HETATM    1  C   UNL     1     -11.434   8.879  71.257  1.00  0.00    -0.299 C  
HETATM    2  S   UNL     1     -12.086   7.289  70.698  1.00  0.00    -0.123 SA 
HETATM    3  C   UNL     1     -11.963   6.523  72.329  1.00  0.00    -0.231 C  
HETATM    4  C   UNL     1     -10.636   6.741  73.046  1.00  0.00    -0.295 C  
HETATM    5  C   UNL     1      -9.469   9.524  70.948  1.00  0.00    -0.116 C  
HETATM    6  CA  UNL     1      -9.762   7.746  72.740  1.00  0.00    -0.232 C  
HETATM    7  C   UNL     1      -8.433   7.845  73.463  1.00  0.00    -0.228 C  
HETATM    8  CA  UNL     1     -10.789   9.777  70.152  1.00  0.00    -0.291 C  
HETATM    9  N   UNL     1     -10.094   8.663  71.776  1.00  0.00    -0.281 N  
HETATM   10  O   UNL     1      -7.447   8.534  72.866  1.00  0.00    -0.285 OA 
HETATM   11  OXT UNL     1      -8.235   7.341  74.560  1.00  0.00    -0.159 OA 
HETATM   12  O   UNL     1      -8.291   9.795  70.853  1.00  0.00    -0.210 OA 
ENDROOT
BRANCH   4  13
HETATM   13  C   UNL     1     -10.358   5.601  74.034  1.00  0.00    -0.279 C  
BRANCH  13  14
HETATM   14  S   UNL     1     -11.230   4.053  73.599  1.00  0.00    -0.150 SA 
BRANCH  14  15
HETATM   15  C   UNL     1      -9.995   3.099  72.868  1.00  0.00    -0.138 A  
HETATM   16  N   UNL     1      -9.522   1.964  73.330  1.00  0.00    -0.072 NA 
HETATM   17  N   UNL     1      -8.501   1.603  72.491  1.00  0.00    -0.053 NA 
HETATM   18  N   UNL     1      -9.316   3.416  71.720  1.00  0.00    -0.121 NA 
HETATM   19  N   UNL     1      -8.357   2.487  71.514  1.00  0.00    -0.061 NA 
BRANCH  18  20
HETATM   20  C   UNL     1      -9.478   4.474  70.738  1.00  0.00    -0.168 C  
BRANCH  20  21
HETATM   21  C   UNL     1      -8.489   4.287  69.574  1.00  0.00    -0.071 C  
BRANCH  21  22
HETATM   22  N   UNL     1      -9.004   4.484  68.200  1.00  0.00    -0.111 NA 
HETATM   23  C   UNL     1     -10.200   5.345  68.261  1.00  0.00    -0.160 C  
HETATM   24  C   UNL     1      -9.379   3.231  67.534  1.00  0.00    -0.206 C  
ENDBRANCH  21  22
ENDBRANCH  20  21
ENDBRANCH  18  20
ENDBRANCH  14  15
ENDBRANCH  13  14
ENDBRANCH   4  13
BRANCH   8  25
HETATM   25  N   UNL     1     -10.803   9.243  68.757  1.00  0.00    -0.411 N  
HETATM   26  C   UNL     1     -10.272   9.947  67.698  1.00  0.00    -0.208 C  
HETATM   27  H   UNL     1     -11.220   8.328  68.582  1.00  0.00     0.000 HD 
HETATM   28  O   UNL     1      -9.647  10.996  67.848  1.00  0.00    -0.166 OA 
BRANCH  26  29
HETATM   29  C   UNL     1     -10.530   9.341  66.334  1.00  0.00    -0.157 C  
BRANCH  29  30
HETATM   30  C   UNL     1      -9.255   9.050  65.625  1.00  0.00    -0.225 A  
HETATM   31  N   UNL     1      -6.454  10.480  64.074  1.00  0.00    -0.352 NA 
HETATM   32  C   UNL     1      -8.722   7.802  65.363  1.00  0.00    -0.020 A  
HETATM   33  S   UNL     1      -7.227   7.962  64.547  1.00  0.00    -0.085 SA 
HETATM   34  H2  UNL     1      -5.627  10.071  63.640  1.00  0.00     0.000 HD 
HETATM   35  H1  UNL     1      -6.553  11.494  64.103  1.00  0.00     0.000 HD 
HETATM   36  N   UNL     1      -8.477  10.116  65.186  1.00  0.00    -0.153 NA 
HETATM   37  C   UNL     1      -7.393   9.669  64.596  1.00  0.00    -0.123 A  
ENDBRANCH  29  30
ENDBRANCH  26  29
ENDBRANCH   8  25
TORSDOF 9
ENDMDL
MODEL      246
REMARK 921   NORMALIZED FREE ENERGY PREDICTED BY IDOCK:   -3.64 KCAL/MOL
REMARK 922        TOTAL FREE ENERGY PREDICTED BY IDOCK:   -7.50 KCAL/MOL
REMARK 923 INTER-LIGAND FREE ENERGY PREDICTED BY IDOCK:   -6.29 KCAL/MOL
REMARK 924 INTRA-LIGAND FREE ENERGY PREDICTED BY IDOCK:   -1.22 KCAL/MOL
REMARK 927      BINDING AFFINITY PREDICTED BY RF-SCORE:    0.00 PKD
ROOT
HETATM    1  C   UNL     1     -10.974   7.200  70.656  1.00  0.00    -0.258 C  
HETATM    2  S   UNL     1     -10.786   8.509  71.888  1.00  0.00    -0.350 SA 
HETATM    3  C   UNL     1     -11.736   9.715  70.936  1.00  0.00    -0.334 C  
HETATM    4  C   UNL     1     -11.360   9.815  69.463  1.00  0.00    -0.127 C  
HETATM    5  C   UNL     1      -9.498   6.651  69.282  1.00  0.00    -0.141 C  
HETATM    6  CA  UNL     1     -10.694   8.836  68.780  1.00  0.00    -0.077 C  
HETATM    7  C   UNL     1     -10.303   9.052  67.330  1.00  0.00    -0.268 C  
HETATM    8  CA  UNL     1      -9.886   6.079  70.682  1.00  0.00    -0.181 C  
HETATM    9  N   UNL     1     -10.382   7.660  69.412  1.00  0.00    -0.211 N  
HETATM   10  O   UNL     1      -9.305   8.301  66.834  1.00  0.00    -0.155 OA 
HETATM   11  OXT UNL     1     -10.864   9.861  66.604  1.00  0.00    -0.101 OA 
HETATM   12  O   UNL     1      -8.659   6.457  68.428  1.00  0.00    -0.115 OA 
ENDROOT
BRANCH   4  13
HETATM   13  C   UNL     1     -11.691  11.207  68.911  1.00  0.00    -0.337 C  
BRANCH  13  14
HETATM   14  S   UNL     1     -10.238  12.316  68.856  1.00  0.00     0.069 SA 
BRANCH  14  15
HETATM   15  C   UNL     1     -10.732  13.556  67.767  1.00  0.00    -0.252 A  
HETATM   16  N   UNL     1     -11.493  13.394  66.708  1.00  0.00    -0.328 NA 
HETATM   17  N   UNL     1     -11.554  14.615  66.089  1.00  0.00    -0.355 NA 
HETATM   18  N   UNL     1     -10.368  14.876  67.841  1.00  0.00    -0.235 NA 
HETATM   19  N   UNL     1     -10.862  15.522  66.762  1.00  0.00    -0.310 NA 
BRANCH  18  20
HETATM   20  C   UNL     1      -9.640  15.644  68.836  1.00  0.00    -0.224 C  
BRANCH  20  21
HETATM   21  C   UNL     1      -8.514  16.457  68.172  1.00  0.00    -0.188 C  
BRANCH  21  22
HETATM   22  N   UNL     1      -8.419  17.895  68.510  1.00  0.00    -0.302 NA 
HETATM   23  C   UNL     1      -9.036  18.679  67.423  1.00  0.00    -0.279 C  
HETATM   24  C   UNL     1      -7.038  18.363  68.681  1.00  0.00    -0.279 C  
ENDBRANCH  21  22
ENDBRANCH  20  21
ENDBRANCH  18  20
ENDBRANCH  14  15
ENDBRANCH  13  14
ENDBRANCH   4  13
BRANCH   8  25
HETATM   25  N   UNL     1      -8.827   6.191  71.731  1.00  0.00    -0.138 N  
HETATM   26  C   UNL     1      -7.802   5.276  71.838  1.00  0.00    -0.111 C  
HETATM   27  H   UNL     1      -8.865   6.970  72.389  1.00  0.00     0.000 HD 
HETATM   28  O   UNL     1      -7.623   4.384  71.009  1.00  0.00    -0.060 OA 
BRANCH  26  29
HETATM   29  C   UNL     1      -6.925   5.440  73.061  1.00  0.00    -0.084 C  
BRANCH  29  30
HETATM   30  C   UNL     1      -6.457   6.845  73.202  1.00  0.00    -0.062 A  
HETATM   31  N   UNL     1      -5.853   9.844  71.489  1.00  0.00    -0.259 NA 
HETATM   32  C   UNL     1      -6.067   7.472  74.371  1.00  0.00    -0.081 A  
HETATM   33  S   UNL     1      -5.635   9.095  74.049  1.00  0.00    -0.054 SA 
HETATM   34  H2  UNL     1      -5.530  10.760  71.801  1.00  0.00     0.000 HD 
HETATM   35  H1  UNL     1      -6.064   9.699  70.502  1.00  0.00     0.000 HD 
HETATM   36  N   UNL     1      -6.416   7.651  72.071  1.00  0.00    -0.042 NA 
HETATM   37  C   UNL     1      -5.991   8.852  72.389  1.00  0.00    -0.057 A  
ENDBRANCH  29  30
ENDBRANCH  26  29
ENDBRANCH   8  25
TORSDOF 9
ENDMDL
MODEL      247
REMARK 921   NORMALIZED FREE ENERGY PREDICTED BY IDOCK:   -3.62 KCAL/MOL
REMARK 922        TOTAL FREE ENERGY PREDICTED BY IDOCK:   -7.47 KCAL/MOL
REMARK 923 INTER-LIGAND FREE ENERGY PREDICTED BY IDOCK:   -7.75 KCAL/MOL
REMARK 924 INTRA-LIGAND FREE ENERGY PREDICTED BY IDOCK:    0.29 KCAL/MOL
REMARK 927      BINDING AFFINITY PREDICTED BY RF-SCORE:    0.00 PKD
ROOT
HETATM    1  C   UNL     1      -8.616   8.415  71.666  1.00  0.00    -0.170 C  
HETATM    2  S   UNL     1      -8.055   7.919  70.021  1.00  0.00    -0.119 SA 
HETATM    3  C   UNL     1      -8.301   9.559  69.304  1.00  0.00    -0.129 C  
HETATM    4  C   UNL     1      -9.638  10.212  69.632  1.00  0.00    -0.237 C  
HETATM    5  C   UNL     1     -10.514   8.007  72.440  1.00  0.00    -0.301 C  
HETATM    6  CA  UNL     1     -10.425   9.846  70.688  1.00  0.00    -0.231 C  
HETATM    7  C   UNL     1     -11.773  10.509  70.898  1.00  0.00    -0.335 C  
HETATM    8  CA  UNL     1      -9.147   7.265  72.580  1.00  0.00    -0.139 C  
HETATM    9  N   UNL     1      -9.988   8.879  71.556  1.00  0.00    -0.296 N  
HETATM   10  O   UNL     1     -12.682   9.854  71.640  1.00  0.00    -0.363 OA 
HETATM   11  OXT UNL     1     -12.053  11.606  70.435  1.00  0.00    -0.355 OA 
HETATM   12  O   UNL     1     -11.665   7.854  72.790  1.00  0.00    -0.364 OA 
ENDROOT
BRANCH   4  13
HETATM   13  C   UNL     1     -10.038  11.209  68.538  1.00  0.00    -0.201 C  
BRANCH  13  14
HETATM   14  S   UNL     1     -11.132  10.475  67.269  1.00  0.00    -0.117 SA 
BRANCH  14  15
HETATM   15  C   UNL     1     -10.577  11.200  65.807  1.00  0.00    -0.227 A  
HETATM   16  N   UNL     1      -9.564  10.789  65.079  1.00  0.00    -0.233 NA 
HETATM   17  N   UNL     1      -9.423  11.701  64.067  1.00  0.00    -0.111 NA 
HETATM   18  N   UNL     1     -11.100  12.325  65.225  1.00  0.00    -0.306 NA 
HETATM   19  N   UNL     1     -10.344  12.649  64.153  1.00  0.00    -0.391 NA 
BRANCH  18  20
HETATM   20  C   UNL     1     -12.272  13.134  65.518  1.00  0.00    -0.461 C  
BRANCH  20  21
HETATM   21  C   UNL     1     -12.018  14.025  66.747  1.00  0.00    -0.444 C  
BRANCH  21  22
HETATM   22  N   UNL     1     -10.800  14.867  66.741  1.00  0.00    -0.314 NA 
HETATM   23  C   UNL     1     -10.721  15.595  68.021  1.00  0.00    -0.287 C  
HETATM   24  C   UNL     1     -10.781  15.854  65.654  1.00  0.00    -0.339 C  
ENDBRANCH  21  22
ENDBRANCH  20  21
ENDBRANCH  18  20
ENDBRANCH  14  15
ENDBRANCH  13  14
ENDBRANCH   4  13
BRANCH   8  25
HETATM   25  N   UNL     1      -9.112   5.883  72.014  1.00  0.00    -0.144 N  
HETATM   26  C   UNL     1     -10.119   5.395  71.209  1.00  0.00    -0.209 C  
HETATM   27  H   UNL     1      -8.317   5.281  72.230  1.00  0.00     0.000 HD 
HETATM   28  O   UNL     1     -11.044   6.099  70.807  1.00  0.00    -0.285 OA 
BRANCH  26  29
HETATM   29  C   UNL     1     -10.010   3.923  70.871  1.00  0.00    -0.134 C  
BRANCH  29  30
HETATM   30  C   UNL     1      -9.628   3.124  72.066  1.00  0.00    -0.146 A  
HETATM   31  N   UNL     1      -6.933   1.944  73.975  1.00  0.00    -0.023 NA 
HETATM   32  C   UNL     1     -10.486   2.514  72.961  1.00  0.00    -0.153 A  
HETATM   33  S   UNL     1      -9.592   1.729  74.191  1.00  0.00    -0.069 SA 
HETATM   34  H2  UNL     1      -6.889   1.390  74.830  1.00  0.00     0.000 HD 
HETATM   35  H1  UNL     1      -6.067   2.252  73.535  1.00  0.00     0.000 HD 
HETATM   36  N   UNL     1      -8.278   2.972  72.364  1.00  0.00    -0.066 NA 
HETATM   37  C   UNL     1      -8.134   2.250  73.451  1.00  0.00    -0.054 A  
ENDBRANCH  29  30
ENDBRANCH  26  29
ENDBRANCH   8  25
TORSDOF 9
ENDMDL
MODEL      248
REMARK 921   NORMALIZED FREE ENERGY PREDICTED BY IDOCK:   -3.62 KCAL/MOL
REMARK 922        TOTAL FREE ENERGY PREDICTED BY IDOCK:   -7.46 KCAL/MOL
REMARK 923 INTER-LIGAND FREE ENERGY PREDICTED BY IDOCK:   -6.03 KCAL/MOL
REMARK 924 INTRA-LIGAND FREE ENERGY PREDICTED BY IDOCK:   -1.43 KCAL/MOL
REMARK 927      BINDING AFFINITY PREDICTED BY RF-SCORE:    0.00 PKD
ROOT
HETATM    1  C   UNL     1      -8.194   9.958  69.610  1.00  0.00    -0.171 C  
HETATM    2  S   UNL     1      -9.760   9.406  70.323  1.00  0.00    -0.261 SA 
HETATM    3  C   UNL     1      -9.028   7.965  71.131  1.00  0.00    -0.138 C  
HETATM    4  C   UNL     1      -8.104   7.132  70.252  1.00  0.00    -0.118 C  
HETATM    5  C   UNL     1      -7.628   9.654  67.621  1.00  0.00    -0.091 C  
HETATM    6  CA  UNL     1      -7.513   7.600  69.112  1.00  0.00    -0.095 C  
HETATM    7  C   UNL     1      -6.660   6.676  68.264  1.00  0.00    -0.059 C  
HETATM    8  CA  UNL     1      -8.305  10.863  68.341  1.00  0.00    -0.136 C  
HETATM    9  N   UNL     1      -7.695   8.907  68.741  1.00  0.00    -0.095 N  
HETATM   10  O   UNL     1      -6.466   7.011  66.977  1.00  0.00    -0.046 OA 
HETATM   11  OXT UNL     1      -6.139   5.661  68.706  1.00  0.00    -0.022 OA 
HETATM   12  O   UNL     1      -7.298   9.342  66.496  1.00  0.00    -0.091 OA 
ENDROOT
BRANCH   4  13
HETATM   13  C   UNL     1      -8.060   5.678  70.736  1.00  0.00    -0.117 C  
BRANCH  13  14
HETATM   14  S   UNL     1      -7.948   5.534  72.556  1.00  0.00    -0.103 SA 
BRANCH  14  15
HETATM   15  C   UNL     1      -9.447   4.799  72.984  1.00  0.00    -0.129 A  
HETATM   16  N   UNL     1     -10.580   5.428  73.201  1.00  0.00    -0.218 NA 
HETATM   17  N   UNL     1     -11.478   4.473  73.599  1.00  0.00    -0.218 NA 
HETATM   18  N   UNL     1      -9.649   3.459  73.189  1.00  0.00    -0.108 NA 
HETATM   19  N   UNL     1     -10.920   3.272  73.609  1.00  0.00    -0.227 NA 
BRANCH  18  20
HETATM   20  C   UNL     1      -8.804   2.293  72.995  1.00  0.00    -0.070 C  
BRANCH  20  21
HETATM   21  C   UNL     1      -8.837   1.842  71.524  1.00  0.00    -0.065 C  
BRANCH  21  22
HETATM   22  N   UNL     1      -7.540   1.552  70.869  1.00  0.00    -0.033 NA 
HETATM   23  C   UNL     1      -6.456   2.117  71.693  1.00  0.00    -0.018 C  
HETATM   24  C   UNL     1      -7.430   2.120  69.520  1.00  0.00    -0.043 C  
ENDBRANCH  21  22
ENDBRANCH  20  21
ENDBRANCH  18  20
ENDBRANCH  14  15
ENDBRANCH  13  14
ENDBRANCH   4  13
BRANCH   8  25
HETATM   25  N   UNL     1      -9.683  11.196  67.869  1.00  0.00    -0.171 N  
HETATM   26  C   UNL     1     -10.280  12.407  68.147  1.00  0.00    -0.225 C  
HETATM   27  H   UNL     1     -10.198  10.505  67.323  1.00  0.00     0.000 HD 
HETATM   28  O   UNL     1      -9.678  13.331  68.692  1.00  0.00    -0.178 OA 
BRANCH  26  29
HETATM   29  C   UNL     1     -11.737  12.507  67.747  1.00  0.00    -0.419 C  
BRANCH  29  30
HETATM   30  C   UNL     1     -11.883  13.084  66.384  1.00  0.00    -0.405 A  
HETATM   31  N   UNL     1     -11.599  12.420  62.953  1.00  0.00    -0.580 NA 
HETATM   32  C   UNL     1     -12.304  14.362  66.068  1.00  0.00    -0.318 A  
HETATM   33  S   UNL     1     -12.339  14.565  64.370  1.00  0.00    -0.290 SA 
HETATM   34  H2  UNL     1     -11.779  12.989  62.126  1.00  0.00     0.000 HD 
HETATM   35  H1  UNL     1     -11.274  11.460  62.836  1.00  0.00     0.000 HD 
HETATM   36  N   UNL     1     -11.600  12.279  65.286  1.00  0.00    -0.354 NA 
HETATM   37  C   UNL     1     -11.794  12.951  64.174  1.00  0.00    -0.414 A  
ENDBRANCH  29  30
ENDBRANCH  26  29
ENDBRANCH   8  25
TORSDOF 9
ENDMDL
MODEL      249
REMARK 921   NORMALIZED FREE ENERGY PREDICTED BY IDOCK:   -3.61 KCAL/MOL
REMARK 922        TOTAL FREE ENERGY PREDICTED BY IDOCK:   -7.44 KCAL/MOL
REMARK 923 INTER-LIGAND FREE ENERGY PREDICTED BY IDOCK:   -6.43 KCAL/MOL
REMARK 924 INTRA-LIGAND FREE ENERGY PREDICTED BY IDOCK:   -1.01 KCAL/MOL
REMARK 927      BINDING AFFINITY PREDICTED BY RF-SCORE:    0.00 PKD
ROOT
HETATM    1  C   UNL     1      -8.199  10.028  68.702  1.00  0.00    -0.111 C  
HETATM    2  S   UNL     1      -9.466   9.439  69.849  1.00  0.00    -0.229 SA 
HETATM    3  C   UNL     1      -8.776   7.772  69.952  1.00  0.00    -0.142 C  
HETATM    4  C   UNL     1      -8.419   7.138  68.613  1.00  0.00    -0.125 C  
HETATM    5  C   UNL     1      -8.478  10.239  66.641  1.00  0.00    -0.124 C  
HETATM    6  CA  UNL     1      -8.213   7.850  67.465  1.00  0.00    -0.124 C  
HETATM    7  C   UNL     1      -7.927   7.127  66.163  1.00  0.00    -0.112 C  
HETATM    8  CA  UNL     1      -8.596  11.256  67.821  1.00  0.00    -0.126 C  
HETATM    9  N   UNL     1      -8.266   9.219  67.497  1.00  0.00    -0.114 N  
HETATM   10  O   UNL     1      -8.162   7.787  65.017  1.00  0.00    -0.137 OA 
HETATM   11  OXT UNL     1      -7.483   5.988  66.120  1.00  0.00    -0.082 OA 
HETATM   12  O   UNL     1      -8.652  10.224  65.441  1.00  0.00    -0.146 OA 
ENDROOT
BRANCH   4  13
HETATM   13  C   UNL     1      -8.477   5.608  68.705  1.00  0.00    -0.105 C  
BRANCH  13  14
HETATM   14  S   UNL     1     -10.069   4.993  69.364  1.00  0.00    -0.192 SA 
BRANCH  14  15
HETATM   15  C   UNL     1      -9.587   3.999  70.687  1.00  0.00    -0.190 A  
HETATM   16  N   UNL     1      -8.913   2.875  70.601  1.00  0.00    -0.089 NA 
HETATM   17  N   UNL     1      -8.830   2.379  71.875  1.00  0.00    -0.072 NA 
HETATM   18  N   UNL     1      -9.874   4.233  72.007  1.00  0.00    -0.167 NA 
HETATM   19  N   UNL     1      -9.424   3.190  72.738  1.00  0.00    -0.099 NA 
BRANCH  18  20
HETATM   20  C   UNL     1     -10.488   5.352  72.700  1.00  0.00    -0.217 C  
BRANCH  20  21
HETATM   21  C   UNL     1     -11.904   5.612  72.156  1.00  0.00    -0.010 C  
BRANCH  21  22
HETATM   22  N   UNL     1     -12.368   7.017  72.100  1.00  0.00    -0.240 NA 
HETATM   23  C   UNL     1     -12.715   7.347  70.706  1.00  0.00    -0.012 C  
HETATM   24  C   UNL     1     -11.361   7.981  72.560  1.00  0.00    -0.406 C  
ENDBRANCH  21  22
ENDBRANCH  20  21
ENDBRANCH  18  20
ENDBRANCH  14  15
ENDBRANCH  13  14
ENDBRANCH   4  13
BRANCH   8  25
HETATM   25  N   UNL     1      -9.961  11.826  68.035  1.00  0.00    -0.182 N  
HETATM   26  C   UNL     1     -10.510  12.755  67.177  1.00  0.00    -0.233 C  
HETATM   27  H   UNL     1     -10.503  11.518  68.842  1.00  0.00     0.000 HD 
HETATM   28  O   UNL     1      -9.968  13.080  66.121  1.00  0.00    -0.269 OA 
BRANCH  26  29
HETATM   29  C   UNL     1     -11.820  13.356  67.640  1.00  0.00    -0.394 C  
BRANCH  29  30
HETATM   30  C   UNL     1     -11.603  14.345  68.729  1.00  0.00    -0.315 A  
HETATM   31  N   UNL     1     -10.517  17.598  69.463  1.00  0.00    -0.286 NA 
HETATM   32  C   UNL     1     -11.878  14.169  70.072  1.00  0.00    -0.323 A  
HETATM   33  S   UNL     1     -11.488  15.590  70.942  1.00  0.00    -0.410 SA 
HETATM   34  H2  UNL     1     -10.465  18.123  70.335  1.00  0.00     0.000 HD 
HETATM   35  H1  UNL     1     -10.216  18.040  68.595  1.00  0.00     0.000 HD 
HETATM   36  N   UNL     1     -11.095  15.598  68.401  1.00  0.00    -0.309 NA 
HETATM   37  C   UNL     1     -10.982  16.335  69.482  1.00  0.00    -0.339 A  
ENDBRANCH  29  30
ENDBRANCH  26  29
ENDBRANCH   8  25
TORSDOF 9
ENDMDL
MODEL      250
REMARK 921   NORMALIZED FREE ENERGY PREDICTED BY IDOCK:   -3.59 KCAL/MOL
REMARK 922        TOTAL FREE ENERGY PREDICTED BY IDOCK:   -7.42 KCAL/MOL
REMARK 923 INTER-LIGAND FREE ENERGY PREDICTED BY IDOCK:   -5.98 KCAL/MOL
REMARK 924 INTRA-LIGAND FREE ENERGY PREDICTED BY IDOCK:   -1.44 KCAL/MOL
REMARK 927      BINDING AFFINITY PREDICTED BY RF-SCORE:    0.00 PKD
ROOT
HETATM    1  C   UNL     1     -11.315   6.587  71.181  1.00  0.00    -0.314 C  
HETATM    2  S   UNL     1     -10.993   6.082  69.476  1.00  0.00    -0.383 SA 
HETATM    3  C   UNL     1     -10.034   4.628  69.954  1.00  0.00    -0.226 C  
HETATM    4  C   UNL     1      -8.980   4.874  71.026  1.00  0.00    -0.168 C  
HETATM    5  C   UNL     1     -10.287   8.112  72.175  1.00  0.00    -0.274 C  
HETATM    6  CA  UNL     1      -8.996   5.943  71.877  1.00  0.00    -0.138 C  
HETATM    7  C   UNL     1      -7.867   6.143  72.870  1.00  0.00    -0.105 C  
HETATM    8  CA  UNL     1     -11.640   8.101  71.394  1.00  0.00    -0.278 C  
HETATM    9  N   UNL     1     -10.039   6.833  71.830  1.00  0.00    -0.183 N  
HETATM   10  O   UNL     1      -7.680   7.378  73.363  1.00  0.00    -0.090 OA 
HETATM   11  OXT UNL     1      -7.141   5.231  73.242  1.00  0.00    -0.078 OA 
HETATM   12  O   UNL     1      -9.579   8.916  72.743  1.00  0.00    -0.151 OA 
ENDROOT
BRANCH   4  13
HETATM   13  C   UNL     1      -7.838   3.857  70.909  1.00  0.00    -0.051 C  
BRANCH  13  14
HETATM   14  S   UNL     1      -6.514   4.399  69.769  1.00  0.00    -0.033 SA 
BRANCH  14  15
HETATM   15  C   UNL     1      -6.948   3.649  68.280  1.00  0.00    -0.050 A  
HETATM   16  N   UNL     1      -7.358   2.409  68.131  1.00  0.00    -0.048 NA 
HETATM   17  N   UNL     1      -7.501   2.212  66.783  1.00  0.00    -0.064 NA 
HETATM   18  N   UNL     1      -6.891   4.238  67.043  1.00  0.00    -0.051 NA 
HETATM   19  N   UNL     1      -7.207   3.314  66.109  1.00  0.00    -0.066 NA 
BRANCH  18  20
HETATM   20  C   UNL     1      -6.618   5.597  66.609  1.00  0.00    -0.056 C  
BRANCH  20  21
HETATM   21  C   UNL     1      -7.844   6.496  66.849  1.00  0.00    -0.107 C  
BRANCH  21  22
HETATM   22  N   UNL     1      -8.310   7.333  65.719  1.00  0.00    -0.134 NA 
HETATM   23  C   UNL     1      -7.610   6.905  64.493  1.00  0.00    -0.107 C  
HETATM   24  C   UNL     1      -8.055   8.765  65.913  1.00  0.00    -0.110 C  
ENDBRANCH  21  22
ENDBRANCH  20  21
ENDBRANCH  18  20
ENDBRANCH  14  15
ENDBRANCH  13  14
ENDBRANCH   4  13
BRANCH   8  25
HETATM   25  N   UNL     1     -11.676   8.960  70.172  1.00  0.00    -0.460 N  
HETATM   26  C   UNL     1     -11.988  10.301  70.229  1.00  0.00    -0.264 C  
HETATM   27  H   UNL     1     -11.462   8.541  69.267  1.00  0.00     0.000 HD 
HETATM   28  O   UNL     1     -12.136  10.901  71.293  1.00  0.00    -0.311 OA 
BRANCH  26  29
HETATM   29  C   UNL     1     -12.153  10.977  68.884  1.00  0.00    -0.239 C  
BRANCH  29  30
HETATM   30  C   UNL     1     -11.342  12.221  68.804  1.00  0.00    -0.289 A  
HETATM   31  N   UNL     1      -8.256  13.565  67.822  1.00  0.00    -0.161 NA 
HETATM   32  C   UNL     1     -11.738  13.491  69.180  1.00  0.00    -0.327 A  
HETATM   33  S   UNL     1     -10.480  14.611  68.881  1.00  0.00    -0.249 SA 
HETATM   34  H2  UNL     1      -7.886  14.516  67.836  1.00  0.00     0.000 HD 
HETATM   35  H1  UNL     1      -7.674  12.809  67.464  1.00  0.00     0.000 HD 
HETATM   36  N   UNL     1     -10.057  12.148  68.279  1.00  0.00    -0.206 NA 
HETATM   37  C   UNL     1      -9.502  13.338  68.278  1.00  0.00    -0.209 A  
ENDBRANCH  29  30
ENDBRANCH  26  29
ENDBRANCH   8  25
TORSDOF 9
ENDMDL
MODEL      251
REMARK 921   NORMALIZED FREE ENERGY PREDICTED BY IDOCK:   -3.58 KCAL/MOL
REMARK 922        TOTAL FREE ENERGY PREDICTED BY IDOCK:   -7.41 KCAL/MOL
REMARK 923 INTER-LIGAND FREE ENERGY PREDICTED BY IDOCK:   -8.13 KCAL/MOL
REMARK 924 INTRA-LIGAND FREE ENERGY PREDICTED BY IDOCK:    0.72 KCAL/MOL
REMARK 927      BINDING AFFINITY PREDICTED BY RF-SCORE:    0.00 PKD
ROOT
HETATM    1  C   UNL     1      -8.508  13.920  67.043  1.00  0.00    -0.134 C  
HETATM    2  S   UNL     1      -8.693  13.196  68.688  1.00  0.00     0.136 SA 
HETATM    3  C   UNL     1      -8.348  11.515  68.125  1.00  0.00    -0.152 C  
HETATM    4  C   UNL     1      -9.101  11.087  66.871  1.00  0.00    -0.165 C  
HETATM    5  C   UNL     1     -10.102  14.458  65.803  1.00  0.00    -0.340 C  
HETATM    6  CA  UNL     1      -9.655  11.963  65.981  1.00  0.00    -0.235 C  
HETATM    7  C   UNL     1     -10.445  11.444  64.794  1.00  0.00    -0.308 C  
HETATM    8  CA  UNL     1      -9.240  15.282  66.811  1.00  0.00    -0.250 C  
HETATM    9  N   UNL     1      -9.493  13.312  66.166  1.00  0.00    -0.195 N  
HETATM   10  O   UNL     1     -11.318  12.282  64.210  1.00  0.00    -0.313 OA 
HETATM   11  OXT UNL     1     -10.307  10.314  64.348  1.00  0.00    -0.235 OA 
HETATM   12  O   UNL     1     -11.057  14.636  65.076  1.00  0.00    -0.350 OA 
ENDROOT
BRANCH   4  13
HETATM   13  C   UNL     1      -9.278   9.564  66.837  1.00  0.00    -0.143 C  
BRANCH  13  14
HETATM   14  S   UNL     1      -8.493   8.722  68.258  1.00  0.00    -0.131 SA 
BRANCH  14  15
HETATM   15  C   UNL     1      -9.828   7.993  69.068  1.00  0.00    -0.178 A  
HETATM   16  N   UNL     1     -10.652   8.597  69.895  1.00  0.00    -0.223 NA 
HETATM   17  N   UNL     1     -11.497   7.630  70.370  1.00  0.00    -0.225 NA 
HETATM   18  N   UNL     1     -10.190   6.674  68.983  1.00  0.00    -0.168 NA 
HETATM   19  N   UNL     1     -11.217   6.451  69.833  1.00  0.00    -0.388 NA 
BRANCH  18  20
HETATM   20  C   UNL     1      -9.722   5.574  68.158  1.00  0.00    -0.132 C  
BRANCH  20  21
HETATM   21  C   UNL     1     -10.220   5.736  66.711  1.00  0.00    -0.221 C  
BRANCH  21  22
HETATM   22  N   UNL     1      -9.405   5.125  65.635  1.00  0.00    -0.158 NA 
HETATM   23  C   UNL     1      -8.781   3.894  66.154  1.00  0.00    -0.115 C  
HETATM   24  C   UNL     1      -8.338   6.005  65.143  1.00  0.00    -0.140 C  
ENDBRANCH  21  22
ENDBRANCH  20  21
ENDBRANCH  18  20
ENDBRANCH  14  15
ENDBRANCH  13  14
ENDBRANCH   4  13
BRANCH   8  25
HETATM   25  N   UNL     1      -9.988  15.850  67.973  1.00  0.00    -0.219 N  
HETATM   26  C   UNL     1     -11.264  15.440  68.294  1.00  0.00    -0.323 C  
HETATM   27  H   UNL     1      -9.540  16.566  68.546  1.00  0.00     0.000 HD 
HETATM   28  O   UNL     1     -11.819  14.500  67.727  1.00  0.00    -0.366 OA 
BRANCH  26  29
HETATM   29  C   UNL     1     -11.937  16.244  69.386  1.00  0.00     0.072 C  
BRANCH  29  30
HETATM   30  C   UNL     1     -12.348  15.373  70.520  1.00  0.00    -0.408 A  
HETATM   31  N   UNL     1     -13.180  15.315  73.926  1.00  0.00    -0.575 NA 
HETATM   32  C   UNL     1     -12.586  14.012  70.472  1.00  0.00    -0.329 A  
HETATM   33  S   UNL     1     -13.061  13.445  72.015  1.00  0.00    -0.363 SA 
HETATM   34  H2  UNL     1     -13.474  14.562  74.548  1.00  0.00     0.000 HD 
HETATM   35  H1  UNL     1     -13.093  16.261  74.295  1.00  0.00     0.000 HD 
HETATM   36  N   UNL     1     -12.549  15.952  71.768  1.00  0.00    -0.454 NA 
HETATM   37  C   UNL     1     -12.915  15.038  72.636  1.00  0.00    -0.400 A  
ENDBRANCH  29  30
ENDBRANCH  26  29
ENDBRANCH   8  25
TORSDOF 9
ENDMDL
MODEL      252
REMARK 921   NORMALIZED FREE ENERGY PREDICTED BY IDOCK:   -3.56 KCAL/MOL
REMARK 922        TOTAL FREE ENERGY PREDICTED BY IDOCK:   -7.37 KCAL/MOL
REMARK 923 INTER-LIGAND FREE ENERGY PREDICTED BY IDOCK:   -6.85 KCAL/MOL
REMARK 924 INTRA-LIGAND FREE ENERGY PREDICTED BY IDOCK:   -0.52 KCAL/MOL
REMARK 927      BINDING AFFINITY PREDICTED BY RF-SCORE:    0.00 PKD
ROOT
HETATM    1  C   UNL     1      -8.565  11.438  68.274  1.00  0.00    -0.156 C  
HETATM    2  S   UNL     1     -10.118  11.217  67.377  1.00  0.00    -0.189 SA 
HETATM    3  C   UNL     1      -9.606   9.657  66.624  1.00  0.00    -0.187 C  
HETATM    4  C   UNL     1      -8.212   9.663  66.009  1.00  0.00    -0.119 C  
HETATM    5  C   UNL     1      -7.025  12.717  67.673  1.00  0.00    -0.146 C  
HETATM    6  CA  UNL     1      -7.243  10.570  66.332  1.00  0.00    -0.129 C  
HETATM    7  C   UNL     1      -5.905  10.540  65.618  1.00  0.00    -0.127 C  
HETATM    8  CA  UNL     1      -8.211  12.908  68.671  1.00  0.00     0.015 C  
HETATM    9  N   UNL     1      -7.486  11.505  67.304  1.00  0.00    -0.130 N  
HETATM   10  O   UNL     1      -5.166  11.662  65.629  1.00  0.00    -0.196 OA 
HETATM   11  OXT UNL     1      -5.475   9.543  65.054  1.00  0.00    -0.045 OA 
HETATM   12  O   UNL     1      -6.115  13.376  67.215  1.00  0.00    -0.330 OA 
ENDROOT
BRANCH   4  13
HETATM   13  C   UNL     1      -8.110   8.625  64.885  1.00  0.00    -0.146 C  
BRANCH  13  14
HETATM   14  S   UNL     1      -7.469   7.011  65.460  1.00  0.00    -0.091 SA 
BRANCH  14  15
HETATM   15  C   UNL     1      -8.891   6.182  65.966  1.00  0.00    -0.153 A  
HETATM   16  N   UNL     1      -9.584   6.432  67.054  1.00  0.00    -0.136 NA 
HETATM   17  N   UNL     1     -10.571   5.484  67.107  1.00  0.00    -0.256 NA 
HETATM   18  N   UNL     1      -9.474   5.125  65.316  1.00  0.00    -0.060 NA 
HETATM   19  N   UNL     1     -10.506   4.674  66.061  1.00  0.00    -0.295 NA 
BRANCH  18  20
HETATM   20  C   UNL     1      -9.216   4.493  64.033  1.00  0.00    -0.101 C  
BRANCH  20  21
HETATM   21  C   UNL     1      -8.577   3.107  64.234  1.00  0.00    -0.093 C  
BRANCH  21  22
HETATM   22  N   UNL     1      -7.237   3.056  64.863  1.00  0.00    -0.064 NA 
HETATM   23  C   UNL     1      -6.245   3.579  63.906  1.00  0.00    -0.019 C  
HETATM   24  C   UNL     1      -6.827   1.700  65.249  1.00  0.00    -0.031 C  
ENDBRANCH  21  22
ENDBRANCH  20  21
ENDBRANCH  18  20
ENDBRANCH  14  15
ENDBRANCH  13  14
ENDBRANCH   4  13
BRANCH   8  25
HETATM   25  N   UNL     1      -9.198  13.964  68.294  1.00  0.00    -0.205 N  
HETATM   26  C   UNL     1      -9.202  15.208  68.887  1.00  0.00    -0.209 C  
HETATM   27  H   UNL     1      -9.890  13.758  67.573  1.00  0.00     0.000 HD 
HETATM   28  O   UNL     1      -8.326  15.570  69.672  1.00  0.00    -0.234 OA 
BRANCH  26  29
HETATM   29  C   UNL     1     -10.376  16.089  68.514  1.00  0.00    -0.241 C  
BRANCH  29  30
HETATM   30  C   UNL     1     -10.987  15.656  67.229  1.00  0.00    -0.275 A  
HETATM   31  N   UNL     1     -11.311  16.410  63.820  1.00  0.00    -1.362 NA 
HETATM   32  C   UNL     1     -11.762  14.531  67.020  1.00  0.00    -0.393 A  
HETATM   33  S   UNL     1     -12.219  14.431  65.375  1.00  0.00    -0.327 SA 
HETATM   34  H2  UNL     1     -11.792  15.937  63.055  1.00  0.00     0.000 HD 
HETATM   35  H1  UNL     1     -10.802  17.273  63.631  1.00  0.00     0.000 HD 
HETATM   36  N   UNL     1     -10.757  16.421  66.091  1.00  0.00    -0.230 NA 
HETATM   37  C   UNL     1     -11.363  15.883  65.057  1.00  0.00    -0.193 A  
ENDBRANCH  29  30
ENDBRANCH  26  29
ENDBRANCH   8  25
TORSDOF 9
ENDMDL
MODEL      253
REMARK 921   NORMALIZED FREE ENERGY PREDICTED BY IDOCK:   -3.56 KCAL/MOL
REMARK 922        TOTAL FREE ENERGY PREDICTED BY IDOCK:   -7.37 KCAL/MOL
REMARK 923 INTER-LIGAND FREE ENERGY PREDICTED BY IDOCK:   -7.58 KCAL/MOL
REMARK 924 INTRA-LIGAND FREE ENERGY PREDICTED BY IDOCK:    0.21 KCAL/MOL
REMARK 927      BINDING AFFINITY PREDICTED BY RF-SCORE:    0.00 PKD
ROOT
HETATM    1  C   UNL     1      -9.041  12.988  67.267  1.00  0.00    -0.209 C  
HETATM    2  S   UNL     1      -8.465  11.529  68.163  1.00  0.00    -0.160 SA 
HETATM    3  C   UNL     1      -7.824  10.717  66.682  1.00  0.00    -0.135 C  
HETATM    4  C   UNL     1      -8.769  10.715  65.487  1.00  0.00    -0.199 C  
HETATM    5  C   UNL     1     -11.031  13.334  66.727  1.00  0.00    -0.287 C  
HETATM    6  CA  UNL     1      -9.816  11.582  65.344  1.00  0.00    -0.235 C  
HETATM    7  C   UNL     1     -10.744  11.463  64.151  1.00  0.00    -0.371 C  
HETATM    8  CA  UNL     1     -10.185  13.802  67.954  1.00  0.00    -0.245 C  
HETATM    9  N   UNL     1     -10.020  12.560  66.283  1.00  0.00    -0.247 N  
HETATM   10  O   UNL     1     -11.969  12.007  64.255  1.00  0.00    -0.366 OA 
HETATM   11  OXT UNL     1     -10.419  10.910  63.109  1.00  0.00    -0.253 OA 
HETATM   12  O   UNL     1     -12.173  13.425  66.330  1.00  0.00    -0.414 OA 
ENDROOT
BRANCH   4  13
HETATM   13  C   UNL     1      -8.477   9.525  64.565  1.00  0.00    -0.181 C  
BRANCH  13  14
HETATM   14  S   UNL     1      -7.273   8.348  65.280  1.00  0.00    -0.084 SA 
BRANCH  14  15
HETATM   15  C   UNL     1      -8.260   7.022  65.764  1.00  0.00    -0.132 A  
HETATM   16  N   UNL     1      -8.607   6.003  65.010  1.00  0.00    -0.093 NA 
HETATM   17  N   UNL     1      -9.461   5.241  65.763  1.00  0.00    -0.147 NA 
HETATM   18  N   UNL     1      -8.845   6.869  66.994  1.00  0.00    -0.117 NA 
HETATM   19  N   UNL     1      -9.625   5.766  66.969  1.00  0.00    -0.129 NA 
BRANCH  18  20
HETATM   20  C   UNL     1      -8.734   7.611  68.238  1.00  0.00    -0.123 C  
BRANCH  20  21
HETATM   21  C   UNL     1      -7.756   6.911  69.198  1.00  0.00    -0.106 C  
BRANCH  21  22
HETATM   22  N   UNL     1      -6.643   7.718  69.749  1.00  0.00    -0.034 NA 
HETATM   23  C   UNL     1      -5.525   7.704  68.787  1.00  0.00    -0.026 C  
HETATM   24  C   UNL     1      -6.142   7.218  71.035  1.00  0.00    -0.036 C  
ENDBRANCH  21  22
ENDBRANCH  20  21
ENDBRANCH  18  20
ENDBRANCH  14  15
ENDBRANCH  13  14
ENDBRANCH   4  13
BRANCH   8  25
HETATM   25  N   UNL     1     -10.661  13.307  69.281  1.00  0.00    -0.443 N  
HETATM   26  C   UNL     1     -11.700  12.409  69.398  1.00  0.00    -0.322 C  
HETATM   27  H   UNL     1     -10.202  13.646  70.127  1.00  0.00     0.000 HD 
HETATM   28  O   UNL     1     -12.217  11.865  68.423  1.00  0.00    -0.425 OA 
BRANCH  26  29
HETATM   29  C   UNL     1     -12.166  12.154  70.816  1.00  0.00    -0.367 C  
BRANCH  29  30
HETATM   30  C   UNL     1     -12.814  13.362  71.394  1.00  0.00    -0.333 A  
HETATM   31  N   UNL     1     -12.951  15.469  74.193  1.00  0.00    -0.643 NA 
HETATM   32  C   UNL     1     -13.753  14.169  70.781  1.00  0.00     0.233 A  
HETATM   33  S   UNL     1     -14.190  15.455  71.822  1.00  0.00    -0.499 SA 
HETATM   34  H2  UNL     1     -13.486  16.315  74.390  1.00  0.00     0.000 HD 
HETATM   35  H1  UNL     1     -12.308  15.110  74.899  1.00  0.00     0.000 HD 
HETATM   36  N   UNL     1     -12.445  13.769  72.671  1.00  0.00     0.053 NA 
HETATM   37  C   UNL     1     -13.108  14.851  73.008  1.00  0.00    -0.505 A  
ENDBRANCH  29  30
ENDBRANCH  26  29
ENDBRANCH   8  25
TORSDOF 9
ENDMDL
MODEL      254
REMARK 921   NORMALIZED FREE ENERGY PREDICTED BY IDOCK:   -3.56 KCAL/MOL
REMARK 922        TOTAL FREE ENERGY PREDICTED BY IDOCK:   -7.37 KCAL/MOL
REMARK 923 INTER-LIGAND FREE ENERGY PREDICTED BY IDOCK:   -6.23 KCAL/MOL
REMARK 924 INTRA-LIGAND FREE ENERGY PREDICTED BY IDOCK:   -1.13 KCAL/MOL
REMARK 927      BINDING AFFINITY PREDICTED BY RF-SCORE:    0.00 PKD
ROOT
HETATM    1  C   UNL     1      -9.560  13.541  68.204  1.00  0.00    -0.215 C  
HETATM    2  S   UNL     1     -10.244  13.810  66.553  1.00  0.00    -0.290 SA 
HETATM    3  C   UNL     1      -9.980  12.101  66.028  1.00  0.00    -0.236 C  
HETATM    4  C   UNL     1      -8.601  11.535  66.342  1.00  0.00    -0.159 C  
HETATM    5  C   UNL     1      -7.633  14.101  68.790  1.00  0.00    -0.125 C  
HETATM    6  CA  UNL     1      -7.763  12.054  67.289  1.00  0.00    -0.168 C  
HETATM    7  C   UNL     1      -6.380  11.465  67.486  1.00  0.00    -0.069 C  
HETATM    8  CA  UNL     1      -9.016  14.813  68.931  1.00  0.00    -0.167 C  
HETATM    9  N   UNL     1      -8.181  13.109  68.059  1.00  0.00    -0.147 N  
HETATM   10  O   UNL     1      -5.452  12.235  68.078  1.00  0.00    -0.056 OA 
HETATM   11  OXT UNL     1      -6.088  10.327  67.144  1.00  0.00    -0.053 OA 
HETATM   12  O   UNL     1      -6.469  14.331  69.040  1.00  0.00    -0.090 OA 
ENDROOT
BRANCH   4  13
HETATM   13  C   UNL     1      -8.234  10.421  65.355  1.00  0.00    -0.159 C  
BRANCH  13  14
HETATM   14  S   UNL     1      -9.483   9.087  65.288  1.00  0.00     0.110 SA 
BRANCH  14  15
HETATM   15  C   UNL     1      -9.289   8.290  66.803  1.00  0.00    -0.182 A  
HETATM   16  N   UNL     1      -9.075   8.875  67.960  1.00  0.00    -0.139 NA 
HETATM   17  N   UNL     1      -8.894   7.868  68.871  1.00  0.00    -0.141 NA 
HETATM   18  N   UNL     1      -9.299   6.933  66.999  1.00  0.00    -0.139 NA 
HETATM   19  N   UNL     1      -9.014   6.681  68.295  1.00  0.00    -0.123 NA 
BRANCH  18  20
HETATM   20  C   UNL     1      -9.592   5.812  66.122  1.00  0.00    -0.099 C  
BRANCH  20  21
HETATM   21  C   UNL     1      -9.723   4.512  66.935  1.00  0.00    -0.205 C  
BRANCH  21  22
HETATM   22  N   UNL     1      -9.715   3.234  66.187  1.00  0.00     0.005 NA 
HETATM   23  C   UNL     1      -8.447   2.533  66.459  1.00  0.00    -0.099 C  
HETATM   24  C   UNL     1      -9.836   3.410  64.734  1.00  0.00    -0.124 C  
ENDBRANCH  21  22
ENDBRANCH  20  21
ENDBRANCH  18  20
ENDBRANCH  14  15
ENDBRANCH  13  14
ENDBRANCH   4  13
BRANCH   8  25
HETATM   25  N   UNL     1      -9.141  16.111  68.202  1.00  0.00    -0.187 N  
HETATM   26  C   UNL     1     -10.193  16.974  68.418  1.00  0.00    -0.331 C  
HETATM   27  H   UNL     1      -8.424  16.367  67.523  1.00  0.00     0.000 HD 
HETATM   28  O   UNL     1     -11.026  16.793  69.305  1.00  0.00    -0.294 OA 
BRANCH  26  29
HETATM   29  C   UNL     1     -10.257  18.154  67.470  1.00  0.00    -0.382 C  
BRANCH  29  30
HETATM   30  C   UNL     1      -9.066  19.032  67.624  1.00  0.00    -0.291 A  
HETATM   31  N   UNL     1      -6.370  19.856  69.709  1.00  0.00    -0.353 NA 
HETATM   32  C   UNL     1      -8.607  19.967  66.716  1.00  0.00    -0.331 A  
HETATM   33  S   UNL     1      -7.190  20.718  67.312  1.00  0.00    -0.337 SA 
HETATM   34  H2  UNL     1      -5.603  20.520  69.608  1.00  0.00     0.000 HD 
HETATM   35  H1  UNL     1      -6.428  19.283  70.550  1.00  0.00     0.000 HD 
HETATM   36  N   UNL     1      -8.293  18.912  68.773  1.00  0.00    -0.338 NA 
HETATM   37  C   UNL     1      -7.286  19.754  68.728  1.00  0.00    -0.317 A  
ENDBRANCH  29  30
ENDBRANCH  26  29
ENDBRANCH   8  25
TORSDOF 9
ENDMDL
MODEL      255
REMARK 921   NORMALIZED FREE ENERGY PREDICTED BY IDOCK:   -3.53 KCAL/MOL
REMARK 922        TOTAL FREE ENERGY PREDICTED BY IDOCK:   -7.32 KCAL/MOL
REMARK 923 INTER-LIGAND FREE ENERGY PREDICTED BY IDOCK:   -7.72 KCAL/MOL
REMARK 924 INTRA-LIGAND FREE ENERGY PREDICTED BY IDOCK:    0.40 KCAL/MOL
REMARK 927      BINDING AFFINITY PREDICTED BY RF-SCORE:    0.00 PKD
ROOT
HETATM    1  C   UNL     1      -9.251   7.672  71.681  1.00  0.00    -0.134 C  
HETATM    2  S   UNL     1      -8.732   8.340  70.084  1.00  0.00    -0.135 SA 
HETATM    3  C   UNL     1      -9.568   9.922  70.331  1.00  0.00    -0.056 C  
HETATM    4  C   UNL     1     -11.003   9.822  70.833  1.00  0.00    -0.411 C  
HETATM    5  C   UNL     1     -10.825   6.322  71.941  1.00  0.00    -0.242 C  
HETATM    6  CA  UNL     1     -11.516   8.719  71.455  1.00  0.00    -0.305 C  
HETATM    7  C   UNL     1     -12.977   8.685  71.861  1.00  0.00    -0.372 C  
HETATM    8  CA  UNL     1      -9.285   6.114  71.789  1.00  0.00    -0.144 C  
HETATM    9  N   UNL     1     -10.703   7.645  71.710  1.00  0.00    -0.213 N  
HETATM   10  O   UNL     1     -13.544   7.482  72.055  1.00  0.00    -0.247 OA 
HETATM   11  OXT UNL     1     -13.643   9.697  72.031  1.00  0.00    -0.408 OA 
HETATM   12  O   UNL     1     -11.822   5.640  72.051  1.00  0.00    -0.137 OA 
ENDROOT
BRANCH   4  13
HETATM   13  C   UNL     1     -11.815  11.052  70.407  1.00  0.00    -0.367 C  
BRANCH  13  14
HETATM   14  S   UNL     1     -11.760  11.353  68.604  1.00  0.00    -0.319 SA 
BRANCH  14  15
HETATM   15  C   UNL     1     -10.648  12.661  68.458  1.00  0.00    -0.243 A  
HETATM   16  N   UNL     1      -9.452  12.601  67.919  1.00  0.00    -0.198 NA 
HETATM   17  N   UNL     1      -8.887  13.836  68.096  1.00  0.00    -0.179 NA 
HETATM   18  N   UNL     1     -10.852  13.937  68.916  1.00  0.00    -0.256 NA 
HETATM   19  N   UNL     1      -9.725  14.655  68.715  1.00  0.00    -0.218 NA 
BRANCH  18  20
HETATM   20  C   UNL     1     -12.007  14.606  69.492  1.00  0.00    -0.319 C  
BRANCH  20  21
HETATM   21  C   UNL     1     -12.172  14.219  70.972  1.00  0.00    -0.356 C  
BRANCH  21  22
HETATM   22  N   UNL     1     -12.507  15.300  71.928  1.00  0.00    -0.326 NA 
HETATM   23  C   UNL     1     -11.566  16.417  71.728  1.00  0.00    -0.269 C  
HETATM   24  C   UNL     1     -12.424  14.880  73.332  1.00  0.00    -0.446 C  
ENDBRANCH  21  22
ENDBRANCH  20  21
ENDBRANCH  18  20
ENDBRANCH  14  15
ENDBRANCH  13  14
ENDBRANCH   4  13
BRANCH   8  25
HETATM   25  N   UNL     1      -8.863   5.345  70.580  1.00  0.00    -0.132 N  
HETATM   26  C   UNL     1      -9.730   5.075  69.544  1.00  0.00    -0.189 C  
HETATM   27  H   UNL     1      -7.901   5.009  70.520  1.00  0.00     0.000 HD 
HETATM   28  O   UNL     1     -10.864   5.550  69.490  1.00  0.00    -0.311 OA 
BRANCH  26  29
HETATM   29  C   UNL     1      -9.190   4.136  68.486  1.00  0.00    -0.200 C  
BRANCH  29  30
HETATM   30  C   UNL     1      -8.660   4.890  67.318  1.00  0.00    -0.104 A  
HETATM   31  N   UNL     1      -6.719   7.638  66.329  1.00  0.00    -0.056 NA 
HETATM   32  C   UNL     1      -8.843   4.581  65.983  1.00  0.00    -0.119 A  
HETATM   33  S   UNL     1      -8.027   5.718  65.000  1.00  0.00    -0.127 SA 
HETATM   34  H2  UNL     1      -6.445   7.989  65.412  1.00  0.00     0.000 HD 
HETATM   35  H1  UNL     1      -6.402   8.126  67.166  1.00  0.00     0.000 HD 
HETATM   36  N   UNL     1      -7.875   6.014  67.549  1.00  0.00    -0.098 NA 
HETATM   37  C   UNL     1      -7.493   6.539  66.408  1.00  0.00    -0.085 A  
ENDBRANCH  29  30
ENDBRANCH  26  29
ENDBRANCH   8  25
TORSDOF 9
ENDMDL
MODEL      256
REMARK 921   NORMALIZED FREE ENERGY PREDICTED BY IDOCK:   -3.51 KCAL/MOL
REMARK 922        TOTAL FREE ENERGY PREDICTED BY IDOCK:   -7.30 KCAL/MOL
REMARK 923 INTER-LIGAND FREE ENERGY PREDICTED BY IDOCK:   -7.56 KCAL/MOL
REMARK 924 INTRA-LIGAND FREE ENERGY PREDICTED BY IDOCK:    0.27 KCAL/MOL
REMARK 927      BINDING AFFINITY PREDICTED BY RF-SCORE:    0.00 PKD
ROOT
HETATM    1  C   UNL     1      -9.024   8.705  71.811  1.00  0.00    -0.237 C  
HETATM    2  S   UNL     1      -8.297   8.226  70.228  1.00  0.00    -0.127 SA 
HETATM    3  C   UNL     1      -8.582   9.839  69.466  1.00  0.00    -0.179 C  
HETATM    4  C   UNL     1      -9.980  10.411  69.670  1.00  0.00    -0.209 C  
HETATM    5  C   UNL     1     -10.953   8.188  72.431  1.00  0.00    -0.345 C  
HETATM    6  CA  UNL     1     -10.829  10.009  70.662  1.00  0.00    -0.297 C  
HETATM    7  C   UNL     1     -12.227  10.588  70.748  1.00  0.00    -0.369 C  
HETATM    8  CA  UNL     1      -9.560   7.534  72.697  1.00  0.00    -0.170 C  
HETATM    9  N   UNL     1     -10.408   9.081  71.580  1.00  0.00    -0.319 N  
HETATM   10  O   UNL     1     -13.154   9.887  71.422  1.00  0.00    -0.359 OA 
HETATM   11  OXT UNL     1     -12.534  11.661  70.245  1.00  0.00    -0.255 OA 
HETATM   12  O   UNL     1     -12.118   7.968  72.687  1.00  0.00    -0.328 OA 
ENDROOT
BRANCH   4  13
HETATM   13  C   UNL     1     -10.346  11.369  68.530  1.00  0.00    -0.205 C  
BRANCH  13  14
HETATM   14  S   UNL     1     -11.341  10.571  67.219  1.00  0.00     0.246 SA 
BRANCH  14  15
HETATM   15  C   UNL     1     -10.648  11.189  65.768  1.00  0.00    -0.227 A  
HETATM   16  N   UNL     1      -9.553  10.751  65.189  1.00  0.00    -0.225 NA 
HETATM   17  N   UNL     1      -9.323  11.581  64.124  1.00  0.00    -0.071 NA 
HETATM   18  N   UNL     1     -11.130  12.246  65.040  1.00  0.00    -0.307 NA 
HETATM   19  N   UNL     1     -10.270  12.504  64.031  1.00  0.00    -0.390 NA 
BRANCH  18  20
HETATM   20  C   UNL     1     -12.344  13.038  65.137  1.00  0.00    -0.484 C  
BRANCH  20  21
HETATM   21  C   UNL     1     -12.212  14.092  66.251  1.00  0.00    -0.462 C  
BRANCH  21  22
HETATM   22  N   UNL     1     -10.926  14.817  66.358  1.00  0.00    -0.326 NA 
HETATM   23  C   UNL     1     -10.913  15.576  67.622  1.00  0.00    -0.315 C  
HETATM   24  C   UNL     1     -10.698  15.762  65.257  1.00  0.00    -0.428 C  
ENDBRANCH  21  22
ENDBRANCH  20  21
ENDBRANCH  18  20
ENDBRANCH  14  15
ENDBRANCH  13  14
ENDBRANCH   4  13
BRANCH   8  25
HETATM   25  N   UNL     1      -9.392   6.151  72.159  1.00  0.00    -0.152 N  
HETATM   26  C   UNL     1     -10.321   5.573  71.321  1.00  0.00    -0.233 C  
HETATM   27  H   UNL     1      -8.563   5.617  72.420  1.00  0.00     0.000 HD 
HETATM   28  O   UNL     1     -11.279   6.197  70.866  1.00  0.00    -0.298 OA 
BRANCH  26  29
HETATM   29  C   UNL     1     -10.083   4.109  71.016  1.00  0.00    -0.130 C  
BRANCH  29  30
HETATM   30  C   UNL     1      -8.836   3.920  70.228  1.00  0.00    -0.084 A  
HETATM   31  N   UNL     1      -6.882   5.204  67.614  1.00  0.00    -0.059 NA 
HETATM   32  C   UNL     1      -7.884   2.935  70.412  1.00  0.00    -0.042 A  
HETATM   33  S   UNL     1      -6.611   3.132  69.286  1.00  0.00    -0.034 SA 
HETATM   34  H2  UNL     1      -5.987   4.914  67.220  1.00  0.00     0.000 HD 
HETATM   35  H1  UNL     1      -7.357   6.018  67.227  1.00  0.00     0.000 HD 
HETATM   36  N   UNL     1      -8.548   4.820  69.208  1.00  0.00    -0.082 NA 
HETATM   37  C   UNL     1      -7.410   4.503  68.634  1.00  0.00    -0.060 A  
ENDBRANCH  29  30
ENDBRANCH  26  29
ENDBRANCH   8  25
TORSDOF 9
ENDMDL
MODEL      257
REMARK 921   NORMALIZED FREE ENERGY PREDICTED BY IDOCK:   -3.50 KCAL/MOL
REMARK 922        TOTAL FREE ENERGY PREDICTED BY IDOCK:   -7.29 KCAL/MOL
REMARK 923 INTER-LIGAND FREE ENERGY PREDICTED BY IDOCK:   -7.07 KCAL/MOL
REMARK 924 INTRA-LIGAND FREE ENERGY PREDICTED BY IDOCK:   -0.22 KCAL/MOL
REMARK 927      BINDING AFFINITY PREDICTED BY RF-SCORE:    0.00 PKD
ROOT
HETATM    1  C   UNL     1      -7.829  10.156  68.972  1.00  0.00    -0.107 C  
HETATM    2  S   UNL     1      -9.346   9.846  69.904  1.00  0.00    -0.174 SA 
HETATM    3  C   UNL     1      -9.139   8.051  69.887  1.00  0.00    -0.145 C  
HETATM    4  C   UNL     1      -8.787   7.455  68.530  1.00  0.00    -0.126 C  
HETATM    5  C   UNL     1      -7.768  10.604  66.931  1.00  0.00    -0.122 C  
HETATM    6  CA  UNL     1      -8.252   8.175  67.499  1.00  0.00    -0.123 C  
HETATM    7  C   UNL     1      -7.997   7.510  66.159  1.00  0.00    -0.111 C  
HETATM    8  CA  UNL     1      -7.770  11.514  68.200  1.00  0.00    -0.120 C  
HETATM    9  N   UNL     1      -7.947   9.499  67.682  1.00  0.00    -0.105 N  
HETATM   10  O   UNL     1      -7.897   8.302  65.078  1.00  0.00    -0.110 OA 
HETATM   11  OXT UNL     1      -7.866   6.301  66.032  1.00  0.00    -0.100 OA 
HETATM   12  O   UNL     1      -7.780  10.736  65.725  1.00  0.00    -0.152 OA 
ENDROOT
BRANCH   4  13
HETATM   13  C   UNL     1      -9.257   5.998  68.438  1.00  0.00    -0.114 C  
BRANCH  13  14
HETATM   14  S   UNL     1     -10.621   5.615  69.595  1.00  0.00    -0.317 SA 
BRANCH  14  15
HETATM   15  C   UNL     1      -9.832   4.742  70.855  1.00  0.00    -0.209 A  
HETATM   16  N   UNL     1      -8.818   3.921  70.706  1.00  0.00    -0.080 NA 
HETATM   17  N   UNL     1      -8.573   3.385  71.943  1.00  0.00    -0.080 NA 
HETATM   18  N   UNL     1     -10.180   4.764  72.181  1.00  0.00    -0.191 NA 
HETATM   19  N   UNL     1      -9.405   3.881  72.847  1.00  0.00    -0.113 NA 
BRANCH  18  20
HETATM   20  C   UNL     1     -11.136   5.556  72.936  1.00  0.00    -0.299 C  
BRANCH  20  21
HETATM   21  C   UNL     1     -12.284   6.029  72.027  1.00  0.00    -0.029 C  
BRANCH  21  22
HETATM   22  N   UNL     1     -12.791   7.406  72.225  1.00  0.00    -0.052 NA 
HETATM   23  C   UNL     1     -13.776   7.705  71.170  1.00  0.00    -0.131 C  
HETATM   24  C   UNL     1     -11.738   8.427  72.167  1.00  0.00    -0.375 C  
ENDBRANCH  21  22
ENDBRANCH  20  21
ENDBRANCH  18  20
ENDBRANCH  14  15
ENDBRANCH  13  14
ENDBRANCH   4  13
BRANCH   8  25
HETATM   25  N   UNL     1      -8.952  12.418  68.334  1.00  0.00    -0.306 N  
HETATM   26  C   UNL     1      -9.050  13.604  67.640  1.00  0.00    -0.207 C  
HETATM   27  H   UNL     1      -9.712  12.147  68.960  1.00  0.00     0.000 HD 
HETATM   28  O   UNL     1      -8.235  13.936  66.779  1.00  0.00    -0.023 OA 
BRANCH  26  29
HETATM   29  C   UNL     1     -10.225  14.477  68.029  1.00  0.00    -0.233 C  
BRANCH  29  30
HETATM   30  C   UNL     1     -10.386  15.614  67.083  1.00  0.00    -0.285 A  
HETATM   31  N   UNL     1     -11.502  16.543  63.892  1.00  0.00    -1.599 NA 
HETATM   32  C   UNL     1     -10.066  16.938  67.321  1.00  0.00    -0.286 A  
HETATM   33  S   UNL     1     -10.449  17.889  65.951  1.00  0.00    -0.128 SA 
HETATM   34  H2  UNL     1     -11.545  17.444  63.415  1.00  0.00     0.000 HD 
HETATM   35  H1  UNL     1     -11.834  15.708  63.411  1.00  0.00     0.000 HD 
HETATM   36  N   UNL     1     -10.935  15.367  65.830  1.00  0.00    -0.327 NA 
HETATM   37  C   UNL     1     -11.008  16.483  65.142  1.00  0.00    -0.191 A  
ENDBRANCH  29  30
ENDBRANCH  26  29
ENDBRANCH   8  25
TORSDOF 9
ENDMDL
MODEL      258
REMARK 921   NORMALIZED FREE ENERGY PREDICTED BY IDOCK:   -3.48 KCAL/MOL
REMARK 922        TOTAL FREE ENERGY PREDICTED BY IDOCK:   -7.26 KCAL/MOL
REMARK 923 INTER-LIGAND FREE ENERGY PREDICTED BY IDOCK:   -6.59 KCAL/MOL
REMARK 924 INTRA-LIGAND FREE ENERGY PREDICTED BY IDOCK:   -0.67 KCAL/MOL
REMARK 927      BINDING AFFINITY PREDICTED BY RF-SCORE:    0.00 PKD
ROOT
HETATM    1  C   UNL     1      -8.950  11.724  67.940  1.00  0.00    -0.180 C  
HETATM    2  S   UNL     1     -10.340  11.562  66.796  1.00  0.00    -0.235 SA 
HETATM    3  C   UNL     1      -9.768   9.985  66.126  1.00  0.00    -0.227 C  
HETATM    4  C   UNL     1      -8.292   9.942  65.749  1.00  0.00    -0.131 C  
HETATM    5  C   UNL     1      -7.286  12.946  67.612  1.00  0.00    -0.145 C  
HETATM    6  CA  UNL     1      -7.357  10.811  66.235  1.00  0.00    -0.138 C  
HETATM    7  C   UNL     1      -5.922  10.733  65.752  1.00  0.00    -0.126 C  
HETATM    8  CA  UNL     1      -8.614  13.179  68.401  1.00  0.00    -0.124 C  
HETATM    9  N   UNL     1      -7.724  11.753  67.162  1.00  0.00    -0.156 N  
HETATM   10  O   UNL     1      -5.154  11.827  65.894  1.00  0.00    -0.282 OA 
HETATM   11  OXT UNL     1      -5.441   9.722  65.259  1.00  0.00    -0.047 OA 
HETATM   12  O   UNL     1      -6.290  13.572  67.315  1.00  0.00    -0.294 OA 
ENDROOT
BRANCH   4  13
HETATM   13  C   UNL     1      -8.043   8.903  64.649  1.00  0.00    -0.151 C  
BRANCH  13  14
HETATM   14  S   UNL     1      -7.347   7.338  65.290  1.00  0.00    -0.085 SA 
BRANCH  14  15
HETATM   15  C   UNL     1      -7.808   7.354  66.950  1.00  0.00    -0.115 A  
HETATM   16  N   UNL     1      -7.109   7.862  67.940  1.00  0.00    -0.084 NA 
HETATM   17  N   UNL     1      -7.804   7.577  69.086  1.00  0.00    -0.117 NA 
HETATM   18  N   UNL     1      -8.955   6.807  67.466  1.00  0.00    -0.116 NA 
HETATM   19  N   UNL     1      -8.922   6.923  68.811  1.00  0.00    -0.131 NA 
BRANCH  18  20
HETATM   20  C   UNL     1     -10.130   6.217  66.848  1.00  0.00    -0.183 C  
BRANCH  20  21
HETATM   21  C   UNL     1     -10.470   4.871  67.514  1.00  0.00     0.031 C  
BRANCH  21  22
HETATM   22  N   UNL     1      -9.856   3.651  66.941  1.00  0.00    -0.061 NA 
HETATM   23  C   UNL     1      -9.492   2.741  68.043  1.00  0.00    -0.155 C  
HETATM   24  C   UNL     1      -8.646   3.922  66.156  1.00  0.00    -0.112 C  
ENDBRANCH  21  22
ENDBRANCH  20  21
ENDBRANCH  18  20
ENDBRANCH  14  15
ENDBRANCH  13  14
ENDBRANCH   4  13
BRANCH   8  25
HETATM   25  N   UNL     1      -9.485  14.272  67.875  1.00  0.00    -0.207 N  
HETATM   26  C   UNL     1      -9.845  15.357  68.644  1.00  0.00    -0.208 C  
HETATM   27  H   UNL     1      -9.824  14.213  66.914  1.00  0.00     0.000 HD 
HETATM   28  O   UNL     1      -9.378  15.557  69.765  1.00  0.00    -0.274 OA 
BRANCH  26  29
HETATM   29  C   UNL     1     -10.873  16.274  68.014  1.00  0.00    -0.339 C  
BRANCH  29  30
HETATM   30  C   UNL     1     -10.233  17.497  67.459  1.00  0.00    -0.340 A  
HETATM   31  N   UNL     1      -7.413  18.741  65.788  1.00  0.00    -0.483 NA 
HETATM   32  C   UNL     1     -10.761  18.774  67.450  1.00  0.00    -0.424 A  
HETATM   33  S   UNL     1      -9.677  19.852  66.682  1.00  0.00    -0.456 SA 
HETATM   34  H2  UNL     1      -7.166  19.675  65.460  1.00  0.00     0.000 HD 
HETATM   35  H1  UNL     1      -6.765  17.970  65.632  1.00  0.00     0.000 HD 
HETATM   36  N   UNL     1      -8.986  17.382  66.855  1.00  0.00    -0.238 NA 
HETATM   37  C   UNL     1      -8.587  18.554  66.418  1.00  0.00    -0.256 A  
ENDBRANCH  29  30
ENDBRANCH  26  29
ENDBRANCH   8  25
TORSDOF 9
ENDMDL
MODEL      259
REMARK 921   NORMALIZED FREE ENERGY PREDICTED BY IDOCK:   -3.48 KCAL/MOL
REMARK 922        TOTAL FREE ENERGY PREDICTED BY IDOCK:   -7.25 KCAL/MOL
REMARK 923 INTER-LIGAND FREE ENERGY PREDICTED BY IDOCK:   -7.33 KCAL/MOL
REMARK 924 INTRA-LIGAND FREE ENERGY PREDICTED BY IDOCK:    0.08 KCAL/MOL
REMARK 927      BINDING AFFINITY PREDICTED BY RF-SCORE:    0.00 PKD
ROOT
HETATM    1  C   UNL     1      -6.851  10.214  65.966  1.00  0.00    -0.112 C  
HETATM    2  S   UNL     1      -7.840  11.111  67.182  1.00  0.00    -0.146 SA 
HETATM    3  C   UNL     1      -7.238  10.136  68.578  1.00  0.00    -0.080 C  
HETATM    4  C   UNL     1      -7.242   8.628  68.362  1.00  0.00    -0.085 C  
HETATM    5  C   UNL     1      -7.596   8.723  64.704  1.00  0.00    -0.109 C  
HETATM    6  CA  UNL     1      -7.275   8.036  67.130  1.00  0.00    -0.087 C  
HETATM    7  C   UNL     1      -7.344   6.526  67.013  1.00  0.00    -0.079 C  
HETATM    8  CA  UNL     1      -7.377  10.255  64.495  1.00  0.00    -0.076 C  
HETATM    9  N   UNL     1      -7.244   8.816  66.002  1.00  0.00    -0.087 N  
HETATM   10  O   UNL     1      -7.807   6.009  65.862  1.00  0.00    -0.100 OA 
HETATM   11  OXT UNL     1      -6.986   5.773  67.908  1.00  0.00    -0.062 OA 
HETATM   12  O   UNL     1      -8.049   7.782  64.087  1.00  0.00    -0.132 OA 
ENDROOT
BRANCH   4  13
HETATM   13  C   UNL     1      -7.360   7.887  69.699  1.00  0.00    -0.090 C  
BRANCH  13  14
HETATM   14  S   UNL     1      -7.746   8.999  71.099  1.00  0.00    -0.070 SA 
BRANCH  14  15
HETATM   15  C   UNL     1      -9.421   8.711  71.379  1.00  0.00    -0.237 A  
HETATM   16  N   UNL     1     -10.406   9.520  71.062  1.00  0.00    -0.302 NA 
HETATM   17  N   UNL     1     -11.550   8.941  71.544  1.00  0.00    -0.293 NA 
HETATM   18  N   UNL     1      -9.949   7.611  72.003  1.00  0.00    -0.171 NA 
HETATM   19  N   UNL     1     -11.282   7.784  72.132  1.00  0.00    -0.276 NA 
BRANCH  18  20
HETATM   20  C   UNL     1      -9.364   6.364  72.466  1.00  0.00    -0.145 C  
BRANCH  20  21
HETATM   21  C   UNL     1     -10.008   5.166  71.747  1.00  0.00    -0.187 C  
BRANCH  21  22
HETATM   22  N   UNL     1      -9.685   4.973  70.315  1.00  0.00    -0.196 NA 
HETATM   23  C   UNL     1     -10.775   5.542  69.501  1.00  0.00    -0.262 C  
HETATM   24  C   UNL     1      -9.524   3.564  69.939  1.00  0.00    -0.184 C  
ENDBRANCH  21  22
ENDBRANCH  20  21
ENDBRANCH  18  20
ENDBRANCH  14  15
ENDBRANCH  13  14
ENDBRANCH   4  13
BRANCH   8  25
HETATM   25  N   UNL     1      -8.619  11.047  64.246  1.00  0.00    -0.375 N  
HETATM   26  C   UNL     1      -9.868  10.579  64.591  1.00  0.00    -0.340 C  
HETATM   27  H   UNL     1      -8.539  11.965  63.806  1.00  0.00     0.000 HD 
HETATM   28  O   UNL     1     -10.032   9.542  65.233  1.00  0.00    -0.247 OA 
BRANCH  26  29
HETATM   29  C   UNL     1     -11.025  11.428  64.107  1.00  0.00    -0.411 C  
BRANCH  29  30
HETATM   30  C   UNL     1     -11.162  12.665  64.921  1.00  0.00    -0.297 A  
HETATM   31  N   UNL     1     -10.893  16.161  64.879  1.00  0.00    -0.654 NA 
HETATM   32  C   UNL     1     -11.562  12.745  66.242  1.00  0.00    -0.379 A  
HETATM   33  S   UNL     1     -11.596  14.379  66.747  1.00  0.00    -0.392 SA 
HETATM   34  H2  UNL     1     -11.065  16.871  65.591  1.00  0.00     0.000 HD 
HETATM   35  H1  UNL     1     -10.585  16.449  63.951  1.00  0.00     0.000 HD 
HETATM   36  N   UNL     1     -10.895  13.891  64.323  1.00  0.00    -0.273 NA 
HETATM   37  C   UNL     1     -11.078  14.864  65.186  1.00  0.00    -0.393 A  
ENDBRANCH  29  30
ENDBRANCH  26  29
ENDBRANCH   8  25
TORSDOF 9
ENDMDL
MODEL      260
REMARK 921   NORMALIZED FREE ENERGY PREDICTED BY IDOCK:   -3.48 KCAL/MOL
REMARK 922        TOTAL FREE ENERGY PREDICTED BY IDOCK:   -7.24 KCAL/MOL
REMARK 923 INTER-LIGAND FREE ENERGY PREDICTED BY IDOCK:   -6.97 KCAL/MOL
REMARK 924 INTRA-LIGAND FREE ENERGY PREDICTED BY IDOCK:   -0.28 KCAL/MOL
REMARK 927      BINDING AFFINITY PREDICTED BY RF-SCORE:    0.00 PKD
ROOT
HETATM    1  C   UNL     1      -8.400   8.269  67.595  1.00  0.00    -0.127 C  
HETATM    2  S   UNL     1      -7.825   9.657  68.599  1.00  0.00    -0.082 SA 
HETATM    3  C   UNL     1      -6.696   8.644  69.580  1.00  0.00    -0.040 C  
HETATM    4  C   UNL     1      -7.290   7.345  70.110  1.00  0.00    -0.078 C  
HETATM    5  C   UNL     1     -10.215   7.274  67.885  1.00  0.00    -0.191 C  
HETATM    6  CA  UNL     1      -8.401   6.747  69.585  1.00  0.00    -0.132 C  
HETATM    7  C   UNL     1      -8.960   5.488  70.221  1.00  0.00    -0.137 C  
HETATM    8  CA  UNL     1      -9.805   8.442  66.933  1.00  0.00    -0.245 C  
HETATM    9  N   UNL     1      -9.006   7.289  68.480  1.00  0.00    -0.131 N  
HETATM   10  O   UNL     1     -10.246   5.184  69.978  1.00  0.00    -0.251 OA 
HETATM   11  OXT UNL     1      -8.289   4.745  70.924  1.00  0.00    -0.094 OA 
HETATM   12  O   UNL     1     -11.217   6.653  68.174  1.00  0.00    -0.230 OA 
ENDROOT
BRANCH   4  13
HETATM   13  C   UNL     1      -6.570   6.900  71.389  1.00  0.00    -0.045 C  
BRANCH  13  14
HETATM   14  S   UNL     1      -6.977   7.942  72.836  1.00  0.00    -0.089 SA 
BRANCH  14  15
HETATM   15  C   UNL     1      -8.699   7.900  72.878  1.00  0.00    -0.186 A  
HETATM   16  N   UNL     1      -9.505   8.772  72.317  1.00  0.00    -0.330 NA 
HETATM   17  N   UNL     1     -10.776   8.407  72.676  1.00  0.00    -0.309 NA 
HETATM   18  N   UNL     1      -9.459   6.966  73.533  1.00  0.00    -0.162 NA 
HETATM   19  N   UNL     1     -10.760   7.316  73.428  1.00  0.00    -0.387 NA 
BRANCH  18  20
HETATM   20  C   UNL     1      -9.127   5.732  74.223  1.00  0.00    -0.124 C  
BRANCH  20  21
HETATM   21  C   UNL     1     -10.398   4.910  74.502  1.00  0.00    -0.285 C  
BRANCH  21  22
HETATM   22  N   UNL     1     -10.265   3.436  74.535  1.00  0.00    -0.169 NA 
HETATM   23  C   UNL     1      -8.840   3.084  74.393  1.00  0.00    -0.079 C  
HETATM   24  C   UNL     1     -11.010   2.760  73.466  1.00  0.00    -0.216 C  
ENDBRANCH  21  22
ENDBRANCH  20  21
ENDBRANCH  18  20
ENDBRANCH  14  15
ENDBRANCH  13  14
ENDBRANCH   4  13
BRANCH   8  25
HETATM   25  N   UNL     1     -10.509   9.738  67.176  1.00  0.00    -0.254 N  
HETATM   26  C   UNL     1     -11.099  10.035  68.385  1.00  0.00    -0.182 C  
HETATM   27  H   UNL     1     -10.553  10.424  66.422  1.00  0.00     0.000 HD 
HETATM   28  O   UNL     1     -10.981   9.313  69.374  1.00  0.00    -0.212 OA 
BRANCH  26  29
HETATM   29  C   UNL     1     -11.918  11.309  68.400  1.00  0.00    -0.255 C  
BRANCH  29  30
HETATM   30  C   UNL     1     -11.341  12.330  67.485  1.00  0.00    -0.325 A  
HETATM   31  N   UNL     1      -8.521  14.303  66.818  1.00  0.00    -0.423 NA 
HETATM   32  C   UNL     1     -11.941  12.866  66.361  1.00  0.00    -0.395 A  
HETATM   33  S   UNL     1     -10.887  13.985  65.611  1.00  0.00    -0.306 SA 
HETATM   34  H2  UNL     1      -8.309  14.969  66.075  1.00  0.00     0.000 HD 
HETATM   35  H1  UNL     1      -7.824  14.124  67.541  1.00  0.00     0.000 HD 
HETATM   36  N   UNL     1     -10.057  12.801  67.736  1.00  0.00    -0.219 NA 
HETATM   37  C   UNL     1      -9.714  13.682  66.825  1.00  0.00    -0.275 A  
ENDBRANCH  29  30
ENDBRANCH  26  29
ENDBRANCH   8  25
TORSDOF 9
ENDMDL
MODEL      261
REMARK 921   NORMALIZED FREE ENERGY PREDICTED BY IDOCK:   -3.45 KCAL/MOL
REMARK 922        TOTAL FREE ENERGY PREDICTED BY IDOCK:   -7.21 KCAL/MOL
REMARK 923 INTER-LIGAND FREE ENERGY PREDICTED BY IDOCK:   -5.77 KCAL/MOL
REMARK 924 INTRA-LIGAND FREE ENERGY PREDICTED BY IDOCK:   -1.43 KCAL/MOL
REMARK 927      BINDING AFFINITY PREDICTED BY RF-SCORE:    0.00 PKD
ROOT
HETATM    1  C   UNL     1      -8.117  10.217  69.232  1.00  0.00    -0.155 C  
HETATM    2  S   UNL     1      -9.596   9.699  70.131  1.00  0.00    -0.240 SA 
HETATM    3  C   UNL     1      -8.967   8.039  70.464  1.00  0.00    -0.152 C  
HETATM    4  C   UNL     1      -8.358   7.327  69.262  1.00  0.00    -0.132 C  
HETATM    5  C   UNL     1      -7.973  10.310  67.149  1.00  0.00    -0.114 C  
HETATM    6  CA  UNL     1      -7.915   7.971  68.141  1.00  0.00    -0.128 C  
HETATM    7  C   UNL     1      -7.384   7.174  66.965  1.00  0.00    -0.089 C  
HETATM    8  CA  UNL     1      -8.311  11.394  68.222  1.00  0.00    -0.152 C  
HETATM    9  N   UNL     1      -7.953   9.341  68.085  1.00  0.00    -0.099 N  
HETATM   10  O   UNL     1      -7.375   7.768  65.760  1.00  0.00    -0.073 OA 
HETATM   11  OXT UNL     1      -6.958   6.032  67.075  1.00  0.00    -0.065 OA 
HETATM   12  O   UNL     1      -7.903  10.227  65.941  1.00  0.00    -0.127 OA 
ENDROOT
BRANCH   4  13
HETATM   13  C   UNL     1      -8.456   5.806  69.424  1.00  0.00    -0.112 C  
BRANCH  13  14
HETATM   14  S   UNL     1     -10.146   5.166  69.142  1.00  0.00    -0.183 SA 
BRANCH  14  15
HETATM   15  C   UNL     1     -10.114   4.689  67.486  1.00  0.00    -0.075 A  
HETATM   16  N   UNL     1     -10.629   5.360  66.480  1.00  0.00    -0.304 NA 
HETATM   17  N   UNL     1     -10.456   4.578  65.369  1.00  0.00    -0.236 NA 
HETATM   18  N   UNL     1      -9.574   3.527  67.000  1.00  0.00    -0.180 NA 
HETATM   19  N   UNL     1      -9.827   3.452  65.675  1.00  0.00    -0.011 NA 
BRANCH  18  20
HETATM   20  C   UNL     1      -8.792   2.469  67.617  1.00  0.00    -0.136 C  
BRANCH  20  21
HETATM   21  C   UNL     1      -7.929   1.751  66.564  1.00  0.00    -0.072 C  
BRANCH  21  22
HETATM   22  N   UNL     1      -6.508   2.154  66.454  1.00  0.00    -0.024 NA 
HETATM   23  C   UNL     1      -6.078   2.732  67.741  1.00  0.00    -0.028 C  
HETATM   24  C   UNL     1      -6.265   3.150  65.404  1.00  0.00    -0.027 C  
ENDBRANCH  21  22
ENDBRANCH  20  21
ENDBRANCH  18  20
ENDBRANCH  14  15
ENDBRANCH  13  14
ENDBRANCH   4  13
BRANCH   8  25
HETATM   25  N   UNL     1      -9.681  11.980  68.125  1.00  0.00    -0.194 N  
HETATM   26  C   UNL     1     -10.037  12.850  67.117  1.00  0.00    -0.243 C  
HETATM   27  H   UNL     1     -10.377  11.728  68.828  1.00  0.00     0.000 HD 
HETATM   28  O   UNL     1      -9.294  13.102  66.169  1.00  0.00    -0.194 OA 
BRANCH  26  29
HETATM   29  C   UNL     1     -11.403  13.484  67.272  1.00  0.00    -0.339 C  
BRANCH  29  30
HETATM   30  C   UNL     1     -11.328  14.734  68.075  1.00  0.00    -0.316 A  
HETATM   31  N   UNL     1     -11.968  16.158  71.215  1.00  0.00    -0.601 NA 
HETATM   32  C   UNL     1     -10.826  15.953  67.661  1.00  0.00    -0.312 A  
HETATM   33  S   UNL     1     -10.922  17.090  68.935  1.00  0.00    -0.026 SA 
HETATM   34  H2  UNL     1     -11.812  17.094  71.589  1.00  0.00     0.000 HD 
HETATM   35  H1  UNL     1     -12.385  15.445  71.813  1.00  0.00     0.000 HD 
HETATM   36  N   UNL     1     -11.774  14.708  69.392  1.00  0.00    -0.298 NA 
HETATM   37  C   UNL     1     -11.621  15.891  69.942  1.00  0.00    -0.336 A  
ENDBRANCH  29  30
ENDBRANCH  26  29
ENDBRANCH   8  25
TORSDOF 9
ENDMDL
MODEL      262
REMARK 921   NORMALIZED FREE ENERGY PREDICTED BY IDOCK:   -3.44 KCAL/MOL
REMARK 922        TOTAL FREE ENERGY PREDICTED BY IDOCK:   -7.19 KCAL/MOL
REMARK 923 INTER-LIGAND FREE ENERGY PREDICTED BY IDOCK:   -6.12 KCAL/MOL
REMARK 924 INTRA-LIGAND FREE ENERGY PREDICTED BY IDOCK:   -1.07 KCAL/MOL
REMARK 927      BINDING AFFINITY PREDICTED BY RF-SCORE:    0.00 PKD
ROOT
HETATM    1  C   UNL     1      -6.629  11.933  68.150  1.00  0.00    -0.057 C  
HETATM    2  S   UNL     1      -6.239  12.453  69.836  1.00  0.00    -0.053 SA 
HETATM    3  C   UNL     1      -6.361  10.783  70.514  1.00  0.00    -0.051 C  
HETATM    4  C   UNL     1      -7.596  10.001  70.084  1.00  0.00    -0.168 C  
HETATM    5  C   UNL     1      -8.501  12.156  67.248  1.00  0.00    -0.178 C  
HETATM    6  CA  UNL     1      -8.341  10.303  68.979  1.00  0.00    -0.148 C  
HETATM    7  C   UNL     1      -9.594   9.509  68.667  1.00  0.00    -0.146 C  
HETATM    8  CA  UNL     1      -7.213  13.039  67.214  1.00  0.00    -0.049 C  
HETATM    9  N   UNL     1      -7.949  11.327  68.156  1.00  0.00    -0.124 N  
HETATM   10  O   UNL     1     -10.513  10.079  67.869  1.00  0.00    -0.199 OA 
HETATM   11  OXT UNL     1      -9.789   8.379  69.095  1.00  0.00    -0.175 OA 
HETATM   12  O   UNL     1      -9.634  12.196  66.818  1.00  0.00    -0.201 OA 
ENDROOT
BRANCH   4  13
HETATM   13  C   UNL     1      -7.964   8.947  71.135  1.00  0.00    -0.144 C  
BRANCH  13  14
HETATM   14  S   UNL     1      -6.908   7.456  71.051  1.00  0.00    -0.055 SA 
BRANCH  14  15
HETATM   15  C   UNL     1      -7.470   6.501  72.371  1.00  0.00    -0.094 A  
HETATM   16  N   UNL     1      -6.720   5.954  73.300  1.00  0.00    -0.073 NA 
HETATM   17  N   UNL     1      -7.563   5.217  74.089  1.00  0.00    -0.090 NA 
HETATM   18  N   UNL     1      -8.775   6.157  72.609  1.00  0.00    -0.125 NA 
HETATM   19  N   UNL     1      -8.815   5.322  73.670  1.00  0.00    -0.122 NA 
BRANCH  18  20
HETATM   20  C   UNL     1     -10.028   6.552  71.989  1.00  0.00    -0.169 C  
BRANCH  20  21
HETATM   21  C   UNL     1     -10.595   7.809  72.672  1.00  0.00    -0.317 C  
BRANCH  21  22
HETATM   22  N   UNL     1     -11.915   8.300  72.214  1.00  0.00    -0.364 NA 
HETATM   23  C   UNL     1     -12.466   7.340  71.240  1.00  0.00    -0.366 C  
HETATM   24  C   UNL     1     -11.854   9.617  71.569  1.00  0.00    -0.407 C  
ENDBRANCH  21  22
ENDBRANCH  20  21
ENDBRANCH  18  20
ENDBRANCH  14  15
ENDBRANCH  13  14
ENDBRANCH   4  13
BRANCH   8  25
HETATM   25  N   UNL     1      -7.362  14.406  67.798  1.00  0.00    -0.155 N  
HETATM   26  C   UNL     1      -6.373  15.360  67.692  1.00  0.00    -0.151 C  
HETATM   27  H   UNL     1      -8.225  14.641  68.290  1.00  0.00     0.000 HD 
HETATM   28  O   UNL     1      -5.362  15.191  67.012  1.00  0.00    -0.050 OA 
BRANCH  26  29
HETATM   29  C   UNL     1      -6.616  16.623  68.491  1.00  0.00    -0.142 C  
BRANCH  29  30
HETATM   30  C   UNL     1      -8.023  17.085  68.352  1.00  0.00    -0.239 A  
HETATM   31  N   UNL     1     -11.325  16.552  69.403  1.00  0.00    -0.280 NA 
HETATM   32  C   UNL     1      -8.474  18.140  67.580  1.00  0.00    -0.244 A  
HETATM   33  S   UNL     1     -10.166  18.313  67.754  1.00  0.00    -0.403 SA 
HETATM   34  H2  UNL     1     -12.200  17.029  69.186  1.00  0.00     0.000 HD 
HETATM   35  H1  UNL     1     -11.335  15.760  70.045  1.00  0.00     0.000 HD 
HETATM   36  N   UNL     1      -9.014  16.432  69.075  1.00  0.00    -0.254 NA 
HETATM   37  C   UNL     1     -10.183  16.981  68.835  1.00  0.00    -0.322 A  
ENDBRANCH  29  30
ENDBRANCH  26  29
ENDBRANCH   8  25
TORSDOF 9
ENDMDL
MODEL      263
REMARK 921   NORMALIZED FREE ENERGY PREDICTED BY IDOCK:   -3.38 KCAL/MOL
REMARK 922        TOTAL FREE ENERGY PREDICTED BY IDOCK:   -7.10 KCAL/MOL
REMARK 923 INTER-LIGAND FREE ENERGY PREDICTED BY IDOCK:   -5.96 KCAL/MOL
REMARK 924 INTRA-LIGAND FREE ENERGY PREDICTED BY IDOCK:   -1.13 KCAL/MOL
REMARK 927      BINDING AFFINITY PREDICTED BY RF-SCORE:    0.00 PKD
ROOT
HETATM    1  C   UNL     1      -9.599  11.044  67.601  1.00  0.00    -0.168 C  
HETATM    2  S   UNL     1     -10.547  11.544  69.056  1.00  0.00    -0.129 SA 
HETATM    3  C   UNL     1     -10.514  13.299  68.631  1.00  0.00    -0.228 C  
HETATM    4  C   UNL     1      -9.148  13.839  68.227  1.00  0.00    -0.195 C  
HETATM    5  C   UNL     1      -7.561  10.579  67.622  1.00  0.00    -0.093 C  
HETATM    6  CA  UNL     1      -8.116  13.053  67.797  1.00  0.00    -0.168 C  
HETATM    7  C   UNL     1      -6.769  13.673  67.480  1.00  0.00    -0.124 C  
HETATM    8  CA  UNL     1      -8.837   9.684  67.718  1.00  0.00    -0.125 C  
HETATM    9  N   UNL     1      -8.306  11.703  67.654  1.00  0.00    -0.136 N  
HETATM   10  O   UNL     1      -5.693  12.869  67.491  1.00  0.00    -0.179 OA 
HETATM   11  OXT UNL     1      -6.631  14.857  67.204  1.00  0.00    -0.269 OA 
HETATM   12  O   UNL     1      -6.357  10.443  67.665  1.00  0.00    -0.057 OA 
ENDROOT
BRANCH   4  13
HETATM   13  C   UNL     1      -9.051  15.342  68.516  1.00  0.00    -0.197 C  
BRANCH  13  14
HETATM   14  S   UNL     1      -9.764  16.372  67.183  1.00  0.00    -0.245 SA 
BRANCH  14  15
HETATM   15  C   UNL     1      -9.817  17.944  67.888  1.00  0.00    -0.309 A  
HETATM   16  N   UNL     1     -10.329  18.246  69.060  1.00  0.00    -0.226 NA 
HETATM   17  N   UNL     1     -10.240  19.608  69.178  1.00  0.00    -0.327 NA 
HETATM   18  N   UNL     1      -9.361  19.097  67.304  1.00  0.00    -0.297 NA 
HETATM   19  N   UNL     1      -9.665  20.139  68.109  1.00  0.00    -0.334 NA 
BRANCH  18  20
HETATM   20  C   UNL     1      -8.618  19.357  66.083  1.00  0.00    -0.284 C  
BRANCH  20  21
HETATM   21  C   UNL     1      -7.125  19.039  66.283  1.00  0.00    -0.241 C  
BRANCH  21  22
HETATM   22  N   UNL     1      -6.397  19.798  67.325  1.00  0.00    -0.189 NA 
HETATM   23  C   UNL     1      -5.341  20.599  66.678  1.00  0.00    -0.171 C  
HETATM   24  C   UNL     1      -5.764  18.941  68.334  1.00  0.00    -0.199 C  
ENDBRANCH  21  22
ENDBRANCH  20  21
ENDBRANCH  18  20
ENDBRANCH  14  15
ENDBRANCH  13  14
ENDBRANCH   4  13
BRANCH   8  25
HETATM   25  N   UNL     1      -8.993   8.933  69.001  1.00  0.00    -0.136 N  
HETATM   26  C   UNL     1      -9.092   7.559  69.037  1.00  0.00    -0.140 C  
HETATM   27  H   UNL     1      -9.026   9.455  69.877  1.00  0.00     0.000 HD 
HETATM   28  O   UNL     1      -8.937   6.858  68.038  1.00  0.00    -0.123 OA 
BRANCH  26  29
HETATM   29  C   UNL     1      -9.423   6.978  70.396  1.00  0.00    -0.162 C  
BRANCH  29  30
HETATM   30  C   UNL     1      -8.195   6.796  71.216  1.00  0.00    -0.119 A  
HETATM   31  N   UNL     1      -6.190   8.217  73.717  1.00  0.00    -0.107 NA 
HETATM   32  C   UNL     1      -7.338   5.712  71.191  1.00  0.00    -0.085 A  
HETATM   33  S   UNL     1      -6.078   5.934  72.326  1.00  0.00    -0.042 SA 
HETATM   34  H2  UNL     1      -5.342   7.894  74.183  1.00  0.00     0.000 HD 
HETATM   35  H1  UNL     1      -6.591   9.117  73.979  1.00  0.00     0.000 HD 
HETATM   36  N   UNL     1      -7.853   7.784  72.133  1.00  0.00    -0.099 NA 
HETATM   37  C   UNL     1      -6.753   7.447  72.768  1.00  0.00    -0.064 A  
ENDBRANCH  29  30
ENDBRANCH  26  29
ENDBRANCH   8  25
TORSDOF 9
ENDMDL
MODEL      264
REMARK 921   NORMALIZED FREE ENERGY PREDICTED BY IDOCK:   -3.37 KCAL/MOL
REMARK 922        TOTAL FREE ENERGY PREDICTED BY IDOCK:   -7.08 KCAL/MOL
REMARK 923 INTER-LIGAND FREE ENERGY PREDICTED BY IDOCK:   -5.51 KCAL/MOL
REMARK 924 INTRA-LIGAND FREE ENERGY PREDICTED BY IDOCK:   -1.57 KCAL/MOL
REMARK 927      BINDING AFFINITY PREDICTED BY RF-SCORE:    0.00 PKD
ROOT
HETATM    1  C   UNL     1      -7.944   9.462  67.089  1.00  0.00    -0.102 C  
HETATM    2  S   UNL     1      -8.065   7.672  67.300  1.00  0.00    -0.120 SA 
HETATM    3  C   UNL     1      -7.441   7.307  65.645  1.00  0.00    -0.085 C  
HETATM    4  C   UNL     1      -8.077   8.119  64.523  1.00  0.00    -0.142 C  
HETATM    5  C   UNL     1      -9.563  10.713  66.661  1.00  0.00    -0.175 C  
HETATM    6  CA  UNL     1      -8.734   9.301  64.717  1.00  0.00    -0.188 C  
HETATM    7  C   UNL     1      -9.394  10.006  63.548  1.00  0.00    -0.256 C  
HETATM    8  CA  UNL     1      -8.874  10.321  68.006  1.00  0.00    -0.122 C  
HETATM    9  N   UNL     1      -8.793   9.846  65.974  1.00  0.00    -0.142 N  
HETATM   10  O   UNL     1     -10.369  10.889  63.820  1.00  0.00    -0.354 OA 
HETATM   11  OXT UNL     1      -9.066   9.813  62.385  1.00  0.00    -0.257 OA 
HETATM   12  O   UNL     1     -10.510  11.374  66.290  1.00  0.00    -0.239 OA 
ENDROOT
BRANCH   4  13
HETATM   13  C   UNL     1      -8.011   7.354  63.195  1.00  0.00    -0.093 C  
BRANCH  13  14
HETATM   14  S   UNL     1      -7.309   5.675  63.373  1.00  0.00    -0.065 SA 
BRANCH  14  15
HETATM   15  C   UNL     1      -8.707   4.680  63.529  1.00  0.00    -0.136 A  
HETATM   16  N   UNL     1      -9.615   4.474  62.602  1.00  0.00    -0.102 NA 
HETATM   17  N   UNL     1     -10.586   3.700  63.181  1.00  0.00    -0.229 NA 
HETATM   18  N   UNL     1      -9.077   3.994  64.657  1.00  0.00    -0.134 NA 
HETATM   19  N   UNL     1     -10.276   3.412  64.437  1.00  0.00    -0.162 NA 
BRANCH  18  20
HETATM   20  C   UNL     1      -8.420   3.766  65.933  1.00  0.00    -0.110 C  
BRANCH  20  21
HETATM   21  C   UNL     1      -9.422   3.919  67.091  1.00  0.00    -0.201 C  
BRANCH  21  22
HETATM   22  N   UNL     1      -8.883   4.299  68.417  1.00  0.00    -0.102 NA 
HETATM   23  C   UNL     1      -7.496   3.810  68.522  1.00  0.00    -0.054 C  
HETATM   24  C   UNL     1      -9.649   3.741  69.538  1.00  0.00    -0.160 C  
ENDBRANCH  21  22
ENDBRANCH  20  21
ENDBRANCH  18  20
ENDBRANCH  14  15
ENDBRANCH  13  14
ENDBRANCH   4  13
BRANCH   8  25
HETATM   25  N   UNL     1      -9.739   9.579  68.972  1.00  0.00    -0.165 N  
HETATM   26  C   UNL     1      -9.344   9.332  70.269  1.00  0.00    -0.239 C  
HETATM   27  H   UNL     1     -10.652   9.245  68.661  1.00  0.00     0.000 HD 
HETATM   28  O   UNL     1      -8.315   9.807  70.749  1.00  0.00    -0.229 OA 
BRANCH  26  29
HETATM   29  C   UNL     1     -10.261   8.417  71.053  1.00  0.00    -0.245 C  
BRANCH  29  30
HETATM   30  C   UNL     1      -9.503   7.631  72.063  1.00  0.00    -0.153 A  
HETATM   31  N   UNL     1      -7.256   4.979  72.523  1.00  0.00    -0.085 NA 
HETATM   32  C   UNL     1      -9.486   7.839  73.429  1.00  0.00    -0.287 A  
HETATM   33  S   UNL     1      -8.450   6.705  74.182  1.00  0.00    -0.144 SA 
HETATM   34  H2  UNL     1      -6.814   4.590  73.356  1.00  0.00     0.000 HD 
HETATM   35  H1  UNL     1      -7.048   4.571  71.612  1.00  0.00     0.000 HD 
HETATM   36  N   UNL     1      -8.695   6.587  71.626  1.00  0.00    -0.132 NA 
HETATM   37  C   UNL     1      -8.100   6.019  72.650  1.00  0.00    -0.104 A  
ENDBRANCH  29  30
ENDBRANCH  26  29
ENDBRANCH   8  25
TORSDOF 9
ENDMDL
MODEL      265
REMARK 921   NORMALIZED FREE ENERGY PREDICTED BY IDOCK:   -3.36 KCAL/MOL
REMARK 922        TOTAL FREE ENERGY PREDICTED BY IDOCK:   -7.07 KCAL/MOL
REMARK 923 INTER-LIGAND FREE ENERGY PREDICTED BY IDOCK:   -4.74 KCAL/MOL
REMARK 924 INTRA-LIGAND FREE ENERGY PREDICTED BY IDOCK:   -2.33 KCAL/MOL
REMARK 927      BINDING AFFINITY PREDICTED BY RF-SCORE:    0.00 PKD
ROOT
HETATM    1  C   UNL     1      -8.668   6.262  71.287  1.00  0.00    -0.135 C  
HETATM    2  S   UNL     1      -7.132   6.129  70.343  1.00  0.00    -0.073 SA 
HETATM    3  C   UNL     1      -6.738   7.886  70.496  1.00  0.00    -0.038 C  
HETATM    4  C   UNL     1      -7.892   8.834  70.195  1.00  0.00    -0.094 C  
HETATM    5  C   UNL     1     -10.575   6.334  70.435  1.00  0.00    -0.252 C  
HETATM    6  CA  UNL     1      -9.207   8.465  70.222  1.00  0.00    -0.152 C  
HETATM    7  C   UNL     1     -10.285   9.462  69.843  1.00  0.00    -0.222 C  
HETATM    8  CA  UNL     1      -9.733   5.152  71.014  1.00  0.00    -0.183 C  
HETATM    9  N   UNL     1      -9.546   7.190  70.595  1.00  0.00    -0.165 N  
HETATM   10  O   UNL     1     -11.478   8.976  69.459  1.00  0.00     0.082 OA 
HETATM   11  OXT UNL     1     -10.115  10.672  69.885  1.00  0.00    -0.112 OA 
HETATM   12  O   UNL     1     -11.645   6.497  69.887  1.00  0.00    -0.409 OA 
ENDROOT
BRANCH   4  13
HETATM   13  C   UNL     1      -7.367  10.192  69.713  1.00  0.00    -0.158 C  
BRANCH  13  14
HETATM   14  S   UNL     1      -6.714  10.140  68.006  1.00  0.00    -0.063 SA 
BRANCH  14  15
HETATM   15  C   UNL     1      -8.092  10.526  67.046  1.00  0.00    -0.118 A  
HETATM   16  N   UNL     1      -8.595  11.726  66.866  1.00  0.00    -0.172 NA 
HETATM   17  N   UNL     1      -9.728  11.559  66.115  1.00  0.00    -0.215 NA 
HETATM   18  N   UNL     1      -8.870   9.624  66.367  1.00  0.00    -0.147 NA 
HETATM   19  N   UNL     1      -9.914  10.282  65.817  1.00  0.00    -0.259 NA 
BRANCH  18  20
HETATM   20  C   UNL     1      -8.740   8.199  66.119  1.00  0.00    -0.156 C  
BRANCH  20  21
HETATM   21  C   UNL     1      -8.057   7.947  64.763  1.00  0.00    -0.141 C  
BRANCH  21  22
HETATM   22  N   UNL     1      -6.629   8.316  64.638  1.00  0.00    -0.064 NA 
HETATM   23  C   UNL     1      -6.266   8.328  63.209  1.00  0.00    -0.077 C  
HETATM   24  C   UNL     1      -5.726   7.387  65.328  1.00  0.00    -0.037 C  
ENDBRANCH  21  22
ENDBRANCH  20  21
ENDBRANCH  18  20
ENDBRANCH  14  15
ENDBRANCH  13  14
ENDBRANCH   4  13
BRANCH   8  25
HETATM   25  N   UNL     1      -9.364   4.091  70.029  1.00  0.00    -0.153 N  
HETATM   26  C   UNL     1      -8.704   2.941  70.404  1.00  0.00    -0.070 C  
HETATM   27  H   UNL     1      -9.609   4.222  69.047  1.00  0.00     0.000 HD 
HETATM   28  O   UNL     1      -8.486   2.658  71.582  1.00  0.00    -0.062 OA 
BRANCH  26  29
HETATM   29  C   UNL     1      -8.252   2.061  69.258  1.00  0.00    -0.065 C  
BRANCH  29  30
HETATM   30  C   UNL     1      -8.287   2.799  67.967  1.00  0.00    -0.079 A  
HETATM   31  N   UNL     1     -10.370   3.985  65.407  1.00  0.00    -0.454 NA 
HETATM   32  C   UNL     1      -7.212   3.366  67.309  1.00  0.00    -0.059 A  
HETATM   33  S   UNL     1      -7.739   4.133  65.874  1.00  0.00    -0.090 SA 
HETATM   34  H2  UNL     1     -10.180   4.525  64.563  1.00  0.00     0.000 HD 
HETATM   35  H1  UNL     1     -11.327   3.703  65.615  1.00  0.00     0.000 HD 
HETATM   36  N   UNL     1      -9.513   2.982  67.336  1.00  0.00    -0.173 NA 
HETATM   37  C   UNL     1      -9.350   3.660  66.223  1.00  0.00    -0.178 A  
ENDBRANCH  29  30
ENDBRANCH  26  29
ENDBRANCH   8  25
TORSDOF 9
ENDMDL
MODEL      266
REMARK 921   NORMALIZED FREE ENERGY PREDICTED BY IDOCK:   -3.34 KCAL/MOL
REMARK 922        TOTAL FREE ENERGY PREDICTED BY IDOCK:   -7.04 KCAL/MOL
REMARK 923 INTER-LIGAND FREE ENERGY PREDICTED BY IDOCK:   -7.38 KCAL/MOL
REMARK 924 INTRA-LIGAND FREE ENERGY PREDICTED BY IDOCK:    0.33 KCAL/MOL
REMARK 927      BINDING AFFINITY PREDICTED BY RF-SCORE:    0.00 PKD
ROOT
HETATM    1  C   UNL     1      -7.523   9.020  68.490  1.00  0.00    -0.085 C  
HETATM    2  S   UNL     1      -8.437   8.820  70.036  1.00  0.00    -0.143 SA 
HETATM    3  C   UNL     1      -7.881   7.121  70.291  1.00  0.00    -0.104 C  
HETATM    4  C   UNL     1      -7.985   6.217  69.069  1.00  0.00    -0.108 C  
HETATM    5  C   UNL     1      -8.379   8.899  66.587  1.00  0.00    -0.111 C  
HETATM    6  CA  UNL     1      -8.072   6.679  67.786  1.00  0.00    -0.116 C  
HETATM    7  C   UNL     1      -8.240   5.705  66.636  1.00  0.00    -0.105 C  
HETATM    8  CA  UNL     1      -8.064  10.115  67.515  1.00  0.00    -0.113 C  
HETATM    9  N   UNL     1      -8.006   8.027  67.545  1.00  0.00    -0.121 N  
HETATM   10  O   UNL     1      -8.750   6.178  65.486  1.00  0.00    -0.152 OA 
HETATM   11  OXT UNL     1      -7.920   4.527  66.711  1.00  0.00    -0.101 OA 
HETATM   12  O   UNL     1      -8.900   8.695  65.510  1.00  0.00    -0.183 OA 
ENDROOT
BRANCH   4  13
HETATM   13  C   UNL     1      -8.134   4.750  69.490  1.00  0.00    -0.069 C  
BRANCH  13  14
HETATM   14  S   UNL     1      -9.785   4.369  70.180  1.00  0.00    -0.220 SA 
BRANCH  14  15
HETATM   15  C   UNL     1      -9.432   3.879  71.794  1.00  0.00    -0.144 A  
HETATM   16  N   UNL     1      -8.422   3.126  72.167  1.00  0.00    -0.073 NA 
HETATM   17  N   UNL     1      -8.578   2.915  73.512  1.00  0.00    -0.072 NA 
HETATM   18  N   UNL     1     -10.179   4.183  72.902  1.00  0.00    -0.158 NA 
HETATM   19  N   UNL     1      -9.652   3.542  73.968  1.00  0.00    -0.095 NA 
BRANCH  18  20
HETATM   20  C   UNL     1     -11.323   5.053  73.112  1.00  0.00    -0.321 C  
BRANCH  20  21
HETATM   21  C   UNL     1     -10.984   6.498  72.704  1.00  0.00    -0.255 C  
BRANCH  21  22
HETATM   22  N   UNL     1     -12.048   7.290  72.046  1.00  0.00    -0.300 NA 
HETATM   23  C   UNL     1     -11.911   7.148  70.585  1.00  0.00    -0.291 C  
HETATM   24  C   UNL     1     -11.994   8.721  72.371  1.00  0.00    -0.299 C  
ENDBRANCH  21  22
ENDBRANCH  20  21
ENDBRANCH  18  20
ENDBRANCH  14  15
ENDBRANCH  13  14
ENDBRANCH   4  13
BRANCH   8  25
HETATM   25  N   UNL     1      -9.255  10.893  67.970  1.00  0.00    -0.152 N  
HETATM   26  C   UNL     1     -10.544  10.451  67.760  1.00  0.00    -0.250 C  
HETATM   27  H   UNL     1      -9.110  11.781  68.453  1.00  0.00     0.000 HD 
HETATM   28  O   UNL     1     -10.794   9.339  67.297  1.00  0.00    -0.238 OA 
BRANCH  26  29
HETATM   29  C   UNL     1     -11.627  11.444  68.124  1.00  0.00    -0.364 C  
BRANCH  29  30
HETATM   30  C   UNL     1     -11.772  12.491  67.078  1.00  0.00    -0.367 A  
HETATM   31  N   UNL     1     -12.639  13.091  63.734  1.00  0.00    -0.712 NA 
HETATM   32  C   UNL     1     -11.562  13.848  67.232  1.00  0.00    -0.365 A  
HETATM   33  S   UNL     1     -11.875  14.662  65.760  1.00  0.00    -0.217 SA 
HETATM   34  H2  UNL     1     -12.695  13.947  63.182  1.00  0.00     0.000 HD 
HETATM   35  H1  UNL     1     -12.869  12.199  63.296  1.00  0.00     0.000 HD 
HETATM   36  N   UNL     1     -12.183  12.110  65.805  1.00  0.00    -0.532 NA 
HETATM   37  C   UNL     1     -12.263  13.162  65.024  1.00  0.00    -0.440 A  
ENDBRANCH  29  30
ENDBRANCH  26  29
ENDBRANCH   8  25
TORSDOF 9
ENDMDL
MODEL      267
REMARK 921   NORMALIZED FREE ENERGY PREDICTED BY IDOCK:   -3.32 KCAL/MOL
REMARK 922        TOTAL FREE ENERGY PREDICTED BY IDOCK:   -7.01 KCAL/MOL
REMARK 923 INTER-LIGAND FREE ENERGY PREDICTED BY IDOCK:   -6.59 KCAL/MOL
REMARK 924 INTRA-LIGAND FREE ENERGY PREDICTED BY IDOCK:   -0.42 KCAL/MOL
REMARK 927      BINDING AFFINITY PREDICTED BY RF-SCORE:    0.00 PKD
ROOT
HETATM    1  C   UNL     1      -7.203  11.341  68.426  1.00  0.00    -0.085 C  
HETATM    2  S   UNL     1      -8.997  11.181  68.562  1.00  0.00    -0.160 SA 
HETATM    3  C   UNL     1      -8.926   9.480  69.166  1.00  0.00    -0.148 C  
HETATM    4  C   UNL     1      -8.004   8.555  68.382  1.00  0.00    -0.118 C  
HETATM    5  C   UNL     1      -6.136  11.194  66.634  1.00  0.00    -0.133 C  
HETATM    6  CA  UNL     1      -6.992   8.995  67.575  1.00  0.00    -0.078 C  
HETATM    7  C   UNL     1      -6.167   8.001  66.780  1.00  0.00    -0.054 C  
HETATM    8  CA  UNL     1      -6.690  12.424  67.423  1.00  0.00    -0.152 C  
HETATM    9  N   UNL     1      -6.727  10.337  67.491  1.00  0.00    -0.071 N  
HETATM   10  O   UNL     1      -5.506   8.458  65.703  1.00  0.00    -0.031 OA 
HETATM   11  OXT UNL     1      -6.071   6.821  67.087  1.00  0.00    -0.026 OA 
HETATM   12  O   UNL     1      -5.557  10.977  65.591  1.00  0.00    -0.136 OA 
ENDROOT
BRANCH   4  13
HETATM   13  C   UNL     1      -8.466   7.097  68.502  1.00  0.00    -0.125 C  
BRANCH  13  14
HETATM   14  S   UNL     1      -7.508   6.145  69.735  1.00  0.00    -0.082 SA 
BRANCH  14  15
HETATM   15  C   UNL     1      -8.224   6.607  71.232  1.00  0.00    -0.120 A  
HETATM   16  N   UNL     1      -7.586   7.078  72.280  1.00  0.00    -0.090 NA 
HETATM   17  N   UNL     1      -8.524   7.225  73.267  1.00  0.00    -0.123 NA 
HETATM   18  N   UNL     1      -9.556   6.515  71.542  1.00  0.00    -0.161 NA 
HETATM   19  N   UNL     1      -9.726   6.872  72.834  1.00  0.00    -0.156 NA 
BRANCH  18  20
HETATM   20  C   UNL     1     -10.730   6.172  70.757  1.00  0.00    -0.266 C  
BRANCH  20  21
HETATM   21  C   UNL     1     -12.012   6.394  71.579  1.00  0.00    -0.273 C  
BRANCH  21  22
HETATM   22  N   UNL     1     -12.836   7.581  71.254  1.00  0.00    -0.319 NA 
HETATM   23  C   UNL     1     -12.432   8.694  72.133  1.00  0.00    -0.389 C  
HETATM   24  C   UNL     1     -14.275   7.358  71.435  1.00  0.00    -0.364 C  
ENDBRANCH  21  22
ENDBRANCH  20  21
ENDBRANCH  18  20
ENDBRANCH  14  15
ENDBRANCH  13  14
ENDBRANCH   4  13
BRANCH   8  25
HETATM   25  N   UNL     1      -7.728  13.225  66.706  1.00  0.00    -0.264 N  
HETATM   26  C   UNL     1      -8.106  14.480  67.130  1.00  0.00    -0.168 C  
HETATM   27  H   UNL     1      -8.170  12.829  65.876  1.00  0.00     0.000 HD 
HETATM   28  O   UNL     1      -7.533  15.070  68.045  1.00  0.00    -0.105 OA 
BRANCH  26  29
HETATM   29  C   UNL     1      -9.292  15.071  66.396  1.00  0.00    -0.334 C  
BRANCH  29  30
HETATM   30  C   UNL     1      -9.528  16.482  66.806  1.00  0.00    -0.249 A  
HETATM   31  N   UNL     1      -8.447  19.794  66.410  1.00  0.00    -0.348 NA 
HETATM   32  C   UNL     1     -10.520  16.941  67.652  1.00  0.00    -0.332 A  
HETATM   33  S   UNL     1     -10.417  18.642  67.808  1.00  0.00    -0.391 SA 
HETATM   34  H2  UNL     1      -8.785  20.676  66.793  1.00  0.00     0.000 HD 
HETATM   35  H1  UNL     1      -7.645  19.798  65.781  1.00  0.00     0.000 HD 
HETATM   36  N   UNL     1      -8.705  17.474  66.285  1.00  0.00    -0.433 NA 
HETATM   37  C   UNL     1      -9.068  18.649  66.748  1.00  0.00    -0.301 A  
ENDBRANCH  29  30
ENDBRANCH  26  29
ENDBRANCH   8  25
TORSDOF 9
ENDMDL
MODEL      268
REMARK 921   NORMALIZED FREE ENERGY PREDICTED BY IDOCK:   -3.31 KCAL/MOL
REMARK 922        TOTAL FREE ENERGY PREDICTED BY IDOCK:   -6.99 KCAL/MOL
REMARK 923 INTER-LIGAND FREE ENERGY PREDICTED BY IDOCK:   -7.47 KCAL/MOL
REMARK 924 INTRA-LIGAND FREE ENERGY PREDICTED BY IDOCK:    0.47 KCAL/MOL
REMARK 927      BINDING AFFINITY PREDICTED BY RF-SCORE:    0.00 PKD
ROOT
HETATM    1  C   UNL     1      -7.242   8.877  66.211  1.00  0.00    -0.086 C  
HETATM    2  S   UNL     1      -6.746  10.560  65.780  1.00  0.00    -0.100 SA 
HETATM    3  C   UNL     1      -5.856  10.830  67.328  1.00  0.00    -0.047 C  
HETATM    4  C   UNL     1      -6.609  10.416  68.586  1.00  0.00    -0.052 C  
HETATM    5  C   UNL     1      -9.141   8.347  66.907  1.00  0.00    -0.148 C  
HETATM    6  CA  UNL     1      -7.658   9.540  68.591  1.00  0.00    -0.080 C  
HETATM    7  C   UNL     1      -8.391   9.238  69.884  1.00  0.00    -0.156 C  
HETATM    8  CA  UNL     1      -8.510   8.332  65.478  1.00  0.00    -0.161 C  
HETATM    9  N   UNL     1      -8.043   8.936  67.421  1.00  0.00    -0.108 N  
HETATM   10  O   UNL     1      -9.639   8.747  69.795  1.00  0.00    -0.167 OA 
HETATM   11  OXT UNL     1      -7.890   9.408  70.987  1.00  0.00    -0.289 OA 
HETATM   12  O   UNL     1     -10.213   8.114  67.423  1.00  0.00    -0.211 OA 
ENDROOT
BRANCH   4  13
HETATM   13  C   UNL     1      -6.131  11.226  69.797  1.00  0.00    -0.112 C  
BRANCH  13  14
HETATM   14  S   UNL     1      -5.780  12.975  69.391  1.00  0.00    -0.096 SA 
BRANCH  14  15
HETATM   15  C   UNL     1      -7.203  13.478  68.560  1.00  0.00    -0.110 A  
HETATM   16  N   UNL     1      -8.359  12.855  68.563  1.00  0.00    -0.104 NA 
HETATM   17  N   UNL     1      -9.172  13.549  67.707  1.00  0.00    -0.203 NA 
HETATM   18  N   UNL     1      -7.309  14.583  67.755  1.00  0.00    -0.157 NA 
HETATM   19  N   UNL     1      -8.539  14.596  67.197  1.00  0.00    -0.212 NA 
BRANCH  18  20
HETATM   20  C   UNL     1      -6.405  15.682  67.464  1.00  0.00    -0.151 C  
BRANCH  20  21
HETATM   21  C   UNL     1      -7.163  17.022  67.476  1.00  0.00    -0.152 C  
BRANCH  21  22
HETATM   22  N   UNL     1      -6.604  18.116  68.303  1.00  0.00    -0.201 NA 
HETATM   23  C   UNL     1      -6.095  17.546  69.564  1.00  0.00    -0.252 C  
HETATM   24  C   UNL     1      -7.588  19.153  68.637  1.00  0.00    -0.346 C  
ENDBRANCH  21  22
ENDBRANCH  20  21
ENDBRANCH  18  20
ENDBRANCH  14  15
ENDBRANCH  13  14
ENDBRANCH   4  13
BRANCH   8  25
HETATM   25  N   UNL     1      -9.159   9.241  64.486  1.00  0.00    -0.421 N  
HETATM   26  C   UNL     1      -9.936  10.312  64.873  1.00  0.00    -0.323 C  
HETATM   27  H   UNL     1      -9.022   9.064  63.490  1.00  0.00     0.000 HD 
HETATM   28  O   UNL     1     -10.046  10.659  66.048  1.00  0.00    -0.231 OA 
BRANCH  26  29
HETATM   29  C   UNL     1     -10.659  11.017  63.744  1.00  0.00    -0.365 C  
BRANCH  29  30
HETATM   30  C   UNL     1     -11.224  12.316  64.197  1.00  0.00    -0.369 A  
HETATM   31  N   UNL     1     -10.541  15.723  64.671  1.00  0.00    -0.722 NA 
HETATM   32  C   UNL     1     -12.515  12.548  64.633  1.00  0.00    -0.463 A  
HETATM   33  S   UNL     1     -12.714  14.202  65.024  1.00  0.00    -0.204 SA 
HETATM   34  H2  UNL     1     -11.117  16.500  64.994  1.00  0.00     0.000 HD 
HETATM   35  H1  UNL     1      -9.569  15.895  64.414  1.00  0.00     0.000 HD 
HETATM   36  N   UNL     1     -10.411  13.444  64.170  1.00  0.00    -0.323 NA 
HETATM   37  C   UNL     1     -11.080  14.492  64.592  1.00  0.00    -0.346 A  
ENDBRANCH  29  30
ENDBRANCH  26  29
ENDBRANCH   8  25
TORSDOF 9
ENDMDL
MODEL      269
REMARK 921   NORMALIZED FREE ENERGY PREDICTED BY IDOCK:   -3.29 KCAL/MOL
REMARK 922        TOTAL FREE ENERGY PREDICTED BY IDOCK:   -6.95 KCAL/MOL
REMARK 923 INTER-LIGAND FREE ENERGY PREDICTED BY IDOCK:   -5.89 KCAL/MOL
REMARK 924 INTRA-LIGAND FREE ENERGY PREDICTED BY IDOCK:   -1.06 KCAL/MOL
REMARK 927      BINDING AFFINITY PREDICTED BY RF-SCORE:    0.00 PKD
ROOT
HETATM    1  C   UNL     1     -10.664   7.659  71.130  1.00  0.00    -0.227 C  
HETATM    2  S   UNL     1     -10.764   6.994  69.453  1.00  0.00    -0.228 SA 
HETATM    3  C   UNL     1     -10.559   5.280  69.986  1.00  0.00    -0.230 C  
HETATM    4  C   UNL     1      -9.423   5.043  70.974  1.00  0.00    -0.220 C  
HETATM    5  C   UNL     1      -8.962   8.558  71.945  1.00  0.00    -0.231 C  
HETATM    6  CA  UNL     1      -8.865   6.027  71.741  1.00  0.00    -0.138 C  
HETATM    7  C   UNL     1      -7.693   5.710  72.649  1.00  0.00    -0.102 C  
HETATM    8  CA  UNL     1     -10.224   9.154  71.245  1.00  0.00    -0.329 C  
HETATM    9  N   UNL     1      -9.371   7.300  71.685  1.00  0.00    -0.151 N  
HETATM   10  O   UNL     1      -6.908   6.730  73.036  1.00  0.00    -0.073 OA 
HETATM   11  OXT UNL     1      -7.448   4.580  73.048  1.00  0.00    -0.081 OA 
HETATM   12  O   UNL     1      -7.914   8.955  72.409  1.00  0.00    -0.374 OA 
ENDROOT
BRANCH   4  13
HETATM   13  C   UNL     1      -8.904   3.604  70.871  1.00  0.00    -0.083 C  
BRANCH  13  14
HETATM   14  S   UNL     1      -9.153   2.873  69.213  1.00  0.00    -0.144 SA 
BRANCH  14  15
HETATM   15  C   UNL     1      -7.969   3.673  68.250  1.00  0.00    -0.071 A  
HETATM   16  N   UNL     1      -6.691   3.784  68.534  1.00  0.00    -0.045 NA 
HETATM   17  N   UNL     1      -6.146   4.566  67.551  1.00  0.00    -0.030 NA 
HETATM   18  N   UNL     1      -8.209   4.330  67.071  1.00  0.00    -0.101 NA 
HETATM   19  N   UNL     1      -7.063   4.917  66.661  1.00  0.00    -0.067 NA 
BRANCH  18  20
HETATM   20  C   UNL     1      -9.388   4.448  66.230  1.00  0.00    -0.160 C  
BRANCH  20  21
HETATM   21  C   UNL     1      -9.014   5.033  64.856  1.00  0.00    -0.113 C  
BRANCH  21  22
HETATM   22  N   UNL     1      -9.009   4.110  63.699  1.00  0.00    -0.126 NA 
HETATM   23  C   UNL     1      -8.754   4.888  62.472  1.00  0.00    -0.123 C  
HETATM   24  C   UNL     1     -10.275   3.387  63.525  1.00  0.00    -0.208 C  
ENDBRANCH  21  22
ENDBRANCH  20  21
ENDBRANCH  18  20
ENDBRANCH  14  15
ENDBRANCH  13  14
ENDBRANCH   4  13
BRANCH   8  25
HETATM   25  N   UNL     1      -9.960   9.879  69.965  1.00  0.00    -0.262 N  
HETATM   26  C   UNL     1     -10.737  10.938  69.549  1.00  0.00    -0.206 C  
HETATM   27  H   UNL     1      -9.178   9.580  69.381  1.00  0.00     0.000 HD 
HETATM   28  O   UNL     1     -11.616  11.431  70.255  1.00  0.00    -0.307 OA 
BRANCH  26  29
HETATM   29  C   UNL     1     -10.440  11.438  68.151  1.00  0.00    -0.212 C  
BRANCH  29  30
HETATM   30  C   UNL     1      -9.786  12.773  68.184  1.00  0.00    -0.226 A  
HETATM   31  N   UNL     1     -10.273  16.179  68.860  1.00  0.00    -0.231 NA 
HETATM   32  C   UNL     1      -8.462  13.052  67.902  1.00  0.00    -0.185 A  
HETATM   33  S   UNL     1      -8.160  14.724  68.098  1.00  0.00    -0.143 SA 
HETATM   34  H2  UNL     1      -9.641  16.980  68.840  1.00  0.00     0.000 HD 
HETATM   35  H1  UNL     1     -11.248  16.319  69.123  1.00  0.00     0.000 HD 
HETATM   36  N   UNL     1     -10.543  13.878  68.558  1.00  0.00    -0.247 NA 
HETATM   37  C   UNL     1      -9.801  14.960  68.540  1.00  0.00    -0.217 A  
ENDBRANCH  29  30
ENDBRANCH  26  29
ENDBRANCH   8  25
TORSDOF 9
ENDMDL
MODEL      270
REMARK 921   NORMALIZED FREE ENERGY PREDICTED BY IDOCK:   -3.29 KCAL/MOL
REMARK 922        TOTAL FREE ENERGY PREDICTED BY IDOCK:   -6.95 KCAL/MOL
REMARK 923 INTER-LIGAND FREE ENERGY PREDICTED BY IDOCK:   -5.07 KCAL/MOL
REMARK 924 INTRA-LIGAND FREE ENERGY PREDICTED BY IDOCK:   -1.88 KCAL/MOL
REMARK 927      BINDING AFFINITY PREDICTED BY RF-SCORE:    0.00 PKD
ROOT
HETATM    1  C   UNL     1      -8.300   9.881  70.169  1.00  0.00    -0.126 C  
HETATM    2  S   UNL     1      -9.931   9.986  69.399  1.00  0.00    -0.235 SA 
HETATM    3  C   UNL     1     -10.369   8.280  69.798  1.00  0.00    -0.216 C  
HETATM    4  C   UNL     1      -9.296   7.247  69.478  1.00  0.00    -0.152 C  
HETATM    5  C   UNL     1      -6.512   9.620  69.119  1.00  0.00    -0.044 C  
HETATM    6  CA  UNL     1      -7.973   7.550  69.312  1.00  0.00    -0.121 C  
HETATM    7  C   UNL     1      -6.986   6.464  68.929  1.00  0.00    -0.076 C  
HETATM    8  CA  UNL     1      -7.234  10.899  69.650  1.00  0.00    -0.095 C  
HETATM    9  N   UNL     1      -7.545   8.840  69.494  1.00  0.00    -0.078 N  
HETATM   10  O   UNL     1      -5.830   6.844  68.359  1.00  0.00    -0.017 OA 
HETATM   11  OXT UNL     1      -7.195   5.276  69.131  1.00  0.00    -0.055 OA 
HETATM   12  O   UNL     1      -5.522   9.343  68.475  1.00  0.00    -0.037 OA 
ENDROOT
BRANCH   4  13
HETATM   13  C   UNL     1      -9.924   5.872  69.220  1.00  0.00    -0.174 C  
BRANCH  13  14
HETATM   14  S   UNL     1     -10.783   5.772  67.608  1.00  0.00    -0.170 SA 
BRANCH  14  15
HETATM   15  C   UNL     1      -9.733   6.635  66.550  1.00  0.00    -0.121 A  
HETATM   16  N   UNL     1      -9.795   7.919  66.280  1.00  0.00    -0.137 NA 
HETATM   17  N   UNL     1      -8.837   8.159  65.331  1.00  0.00    -0.102 NA 
HETATM   18  N   UNL     1      -8.710   6.088  65.819  1.00  0.00    -0.154 NA 
HETATM   19  N   UNL     1      -8.179   7.048  65.031  1.00  0.00    -0.120 NA 
BRANCH  18  20
HETATM   20  C   UNL     1      -8.116   4.762  65.792  1.00  0.00    -0.111 C  
BRANCH  20  21
HETATM   21  C   UNL     1      -6.786   4.782  65.018  1.00  0.00    -0.053 C  
BRANCH  21  22
HETATM   22  N   UNL     1      -5.897   3.606  65.154  1.00  0.00    -0.021 NA 
HETATM   23  C   UNL     1      -5.725   2.985  63.828  1.00  0.00    -0.010 C  
HETATM   24  C   UNL     1      -6.421   2.585  66.070  1.00  0.00    -0.028 C  
ENDBRANCH  21  22
ENDBRANCH  20  21
ENDBRANCH  18  20
ENDBRANCH  14  15
ENDBRANCH  13  14
ENDBRANCH   4  13
BRANCH   8  25
HETATM   25  N   UNL     1      -7.678  11.862  68.597  1.00  0.00    -0.179 N  
HETATM   26  C   UNL     1      -7.251  13.172  68.576  1.00  0.00    -0.110 C  
HETATM   27  H   UNL     1      -8.319  11.539  67.871  1.00  0.00     0.000 HD 
HETATM   28  O   UNL     1      -6.388  13.599  69.342  1.00  0.00    -0.100 OA 
BRANCH  26  29
HETATM   29  C   UNL     1      -7.936  14.051  67.550  1.00  0.00    -0.199 C  
BRANCH  29  30
HETATM   30  C   UNL     1      -9.410  13.852  67.571  1.00  0.00    -0.217 A  
HETATM   31  N   UNL     1     -12.114  12.342  65.927  1.00  0.00    -0.623 NA 
HETATM   32  C   UNL     1     -10.295  14.328  68.519  1.00  0.00    -0.244 A  
HETATM   33  S   UNL     1     -11.886  13.827  68.141  1.00  0.00    -0.366 SA 
HETATM   34  H2  UNL     1     -13.112  12.310  66.134  1.00  0.00     0.000 HD 
HETATM   35  H1  UNL     1     -11.761  11.862  65.100  1.00  0.00     0.000 HD 
HETATM   36  N   UNL     1      -9.994  13.092  66.563  1.00  0.00    -0.262 NA 
HETATM   37  C   UNL     1     -11.292  13.018  66.750  1.00  0.00    -0.324 A  
ENDBRANCH  29  30
ENDBRANCH  26  29
ENDBRANCH   8  25
TORSDOF 9
ENDMDL
MODEL      271
REMARK 921   NORMALIZED FREE ENERGY PREDICTED BY IDOCK:   -3.27 KCAL/MOL
REMARK 922        TOTAL FREE ENERGY PREDICTED BY IDOCK:   -6.93 KCAL/MOL
REMARK 923 INTER-LIGAND FREE ENERGY PREDICTED BY IDOCK:   -5.62 KCAL/MOL
REMARK 924 INTRA-LIGAND FREE ENERGY PREDICTED BY IDOCK:   -1.30 KCAL/MOL
REMARK 927      BINDING AFFINITY PREDICTED BY RF-SCORE:    0.00 PKD
ROOT
HETATM    1  C   UNL     1      -7.774   7.641  66.492  1.00  0.00    -0.097 C  
HETATM    2  S   UNL     1      -9.532   7.234  66.582  1.00  0.00    -0.165 SA 
HETATM    3  C   UNL     1      -9.994   8.828  67.296  1.00  0.00    -0.220 C  
HETATM    4  C   UNL     1      -9.124   9.290  68.458  1.00  0.00    -0.132 C  
HETATM    5  C   UNL     1      -6.336   6.973  67.855  1.00  0.00    -0.043 C  
HETATM    6  CA  UNL     1      -7.867   8.816  68.703  1.00  0.00    -0.103 C  
HETATM    7  C   UNL     1      -7.100   9.286  69.925  1.00  0.00    -0.064 C  
HETATM    8  CA  UNL     1      -6.793   6.425  66.466  1.00  0.00    -0.062 C  
HETATM    9  N   UNL     1      -7.302   7.913  67.839  1.00  0.00    -0.090 N  
HETATM   10  O   UNL     1      -6.099   8.510  70.371  1.00  0.00    -0.031 OA 
HETATM   11  OXT UNL     1      -7.348  10.337  70.500  1.00  0.00    -0.281 OA 
HETATM   12  O   UNL     1      -5.567   6.663  68.740  1.00  0.00    -0.015 OA 
ENDROOT
BRANCH   4  13
HETATM   13  C   UNL     1      -9.909  10.229  69.384  1.00  0.00    -0.227 C  
BRANCH  13  14
HETATM   14  S   UNL     1     -11.436  10.877  68.614  1.00  0.00    -0.306 SA 
BRANCH  14  15
HETATM   15  C   UNL     1     -11.874  12.182  69.650  1.00  0.00    -0.322 A  
HETATM   16  N   UNL     1     -12.401  12.072  70.849  1.00  0.00    -0.351 NA 
HETATM   17  N   UNL     1     -12.669  13.348  71.269  1.00  0.00    -0.362 NA 
HETATM   18  N   UNL     1     -11.762  13.515  69.347  1.00  0.00    -0.306 NA 
HETATM   19  N   UNL     1     -12.297  14.234  70.357  1.00  0.00    -0.333 NA 
BRANCH  18  20
HETATM   20  C   UNL     1     -11.163  14.225  68.231  1.00  0.00    -0.276 C  
BRANCH  20  21
HETATM   21  C   UNL     1      -9.796  14.808  68.633  1.00  0.00    -0.225 C  
BRANCH  21  22
HETATM   22  N   UNL     1      -9.328  16.014  67.912  1.00  0.00    -0.207 NA 
HETATM   23  C   UNL     1     -10.452  16.962  67.795  1.00  0.00    -0.340 C  
HETATM   24  C   UNL     1      -8.832  15.728  66.561  1.00  0.00    -0.310 C  
ENDBRANCH  21  22
ENDBRANCH  20  21
ENDBRANCH  18  20
ENDBRANCH  14  15
ENDBRANCH  13  14
ENDBRANCH   4  13
BRANCH   8  25
HETATM   25  N   UNL     1      -7.408   5.063  66.490  1.00  0.00    -0.084 N  
HETATM   26  C   UNL     1      -7.606   4.328  65.341  1.00  0.00    -0.085 C  
HETATM   27  H   UNL     1      -7.689   4.664  67.386  1.00  0.00     0.000 HD 
HETATM   28  O   UNL     1      -7.182   4.689  64.244  1.00  0.00    -0.053 OA 
BRANCH  26  29
HETATM   29  C   UNL     1      -8.400   3.052  65.528  1.00  0.00    -0.097 C  
BRANCH  29  30
HETATM   30  C   UNL     1      -8.292   2.551  66.925  1.00  0.00    -0.089 A  
HETATM   31  N   UNL     1      -6.067   1.475  69.412  1.00  0.00    -0.023 NA 
HETATM   32  C   UNL     1      -9.329   2.367  67.819  1.00  0.00    -0.168 A  
HETATM   33  S   UNL     1      -8.721   1.799  69.314  1.00  0.00    -0.074 SA 
HETATM   34  H2  UNL     1      -6.209   1.174  70.376  1.00  0.00     0.000 HD 
HETATM   35  H1  UNL     1      -5.122   1.495  69.030  1.00  0.00     0.000 HD 
HETATM   36  N   UNL     1      -7.032   2.250  67.429  1.00  0.00    -0.043 NA 
HETATM   37  C   UNL     1      -7.131   1.835  68.671  1.00  0.00    -0.039 A  
ENDBRANCH  29  30
ENDBRANCH  26  29
ENDBRANCH   8  25
TORSDOF 9
ENDMDL
MODEL      272
REMARK 921   NORMALIZED FREE ENERGY PREDICTED BY IDOCK:   -3.22 KCAL/MOL
REMARK 922        TOTAL FREE ENERGY PREDICTED BY IDOCK:   -6.86 KCAL/MOL
REMARK 923 INTER-LIGAND FREE ENERGY PREDICTED BY IDOCK:   -6.43 KCAL/MOL
REMARK 924 INTRA-LIGAND FREE ENERGY PREDICTED BY IDOCK:   -0.44 KCAL/MOL
REMARK 927      BINDING AFFINITY PREDICTED BY RF-SCORE:    0.00 PKD
ROOT
HETATM    1  C   UNL     1     -11.775   7.746  70.351  1.00  0.00    -0.028 C  
HETATM    2  S   UNL     1     -11.197   9.231  71.203  1.00  0.00    -0.376 SA 
HETATM    3  C   UNL     1     -11.147  10.229  69.698  1.00  0.00    -0.274 C  
HETATM    4  C   UNL     1     -10.471   9.564  68.505  1.00  0.00    -0.247 C  
HETATM    5  C   UNL     1     -10.554   6.134  69.825  1.00  0.00    -0.280 C  
HETATM    6  CA  UNL     1     -10.289   8.214  68.389  1.00  0.00    -0.199 C  
HETATM    7  C   UNL     1      -9.545   7.647  67.195  1.00  0.00    -0.162 C  
HETATM    8  CA  UNL     1     -11.471   6.389  71.063  1.00  0.00    -0.334 C  
HETATM    9  N   UNL     1     -10.782   7.378  69.357  1.00  0.00    -0.231 N  
HETATM   10  O   UNL     1      -9.010   6.421  67.318  1.00  0.00    -0.108 OA 
HETATM   11  OXT UNL     1      -9.430   8.250  66.137  1.00  0.00    -0.209 OA 
HETATM   12  O   UNL     1      -9.781   5.285  69.433  1.00  0.00    -0.145 OA 
ENDROOT
BRANCH   4  13
HETATM   13  C   UNL     1      -9.898  10.616  67.549  1.00  0.00    -0.168 C  
BRANCH  13  14
HETATM   14  S   UNL     1     -11.008  10.982  66.142  1.00  0.00    -0.009 SA 
BRANCH  14  15
HETATM   15  C   UNL     1     -11.318  12.668  66.314  1.00  0.00    -0.329 A  
HETATM   16  N   UNL     1     -12.459  13.271  66.067  1.00  0.00    -0.390 NA 
HETATM   17  N   UNL     1     -12.232  14.610  66.249  1.00  0.00    -0.230 NA 
HETATM   18  N   UNL     1     -10.404  13.613  66.702  1.00  0.00    -0.271 NA 
HETATM   19  N   UNL     1     -10.980  14.832  66.622  1.00  0.00    -0.321 NA 
BRANCH  18  20
HETATM   20  C   UNL     1      -9.040  13.522  67.194  1.00  0.00    -0.232 C  
BRANCH  20  21
HETATM   21  C   UNL     1      -8.866  14.376  68.462  1.00  0.00    -0.182 C  
BRANCH  21  22
HETATM   22  N   UNL     1      -7.485  14.733  68.863  1.00  0.00    -0.129 NA 
HETATM   23  C   UNL     1      -7.236  16.141  68.503  1.00  0.00    -0.144 C  
HETATM   24  C   UNL     1      -6.460  13.908  68.212  1.00  0.00    -0.111 C  
ENDBRANCH  21  22
ENDBRANCH  20  21
ENDBRANCH  18  20
ENDBRANCH  14  15
ENDBRANCH  13  14
ENDBRANCH   4  13
BRANCH   8  25
HETATM   25  N   UNL     1     -10.762   6.462  72.376  1.00  0.00    -0.217 N  
HETATM   26  C   UNL     1     -10.541   5.344  73.152  1.00  0.00    -0.239 C  
HETATM   27  H   UNL     1     -10.431   7.368  72.709  1.00  0.00     0.000 HD 
HETATM   28  O   UNL     1     -10.800   4.206  72.761  1.00  0.00    -0.156 OA 
BRANCH  26  29
HETATM   29  C   UNL     1      -9.970   5.623  74.526  1.00  0.00    -0.279 C  
BRANCH  29  30
HETATM   30  C   UNL     1      -8.485   5.689  74.489  1.00  0.00    -0.107 A  
HETATM   31  N   UNL     1      -5.538   3.789  74.509  1.00  0.00    -0.004 NA 
HETATM   32  C   UNL     1      -7.710   6.828  74.385  1.00  0.00    -0.110 A  
HETATM   33  S   UNL     1      -6.052   6.410  74.354  1.00  0.00    -0.065 SA 
HETATM   34  H2  UNL     1      -4.553   4.049  74.451  1.00  0.00     0.000 HD 
HETATM   35  H1  UNL     1      -5.790   2.804  74.587  1.00  0.00     0.000 HD 
HETATM   36  N   UNL     1      -7.763   4.501  74.537  1.00  0.00    -0.080 NA 
HETATM   37  C   UNL     1      -6.476   4.753  74.483  1.00  0.00    -0.060 A  
ENDBRANCH  29  30
ENDBRANCH  26  29
ENDBRANCH   8  25
TORSDOF 9
ENDMDL
MODEL      273
REMARK 921   NORMALIZED FREE ENERGY PREDICTED BY IDOCK:   -3.19 KCAL/MOL
REMARK 922        TOTAL FREE ENERGY PREDICTED BY IDOCK:   -6.81 KCAL/MOL
REMARK 923 INTER-LIGAND FREE ENERGY PREDICTED BY IDOCK:   -5.95 KCAL/MOL
REMARK 924 INTRA-LIGAND FREE ENERGY PREDICTED BY IDOCK:   -0.86 KCAL/MOL
REMARK 927      BINDING AFFINITY PREDICTED BY RF-SCORE:    0.00 PKD
ROOT
HETATM    1  C   UNL     1      -7.876   9.492  69.440  1.00  0.00    -0.097 C  
HETATM    2  S   UNL     1      -7.879   9.369  67.637  1.00  0.00    -0.095 SA 
HETATM    3  C   UNL     1      -8.904  10.839  67.412  1.00  0.00    -0.129 C  
HETATM    4  C   UNL     1     -10.137  10.909  68.304  1.00  0.00    -0.189 C  
HETATM    5  C   UNL     1      -9.074   8.337  70.705  1.00  0.00    -0.150 C  
HETATM    6  CA  UNL     1     -10.281  10.195  69.460  1.00  0.00    -0.236 C  
HETATM    7  C   UNL     1     -11.573  10.278  70.250  1.00  0.00    -0.316 C  
HETATM    8  CA  UNL     1      -7.602   8.163  70.214  1.00  0.00    -0.080 C  
HETATM    9  N   UNL     1      -9.251   9.406  69.903  1.00  0.00    -0.191 N  
HETATM   10  O   UNL     1     -11.852   9.274  71.099  1.00  0.00    -0.290 OA 
HETATM   11  OXT UNL     1     -12.351  11.217  70.154  1.00  0.00    -0.304 OA 
HETATM   12  O   UNL     1      -9.877   7.733  71.384  1.00  0.00    -0.166 OA 
ENDROOT
BRANCH   4  13
HETATM   13  C   UNL     1     -11.234  11.756  67.648  1.00  0.00    -0.281 C  
BRANCH  13  14
HETATM   14  S   UNL     1     -10.624  13.372  67.047  1.00  0.00    -0.265 SA 
BRANCH  14  15
HETATM   15  C   UNL     1     -10.832  14.403  68.413  1.00  0.00    -0.248 A  
HETATM   16  N   UNL     1     -11.927  14.523  69.128  1.00  0.00    -0.319 NA 
HETATM   17  N   UNL     1     -11.679  15.507  70.048  1.00  0.00    -0.319 NA 
HETATM   18  N   UNL     1      -9.889  15.261  68.916  1.00  0.00    -0.211 NA 
HETATM   19  N   UNL     1     -10.445  15.974  69.920  1.00  0.00    -0.298 NA 
BRANCH  18  20
HETATM   20  C   UNL     1      -8.486  15.478  68.606  1.00  0.00    -0.174 C  
BRANCH  20  21
HETATM   21  C   UNL     1      -8.310  16.759  67.772  1.00  0.00    -0.188 C  
BRANCH  21  22
HETATM   22  N   UNL     1      -7.066  17.538  67.970  1.00  0.00    -0.195 NA 
HETATM   23  C   UNL     1      -6.112  16.719  68.741  1.00  0.00    -0.147 C  
HETATM   24  C   UNL     1      -7.277  18.796  68.696  1.00  0.00    -0.303 C  
ENDBRANCH  21  22
ENDBRANCH  20  21
ENDBRANCH  18  20
ENDBRANCH  14  15
ENDBRANCH  13  14
ENDBRANCH   4  13
BRANCH   8  25
HETATM   25  N   UNL     1      -7.346   6.943  69.389  1.00  0.00    -0.089 N  
HETATM   26  C   UNL     1      -7.107   5.711  69.958  1.00  0.00    -0.067 C  
HETATM   27  H   UNL     1      -7.349   7.026  68.372  1.00  0.00     0.000 HD 
HETATM   28  O   UNL     1      -7.209   5.510  71.168  1.00  0.00    -0.070 OA 
BRANCH  26  29
HETATM   29  C   UNL     1      -6.693   4.628  68.984  1.00  0.00    -0.046 C  
BRANCH  29  30
HETATM   30  C   UNL     1      -7.803   4.287  68.054  1.00  0.00    -0.079 A  
HETATM   31  N   UNL     1      -8.731   2.308  65.313  1.00  0.00    -0.113 NA 
HETATM   32  C   UNL     1      -9.088   4.796  68.080  1.00  0.00    -0.117 A  
HETATM   33  S   UNL     1     -10.023   4.092  66.832  1.00  0.00     0.031 SA 
HETATM   34  H2  UNL     1      -9.611   2.205  64.807  1.00  0.00     0.000 HD 
HETATM   35  H1  UNL     1      -7.922   1.759  65.023  1.00  0.00     0.000 HD 
HETATM   36  N   UNL     1      -7.573   3.345  67.058  1.00  0.00    -0.078 NA 
HETATM   37  C   UNL     1      -8.663   3.167  66.346  1.00  0.00    -0.131 A  
ENDBRANCH  29  30
ENDBRANCH  26  29
ENDBRANCH   8  25
TORSDOF 9
ENDMDL
MODEL      274
REMARK 921   NORMALIZED FREE ENERGY PREDICTED BY IDOCK:   -3.18 KCAL/MOL
REMARK 922        TOTAL FREE ENERGY PREDICTED BY IDOCK:   -6.79 KCAL/MOL
REMARK 923 INTER-LIGAND FREE ENERGY PREDICTED BY IDOCK:   -6.13 KCAL/MOL
REMARK 924 INTRA-LIGAND FREE ENERGY PREDICTED BY IDOCK:   -0.67 KCAL/MOL
REMARK 927      BINDING AFFINITY PREDICTED BY RF-SCORE:    0.00 PKD
ROOT
HETATM    1  C   UNL     1      -9.030  10.747  67.912  1.00  0.00    -0.139 C  
HETATM    2  S   UNL     1     -10.404  10.334  66.814  1.00  0.00    -0.211 SA 
HETATM    3  C   UNL     1      -9.663   8.782  66.262  1.00  0.00    -0.272 C  
HETATM    4  C   UNL     1      -8.196   8.875  65.860  1.00  0.00    -0.119 C  
HETATM    5  C   UNL     1      -7.521  12.118  67.453  1.00  0.00    -0.156 C  
HETATM    6  CA  UNL     1      -7.361   9.882  66.255  1.00  0.00    -0.102 C  
HETATM    7  C   UNL     1      -5.932   9.928  65.751  1.00  0.00    -0.067 C  
HETATM    8  CA  UNL     1      -8.858  12.263  68.248  1.00  0.00    -0.178 C  
HETATM    9  N   UNL     1      -7.823  10.850  67.110  1.00  0.00    -0.122 N  
HETATM   10  O   UNL     1      -5.294  11.110  65.788  1.00  0.00    -0.149 OA 
HETATM   11  OXT UNL     1      -5.344   8.941  65.332  1.00  0.00    -0.037 OA 
HETATM   12  O   UNL     1      -6.607  12.826  67.086  1.00  0.00    -0.134 OA 
ENDROOT
BRANCH   4  13
HETATM   13  C   UNL     1      -7.841   7.783  64.843  1.00  0.00    -0.123 C  
BRANCH  13  14
HETATM   14  S   UNL     1      -7.140   6.284  65.621  1.00  0.00    -0.067 SA 
BRANCH  14  15
HETATM   15  C   UNL     1      -8.401   5.761  66.673  1.00  0.00    -0.109 A  
HETATM   16  N   UNL     1      -8.451   5.953  67.972  1.00  0.00    -0.111 NA 
HETATM   17  N   UNL     1      -9.570   5.299  68.413  1.00  0.00    -0.127 NA 
HETATM   18  N   UNL     1      -9.508   5.045  66.298  1.00  0.00    -0.147 NA 
HETATM   19  N   UNL     1     -10.215   4.731  67.405  1.00  0.00    -0.123 NA 
BRANCH  18  20
HETATM   20  C   UNL     1     -10.031   4.643  65.004  1.00  0.00    -0.020 C  
BRANCH  20  21
HETATM   21  C   UNL     1      -9.400   3.312  64.557  1.00  0.00    -0.143 C  
BRANCH  21  22
HETATM   22  N   UNL     1      -8.725   3.283  63.240  1.00  0.00    -0.089 NA 
HETATM   23  C   UNL     1      -9.283   2.174  62.444  1.00  0.00    -0.080 C  
HETATM   24  C   UNL     1      -7.273   3.089  63.335  1.00  0.00    -0.049 C  
ENDBRANCH  21  22
ENDBRANCH  20  21
ENDBRANCH  18  20
ENDBRANCH  14  15
ENDBRANCH  13  14
ENDBRANCH   4  13
BRANCH   8  25
HETATM   25  N   UNL     1      -9.855  13.203  67.652  1.00  0.00    -0.214 N  
HETATM   26  C   UNL     1      -9.737  14.570  67.775  1.00  0.00    -0.216 C  
HETATM   27  H   UNL     1     -10.648  12.819  67.137  1.00  0.00     0.000 HD 
HETATM   28  O   UNL     1      -8.748  15.107  68.273  1.00  0.00    -0.162 OA 
BRANCH  26  29
HETATM   29  C   UNL     1     -10.924  15.362  67.267  1.00  0.00    -0.317 C  
BRANCH  29  30
HETATM   30  C   UNL     1     -10.624  16.818  67.234  1.00  0.00    -0.275 A  
HETATM   31  N   UNL     1     -10.296  19.716  69.181  1.00  0.00    -0.597 NA 
HETATM   32  C   UNL     1     -10.289  17.567  66.122  1.00  0.00    -0.329 A  
HETATM   33  S   UNL     1     -10.008  19.193  66.572  1.00  0.00    -0.413 SA 
HETATM   34  H2  UNL     1     -10.046  20.676  68.945  1.00  0.00     0.000 HD 
HETATM   35  H1  UNL     1     -10.500  19.477  70.151  1.00  0.00     0.000 HD 
HETATM   36  N   UNL     1     -10.648  17.532  68.427  1.00  0.00    -0.365 NA 
HETATM   37  C   UNL     1     -10.350  18.792  68.204  1.00  0.00    -0.365 A  
ENDBRANCH  29  30
ENDBRANCH  26  29
ENDBRANCH   8  25
TORSDOF 9
ENDMDL
MODEL      275
REMARK 921   NORMALIZED FREE ENERGY PREDICTED BY IDOCK:   -3.15 KCAL/MOL
REMARK 922        TOTAL FREE ENERGY PREDICTED BY IDOCK:   -6.75 KCAL/MOL
REMARK 923 INTER-LIGAND FREE ENERGY PREDICTED BY IDOCK:   -5.64 KCAL/MOL
REMARK 924 INTRA-LIGAND FREE ENERGY PREDICTED BY IDOCK:   -1.11 KCAL/MOL
REMARK 927      BINDING AFFINITY PREDICTED BY RF-SCORE:    0.00 PKD
ROOT
HETATM    1  C   UNL     1      -8.425  11.066  68.422  1.00  0.00    -0.144 C  
HETATM    2  S   UNL     1     -10.026  10.765  67.640  1.00  0.00    -0.177 SA 
HETATM    3  C   UNL     1      -9.496   9.225  66.858  1.00  0.00    -0.161 C  
HETATM    4  C   UNL     1      -8.152   9.293  66.143  1.00  0.00    -0.110 C  
HETATM    5  C   UNL     1      -6.996  12.413  67.705  1.00  0.00    -0.118 C  
HETATM    6  CA  UNL     1      -7.206  10.248  66.392  1.00  0.00    -0.113 C  
HETATM    7  C   UNL     1      -5.924  10.276  65.583  1.00  0.00    -0.103 C  
HETATM    8  CA  UNL     1      -8.115  12.554  68.786  1.00  0.00     0.087 C  
HETATM    9  N   UNL     1      -7.423  11.178  67.376  1.00  0.00    -0.103 N  
HETATM   10  O   UNL     1      -5.241  11.432  65.536  1.00  0.00    -0.274 OA 
HETATM   11  OXT UNL     1      -5.488   9.297  64.993  1.00  0.00    -0.045 OA 
HETATM   12  O   UNL     1      -6.155  13.111  67.180  1.00  0.00    -0.301 OA 
ENDROOT
BRANCH   4  13
HETATM   13  C   UNL     1      -8.081   8.253  65.019  1.00  0.00    -0.148 C  
BRANCH  13  14
HETATM   14  S   UNL     1      -7.470   6.626  65.589  1.00  0.00    -0.086 SA 
BRANCH  14  15
HETATM   15  C   UNL     1      -8.862   5.619  65.467  1.00  0.00    -0.130 A  
HETATM   16  N   UNL     1      -9.875   5.599  66.302  1.00  0.00    -0.148 NA 
HETATM   17  N   UNL     1     -10.705   4.595  65.876  1.00  0.00    -0.257 NA 
HETATM   18  N   UNL     1      -9.083   4.677  64.496  1.00  0.00    -0.153 NA 
HETATM   19  N   UNL     1     -10.226   4.017  64.785  1.00  0.00    -0.227 NA 
BRANCH  18  20
HETATM   20  C   UNL     1      -8.373   4.332  63.276  1.00  0.00    -0.095 C  
BRANCH  20  21
HETATM   21  C   UNL     1      -7.999   2.839  63.272  1.00  0.00    -0.069 C  
BRANCH  21  22
HETATM   22  N   UNL     1      -6.704   2.457  63.879  1.00  0.00    -0.030 NA 
HETATM   23  C   UNL     1      -6.893   2.286  65.331  1.00  0.00    -0.039 C  
HETATM   24  C   UNL     1      -5.648   3.455  63.672  1.00  0.00    -0.009 C  
ENDBRANCH  21  22
ENDBRANCH  20  21
ENDBRANCH  18  20
ENDBRANCH  14  15
ENDBRANCH  13  14
ENDBRANCH   4  13
BRANCH   8  25
HETATM   25  N   UNL     1      -9.176  13.559  68.477  1.00  0.00    -0.337 N  
HETATM   26  C   UNL     1      -9.034  14.894  68.791  1.00  0.00    -0.188 C  
HETATM   27  H   UNL     1     -10.032  13.248  68.017  1.00  0.00     0.000 HD 
HETATM   28  O   UNL     1      -7.985  15.362  69.232  1.00  0.00    -0.197 OA 
BRANCH  26  29
HETATM   29  C   UNL     1     -10.273  15.737  68.570  1.00  0.00    -0.216 C  
BRANCH  29  30
HETATM   30  C   UNL     1     -11.267  15.528  69.657  1.00  0.00    -0.300 A  
HETATM   31  N   UNL     1     -11.696  15.269  73.128  1.00  0.00    -0.393 NA 
HETATM   32  C   UNL     1     -12.631  15.367  69.510  1.00  0.00     0.029 A  
HETATM   33  S   UNL     1     -13.370  15.183  71.042  1.00  0.00    -0.421 SA 
HETATM   34  H2  UNL     1     -12.524  15.137  73.709  1.00  0.00     0.000 HD 
HETATM   35  H1  UNL     1     -10.783  15.353  73.572  1.00  0.00     0.000 HD 
HETATM   36  N   UNL     1     -10.821  15.511  70.974  1.00  0.00    -0.263 NA 
HETATM   37  C   UNL     1     -11.833  15.327  71.790  1.00  0.00    -0.406 A  
ENDBRANCH  29  30
ENDBRANCH  26  29
ENDBRANCH   8  25
TORSDOF 9
ENDMDL
MODEL      276
REMARK 921   NORMALIZED FREE ENERGY PREDICTED BY IDOCK:   -3.14 KCAL/MOL
REMARK 922        TOTAL FREE ENERGY PREDICTED BY IDOCK:   -6.73 KCAL/MOL
REMARK 923 INTER-LIGAND FREE ENERGY PREDICTED BY IDOCK:   -6.33 KCAL/MOL
REMARK 924 INTRA-LIGAND FREE ENERGY PREDICTED BY IDOCK:   -0.40 KCAL/MOL
REMARK 927      BINDING AFFINITY PREDICTED BY RF-SCORE:    0.00 PKD
ROOT
HETATM    1  C   UNL     1      -9.679   9.294  70.722  1.00  0.00    -0.282 C  
HETATM    2  S   UNL     1      -9.810   9.201  68.922  1.00  0.00    -0.179 SA 
HETATM    3  C   UNL     1     -10.459  10.879  68.757  1.00  0.00    -0.200 C  
HETATM    4  C   UNL     1     -11.588  11.232  69.717  1.00  0.00    -0.408 C  
HETATM    5  C   UNL     1     -11.050   8.444  72.052  1.00  0.00    -0.327 C  
HETATM    6  CA  UNL     1     -11.837  10.557  70.879  1.00  0.00    -0.355 C  
HETATM    7  C   UNL     1     -13.026  10.938  71.740  1.00  0.00    -0.451 C  
HETATM    8  CA  UNL     1      -9.693   7.926  71.478  1.00  0.00    -0.161 C  
HETATM    9  N   UNL     1     -11.006   9.536  71.262  1.00  0.00    -0.363 N  
HETATM   10  O   UNL     1     -13.493  10.019  72.602  1.00  0.00    -0.150 OA 
HETATM   11  OXT UNL     1     -13.558  12.039  71.688  1.00  0.00    -0.094 OA 
HETATM   12  O   UNL     1     -11.938   8.042  72.774  1.00  0.00    -0.337 OA 
ENDROOT
BRANCH   4  13
HETATM   13  C   UNL     1     -12.481  12.329  69.125  1.00  0.00     0.387 C  
BRANCH  13  14
HETATM   14  S   UNL     1     -12.004  12.796  67.422  1.00  0.00    -0.172 SA 
BRANCH  14  15
HETATM   15  C   UNL     1     -10.769  13.972  67.670  1.00  0.00    -0.257 A  
HETATM   16  N   UNL     1     -10.196  14.258  68.817  1.00  0.00    -0.234 NA 
HETATM   17  N   UNL     1      -9.346  15.304  68.572  1.00  0.00    -0.193 NA 
HETATM   18  N   UNL     1     -10.241  14.791  66.706  1.00  0.00    -0.262 NA 
HETATM   19  N   UNL     1      -9.374  15.646  67.292  1.00  0.00    -0.212 NA 
BRANCH  18  20
HETATM   20  C   UNL     1     -10.408  14.852  65.264  1.00  0.00    -0.396 C  
BRANCH  20  21
HETATM   21  C   UNL     1      -9.698  13.666  64.588  1.00  0.00     0.392 C  
BRANCH  21  22
HETATM   22  N   UNL     1     -10.418  12.372  64.546  1.00  0.00    -0.308 NA 
HETATM   23  C   UNL     1      -9.440  11.292  64.322  1.00  0.00    -0.178 C  
HETATM   24  C   UNL     1     -11.426  12.302  63.482  1.00  0.00    -0.476 C  
ENDBRANCH  21  22
ENDBRANCH  20  21
ENDBRANCH  18  20
ENDBRANCH  14  15
ENDBRANCH  13  14
ENDBRANCH   4  13
BRANCH   8  25
HETATM   25  N   UNL     1      -9.786   6.693  70.639  1.00  0.00    -0.172 N  
HETATM   26  C   UNL     1      -8.726   6.240  69.885  1.00  0.00    -0.141 C  
HETATM   27  H   UNL     1     -10.662   6.171  70.624  1.00  0.00     0.000 HD 
HETATM   28  O   UNL     1      -7.605   6.744  69.947  1.00  0.00    -0.095 OA 
BRANCH  26  29
HETATM   29  C   UNL     1      -9.048   5.084  68.961  1.00  0.00    -0.140 C  
BRANCH  29  30
HETATM   30  C   UNL     1      -8.904   3.779  69.661  1.00  0.00    -0.091 A  
HETATM   31  N   UNL     1     -10.308   1.662  72.078  1.00  0.00    -0.156 NA 
HETATM   32  C   UNL     1      -7.927   2.827  69.441  1.00  0.00    -0.044 A  
HETATM   33  S   UNL     1      -8.182   1.479  70.463  1.00  0.00    -0.041 SA 
HETATM   34  H2  UNL     1     -10.045   0.736  72.415  1.00  0.00     0.000 HD 
HETATM   35  H1  UNL     1     -11.129   2.122  72.471  1.00  0.00     0.000 HD 
HETATM   36  N   UNL     1      -9.845   3.433  70.625  1.00  0.00    -0.090 NA 
HETATM   37  C   UNL     1      -9.564   2.251  71.124  1.00  0.00    -0.143 A  
ENDBRANCH  29  30
ENDBRANCH  26  29
ENDBRANCH   8  25
TORSDOF 9
ENDMDL
MODEL      277
REMARK 921   NORMALIZED FREE ENERGY PREDICTED BY IDOCK:   -3.11 KCAL/MOL
REMARK 922        TOTAL FREE ENERGY PREDICTED BY IDOCK:   -6.69 KCAL/MOL
REMARK 923 INTER-LIGAND FREE ENERGY PREDICTED BY IDOCK:   -5.86 KCAL/MOL
REMARK 924 INTRA-LIGAND FREE ENERGY PREDICTED BY IDOCK:   -0.83 KCAL/MOL
REMARK 927      BINDING AFFINITY PREDICTED BY RF-SCORE:    0.00 PKD
ROOT
HETATM    1  C   UNL     1      -6.808  10.976  67.715  1.00  0.00    -0.069 C  
HETATM    2  S   UNL     1      -6.747  10.882  69.519  1.00  0.00    -0.130 SA 
HETATM    3  C   UNL     1      -6.814   9.077  69.553  1.00  0.00    -0.048 C  
HETATM    4  C   UNL     1      -7.882   8.454  68.662  1.00  0.00    -0.116 C  
HETATM    5  C   UNL     1      -8.524  11.438  66.614  1.00  0.00    -0.171 C  
HETATM    6  CA  UNL     1      -8.465   9.100  67.609  1.00  0.00    -0.116 C  
HETATM    7  C   UNL     1      -9.569   8.424  66.818  1.00  0.00    -0.219 C  
HETATM    8  CA  UNL     1      -7.339  12.320  67.121  1.00  0.00    -0.107 C  
HETATM    9  N   UNL     1      -8.047  10.361  67.271  1.00  0.00    -0.114 N  
HETATM   10  O   UNL     1     -10.398   9.206  66.108  1.00  0.00    -0.221 OA 
HETATM   11  OXT UNL     1      -9.719   7.210  66.793  1.00  0.00    -0.177 OA 
HETATM   12  O   UNL     1      -9.572  11.587  66.021  1.00  0.00    -0.215 OA 
ENDROOT
BRANCH   4  13
HETATM   13  C   UNL     1      -8.310   7.085  69.204  1.00  0.00    -0.125 C  
BRANCH  13  14
HETATM   14  S   UNL     1      -7.921   6.866  70.977  1.00  0.00    -0.102 SA 
BRANCH  14  15
HETATM   15  C   UNL     1      -9.397   6.266  71.632  1.00  0.00    -0.147 A  
HETATM   16  N   UNL     1      -9.511   5.439  72.647  1.00  0.00    -0.147 NA 
HETATM   17  N   UNL     1     -10.847   5.161  72.767  1.00  0.00    -0.242 NA 
HETATM   18  N   UNL     1     -10.653   6.548  71.160  1.00  0.00    -0.224 NA 
HETATM   19  N   UNL     1     -11.551   5.820  71.858  1.00  0.00    -0.184 NA 
BRANCH  18  20
HETATM   20  C   UNL     1     -11.142   7.466  70.146  1.00  0.00    -0.246 C  
BRANCH  20  21
HETATM   21  C   UNL     1     -12.442   8.144  70.614  1.00  0.00     0.259 C  
BRANCH  21  22
HETATM   22  N   UNL     1     -12.320   9.435  71.330  1.00  0.00    -0.326 NA 
HETATM   23  C   UNL     1     -12.585   9.209  72.763  1.00  0.00     0.052 C  
HETATM   24  C   UNL     1     -13.258  10.457  70.849  1.00  0.00    -0.244 C  
ENDBRANCH  21  22
ENDBRANCH  20  21
ENDBRANCH  18  20
ENDBRANCH  14  15
ENDBRANCH  13  14
ENDBRANCH   4  13
BRANCH   8  25
HETATM   25  N   UNL     1      -7.712  13.388  68.097  1.00  0.00    -0.130 N  
HETATM   26  C   UNL     1      -6.924  14.499  68.304  1.00  0.00    -0.111 C  
HETATM   27  H   UNL     1      -8.579  13.291  68.626  1.00  0.00     0.000 HD 
HETATM   28  O   UNL     1      -5.932  14.744  67.618  1.00  0.00    -0.271 OA 
BRANCH  26  29
HETATM   29  C   UNL     1      -7.359  15.386  69.452  1.00  0.00    -0.213 C  
BRANCH  29  30
HETATM   30  C   UNL     1      -8.248  16.480  68.978  1.00  0.00    -0.208 A  
HETATM   31  N   UNL     1      -8.367  19.842  67.987  1.00  0.00    -0.305 NA 
HETATM   32  C   UNL     1      -9.604  16.393  68.725  1.00  0.00    -0.249 A  
HETATM   33  S   UNL     1     -10.197  17.899  68.173  1.00  0.00    -0.396 SA 
HETATM   34  H2  UNL     1      -9.129  20.433  67.656  1.00  0.00     0.000 HD 
HETATM   35  H1  UNL     1      -7.429  20.235  68.069  1.00  0.00     0.000 HD 
HETATM   36  N   UNL     1      -7.692  17.730  68.726  1.00  0.00    -0.274 NA 
HETATM   37  C   UNL     1      -8.620  18.560  68.309  1.00  0.00    -0.318 A  
ENDBRANCH  29  30
ENDBRANCH  26  29
ENDBRANCH   8  25
TORSDOF 9
ENDMDL
MODEL      278
REMARK 921   NORMALIZED FREE ENERGY PREDICTED BY IDOCK:   -3.08 KCAL/MOL
REMARK 922        TOTAL FREE ENERGY PREDICTED BY IDOCK:   -6.64 KCAL/MOL
REMARK 923 INTER-LIGAND FREE ENERGY PREDICTED BY IDOCK:   -6.02 KCAL/MOL
REMARK 924 INTRA-LIGAND FREE ENERGY PREDICTED BY IDOCK:   -0.63 KCAL/MOL
REMARK 927      BINDING AFFINITY PREDICTED BY RF-SCORE:    0.00 PKD
ROOT
HETATM    1  C   UNL     1     -10.253   5.729  69.465  1.00  0.00    -0.239 C  
HETATM    2  S   UNL     1      -8.487   5.414  69.246  1.00  0.00    -0.100 SA 
HETATM    3  C   UNL     1      -8.293   4.650  70.871  1.00  0.00    -0.093 C  
HETATM    4  C   UNL     1      -8.926   5.417  72.025  1.00  0.00    -0.142 C  
HETATM    5  C   UNL     1     -11.068   7.586  69.970  1.00  0.00    -0.204 C  
HETATM    6  CA  UNL     1      -9.910   6.353  71.866  1.00  0.00    -0.157 C  
HETATM    7  C   UNL     1     -10.435   7.115  73.068  1.00  0.00    -0.292 C  
HETATM    8  CA  UNL     1     -10.853   6.879  68.594  1.00  0.00    -0.187 C  
HETATM    9  N   UNL     1     -10.419   6.597  70.617  1.00  0.00    -0.212 N  
HETATM   10  O   UNL     1     -11.049   8.289  72.843  1.00  0.00    -0.332 OA 
HETATM   11  OXT UNL     1     -10.333   6.701  74.214  1.00  0.00    -0.361 OA 
HETATM   12  O   UNL     1     -11.477   8.650  70.385  1.00  0.00    -0.239 OA 
ENDROOT
BRANCH   4  13
HETATM   13  C   UNL     1      -8.207   5.109  73.343  1.00  0.00    -0.111 C  
BRANCH  13  14
HETATM   14  S   UNL     1      -6.394   5.333  73.236  1.00  0.00    -0.058 SA 
BRANCH  14  15
HETATM   15  C   UNL     1      -6.201   7.039  73.384  1.00  0.00    -0.061 A  
HETATM   16  N   UNL     1      -6.063   7.705  74.508  1.00  0.00    -0.087 NA 
HETATM   17  N   UNL     1      -6.032   9.031  74.168  1.00  0.00    -0.252 NA 
HETATM   18  N   UNL     1      -6.199   7.936  72.347  1.00  0.00    -0.045 NA 
HETATM   19  N   UNL     1      -6.128   9.185  72.855  1.00  0.00    -0.299 NA 
BRANCH  18  20
HETATM   20  C   UNL     1      -6.209   7.774  70.903  1.00  0.00    -0.034 C  
BRANCH  20  21
HETATM   21  C   UNL     1      -6.813   9.016  70.225  1.00  0.00    -0.049 C  
BRANCH  21  22
HETATM   22  N   UNL     1      -7.095   8.934  68.774  1.00  0.00    -0.066 NA 
HETATM   23  C   UNL     1      -6.187   7.941  68.170  1.00  0.00    -0.046 C  
HETATM   24  C   UNL     1      -6.907  10.209  68.071  1.00  0.00    -0.071 C  
ENDBRANCH  21  22
ENDBRANCH  20  21
ENDBRANCH  18  20
ENDBRANCH  14  15
ENDBRANCH  13  14
ENDBRANCH   4  13
BRANCH   8  25
HETATM   25  N   UNL     1      -9.918   7.576  67.660  1.00  0.00    -0.160 N  
HETATM   26  C   UNL     1     -10.255   8.754  67.030  1.00  0.00    -0.281 C  
HETATM   27  H   UNL     1      -9.000   7.165  67.483  1.00  0.00     0.000 HD 
HETATM   28  O   UNL     1     -11.289   9.369  67.287  1.00  0.00     0.260 OA 
BRANCH  26  29
HETATM   29  C   UNL     1      -9.264   9.225  65.985  1.00  0.00    -0.262 C  
BRANCH  29  30
HETATM   30  C   UNL     1      -9.816  10.358  65.194  1.00  0.00    -0.313 A  
HETATM   31  N   UNL     1     -12.023  13.082  65.255  1.00  0.00    -0.380 NA 
HETATM   32  C   UNL     1      -9.471  10.709  63.902  1.00  0.00    -0.282 A  
HETATM   33  S   UNL     1     -10.347  12.095  63.417  1.00  0.00    -0.313 SA 
HETATM   34  H2  UNL     1     -12.252  13.795  64.563  1.00  0.00     0.000 HD 
HETATM   35  H1  UNL     1     -12.483  13.103  66.164  1.00  0.00     0.000 HD 
HETATM   36  N   UNL     1     -10.759  11.189  65.787  1.00  0.00    -0.226 NA 
HETATM   37  C   UNL     1     -11.121  12.132  64.947  1.00  0.00    -0.319 A  
ENDBRANCH  29  30
ENDBRANCH  26  29
ENDBRANCH   8  25
TORSDOF 9
ENDMDL
MODEL      279
REMARK 921   NORMALIZED FREE ENERGY PREDICTED BY IDOCK:   -3.07 KCAL/MOL
REMARK 922        TOTAL FREE ENERGY PREDICTED BY IDOCK:   -6.62 KCAL/MOL
REMARK 923 INTER-LIGAND FREE ENERGY PREDICTED BY IDOCK:   -5.58 KCAL/MOL
REMARK 924 INTRA-LIGAND FREE ENERGY PREDICTED BY IDOCK:   -1.04 KCAL/MOL
REMARK 927      BINDING AFFINITY PREDICTED BY RF-SCORE:    0.00 PKD
ROOT
HETATM    1  C   UNL     1     -10.523   8.940  70.585  1.00  0.00    -0.221 C  
HETATM    2  S   UNL     1     -11.101   7.637  69.475  1.00  0.00     0.075 SA 
HETATM    3  C   UNL     1     -11.103   6.368  70.761  1.00  0.00    -0.307 C  
HETATM    4  C   UNL     1      -9.845   6.317  71.619  1.00  0.00    -0.184 C  
HETATM    5  C   UNL     1      -8.550   9.625  70.676  1.00  0.00     0.005 C  
HETATM    6  CA  UNL     1      -8.964   7.355  71.740  1.00  0.00    -0.122 C  
HETATM    7  C   UNL     1      -7.702   7.190  72.565  1.00  0.00    -0.088 C  
HETATM    8  CA  UNL     1      -9.802  10.147  69.901  1.00  0.00    -0.177 C  
HETATM    9  N   UNL     1      -9.228   8.545  71.113  1.00  0.00    -0.179 N  
HETATM   10  O   UNL     1      -6.680   8.026  72.317  1.00  0.00    -0.060 OA 
HETATM   11  OXT UNL     1      -7.589   6.346  73.443  1.00  0.00    -0.093 OA 
HETATM   12  O   UNL     1      -7.372   9.898  70.776  1.00  0.00    -0.312 OA 
ENDROOT
BRANCH   4  13
HETATM   13  C   UNL     1      -9.632   4.910  72.189  1.00  0.00    -0.152 C  
BRANCH  13  14
HETATM   14  S   UNL     1      -9.566   3.618  70.895  1.00  0.00    -0.166 SA 
BRANCH  14  15
HETATM   15  C   UNL     1      -7.904   3.162  70.881  1.00  0.00    -0.046 A  
HETATM   16  N   UNL     1      -7.104   3.134  71.922  1.00  0.00    -0.037 NA 
HETATM   17  N   UNL     1      -5.863   2.804  71.444  1.00  0.00    -0.013 NA 
HETATM   18  N   UNL     1      -7.186   2.798  69.772  1.00  0.00    -0.043 NA 
HETATM   19  N   UNL     1      -5.897   2.610  70.134  1.00  0.00    -0.018 NA 
BRANCH  18  20
HETATM   20  C   UNL     1      -7.561   2.550  68.391  1.00  0.00    -0.054 C  
BRANCH  20  21
HETATM   21  C   UNL     1      -7.807   3.878  67.652  1.00  0.00    -0.082 C  
BRANCH  21  22
HETATM   22  N   UNL     1      -8.474   3.813  66.332  1.00  0.00    -0.108 NA 
HETATM   23  C   UNL     1      -7.445   3.863  65.278  1.00  0.00    -0.080 C  
HETATM   24  C   UNL     1      -9.417   4.914  66.101  1.00  0.00    -0.161 C  
ENDBRANCH  21  22
ENDBRANCH  20  21
ENDBRANCH  18  20
ENDBRANCH  14  15
ENDBRANCH  13  14
ENDBRANCH   4  13
BRANCH   8  25
HETATM   25  N   UNL     1      -9.691  10.110  68.412  1.00  0.00    -0.144 N  
HETATM   26  C   UNL     1      -8.958  11.042  67.709  1.00  0.00    -0.140 C  
HETATM   27  H   UNL     1     -10.172   9.370  67.899  1.00  0.00     0.000 HD 
HETATM   28  O   UNL     1      -8.254  11.885  68.263  1.00  0.00    -0.145 OA 
BRANCH  26  29
HETATM   29  C   UNL     1      -9.099  10.961  66.203  1.00  0.00    -0.201 C  
BRANCH  29  30
HETATM   30  C   UNL     1     -10.056  11.981  65.697  1.00  0.00    -0.243 A  
HETATM   31  N   UNL     1     -12.469  12.672  63.249  1.00  0.00    -0.776 NA 
HETATM   32  C   UNL     1     -10.298  13.228  66.241  1.00  0.00    -0.290 A  
HETATM   33  S   UNL     1     -11.500  14.041  65.334  1.00  0.00    -0.327 SA 
HETATM   34  H2  UNL     1     -13.065  13.483  63.082  1.00  0.00     0.000 HD 
HETATM   35  H1  UNL     1     -12.535  11.868  62.625  1.00  0.00     0.000 HD 
HETATM   36  N   UNL     1     -10.823  11.679  64.578  1.00  0.00    -0.312 NA 
HETATM   37  C   UNL     1     -11.612  12.688  64.286  1.00  0.00    -0.374 A  
ENDBRANCH  29  30
ENDBRANCH  26  29
ENDBRANCH   8  25
TORSDOF 9
ENDMDL
MODEL      280
REMARK 921   NORMALIZED FREE ENERGY PREDICTED BY IDOCK:   -3.06 KCAL/MOL
REMARK 922        TOTAL FREE ENERGY PREDICTED BY IDOCK:   -6.61 KCAL/MOL
REMARK 923 INTER-LIGAND FREE ENERGY PREDICTED BY IDOCK:   -5.89 KCAL/MOL
REMARK 924 INTRA-LIGAND FREE ENERGY PREDICTED BY IDOCK:   -0.72 KCAL/MOL
REMARK 927      BINDING AFFINITY PREDICTED BY RF-SCORE:    0.00 PKD
ROOT
HETATM    1  C   UNL     1      -8.479  11.014  68.222  1.00  0.00    -0.138 C  
HETATM    2  S   UNL     1     -10.077  10.771  67.414  1.00  0.00    -0.201 SA 
HETATM    3  C   UNL     1      -9.566   9.254  66.577  1.00  0.00    -0.224 C  
HETATM    4  C   UNL     1      -8.214   9.327  65.878  1.00  0.00    -0.116 C  
HETATM    5  C   UNL     1      -7.020  12.363  67.572  1.00  0.00    -0.142 C  
HETATM    6  CA  UNL     1      -7.255  10.255  66.172  1.00  0.00    -0.121 C  
HETATM    7  C   UNL     1      -5.964  10.293  65.376  1.00  0.00    -0.115 C  
HETATM    8  CA  UNL     1      -8.147  12.481  68.647  1.00  0.00    -0.013 C  
HETATM    9  N   UNL     1      -7.465  11.149  67.190  1.00  0.00    -0.114 N  
HETATM   10  O   UNL     1      -5.261  11.438  65.381  1.00  0.00    -0.249 OA 
HETATM   11  OXT UNL     1      -5.540   9.330  64.753  1.00  0.00    -0.059 OA 
HETATM   12  O   UNL     1      -6.162  13.067  67.082  1.00  0.00    -0.286 OA 
ENDROOT
BRANCH   4  13
HETATM   13  C   UNL     1      -8.150   8.331  64.714  1.00  0.00    -0.151 C  
BRANCH  13  14
HETATM   14  S   UNL     1      -7.224   6.809  65.128  1.00  0.00    -0.078 SA 
BRANCH  14  15
HETATM   15  C   UNL     1      -7.439   6.670  66.832  1.00  0.00    -0.087 A  
HETATM   16  N   UNL     1      -6.663   7.196  67.753  1.00  0.00    -0.062 NA 
HETATM   17  N   UNL     1      -7.149   6.762  68.957  1.00  0.00    -0.085 NA 
HETATM   18  N   UNL     1      -8.433   5.962  67.456  1.00  0.00    -0.105 NA 
HETATM   19  N   UNL     1      -8.219   5.998  68.789  1.00  0.00    -0.103 NA 
BRANCH  18  20
HETATM   20  C   UNL     1      -9.615   5.275  66.961  1.00  0.00    -0.142 C  
BRANCH  20  21
HETATM   21  C   UNL     1      -9.527   3.768  67.261  1.00  0.00    -0.200 C  
BRANCH  21  22
HETATM   22  N   UNL     1      -8.797   2.920  66.291  1.00  0.00    -0.138 NA 
HETATM   23  C   UNL     1      -9.396   3.102  64.956  1.00  0.00    -0.148 C  
HETATM   24  C   UNL     1      -8.843   1.490  66.619  1.00  0.00    -0.115 C  
ENDBRANCH  21  22
ENDBRANCH  20  21
ENDBRANCH  18  20
ENDBRANCH  14  15
ENDBRANCH  13  14
ENDBRANCH   4  13
BRANCH   8  25
HETATM   25  N   UNL     1      -9.188  13.516  68.368  1.00  0.00    -0.272 N  
HETATM   26  C   UNL     1      -9.077  14.810  68.830  1.00  0.00    -0.191 C  
HETATM   27  H   UNL     1     -10.007  13.256  67.817  1.00  0.00     0.000 HD 
HETATM   28  O   UNL     1      -8.065  15.226  69.392  1.00  0.00    -0.218 OA 
BRANCH  26  29
HETATM   29  C   UNL     1     -10.300  15.674  68.609  1.00  0.00    -0.216 C  
BRANCH  29  30
HETATM   30  C   UNL     1     -11.299  15.479  69.693  1.00  0.00    -0.315 A  
HETATM   31  N   UNL     1     -11.795  15.510  73.164  1.00  0.00    -0.453 NA 
HETATM   32  C   UNL     1     -12.640  15.183  69.538  1.00  0.00     0.011 A  
HETATM   33  S   UNL     1     -13.399  15.078  71.067  1.00  0.00    -0.401 SA 
HETATM   34  H2  UNL     1     -12.622  15.359  73.741  1.00  0.00     0.000 HD 
HETATM   35  H1  UNL     1     -10.904  15.718  73.615  1.00  0.00     0.000 HD 
HETATM   36  N   UNL     1     -10.888  15.626  71.013  1.00  0.00    -0.232 NA 
HETATM   37  C   UNL     1     -11.901  15.429  71.825  1.00  0.00    -0.412 A  
ENDBRANCH  29  30
ENDBRANCH  26  29
ENDBRANCH   8  25
TORSDOF 9
ENDMDL
MODEL      281
REMARK 921   NORMALIZED FREE ENERGY PREDICTED BY IDOCK:   -3.03 KCAL/MOL
REMARK 922        TOTAL FREE ENERGY PREDICTED BY IDOCK:   -6.57 KCAL/MOL
REMARK 923 INTER-LIGAND FREE ENERGY PREDICTED BY IDOCK:   -5.85 KCAL/MOL
REMARK 924 INTRA-LIGAND FREE ENERGY PREDICTED BY IDOCK:   -0.72 KCAL/MOL
REMARK 927      BINDING AFFINITY PREDICTED BY RF-SCORE:    0.00 PKD
ROOT
HETATM    1  C   UNL     1      -5.901   8.984  64.927  1.00  0.00    -0.063 C  
HETATM    2  S   UNL     1      -5.890  10.696  65.505  1.00  0.00    -0.104 SA 
HETATM    3  C   UNL     1      -5.323  10.265  67.165  1.00  0.00    -0.041 C  
HETATM    4  C   UNL     1      -6.065   9.107  67.820  1.00  0.00    -0.050 C  
HETATM    5  C   UNL     1      -7.620   7.807  64.754  1.00  0.00    -0.108 C  
HETATM    6  CA  UNL     1      -6.791   8.180  67.127  1.00  0.00    -0.070 C  
HETATM    7  C   UNL     1      -7.553   7.099  67.870  1.00  0.00    -0.111 C  
HETATM    8  CA  UNL     1      -6.842   8.679  63.717  1.00  0.00    -0.087 C  
HETATM    9  N   UNL     1      -6.826   8.232  65.757  1.00  0.00    -0.063 N  
HETATM   10  O   UNL     1      -8.572   6.501  67.231  1.00  0.00    -0.112 OA 
HETATM   11  OXT UNL     1      -7.269   6.749  69.007  1.00  0.00    -0.085 OA 
HETATM   12  O   UNL     1      -8.627   7.132  64.790  1.00  0.00     0.046 OA 
ENDROOT
BRANCH   4  13
HETATM   13  C   UNL     1      -6.011   9.222  69.348  1.00  0.00    -0.037 C  
BRANCH  13  14
HETATM   14  S   UNL     1      -7.062  10.570  70.000  1.00  0.00    -0.052 SA 
BRANCH  14  15
HETATM   15  C   UNL     1      -8.641  10.126  69.474  1.00  0.00    -0.164 A  
HETATM   16  N   UNL     1      -9.401   9.199  70.012  1.00  0.00    -0.184 NA 
HETATM   17  N   UNL     1     -10.522   9.119  69.228  1.00  0.00    -0.219 NA 
HETATM   18  N   UNL     1      -9.304  10.659  68.399  1.00  0.00    -0.156 NA 
HETATM   19  N   UNL     1     -10.468   9.994  68.234  1.00  0.00    -0.200 NA 
BRANCH  18  20
HETATM   20  C   UNL     1      -9.007  11.768  67.509  1.00  0.00    -0.168 C  
BRANCH  20  21
HETATM   21  C   UNL     1      -9.506  13.093  68.113  1.00  0.00    -0.222 C  
BRANCH  21  22
HETATM   22  N   UNL     1      -8.499  14.148  68.373  1.00  0.00    -0.167 NA 
HETATM   23  C   UNL     1      -9.199  15.383  68.773  1.00  0.00    -0.206 C  
HETATM   24  C   UNL     1      -7.665  14.456  67.205  1.00  0.00    -0.137 C  
ENDBRANCH  21  22
ENDBRANCH  20  21
ENDBRANCH  18  20
ENDBRANCH  14  15
ENDBRANCH  13  14
ENDBRANCH   4  13
BRANCH   8  25
HETATM   25  N   UNL     1      -7.608   9.831  63.152  1.00  0.00    -0.118 N  
HETATM   26  C   UNL     1      -8.834  10.212  63.653  1.00  0.00    -0.226 C  
HETATM   27  H   UNL     1      -7.209  10.352  62.371  1.00  0.00     0.000 HD 
HETATM   28  O   UNL     1      -9.318   9.712  64.668  1.00  0.00    -0.260 OA 
BRANCH  26  29
HETATM   29  C   UNL     1      -9.547  11.281  62.851  1.00  0.00    -0.377 C  
BRANCH  29  30
HETATM   30  C   UNL     1     -10.473  12.068  63.708  1.00  0.00    -0.429 A  
HETATM   31  N   UNL     1     -10.888  15.081  65.454  1.00  0.00    -0.340 NA 
HETATM   32  C   UNL     1     -11.746  11.702  64.104  1.00  0.00    -0.216 A  
HETATM   33  S   UNL     1     -12.441  12.937  65.062  1.00  0.00    -0.462 SA 
HETATM   34  H2  UNL     1     -11.664  15.457  65.998  1.00  0.00     0.000 HD 
HETATM   35  H1  UNL     1     -10.037  15.633  65.350  1.00  0.00     0.000 HD 
HETATM   36  N   UNL     1     -10.064  13.319  64.159  1.00  0.00    -0.274 NA 
HETATM   37  C   UNL     1     -11.009  13.866  64.888  1.00  0.00    -0.386 A  
ENDBRANCH  29  30
ENDBRANCH  26  29
ENDBRANCH   8  25
TORSDOF 9
ENDMDL
MODEL      282
REMARK 921   NORMALIZED FREE ENERGY PREDICTED BY IDOCK:   -3.00 KCAL/MOL
REMARK 922        TOTAL FREE ENERGY PREDICTED BY IDOCK:   -6.52 KCAL/MOL
REMARK 923 INTER-LIGAND FREE ENERGY PREDICTED BY IDOCK:   -6.28 KCAL/MOL
REMARK 924 INTRA-LIGAND FREE ENERGY PREDICTED BY IDOCK:   -0.24 KCAL/MOL
REMARK 927      BINDING AFFINITY PREDICTED BY RF-SCORE:    0.00 PKD
ROOT
HETATM    1  C   UNL     1      -6.129   8.834  65.004  1.00  0.00    -0.060 C  
HETATM    2  S   UNL     1      -6.338  10.489  65.696  1.00  0.00    -0.106 SA 
HETATM    3  C   UNL     1      -5.948   9.971  67.382  1.00  0.00    -0.054 C  
HETATM    4  C   UNL     1      -6.663   8.710  67.851  1.00  0.00    -0.066 C  
HETATM    5  C   UNL     1      -7.704   7.546  64.524  1.00  0.00    -0.123 C  
HETATM    6  CA  UNL     1      -7.213   7.788  67.005  1.00  0.00    -0.089 C  
HETATM    7  C   UNL     1      -7.965   6.596  67.565  1.00  0.00    -0.115 C  
HETATM    8  CA  UNL     1      -6.881   8.556  63.662  1.00  0.00    -0.087 C  
HETATM    9  N   UNL     1      -7.081   7.948  65.650  1.00  0.00    -0.056 N  
HETATM   10  O   UNL     1      -8.840   5.974  66.757  1.00  0.00    -0.116 OA 
HETATM   11  OXT UNL     1      -7.795   6.177  68.702  1.00  0.00    -0.098 OA 
HETATM   12  O   UNL     1      -8.645   6.794  64.381  1.00  0.00     0.139 OA 
ENDROOT
BRANCH   4  13
HETATM   13  C   UNL     1      -6.810   8.705  69.377  1.00  0.00    -0.049 C  
BRANCH  13  14
HETATM   14  S   UNL     1      -7.654  10.196  70.018  1.00  0.00    -0.092 SA 
BRANCH  14  15
HETATM   15  C   UNL     1      -8.974  10.397  68.930  1.00  0.00    -0.169 A  
HETATM   16  N   UNL     1      -9.125  11.382  68.074  1.00  0.00    -0.164 NA 
HETATM   17  N   UNL     1     -10.347  11.195  67.484  1.00  0.00    -0.189 NA 
HETATM   18  N   UNL     1     -10.064   9.572  68.836  1.00  0.00    -0.181 NA 
HETATM   19  N   UNL     1     -10.935  10.103  67.950  1.00  0.00    -0.285 NA 
BRANCH  18  20
HETATM   20  C   UNL     1     -10.389   8.294  69.446  1.00  0.00    -0.222 C  
BRANCH  20  21
HETATM   21  C   UNL     1     -11.404   8.483  70.588  1.00  0.00    -0.241 C  
BRANCH  21  22
HETATM   22  N   UNL     1     -11.710   7.306  71.432  1.00  0.00    -0.273 NA 
HETATM   23  C   UNL     1     -10.877   6.174  70.988  1.00  0.00    -0.279 C  
HETATM   24  C   UNL     1     -13.116   6.891  71.364  1.00  0.00    -0.250 C  
ENDBRANCH  21  22
ENDBRANCH  20  21
ENDBRANCH  18  20
ENDBRANCH  14  15
ENDBRANCH  13  14
ENDBRANCH   4  13
BRANCH   8  25
HETATM   25  N   UNL     1      -7.667   9.688  63.084  1.00  0.00    -0.123 N  
HETATM   26  C   UNL     1      -8.897  10.056  63.584  1.00  0.00    -0.232 C  
HETATM   27  H   UNL     1      -7.280  10.204  62.293  1.00  0.00     0.000 HD 
HETATM   28  O   UNL     1      -9.370   9.562  64.607  1.00  0.00    -0.240 OA 
BRANCH  26  29
HETATM   29  C   UNL     1      -9.631  11.101  62.769  1.00  0.00    -0.334 C  
BRANCH  29  30
HETATM   30  C   UNL     1     -10.487  11.954  63.636  1.00  0.00    -0.447 A  
HETATM   31  N   UNL     1     -10.547  14.806  65.675  1.00  0.00    -0.318 NA 
HETATM   32  C   UNL     1     -11.836  11.787  63.887  1.00  0.00    -0.349 A  
HETATM   33  S   UNL     1     -12.398  13.027  64.923  1.00  0.00    -0.459 SA 
HETATM   34  H2  UNL     1     -11.296  15.261  66.197  1.00  0.00     0.000 HD 
HETATM   35  H1  UNL     1      -9.609  15.203  65.702  1.00  0.00     0.000 HD 
HETATM   36  N   UNL     1      -9.916  13.060  64.256  1.00  0.00    -0.198 NA 
HETATM   37  C   UNL     1     -10.819  13.695  64.967  1.00  0.00    -0.352 A  
ENDBRANCH  29  30
ENDBRANCH  26  29
ENDBRANCH   8  25
TORSDOF 9
ENDMDL
MODEL      283
REMARK 921   NORMALIZED FREE ENERGY PREDICTED BY IDOCK:   -2.85 KCAL/MOL
REMARK 922        TOTAL FREE ENERGY PREDICTED BY IDOCK:   -6.29 KCAL/MOL
REMARK 923 INTER-LIGAND FREE ENERGY PREDICTED BY IDOCK:   -5.08 KCAL/MOL
REMARK 924 INTRA-LIGAND FREE ENERGY PREDICTED BY IDOCK:   -1.20 KCAL/MOL
REMARK 927      BINDING AFFINITY PREDICTED BY RF-SCORE:    0.00 PKD
ROOT
HETATM    1  C   UNL     1      -6.587  10.203  68.292  1.00  0.00    -0.054 C  
HETATM    2  S   UNL     1      -6.642  10.074  70.093  1.00  0.00    -0.133 SA 
HETATM    3  C   UNL     1      -6.927   8.291  70.084  1.00  0.00    -0.040 C  
HETATM    4  C   UNL     1      -8.008   7.815  69.121  1.00  0.00    -0.119 C  
HETATM    5  C   UNL     1      -8.169  10.886  67.108  1.00  0.00    -0.126 C  
HETATM    6  CA  UNL     1      -8.448   8.543  68.052  1.00  0.00    -0.131 C  
HETATM    7  C   UNL     1      -9.577   8.017  67.186  1.00  0.00    -0.175 C  
HETATM    8  CA  UNL     1      -6.918  11.611  67.699  1.00  0.00    -0.095 C  
HETATM    9  N   UNL     1      -7.863   9.750  67.766  1.00  0.00    -0.094 N  
HETATM   10  O   UNL     1     -10.265   8.906  66.449  1.00  0.00    -0.283 OA 
HETATM   11  OXT UNL     1      -9.871   6.831  67.126  1.00  0.00    -0.143 OA 
HETATM   12  O   UNL     1      -9.155  11.169  66.461  1.00  0.00    -0.171 OA 
ENDROOT
BRANCH   4  13
HETATM   13  C   UNL     1      -8.628   6.500  69.608  1.00  0.00    -0.132 C  
BRANCH  13  14
HETATM   14  S   UNL     1      -7.438   5.111  69.619  1.00  0.00    -0.061 SA 
BRANCH  14  15
HETATM   15  C   UNL     1      -8.282   3.864  68.780  1.00  0.00    -0.073 A  
HETATM   16  N   UNL     1      -9.342   3.223  69.217  1.00  0.00    -0.161 NA 
HETATM   17  N   UNL     1      -9.624   2.265  68.280  1.00  0.00    -0.162 NA 
HETATM   18  N   UNL     1      -7.939   3.351  67.557  1.00  0.00    -0.080 NA 
HETATM   19  N   UNL     1      -8.768   2.324  67.270  1.00  0.00    -0.113 NA 
BRANCH  18  20
HETATM   20  C   UNL     1      -6.941   3.733  66.571  1.00  0.00    -0.059 C  
BRANCH  20  21
HETATM   21  C   UNL     1      -7.374   5.013  65.834  1.00  0.00    -0.077 C  
BRANCH  21  22
HETATM   22  N   UNL     1      -6.949   5.166  64.424  1.00  0.00    -0.048 NA 
HETATM   23  C   UNL     1      -7.576   6.380  63.869  1.00  0.00    -0.099 C  
HETATM   24  C   UNL     1      -7.327   4.030  63.576  1.00  0.00    -0.051 C  
ENDBRANCH  21  22
ENDBRANCH  20  21
ENDBRANCH  18  20
ENDBRANCH  14  15
ENDBRANCH  13  14
ENDBRANCH   4  13
BRANCH   8  25
HETATM   25  N   UNL     1      -7.217  12.701  68.676  1.00  0.00    -0.109 N  
HETATM   26  C   UNL     1      -7.071  14.033  68.355  1.00  0.00    -0.102 C  
HETATM   27  H   UNL     1      -7.539  12.450  69.612  1.00  0.00     0.000 HD 
HETATM   28  O   UNL     1      -6.806  14.413  67.215  1.00  0.00    -0.241 OA 
BRANCH  26  29
HETATM   29  C   UNL     1      -7.244  14.992  69.514  1.00  0.00    -0.199 C  
BRANCH  29  30
HETATM   30  C   UNL     1      -8.099  16.148  69.132  1.00  0.00    -0.230 A  
HETATM   31  N   UNL     1      -8.090  19.530  68.208  1.00  0.00    -0.326 NA 
HETATM   32  C   UNL     1      -9.474  16.147  68.992  1.00  0.00    -0.246 A  
HETATM   33  S   UNL     1     -10.016  17.698  68.514  1.00  0.00    -0.386 SA 
HETATM   34  H2  UNL     1      -8.838  20.173  67.950  1.00  0.00     0.000 HD 
HETATM   35  H1  UNL     1      -7.126  19.864  68.217  1.00  0.00     0.000 HD 
HETATM   36  N   UNL     1      -7.489  17.366  68.855  1.00  0.00    -0.254 NA 
HETATM   37  C   UNL     1      -8.395  18.259  68.529  1.00  0.00    -0.310 A  
ENDBRANCH  29  30
ENDBRANCH  26  29
ENDBRANCH   8  25
TORSDOF 9
ENDMDL
MODEL      284
REMARK 921   NORMALIZED FREE ENERGY PREDICTED BY IDOCK:   -2.75 KCAL/MOL
REMARK 922        TOTAL FREE ENERGY PREDICTED BY IDOCK:   -6.14 KCAL/MOL
REMARK 923 INTER-LIGAND FREE ENERGY PREDICTED BY IDOCK:   -4.61 KCAL/MOL
REMARK 924 INTRA-LIGAND FREE ENERGY PREDICTED BY IDOCK:   -1.53 KCAL/MOL
REMARK 927      BINDING AFFINITY PREDICTED BY RF-SCORE:    0.00 PKD
ROOT
HETATM    1  C   UNL     1      -8.975   9.798  66.217  1.00  0.00    -0.153 C  
HETATM    2  S   UNL     1      -9.494   8.150  66.747  1.00  0.00    -0.215 SA 
HETATM    3  C   UNL     1      -9.807   8.658  68.452  1.00  0.00    -0.172 C  
HETATM    4  C   UNL     1      -8.705   9.495  69.088  1.00  0.00    -0.146 C  
HETATM    5  C   UNL     1      -6.986  10.386  65.964  1.00  0.00    -0.129 C  
HETATM    6  CA  UNL     1      -7.762  10.180  68.375  1.00  0.00    -0.089 C  
HETATM    7  C   UNL     1      -6.661  10.934  69.097  1.00  0.00    -0.069 C  
HETATM    8  CA  UNL     1      -8.052   9.849  64.957  1.00  0.00    -0.140 C  
HETATM    9  N   UNL     1      -7.818  10.184  67.005  1.00  0.00    -0.102 N  
HETATM   10  O   UNL     1      -5.541  11.213  68.409  1.00  0.00    -0.043 OA 
HETATM   11  OXT UNL     1      -6.760  11.302  70.259  1.00  0.00    -0.195 OA 
HETATM   12  O   UNL     1      -5.817  10.711  65.954  1.00  0.00    -0.105 OA 
ENDROOT
BRANCH   4  13
HETATM   13  C   UNL     1      -8.711   9.332  70.613  1.00  0.00    -0.234 C  
BRANCH  13  14
HETATM   14  S   UNL     1      -8.072   7.707  71.160  1.00  0.00    -0.100 SA 
BRANCH  14  15
HETATM   15  C   UNL     1      -9.312   7.130  72.207  1.00  0.00    -0.138 A  
HETATM   16  N   UNL     1      -9.701   7.696  73.327  1.00  0.00    -0.264 NA 
HETATM   17  N   UNL     1     -10.637   6.859  73.875  1.00  0.00    -0.327 NA 
HETATM   18  N   UNL     1     -10.038   5.981  72.028  1.00  0.00    -0.184 NA 
HETATM   19  N   UNL     1     -10.841   5.804  73.100  1.00  0.00    -0.262 NA 
BRANCH  18  20
HETATM   20  C   UNL     1     -10.116   5.024  70.937  1.00  0.00    -0.232 C  
BRANCH  20  21
HETATM   21  C   UNL     1      -8.736   4.400  70.667  1.00  0.00    -0.090 C  
BRANCH  21  22
HETATM   22  N   UNL     1      -8.531   2.990  71.072  1.00  0.00    -0.061 NA 
HETATM   23  C   UNL     1      -7.930   2.254  69.945  1.00  0.00    -0.041 C  
HETATM   24  C   UNL     1      -9.775   2.308  71.450  1.00  0.00    -0.146 C  
ENDBRANCH  21  22
ENDBRANCH  20  21
ENDBRANCH  18  20
ENDBRANCH  14  15
ENDBRANCH  13  14
ENDBRANCH   4  13
BRANCH   8  25
HETATM   25  N   UNL     1      -7.719   8.544  64.312  1.00  0.00    -0.122 N  
HETATM   26  C   UNL     1      -8.207   8.194  63.072  1.00  0.00    -0.103 C  
HETATM   27  H   UNL     1      -7.110   7.890  64.805  1.00  0.00     0.000 HD 
HETATM   28  O   UNL     1      -8.844   8.976  62.367  1.00  0.00    -0.229 OA 
BRANCH  26  29
HETATM   29  C   UNL     1      -7.917   6.769  62.649  1.00  0.00    -0.100 C  
BRANCH  29  30
HETATM   30  C   UNL     1      -7.877   5.857  63.824  1.00  0.00    -0.115 A  
HETATM   31  N   UNL     1      -5.904   4.702  66.482  1.00  0.00    -0.022 NA 
HETATM   32  C   UNL     1      -8.903   5.050  64.278  1.00  0.00    -0.066 A  
HETATM   33  S   UNL     1      -8.406   4.199  65.676  1.00  0.00    -0.110 SA 
HETATM   34  H2  UNL     1      -6.090   4.045  67.240  1.00  0.00     0.000 HD 
HETATM   35  H1  UNL     1      -4.991   5.152  66.425  1.00  0.00     0.000 HD 
HETATM   36  N   UNL     1      -6.716   5.801  64.586  1.00  0.00    -0.045 NA 
HETATM   37  C   UNL     1      -6.870   4.956  65.580  1.00  0.00    -0.061 A  
ENDBRANCH  29  30
ENDBRANCH  26  29
ENDBRANCH   8  25
TORSDOF 9
ENDMDL
MODEL      285
REMARK 921   NORMALIZED FREE ENERGY PREDICTED BY IDOCK:   -2.72 KCAL/MOL
REMARK 922        TOTAL FREE ENERGY PREDICTED BY IDOCK:   -6.10 KCAL/MOL
REMARK 923 INTER-LIGAND FREE ENERGY PREDICTED BY IDOCK:   -5.80 KCAL/MOL
REMARK 924 INTRA-LIGAND FREE ENERGY PREDICTED BY IDOCK:   -0.30 KCAL/MOL
REMARK 927      BINDING AFFINITY PREDICTED BY RF-SCORE:    0.00 PKD
ROOT
HETATM    1  C   UNL     1      -8.859  10.758  65.785  1.00  0.00    -0.188 C  
HETATM    2  S   UNL     1     -10.376  11.160  66.679  1.00  0.00    -0.249 SA 
HETATM    3  C   UNL     1     -10.080  12.941  66.636  1.00  0.00    -0.245 C  
HETATM    4  C   UNL     1      -8.671  13.371  67.029  1.00  0.00    -0.195 C  
HETATM    5  C   UNL     1      -7.105  10.063  66.686  1.00  0.00    -0.091 C  
HETATM    6  CA  UNL     1      -7.589  12.537  67.009  1.00  0.00    -0.015 C  
HETATM    7  C   UNL     1      -6.236  13.035  67.481  1.00  0.00    -0.139 C  
HETATM    8  CA  UNL     1      -8.298   9.316  66.008  1.00  0.00    -0.113 C  
HETATM    9  N   UNL     1      -7.732  11.250  66.559  1.00  0.00    -0.148 N  
HETATM   10  O   UNL     1      -5.330  12.118  67.859  1.00  0.00    -0.052 OA 
HETATM   11  OXT UNL     1      -5.941  14.221  67.516  1.00  0.00    -0.337 OA 
HETATM   12  O   UNL     1      -6.079   9.784  67.270  1.00  0.00    -0.054 OA 
ENDROOT
BRANCH   4  13
HETATM   13  C   UNL     1      -8.675  14.798  67.588  1.00  0.00    -0.178 C  
BRANCH  13  14
HETATM   14  S   UNL     1      -8.791  14.850  69.412  1.00  0.00     0.033 SA 
BRANCH  14  15
HETATM   15  C   UNL     1     -10.423  15.328  69.688  1.00  0.00    -0.270 A  
HETATM   16  N   UNL     1     -11.158  15.001  70.728  1.00  0.00    -0.234 NA 
HETATM   17  N   UNL     1     -12.405  15.517  70.494  1.00  0.00    -0.402 NA 
HETATM   18  N   UNL     1     -11.187  16.089  68.841  1.00  0.00    -0.331 NA 
HETATM   19  N   UNL     1     -12.439  16.170  69.342  1.00  0.00     0.135 NA 
BRANCH  18  20
HETATM   20  C   UNL     1     -10.882  16.808  67.616  1.00  0.00    -0.252 C  
BRANCH  20  21
HETATM   21  C   UNL     1     -10.369  18.224  67.935  1.00  0.00    -0.399 C  
BRANCH  21  22
HETATM   22  N   UNL     1      -9.210  18.722  67.160  1.00  0.00    -0.283 NA 
HETATM   23  C   UNL     1      -8.068  18.902  68.076  1.00  0.00    -0.292 C  
HETATM   24  C   UNL     1      -9.464  20.004  66.492  1.00  0.00    -0.404 C  
ENDBRANCH  21  22
ENDBRANCH  20  21
ENDBRANCH  18  20
ENDBRANCH  14  15
ENDBRANCH  13  14
ENDBRANCH   4  13
BRANCH   8  25
HETATM   25  N   UNL     1      -9.083   8.420  66.910  1.00  0.00    -0.142 N  
HETATM   26  C   UNL     1      -8.640   7.162  67.258  1.00  0.00    -0.121 C  
HETATM   27  H   UNL     1      -9.974   8.750  67.279  1.00  0.00     0.000 HD 
HETATM   28  O   UNL     1      -7.524   6.745  66.952  1.00  0.00    -0.080 OA 
BRANCH  26  29
HETATM   29  C   UNL     1      -9.639   6.325  68.030  1.00  0.00    -0.115 C  
BRANCH  29  30
HETATM   30  C   UNL     1      -8.981   5.605  69.153  1.00  0.00    -0.113 A  
HETATM   31  N   UNL     1      -8.911   5.193  72.635  1.00  0.00    -0.125 NA 
HETATM   32  C   UNL     1      -7.989   4.648  69.053  1.00  0.00    -0.071 A  
HETATM   33  S   UNL     1      -7.561   4.081  70.609  1.00  0.00    -0.048 SA 
HETATM   34  H2  UNL     1      -8.359   4.589  73.243  1.00  0.00     0.000 HD 
HETATM   35  H1  UNL     1      -9.598   5.824  73.048  1.00  0.00     0.000 HD 
HETATM   36  N   UNL     1      -9.398   5.873  70.453  1.00  0.00    -0.157 NA 
HETATM   37  C   UNL     1      -8.717   5.141  71.304  1.00  0.00    -0.128 A  
ENDBRANCH  29  30
ENDBRANCH  26  29
ENDBRANCH   8  25
TORSDOF 9
ENDMDL
MODEL      286
REMARK 921   NORMALIZED FREE ENERGY PREDICTED BY IDOCK:   -2.54 KCAL/MOL
REMARK 922        TOTAL FREE ENERGY PREDICTED BY IDOCK:   -5.82 KCAL/MOL
REMARK 923 INTER-LIGAND FREE ENERGY PREDICTED BY IDOCK:   -4.68 KCAL/MOL
REMARK 924 INTRA-LIGAND FREE ENERGY PREDICTED BY IDOCK:   -1.15 KCAL/MOL
REMARK 927      BINDING AFFINITY PREDICTED BY RF-SCORE:    0.00 PKD
ROOT
HETATM    1  C   UNL     1      -6.324  10.185  67.686  1.00  0.00    -0.058 C  
HETATM    2  S   UNL     1      -5.765   8.467  67.672  1.00  0.00    -0.040 SA 
HETATM    3  C   UNL     1      -6.175   8.216  65.931  1.00  0.00    -0.045 C  
HETATM    4  C   UNL     1      -7.555   8.709  65.515  1.00  0.00    -0.087 C  
HETATM    5  C   UNL     1      -8.157  10.825  68.460  1.00  0.00    -0.133 C  
HETATM    6  CA  UNL     1      -8.278   9.630  66.220  1.00  0.00    -0.116 C  
HETATM    7  C   UNL     1      -9.673  10.012  65.765  1.00  0.00    -0.257 C  
HETATM    8  CA  UNL     1      -6.727  10.759  69.083  1.00  0.00    -0.074 C  
HETATM    9  N   UNL     1      -7.734  10.207  67.339  1.00  0.00    -0.095 N  
HETATM   10  O   UNL     1     -10.501  10.554  66.675  1.00  0.00    -0.241 OA 
HETATM   11  OXT UNL     1     -10.062   9.861  64.615  1.00  0.00    -0.191 OA 
HETATM   12  O   UNL     1      -9.280  11.125  68.806  1.00  0.00    -0.180 OA 
ENDROOT
BRANCH   4  13
HETATM   13  C   UNL     1      -8.071   7.923  64.304  1.00  0.00    -0.093 C  
BRANCH  13  14
HETATM   14  S   UNL     1      -7.106   6.405  63.975  1.00  0.00    -0.058 SA 
BRANCH  14  15
HETATM   15  C   UNL     1      -7.270   5.510  65.438  1.00  0.00    -0.067 A  
HETATM   16  N   UNL     1      -6.345   4.759  65.991  1.00  0.00    -0.035 NA 
HETATM   17  N   UNL     1      -6.929   4.170  67.081  1.00  0.00    -0.058 NA 
HETATM   18  N   UNL     1      -8.403   5.437  66.206  1.00  0.00    -0.113 NA 
HETATM   19  N   UNL     1      -8.186   4.564  67.215  1.00  0.00    -0.101 NA 
BRANCH  18  20
HETATM   20  C   UNL     1      -9.680   6.127  66.149  1.00  0.00     0.007 C  
BRANCH  20  21
HETATM   21  C   UNL     1     -10.555   5.745  67.356  1.00  0.00    -0.265 C  
BRANCH  21  22
HETATM   22  N   UNL     1     -10.760   6.771  68.404  1.00  0.00    -0.228 NA 
HETATM   23  C   UNL     1      -9.449   7.328  68.785  1.00  0.00    -0.142 C  
HETATM   24  C   UNL     1     -11.400   6.244  69.616  1.00  0.00    -0.422 C  
ENDBRANCH  21  22
ENDBRANCH  20  21
ENDBRANCH  18  20
ENDBRANCH  14  15
ENDBRANCH  13  14
ENDBRANCH   4  13
BRANCH   8  25
HETATM   25  N   UNL     1      -6.584   9.844  70.254  1.00  0.00    -0.101 N  
HETATM   26  C   UNL     1      -5.846  10.187  71.366  1.00  0.00     0.075 C  
HETATM   27  H   UNL     1      -7.048   8.935  70.230  1.00  0.00     0.000 HD 
HETATM   28  O   UNL     1      -5.362  11.308  71.519  1.00  0.00    -0.306 OA 
BRANCH  26  29
HETATM   29  C   UNL     1      -5.661   9.075  72.378  1.00  0.00    -0.071 C  
BRANCH  29  30
HETATM   30  C   UNL     1      -6.870   8.212  72.455  1.00  0.00    -0.086 A  
HETATM   31  N   UNL     1     -10.366   8.204  72.719  1.00  0.00    -0.326 NA 
HETATM   32  C   UNL     1      -6.904   6.831  72.401  1.00  0.00    -0.063 A  
HETATM   33  S   UNL     1      -8.520   6.279  72.502  1.00  0.00    -0.119 SA 
HETATM   34  H2  UNL     1     -11.052   7.449  72.734  1.00  0.00     0.000 HD 
HETATM   35  H1  UNL     1     -10.686   9.170  72.785  1.00  0.00     0.000 HD 
HETATM   36  N   UNL     1      -8.116   8.817  72.568  1.00  0.00    -0.388 NA 
HETATM   37  C   UNL     1      -9.059   7.904  72.612  1.00  0.00    -0.197 A  
ENDBRANCH  29  30
ENDBRANCH  26  29
ENDBRANCH   8  25
TORSDOF 9
ENDMDL
MODEL      287
REMARK 921   NORMALIZED FREE ENERGY PREDICTED BY IDOCK:   -2.53 KCAL/MOL
REMARK 922        TOTAL FREE ENERGY PREDICTED BY IDOCK:   -5.80 KCAL/MOL
REMARK 923 INTER-LIGAND FREE ENERGY PREDICTED BY IDOCK:   -5.21 KCAL/MOL
REMARK 924 INTRA-LIGAND FREE ENERGY PREDICTED BY IDOCK:   -0.59 KCAL/MOL
REMARK 927      BINDING AFFINITY PREDICTED BY RF-SCORE:    0.00 PKD
ROOT
HETATM    1  C   UNL     1      -6.843   9.428  69.247  1.00  0.00    -0.049 C  
HETATM    2  S   UNL     1      -8.614   9.298  68.913  1.00  0.00    -0.133 SA 
HETATM    3  C   UNL     1      -8.514  10.199  67.351  1.00  0.00    -0.122 C  
HETATM    4  C   UNL     1      -7.707  11.490  67.401  1.00  0.00    -0.143 C  
HETATM    5  C   UNL     1      -5.988  10.798  70.575  1.00  0.00    -0.122 C  
HETATM    6  CA  UNL     1      -6.782  11.773  68.367  1.00  0.00    -0.065 C  
HETATM    7  C   UNL     1      -6.075  13.114  68.374  1.00  0.00    -0.083 C  
HETATM    8  CA  UNL     1      -6.421   9.307  70.747  1.00  0.00    -0.079 C  
HETATM    9  N   UNL     1      -6.498  10.837  69.328  1.00  0.00    -0.059 N  
HETATM   10  O   UNL     1      -5.529  13.527  69.530  1.00  0.00    -0.083 OA 
HETATM   11  OXT UNL     1      -5.972  13.816  67.377  1.00  0.00    -0.348 OA 
HETATM   12  O   UNL     1      -5.535  11.691  71.259  1.00  0.00    -0.324 OA 
ENDROOT
BRANCH   4  13
HETATM   13  C   UNL     1      -8.185  12.472  66.324  1.00  0.00     0.515 C  
BRANCH  13  14
HETATM   14  S   UNL     1      -9.099  13.898  67.014  1.00  0.00    -0.247 SA 
BRANCH  14  15
HETATM   15  C   UNL     1     -10.696  13.672  66.407  1.00  0.00    -0.281 A  
HETATM   16  N   UNL     1     -11.062  13.763  65.149  1.00  0.00    -0.315 NA 
HETATM   17  N   UNL     1     -12.422  13.601  65.133  1.00  0.00    -0.516 NA 
HETATM   18  N   UNL     1     -11.806  13.400  67.163  1.00  0.00    -0.375 NA 
HETATM   19  N   UNL     1     -12.889  13.393  66.355  1.00  0.00    -0.073 NA 
BRANCH  18  20
HETATM   20  C   UNL     1     -11.990  13.091  68.571  1.00  0.00    -0.261 C  
BRANCH  20  21
HETATM   21  C   UNL     1     -11.675  14.322  69.439  1.00  0.00    -0.316 C  
BRANCH  21  22
HETATM   22  N   UNL     1     -12.293  14.388  70.783  1.00  0.00    -0.323 NA 
HETATM   23  C   UNL     1     -13.224  13.254  70.932  1.00  0.00     0.100 C  
HETATM   24  C   UNL     1     -13.043  15.627  71.018  1.00  0.00    -0.427 C  
ENDBRANCH  21  22
ENDBRANCH  20  21
ENDBRANCH  18  20
ENDBRANCH  14  15
ENDBRANCH  13  14
ENDBRANCH   4  13
BRANCH   8  25
HETATM   25  N   UNL     1      -7.515   9.073  71.738  1.00  0.00     0.032 N  
HETATM   26  C   UNL     1      -7.542   7.959  72.548  1.00  0.00    -0.106 C  
HETATM   27  H   UNL     1      -8.266   9.759  71.816  1.00  0.00     0.000 HD 
HETATM   28  O   UNL     1      -6.613   7.153  72.597  1.00  0.00    -0.056 OA 
BRANCH  26  29
HETATM   29  C   UNL     1      -8.809   7.791  73.362  1.00  0.00    -0.298 C  
BRANCH  29  30
HETATM   30  C   UNL     1      -9.214   6.362  73.438  1.00  0.00    -0.131 A  
HETATM   31  N   UNL     1     -10.373   3.616  71.591  1.00  0.00     0.047 NA 
HETATM   32  C   UNL     1      -9.200   5.558  74.562  1.00  0.00    -0.126 A  
HETATM   33  S   UNL     1      -9.727   3.981  74.162  1.00  0.00    -0.124 SA 
HETATM   34  H2  UNL     1     -10.581   2.653  71.851  1.00  0.00     0.000 HD 
HETATM   35  H1  UNL     1     -10.499   3.910  70.622  1.00  0.00     0.000 HD 
HETATM   36  N   UNL     1      -9.633   5.725  72.275  1.00  0.00    -0.148 NA 
HETATM   37  C   UNL     1      -9.938   4.474  72.532  1.00  0.00    -0.170 A  
ENDBRANCH  29  30
ENDBRANCH  26  29
ENDBRANCH   8  25
TORSDOF 9
ENDMDL
MODEL      288
REMARK 921   NORMALIZED FREE ENERGY PREDICTED BY IDOCK:   -2.36 KCAL/MOL
REMARK 922        TOTAL FREE ENERGY PREDICTED BY IDOCK:   -5.55 KCAL/MOL
REMARK 923 INTER-LIGAND FREE ENERGY PREDICTED BY IDOCK:   -5.50 KCAL/MOL
REMARK 924 INTRA-LIGAND FREE ENERGY PREDICTED BY IDOCK:   -0.05 KCAL/MOL
REMARK 927      BINDING AFFINITY PREDICTED BY RF-SCORE:    0.00 PKD
ROOT
HETATM    1  C   UNL     1      -5.703   9.967  65.077  1.00  0.00    -0.098 C  
HETATM    2  S   UNL     1      -6.713  11.143  66.006  1.00  0.00     0.132 SA 
HETATM    3  C   UNL     1      -6.360  10.377  67.603  1.00  0.00    -0.057 C  
HETATM    4  C   UNL     1      -6.499   8.860  67.636  1.00  0.00    -0.061 C  
HETATM    5  C   UNL     1      -6.467   8.349  63.996  1.00  0.00    -0.071 C  
HETATM    6  CA  UNL     1      -6.468   8.069  66.522  1.00  0.00    -0.051 C  
HETATM    7  C   UNL     1      -6.681   6.573  66.645  1.00  0.00    -0.056 C  
HETATM    8  CA  UNL     1      -6.070   9.798  63.567  1.00  0.00    -0.113 C  
HETATM    9  N   UNL     1      -6.242   8.636  65.294  1.00  0.00    -0.055 N  
HETATM   10  O   UNL     1      -7.076   5.906  65.547  1.00  0.00    -0.065 OA 
HETATM   11  OXT UNL     1      -6.496   5.959  67.687  1.00  0.00    -0.043 OA 
HETATM   12  O   UNL     1      -6.950   7.358  63.490  1.00  0.00    -0.052 OA 
ENDROOT
BRANCH   4  13
HETATM   13  C   UNL     1      -6.830   8.375  69.053  1.00  0.00    -0.056 C  
BRANCH  13  14
HETATM   14  S   UNL     1      -8.502   8.869  69.604  1.00  0.00    -0.135 SA 
BRANCH  14  15
HETATM   15  C   UNL     1      -9.516   7.657  68.918  1.00  0.00    -0.149 A  
HETATM   16  N   UNL     1      -9.953   7.627  67.680  1.00  0.00    -0.163 NA 
HETATM   17  N   UNL     1     -10.792   6.548  67.594  1.00  0.00    -0.307 NA 
HETATM   18  N   UNL     1     -10.030   6.575  69.585  1.00  0.00    -0.162 NA 
HETATM   19  N   UNL     1     -10.858   5.907  68.752  1.00  0.00    -0.296 NA 
BRANCH  18  20
HETATM   20  C   UNL     1      -9.810   6.042  70.918  1.00  0.00    -0.184 C  
BRANCH  20  21
HETATM   21  C   UNL     1      -8.340   5.619  71.094  1.00  0.00    -0.122 C  
BRANCH  21  22
HETATM   22  N   UNL     1      -7.985   4.223  70.752  1.00  0.00    -0.059 NA 
HETATM   23  C   UNL     1      -9.174   3.371  70.941  1.00  0.00    -0.130 C  
HETATM   24  C   UNL     1      -6.901   3.679  71.579  1.00  0.00    -0.031 C  
ENDBRANCH  21  22
ENDBRANCH  20  21
ENDBRANCH  18  20
ENDBRANCH  14  15
ENDBRANCH  13  14
ENDBRANCH   4  13
BRANCH   8  25
HETATM   25  N   UNL     1      -7.191  10.638  63.048  1.00  0.00    -0.342 N  
HETATM   26  C   UNL     1      -8.509  10.368  63.347  1.00  0.00    -0.174 C  
HETATM   27  H   UNL     1      -6.973  11.438  62.452  1.00  0.00     0.000 HD 
HETATM   28  O   UNL     1      -8.839   9.499  64.154  1.00  0.00    -0.210 OA 
BRANCH  26  29
HETATM   29  C   UNL     1      -9.520  11.208  62.596  1.00  0.00    -0.310 C  
BRANCH  29  30
HETATM   30  C   UNL     1     -10.354  12.009  63.531  1.00  0.00    -0.461 A  
HETATM   31  N   UNL     1     -10.349  14.699  65.780  1.00  0.00    -0.313 NA 
HETATM   32  C   UNL     1     -11.704  11.847  63.779  1.00  0.00    -0.457 A  
HETATM   33  S   UNL     1     -12.238  13.015  64.910  1.00  0.00    -0.461 SA 
HETATM   34  H2  UNL     1     -11.087  15.127  66.340  1.00  0.00     0.000 HD 
HETATM   35  H1  UNL     1      -9.403  15.076  65.829  1.00  0.00     0.000 HD 
HETATM   36  N   UNL     1      -9.759  13.054  64.228  1.00  0.00     0.000 NA 
HETATM   37  C   UNL     1     -10.646  13.650  64.992  1.00  0.00    -0.383 A  
ENDBRANCH  29  30
ENDBRANCH  26  29
ENDBRANCH   8  25
TORSDOF 9
ENDMDL
MODEL      289
REMARK 921   NORMALIZED FREE ENERGY PREDICTED BY IDOCK:   -2.32 KCAL/MOL
REMARK 922        TOTAL FREE ENERGY PREDICTED BY IDOCK:   -5.48 KCAL/MOL
REMARK 923 INTER-LIGAND FREE ENERGY PREDICTED BY IDOCK:   -5.31 KCAL/MOL
REMARK 924 INTRA-LIGAND FREE ENERGY PREDICTED BY IDOCK:   -0.17 KCAL/MOL
REMARK 927      BINDING AFFINITY PREDICTED BY RF-SCORE:    0.00 PKD
ROOT
HETATM    1  C   UNL     1     -10.454   7.493  71.190  1.00  0.00    -0.205 C  
HETATM    2  S   UNL     1     -10.601   7.270  69.403  1.00  0.00    -0.217 SA 
HETATM    3  C   UNL     1     -10.639   5.467  69.504  1.00  0.00    -0.246 C  
HETATM    4  C   UNL     1      -9.569   4.848  70.395  1.00  0.00    -0.259 C  
HETATM    5  C   UNL     1      -8.667   7.930  72.182  1.00  0.00    -0.142 C  
HETATM    6  CA  UNL     1      -8.903   5.533  71.372  1.00  0.00    -0.136 C  
HETATM    7  C   UNL     1      -7.806   4.852  72.166  1.00  0.00    -0.109 C  
HETATM    8  CA  UNL     1      -9.821   8.843  71.658  1.00  0.00    -0.317 C  
HETATM    9  N   UNL     1      -9.233   6.839  71.630  1.00  0.00    -0.145 N  
HETATM   10  O   UNL     1      -6.902   5.633  72.780  1.00  0.00    -0.071 OA 
HETATM   11  OXT UNL     1      -7.723   3.636  72.278  1.00  0.00    -0.060 OA 
HETATM   12  O   UNL     1      -7.586   8.059  72.719  1.00  0.00    -0.108 OA 
ENDROOT
BRANCH   4  13
HETATM   13  C   UNL     1      -9.245   3.419  69.942  1.00  0.00    -0.152 C  
BRANCH  13  14
HETATM   14  S   UNL     1      -9.339   3.207  68.128  1.00  0.00    -0.164 SA 
BRANCH  14  15
HETATM   15  C   UNL     1      -7.833   3.840  67.580  1.00  0.00    -0.081 A  
HETATM   16  N   UNL     1      -6.643   3.384  67.900  1.00  0.00    -0.037 NA 
HETATM   17  N   UNL     1      -5.738   4.233  67.319  1.00  0.00    -0.021 NA 
HETATM   18  N   UNL     1      -7.675   4.928  66.761  1.00  0.00    -0.091 NA 
HETATM   19  N   UNL     1      -6.355   5.185  66.634  1.00  0.00    -0.038 NA 
BRANCH  18  20
HETATM   20  C   UNL     1      -8.616   5.753  66.024  1.00  0.00    -0.139 C  
BRANCH  20  21
HETATM   21  C   UNL     1      -8.575   5.411  64.524  1.00  0.00    -0.077 C  
BRANCH  21  22
HETATM   22  N   UNL     1      -9.028   4.061  64.119  1.00  0.00    -0.129 NA 
HETATM   23  C   UNL     1      -8.874   3.927  62.658  1.00  0.00    -0.096 C  
HETATM   24  C   UNL     1     -10.432   3.793  64.454  1.00  0.00    -0.216 C  
ENDBRANCH  21  22
ENDBRANCH  20  21
ENDBRANCH  18  20
ENDBRANCH  14  15
ENDBRANCH  13  14
ENDBRANCH   4  13
BRANCH   8  25
HETATM   25  N   UNL     1      -9.431   9.811  70.589  1.00  0.00    -0.334 N  
HETATM   26  C   UNL     1      -8.215   9.741  69.945  1.00  0.00    -0.183 C  
HETATM   27  H   UNL     1     -10.087  10.548  70.328  1.00  0.00     0.000 HD 
HETATM   28  O   UNL     1      -7.427   8.812  70.119  1.00  0.00    -0.050 OA 
BRANCH  26  29
HETATM   29  C   UNL     1      -7.914  10.902  69.021  1.00  0.00    -0.131 C  
BRANCH  29  30
HETATM   30  C   UNL     1      -8.469  10.664  67.661  1.00  0.00    -0.118 A  
HETATM   31  N   UNL     1      -9.670  12.210  64.752  1.00  0.00    -0.449 NA 
HETATM   32  C   UNL     1      -8.671   9.439  67.054  1.00  0.00    -0.127 A  
HETATM   33  S   UNL     1      -9.303   9.662  65.480  1.00  0.00    -0.265 SA 
HETATM   34  H2  UNL     1     -10.004  11.837  63.864  1.00  0.00     0.000 HD 
HETATM   35  H1  UNL     1      -9.648  13.220  64.892  1.00  0.00     0.000 HD 
HETATM   36  N   UNL     1      -8.807  11.762  66.877  1.00  0.00    -0.185 NA 
HETATM   37  C   UNL     1      -9.267  11.360  65.714  1.00  0.00    -0.208 A  
ENDBRANCH  29  30
ENDBRANCH  26  29
ENDBRANCH   8  25
TORSDOF 9
ENDMDL
MODEL      290
REMARK 921   NORMALIZED FREE ENERGY PREDICTED BY IDOCK:   -2.25 KCAL/MOL
REMARK 922        TOTAL FREE ENERGY PREDICTED BY IDOCK:   -5.37 KCAL/MOL
REMARK 923 INTER-LIGAND FREE ENERGY PREDICTED BY IDOCK:   -4.75 KCAL/MOL
REMARK 924 INTRA-LIGAND FREE ENERGY PREDICTED BY IDOCK:   -0.63 KCAL/MOL
REMARK 927      BINDING AFFINITY PREDICTED BY RF-SCORE:    0.00 PKD
ROOT
HETATM    1  C   UNL     1      -7.964  10.178  69.446  1.00  0.00    -0.154 C  
HETATM    2  S   UNL     1      -6.924  10.757  68.087  1.00  0.00    -0.074 SA 
HETATM    3  C   UNL     1      -7.612  12.427  68.104  1.00  0.00    -0.129 C  
HETATM    4  C   UNL     1      -9.133  12.497  68.157  1.00  0.00    -0.204 C  
HETATM    5  C   UNL     1      -9.686   9.018  69.204  1.00  0.00    -0.167 C  
HETATM    6  CA  UNL     1      -9.928  11.469  68.578  1.00  0.00    -0.204 C  
HETATM    7  C   UNL     1     -11.438  11.607  68.533  1.00  0.00    -0.298 C  
HETATM    8  CA  UNL     1      -8.204   8.635  69.511  1.00  0.00    -0.115 C  
HETATM    9  N   UNL     1      -9.353  10.314  69.044  1.00  0.00    -0.180 N  
HETATM   10  O   UNL     1     -12.168  10.479  68.527  1.00  0.00    -0.279 OA 
HETATM   11  OXT UNL     1     -12.006  12.690  68.516  1.00  0.00    -0.305 OA 
HETATM   12  O   UNL     1     -10.741   8.454  69.000  1.00  0.00    -0.185 OA 
ENDROOT
BRANCH   4  13
HETATM   13  C   UNL     1      -9.638  13.804  67.532  1.00  0.00    -0.219 C  
BRANCH  13  14
HETATM   14  S   UNL     1      -9.424  13.856  65.716  1.00  0.00     0.129 SA 
BRANCH  14  15
HETATM   15  C   UNL     1      -9.475  12.193  65.267  1.00  0.00     0.027 A  
HETATM   16  N   UNL     1      -8.455  11.364  65.262  1.00  0.00     0.175 NA 
HETATM   17  N   UNL     1      -8.925  10.181  64.755  1.00  0.00    -0.185 NA 
HETATM   18  N   UNL     1     -10.583  11.519  64.823  1.00  0.00    -0.290 NA 
HETATM   19  N   UNL     1     -10.216  10.267  64.472  1.00  0.00    -0.239 NA 
BRANCH  18  20
HETATM   20  C   UNL     1     -11.986  11.884  64.725  1.00  0.00    -0.145 C  
BRANCH  20  21
HETATM   21  C   UNL     1     -12.156  13.143  63.855  1.00  0.00    -0.470 C  
BRANCH  21  22
HETATM   22  N   UNL     1     -12.883  14.289  64.446  1.00  0.00    -0.543 NA 
HETATM   23  C   UNL     1     -12.076  15.509  64.260  1.00  0.00    -0.116 C  
HETATM   24  C   UNL     1     -13.147  14.133  65.882  1.00  0.00     0.103 C  
ENDBRANCH  21  22
ENDBRANCH  20  21
ENDBRANCH  18  20
ENDBRANCH  14  15
ENDBRANCH  13  14
ENDBRANCH   4  13
BRANCH   8  25
HETATM   25  N   UNL     1      -7.531   7.804  68.467  1.00  0.00    -0.101 N  
HETATM   26  C   UNL     1      -6.451   6.998  68.757  1.00  0.00    -0.032 C  
HETATM   27  H   UNL     1      -7.883   7.834  67.510  1.00  0.00     0.000 HD 
HETATM   28  O   UNL     1      -6.051   6.816  69.906  1.00  0.00    -0.026 OA 
BRANCH  26  29
HETATM   29  C   UNL     1      -5.785   6.367  67.552  1.00  0.00    -0.013 C  
BRANCH  29  30
HETATM   30  C   UNL     1      -6.532   5.166  67.092  1.00  0.00    -0.048 A  
HETATM   31  N   UNL     1      -9.254   3.060  67.764  1.00  0.00    -0.184 NA 
HETATM   32  C   UNL     1      -6.266   4.408  65.967  1.00  0.00    -0.032 A  
HETATM   33  S   UNL     1      -7.408   3.141  65.829  1.00  0.00    -0.073 SA 
HETATM   34  H2  UNL     1      -9.631   2.248  67.275  1.00  0.00     0.000 HD 
HETATM   35  H1  UNL     1      -9.707   3.382  68.619  1.00  0.00     0.000 HD 
HETATM   36  N   UNL     1      -7.635   4.744  67.827  1.00  0.00    -0.082 NA 
HETATM   37  C   UNL     1      -8.170   3.683  67.267  1.00  0.00    -0.091 A  
ENDBRANCH  29  30
ENDBRANCH  26  29
ENDBRANCH   8  25
TORSDOF 9
ENDMDL
MODEL      291
REMARK 921   NORMALIZED FREE ENERGY PREDICTED BY IDOCK:   -2.13 KCAL/MOL
REMARK 922        TOTAL FREE ENERGY PREDICTED BY IDOCK:   -5.18 KCAL/MOL
REMARK 923 INTER-LIGAND FREE ENERGY PREDICTED BY IDOCK:   -4.85 KCAL/MOL
REMARK 924 INTRA-LIGAND FREE ENERGY PREDICTED BY IDOCK:   -0.33 KCAL/MOL
REMARK 927      BINDING AFFINITY PREDICTED BY RF-SCORE:    0.00 PKD
ROOT
HETATM    1  C   UNL     1      -5.895  11.155  69.322  1.00  0.00    -0.044 C  
HETATM    2  S   UNL     1      -7.590  10.746  69.796  1.00  0.00     0.162 SA 
HETATM    3  C   UNL     1      -7.567   9.138  68.973  1.00  0.00    -0.074 C  
HETATM    4  C   UNL     1      -7.015   9.149  67.553  1.00  0.00    -0.078 C  
HETATM    5  C   UNL     1      -5.384  12.437  67.753  1.00  0.00    -0.095 C  
HETATM    6  CA  UNL     1      -6.215  10.139  67.055  1.00  0.00    -0.063 C  
HETATM    7  C   UNL     1      -5.767  10.099  65.607  1.00  0.00    -0.076 C  
HETATM    8  CA  UNL     1      -5.546  12.677  69.287  1.00  0.00    -0.076 C  
HETATM    9  N   UNL     1      -5.820  11.167  67.872  1.00  0.00    -0.043 N  
HETATM   10  O   UNL     1      -5.374  11.253  65.042  1.00  0.00    -0.166 OA 
HETATM   11  OXT UNL     1      -5.738   9.067  64.949  1.00  0.00    -0.060 OA 
HETATM   12  O   UNL     1      -5.142  13.086  66.757  1.00  0.00    -0.046 OA 
ENDROOT
BRANCH   4  13
HETATM   13  C   UNL     1      -7.603   7.994  66.733  1.00  0.00    -0.094 C  
BRANCH  13  14
HETATM   14  S   UNL     1      -8.960   8.523  65.626  1.00  0.00    -0.119 SA 
BRANCH  14  15
HETATM   15  C   UNL     1     -10.034   9.349  66.690  1.00  0.00    -0.258 A  
HETATM   16  N   UNL     1     -10.305  10.634  66.668  1.00  0.00    -0.235 NA 
HETATM   17  N   UNL     1     -11.129  10.872  67.736  1.00  0.00    -0.288 NA 
HETATM   18  N   UNL     1     -10.727   8.779  67.727  1.00  0.00    -0.181 NA 
HETATM   19  N   UNL     1     -11.382   9.752  68.397  1.00  0.00    -0.009 NA 
BRANCH  18  20
HETATM   20  C   UNL     1     -10.899   7.402  68.159  1.00  0.00    -0.037 C  
BRANCH  20  21
HETATM   21  C   UNL     1     -10.969   6.460  66.944  1.00  0.00    -0.341 C  
BRANCH  21  22
HETATM   22  N   UNL     1      -9.887   5.461  66.791  1.00  0.00    -0.154 NA 
HETATM   23  C   UNL     1     -10.286   4.483  65.761  1.00  0.00    -0.265 C  
HETATM   24  C   UNL     1      -9.595   4.726  68.027  1.00  0.00    -0.151 C  
ENDBRANCH  21  22
ENDBRANCH  20  21
ENDBRANCH  18  20
ENDBRANCH  14  15
ENDBRANCH  13  14
ENDBRANCH   4  13
BRANCH   8  25
HETATM   25  N   UNL     1      -6.633  13.627  69.671  1.00  0.00    -0.263 N  
HETATM   26  C   UNL     1      -6.641  14.940  69.251  1.00  0.00    -0.131 C  
HETATM   27  H   UNL     1      -7.394  13.293  70.264  1.00  0.00     0.000 HD 
HETATM   28  O   UNL     1      -5.828  15.380  68.440  1.00  0.00    -0.095 OA 
BRANCH  26  29
HETATM   29  C   UNL     1      -7.716  15.804  69.877  1.00  0.00     0.239 C  
BRANCH  29  30
HETATM   30  C   UNL     1      -9.043  15.544  69.258  1.00  0.00    -0.266 A  
HETATM   31  N   UNL     1     -12.510  15.829  69.700  1.00  0.00    -0.491 NA 
HETATM   32  C   UNL     1      -9.280  15.001  68.009  1.00  0.00    -0.183 A  
HETATM   33  S   UNL     1     -10.964  14.915  67.717  1.00  0.00    -0.303 SA 
HETATM   34  H2  UNL     1     -13.300  15.592  69.100  1.00  0.00     0.000 HD 
HETATM   35  H1  UNL     1     -12.685  16.235  70.619  1.00  0.00     0.000 HD 
HETATM   36  N   UNL     1     -10.189  15.891  69.965  1.00  0.00    -0.249 NA 
HETATM   37  C   UNL     1     -11.259  15.599  69.262  1.00  0.00    -0.320 A  
ENDBRANCH  29  30
ENDBRANCH  26  29
ENDBRANCH   8  25
TORSDOF 9
ENDMDL
MODEL      292
REMARK 921   NORMALIZED FREE ENERGY PREDICTED BY IDOCK:   -2.12 KCAL/MOL
REMARK 922        TOTAL FREE ENERGY PREDICTED BY IDOCK:   -5.17 KCAL/MOL
REMARK 923 INTER-LIGAND FREE ENERGY PREDICTED BY IDOCK:   -3.43 KCAL/MOL
REMARK 924 INTRA-LIGAND FREE ENERGY PREDICTED BY IDOCK:   -1.74 KCAL/MOL
REMARK 927      BINDING AFFINITY PREDICTED BY RF-SCORE:    0.00 PKD
ROOT
HETATM    1  C   UNL     1      -7.660  16.048  68.349  1.00  0.00    -0.145 C  
HETATM    2  S   UNL     1      -7.488  15.212  66.756  1.00  0.00     0.584 SA 
HETATM    3  C   UNL     1      -8.673  16.288  65.920  1.00  0.00    -0.099 C  
HETATM    4  C   UNL     1      -9.978  16.518  66.671  1.00  0.00    -0.284 C  
HETATM    5  C   UNL     1      -8.803  15.329  69.944  1.00  0.00     0.156 C  
HETATM    6  CA  UNL     1     -10.128  16.317  68.014  1.00  0.00    -0.245 C  
HETATM    7  C   UNL     1     -11.484  16.508  68.665  1.00  0.00    -0.146 C  
HETATM    8  CA  UNL     1      -7.283  15.202  69.607  1.00  0.00    -0.194 C  
HETATM    9  N   UNL     1      -9.046  15.943  68.769  1.00  0.00    -0.206 N  
HETATM   10  O   UNL     1     -11.703  15.900  69.844  1.00  0.00    -0.333 OA 
HETATM   11  OXT UNL     1     -12.368  17.195  68.171  1.00  0.00     1.425 OA 
HETATM   12  O   UNL     1      -9.576  14.931  70.790  1.00  0.00     0.857 OA 
ENDROOT
BRANCH   4  13
HETATM   13  C   UNL     1     -11.115  16.849  65.696  1.00  0.00     0.178 C  
BRANCH  13  14
HETATM   14  S   UNL     1     -11.322  15.588  64.387  1.00  0.00    -0.139 SA 
BRANCH  14  15
HETATM   15  C   UNL     1     -11.807  14.187  65.265  1.00  0.00    -0.367 A  
HETATM   16  N   UNL     1     -12.397  14.179  66.439  1.00  0.00    -0.454 NA 
HETATM   17  N   UNL     1     -12.517  12.863  66.799  1.00  0.00    -0.244 NA 
HETATM   18  N   UNL     1     -11.612  12.889  64.870  1.00  0.00    -0.314 NA 
HETATM   19  N   UNL     1     -12.029  12.068  65.858  1.00  0.00    -0.519 NA 
BRANCH  18  20
HETATM   20  C   UNL     1     -11.115  12.297  63.639  1.00  0.00    -0.469 C  
BRANCH  20  21
HETATM   21  C   UNL     1      -9.713  11.701  63.855  1.00  0.00    -0.230 C  
BRANCH  21  22
HETATM   22  N   UNL     1      -9.525  10.265  63.543  1.00  0.00    -0.293 NA 
HETATM   23  C   UNL     1      -8.977   9.589  64.733  1.00  0.00    -0.218 C  
HETATM   24  C   UNL     1      -8.608  10.029  62.422  1.00  0.00    -0.193 C  
ENDBRANCH  21  22
ENDBRANCH  20  21
ENDBRANCH  18  20
ENDBRANCH  14  15
ENDBRANCH  13  14
ENDBRANCH   4  13
BRANCH   8  25
HETATM   25  N   UNL     1      -6.798  13.810  69.363  1.00  0.00    -0.242 N  
HETATM   26  C   UNL     1      -6.100  13.100  70.315  1.00  0.00    -0.079 C  
HETATM   27  H   UNL     1      -6.991  13.371  68.462  1.00  0.00     0.000 HD 
HETATM   28  O   UNL     1      -5.937  13.515  71.462  1.00  0.00    -0.318 OA 
BRANCH  26  29
HETATM   29  C   UNL     1      -5.533  11.779  69.839  1.00  0.00    -0.094 C  
BRANCH  29  30
HETATM   30  C   UNL     1      -6.512  10.675  70.026  1.00  0.00    -0.138 A  
HETATM   31  N   UNL     1      -9.757   9.575  69.281  1.00  0.00    -0.168 NA 
HETATM   32  C   UNL     1      -6.301   9.489  70.703  1.00  0.00    -0.086 A  
HETATM   33  S   UNL     1      -7.705   8.515  70.632  1.00  0.00    -0.091 SA 
HETATM   34  H2  UNL     1     -10.258   8.715  69.505  1.00  0.00     0.000 HD 
HETATM   35  H1  UNL     1     -10.225  10.298  68.736  1.00  0.00     0.000 HD 
HETATM   36  N   UNL     1      -7.773  10.798  69.454  1.00  0.00    -0.132 NA 
HETATM   37  C   UNL     1      -8.492   9.730  69.713  1.00  0.00    -0.193 A  
ENDBRANCH  29  30
ENDBRANCH  26  29
ENDBRANCH   8  25
TORSDOF 9
ENDMDL
MODEL      293
REMARK 921   NORMALIZED FREE ENERGY PREDICTED BY IDOCK:   -1.92 KCAL/MOL
REMARK 922        TOTAL FREE ENERGY PREDICTED BY IDOCK:   -4.87 KCAL/MOL
REMARK 923 INTER-LIGAND FREE ENERGY PREDICTED BY IDOCK:   -7.04 KCAL/MOL
REMARK 924 INTRA-LIGAND FREE ENERGY PREDICTED BY IDOCK:    2.17 KCAL/MOL
REMARK 927      BINDING AFFINITY PREDICTED BY RF-SCORE:    0.00 PKD
ROOT
HETATM    1  C   UNL     1     -10.487  16.816  67.287  1.00  0.00    -0.310 C  
HETATM    2  S   UNL     1      -9.485  16.746  65.785  1.00  0.00     0.099 SA 
HETATM    3  C   UNL     1     -10.685  15.745  64.879  1.00  0.00    -0.361 C  
HETATM    4  C   UNL     1     -11.233  14.546  65.643  1.00  0.00    -0.335 C  
HETATM    5  C   UNL     1     -10.156  15.640  68.983  1.00  0.00    -0.227 C  
HETATM    6  CA  UNL     1     -11.193  14.429  67.004  1.00  0.00    -0.328 C  
HETATM    7  C   UNL     1     -11.703  13.168  67.674  1.00  0.00    -0.369 C  
HETATM    8  CA  UNL     1      -9.707  17.090  68.613  1.00  0.00    -0.282 C  
HETATM    9  N   UNL     1     -10.691  15.457  67.759  1.00  0.00    -0.282 N  
HETATM   10  O   UNL     1     -11.264  12.898  68.915  1.00  0.00    -0.253 OA 
HETATM   11  OXT UNL     1     -12.497  12.406  67.140  1.00  0.00    -0.202 OA 
HETATM   12  O   UNL     1      -9.997  14.849  69.889  1.00  0.00    -0.058 OA 
ENDROOT
BRANCH   4  13
HETATM   13  C   UNL     1     -11.682  13.444  64.676  1.00  0.00    -0.372 C  
BRANCH  13  14
HETATM   14  S   UNL     1     -11.191  11.770  65.224  1.00  0.00    -0.207 SA 
BRANCH  14  15
HETATM   15  C   UNL     1      -9.817  11.424  64.243  1.00  0.00    -0.261 A  
HETATM   16  N   UNL     1      -9.618  11.851  63.016  1.00  0.00    -0.339 NA 
HETATM   17  N   UNL     1      -8.455  11.267  62.590  1.00  0.00    -0.124 NA 
HETATM   18  N   UNL     1      -8.761  10.626  64.600  1.00  0.00    -0.177 NA 
HETATM   19  N   UNL     1      -7.931  10.507  63.541  1.00  0.00    -0.092 NA 
BRANCH  18  20
HETATM   20  C   UNL     1      -8.391   9.980  65.848  1.00  0.00    -0.127 C  
BRANCH  20  21
HETATM   21  C   UNL     1      -7.480  10.900  66.682  1.00  0.00    -0.139 C  
BRANCH  21  22
HETATM   22  N   UNL     1      -6.081  10.464  66.895  1.00  0.00    -0.059 NA 
HETATM   23  C   UNL     1      -5.176  11.514  66.393  1.00  0.00    -0.077 C  
HETATM   24  C   UNL     1      -5.750   9.211  66.206  1.00  0.00    -0.053 C  
ENDBRANCH  21  22
ENDBRANCH  20  21
ENDBRANCH  18  20
ENDBRANCH  14  15
ENDBRANCH  13  14
ENDBRANCH   4  13
BRANCH   8  25
HETATM   25  N   UNL     1      -8.231  17.290  68.499  1.00  0.00    -0.259 N  
HETATM   26  C   UNL     1      -7.347  16.233  68.488  1.00  0.00    -0.169 C  
HETATM   27  H   UNL     1      -7.866  18.240  68.426  1.00  0.00     0.000 HD 
HETATM   28  O   UNL     1      -7.719  15.060  68.449  1.00  0.00    -0.105 OA 
BRANCH  26  29
HETATM   29  C   UNL     1      -5.885  16.622  68.546  1.00  0.00    -0.125 C  
BRANCH  29  30
HETATM   30  C   UNL     1      -5.682  17.823  69.399  1.00  0.00    -0.221 A  
HETATM   31  N   UNL     1      -5.771  21.328  69.471  1.00  0.00    -0.184 NA 
HETATM   32  C   UNL     1      -5.340  17.837  70.738  1.00  0.00    -0.240 A  
HETATM   33  S   UNL     1      -5.244  19.450  71.303  1.00  0.00    -0.331 SA 
HETATM   34  H2  UNL     1      -5.606  22.003  70.217  1.00  0.00     0.000 HD 
HETATM   35  H1  UNL     1      -6.017  21.663  68.540  1.00  0.00     0.000 HD 
HETATM   36  N   UNL     1      -5.870  19.081  68.837  1.00  0.00    -0.208 NA 
HETATM   37  C   UNL     1      -5.658  20.013  69.737  1.00  0.00    -0.262 A  
ENDBRANCH  29  30
ENDBRANCH  26  29
ENDBRANCH   8  25
TORSDOF 9
ENDMDL
MODEL      294
REMARK 921   NORMALIZED FREE ENERGY PREDICTED BY IDOCK:   -1.74 KCAL/MOL
REMARK 922        TOTAL FREE ENERGY PREDICTED BY IDOCK:   -4.60 KCAL/MOL
REMARK 923 INTER-LIGAND FREE ENERGY PREDICTED BY IDOCK:   -4.67 KCAL/MOL
REMARK 924 INTRA-LIGAND FREE ENERGY PREDICTED BY IDOCK:    0.06 KCAL/MOL
REMARK 927      BINDING AFFINITY PREDICTED BY RF-SCORE:    0.00 PKD
ROOT
HETATM    1  C   UNL     1      -7.446  10.265  68.250  1.00  0.00    -0.086 C  
HETATM    2  S   UNL     1      -6.955   8.538  68.043  1.00  0.00    -0.075 SA 
HETATM    3  C   UNL     1      -6.947   8.626  66.238  1.00  0.00    -0.077 C  
HETATM    4  C   UNL     1      -8.172   9.286  65.619  1.00  0.00    -0.119 C  
HETATM    5  C   UNL     1      -9.389  10.896  68.691  1.00  0.00    -0.187 C  
HETATM    6  CA  UNL     1      -9.012  10.122  66.300  1.00  0.00    -0.148 C  
HETATM    7  C   UNL     1     -10.246  10.681  65.619  1.00  0.00    -0.253 C  
HETATM    8  CA  UNL     1      -8.150  10.615  69.600  1.00  0.00     0.031 C  
HETATM    9  N   UNL     1      -8.732  10.452  67.601  1.00  0.00    -0.119 N  
HETATM   10  O   UNL     1     -11.248  11.117  66.401  1.00  0.00    -0.208 OA 
HETATM   11  OXT UNL     1     -10.355  10.762  64.403  1.00  0.00    -0.353 OA 
HETATM   12  O   UNL     1     -10.552  11.214  68.822  1.00  0.00    -0.185 OA 
ENDROOT
BRANCH   4  13
HETATM   13  C   UNL     1      -8.410   8.764  64.197  1.00  0.00    -0.149 C  
BRANCH  13  14
HETATM   14  S   UNL     1      -6.863   8.301  63.338  1.00  0.00    -0.085 SA 
BRANCH  14  15
HETATM   15  C   UNL     1      -7.006   6.593  63.166  1.00  0.00    -0.051 A  
HETATM   16  N   UNL     1      -6.322   5.842  62.333  1.00  0.00    -0.022 NA 
HETATM   17  N   UNL     1      -6.816   4.571  62.467  1.00  0.00    -0.030 NA 
HETATM   18  N   UNL     1      -7.879   5.791  63.855  1.00  0.00    -0.111 NA 
HETATM   19  N   UNL     1      -7.775   4.530  63.380  1.00  0.00    -0.068 NA 
BRANCH  18  20
HETATM   20  C   UNL     1      -8.790   6.044  64.958  1.00  0.00     0.112 C  
BRANCH  20  21
HETATM   21  C   UNL     1      -9.279   4.718  65.568  1.00  0.00    -0.154 C  
BRANCH  21  22
HETATM   22  N   UNL     1      -8.271   3.854  66.224  1.00  0.00    -0.104 NA 
HETATM   23  C   UNL     1      -8.313   2.519  65.600  1.00  0.00    -0.091 C  
HETATM   24  C   UNL     1      -8.495   3.691  67.665  1.00  0.00    -0.095 C  
ENDBRANCH  21  22
ENDBRANCH  20  21
ENDBRANCH  18  20
ENDBRANCH  14  15
ENDBRANCH  13  14
ENDBRANCH   4  13
BRANCH   8  25
HETATM   25  N   UNL     1      -8.320   9.501  70.581  1.00  0.00    -0.176 N  
HETATM   26  C   UNL     1      -7.410   9.268  71.589  1.00  0.00     0.262 C  
HETATM   27  H   UNL     1      -9.136   8.894  70.502  1.00  0.00     0.000 HD 
HETATM   28  O   UNL     1      -6.471  10.029  71.822  1.00  0.00    -0.198 OA 
BRANCH  26  29
HETATM   29  C   UNL     1      -7.642   7.997  72.378  1.00  0.00    -0.139 C  
BRANCH  29  30
HETATM   30  C   UNL     1      -9.064   7.568  72.300  1.00  0.00    -0.137 A  
HETATM   31  N   UNL     1     -12.384   8.564  72.830  1.00  0.00    -0.540 NA 
HETATM   32  C   UNL     1      -9.536   6.348  71.855  1.00  0.00    -0.151 A  
HETATM   33  S   UNL     1     -11.245   6.319  71.922  1.00  0.00    -0.297 SA 
HETATM   34  H2  UNL     1     -13.275   8.089  72.683  1.00  0.00     0.000 HD 
HETATM   35  H1  UNL     1     -12.380   9.515  73.196  1.00  0.00     0.000 HD 
HETATM   36  N   UNL     1     -10.054   8.467  72.682  1.00  0.00    -0.285 NA 
HETATM   37  C   UNL     1     -11.239   7.920  72.537  1.00  0.00    -0.376 A  
ENDBRANCH  29  30
ENDBRANCH  26  29
ENDBRANCH   8  25
TORSDOF 9
ENDMDL
MODEL      295
REMARK 921   NORMALIZED FREE ENERGY PREDICTED BY IDOCK:   -1.21 KCAL/MOL
REMARK 922        TOTAL FREE ENERGY PREDICTED BY IDOCK:   -3.79 KCAL/MOL
REMARK 923 INTER-LIGAND FREE ENERGY PREDICTED BY IDOCK:   -4.02 KCAL/MOL
REMARK 924 INTRA-LIGAND FREE ENERGY PREDICTED BY IDOCK:    0.23 KCAL/MOL
REMARK 927      BINDING AFFINITY PREDICTED BY RF-SCORE:    0.00 PKD
ROOT
HETATM    1  C   UNL     1      -8.193  11.129  69.632  1.00  0.00     0.535 C  
HETATM    2  S   UNL     1      -9.819  11.170  68.844  1.00  0.00    -0.116 SA 
HETATM    3  C   UNL     1     -10.215   9.464  69.285  1.00  0.00    -0.202 C  
HETATM    4  C   UNL     1      -9.112   8.451  69.004  1.00  0.00    -0.147 C  
HETATM    5  C   UNL     1      -6.388  10.887  68.605  1.00  0.00    -0.050 C  
HETATM    6  CA  UNL     1      -7.797   8.785  68.841  1.00  0.00    -0.104 C  
HETATM    7  C   UNL     1      -6.778   7.716  68.497  1.00  0.00    -0.054 C  
HETATM    8  CA  UNL     1      -7.149  12.160  69.094  1.00  0.00    -0.015 C  
HETATM    9  N   UNL     1      -7.405  10.090  68.992  1.00  0.00    -0.078 N  
HETATM   10  O   UNL     1      -5.627   8.110  67.927  1.00  0.00    -0.033 OA 
HETATM   11  OXT UNL     1      -6.957   6.528  68.730  1.00  0.00    -0.074 OA 
HETATM   12  O   UNL     1      -5.385  10.619  67.977  1.00  0.00    -0.037 OA 
ENDROOT
BRANCH   4  13
HETATM   13  C   UNL     1      -9.702   7.054  68.778  1.00  0.00    -0.143 C  
BRANCH  13  14
HETATM   14  S   UNL     1      -9.663   6.538  67.024  1.00  0.00    -0.159 SA 
BRANCH  14  15
HETATM   15  C   UNL     1      -9.619   8.037  66.175  1.00  0.00    -0.089 A  
HETATM   16  N   UNL     1     -10.506   9.002  66.268  1.00  0.00    -0.075 NA 
HETATM   17  N   UNL     1     -10.131   9.957  65.361  1.00  0.00    -0.281 NA 
HETATM   18  N   UNL     1      -8.668   8.410  65.261  1.00  0.00    -0.150 NA 
HETATM   19  N   UNL     1      -9.020   9.602  64.732  1.00  0.00    -0.212 NA 
BRANCH  18  20
HETATM   20  C   UNL     1      -7.416   7.806  64.839  1.00  0.00    -0.094 C  
BRANCH  20  21
HETATM   21  C   UNL     1      -7.250   7.919  63.313  1.00  0.00    -0.091 C  
BRANCH  21  22
HETATM   22  N   UNL     1      -6.512   9.092  62.790  1.00  0.00    -0.094 NA 
HETATM   23  C   UNL     1      -5.153   8.665  62.407  1.00  0.00    -0.070 C  
HETATM   24  C   UNL     1      -6.388  10.183  63.765  1.00  0.00    -0.131 C  
ENDBRANCH  21  22
ENDBRANCH  20  21
ENDBRANCH  18  20
ENDBRANCH  14  15
ENDBRANCH  13  14
ENDBRANCH   4  13
BRANCH   8  25
HETATM   25  N   UNL     1      -7.609  13.082  68.012  1.00  0.00    -0.124 N  
HETATM   26  C   UNL     1      -7.143  14.375  67.904  1.00  0.00    -0.159 C  
HETATM   27  H   UNL     1      -8.288  12.743  67.330  1.00  0.00     0.000 HD 
HETATM   28  O   UNL     1      -6.235  14.812  68.611  1.00  0.00    -0.081 OA 
BRANCH  26  29
HETATM   29  C   UNL     1      -7.844  15.222  66.863  1.00  0.00    -0.152 C  
BRANCH  29  30
HETATM   30  C   UNL     1      -9.016  15.928  67.445  1.00  0.00    -0.192 A  
HETATM   31  N   UNL     1     -11.870  15.562  69.450  1.00  0.00    -0.366 NA 
HETATM   32  C   UNL     1      -9.322  17.270  67.313  1.00  0.00    -0.237 A  
HETATM   33  S   UNL     1     -10.752  17.634  68.178  1.00  0.00    -0.225 SA 
HETATM   34  H2  UNL     1     -12.578  16.226  69.764  1.00  0.00     0.000 HD 
HETATM   35  H1  UNL     1     -11.938  14.587  69.738  1.00  0.00     0.000 HD 
HETATM   36  N   UNL     1      -9.908  15.206  68.231  1.00  0.00    -0.219 NA 
HETATM   37  C   UNL     1     -10.866  15.993  68.663  1.00  0.00    -0.301 A  
ENDBRANCH  29  30
ENDBRANCH  26  29
ENDBRANCH   8  25
TORSDOF 9
ENDMDL
MODEL      296
REMARK 921   NORMALIZED FREE ENERGY PREDICTED BY IDOCK:   -0.75 KCAL/MOL
REMARK 922        TOTAL FREE ENERGY PREDICTED BY IDOCK:   -3.08 KCAL/MOL
REMARK 923 INTER-LIGAND FREE ENERGY PREDICTED BY IDOCK:   -5.96 KCAL/MOL
REMARK 924 INTRA-LIGAND FREE ENERGY PREDICTED BY IDOCK:    2.88 KCAL/MOL
REMARK 927      BINDING AFFINITY PREDICTED BY RF-SCORE:    0.00 PKD
ROOT
HETATM    1  C   UNL     1     -10.452  16.610  67.232  1.00  0.00    -0.313 C  
HETATM    2  S   UNL     1      -9.163  16.524  65.969  1.00  0.00    -0.191 SA 
HETATM    3  C   UNL     1     -10.248  15.776  64.733  1.00  0.00     0.296 C  
HETATM    4  C   UNL     1     -11.087  14.607  65.234  1.00  0.00    -0.363 C  
HETATM    5  C   UNL     1     -10.639  15.266  68.822  1.00  0.00    -0.240 C  
HETATM    6  CA  UNL     1     -11.358  14.375  66.553  1.00  0.00    -0.350 C  
HETATM    7  C   UNL     1     -12.147  13.147  66.963  1.00  0.00    -0.307 C  
HETATM    8  CA  UNL     1      -9.953  16.664  68.712  1.00  0.00    -0.265 C  
HETATM    9  N   UNL     1     -10.914  15.259  67.502  1.00  0.00    -0.309 N  
HETATM   10  O   UNL     1     -12.024  12.719  68.231  1.00  0.00    -0.319 OA 
HETATM   11  OXT UNL     1     -12.892  12.550  66.198  1.00  0.00     0.032 OA 
HETATM   12  O   UNL     1     -10.777  14.390  69.650  1.00  0.00    -0.177 OA 
ENDROOT
BRANCH   4  13
HETATM   13  C   UNL     1     -11.443  13.661  64.081  1.00  0.00    -0.329 C  
BRANCH  13  14
HETATM   14  S   UNL     1     -11.474  11.902  64.585  1.00  0.00    -0.240 SA 
BRANCH  14  15
HETATM   15  C   UNL     1      -9.952  11.310  64.037  1.00  0.00    -0.312 A  
HETATM   16  N   UNL     1      -9.384  11.591  62.886  1.00  0.00    -0.339 NA 
HETATM   17  N   UNL     1      -8.240  10.840  62.829  1.00  0.00    -0.148 NA 
HETATM   18  N   UNL     1      -9.143  10.437  64.718  1.00  0.00    -0.196 NA 
HETATM   19  N   UNL     1      -8.089  10.123  63.933  1.00  0.00    -0.156 NA 
BRANCH  18  20
HETATM   20  C   UNL     1      -9.202   9.878  66.057  1.00  0.00    -0.170 C  
BRANCH  20  21
HETATM   21  C   UNL     1      -8.393  10.745  67.039  1.00  0.00    -0.129 C  
BRANCH  21  22
HETATM   22  N   UNL     1      -7.130  10.181  67.569  1.00  0.00    -0.086 NA 
HETATM   23  C   UNL     1      -6.033  11.124  67.284  1.00  0.00    -0.064 C  
HETATM   24  C   UNL     1      -6.780   8.884  66.978  1.00  0.00    -0.069 C  
ENDBRANCH  21  22
ENDBRANCH  20  21
ENDBRANCH  18  20
ENDBRANCH  14  15
ENDBRANCH  13  14
ENDBRANCH   4  13
BRANCH   8  25
HETATM   25  N   UNL     1      -8.474  16.666  68.925  1.00  0.00    -0.249 N  
HETATM   26  C   UNL     1      -7.728  15.507  68.896  1.00  0.00    -0.175 C  
HETATM   27  H   UNL     1      -8.001  17.553  69.097  1.00  0.00     0.000 HD 
HETATM   28  O   UNL     1      -8.208  14.420  68.575  1.00  0.00    -0.142 OA 
BRANCH  26  29
HETATM   29  C   UNL     1      -6.280  15.669  69.307  1.00  0.00    -0.127 C  
BRANCH  29  30
HETATM   30  C   UNL     1      -5.900  14.672  70.344  1.00  0.00    -0.156 A  
HETATM   31  N   UNL     1      -5.570  14.117  73.790  1.00  0.00    -0.520 NA 
HETATM   32  C   UNL     1      -5.504  13.366  70.129  1.00  0.00    -0.115 A  
HETATM   33  S   UNL     1      -5.194  12.593  71.623  1.00  0.00     0.023 SA 
HETATM   34  H2  UNL     1      -5.296  13.296  74.330  1.00  0.00     0.000 HD 
HETATM   35  H1  UNL     1      -5.813  14.977  74.280  1.00  0.00     0.000 HD 
HETATM   36  N   UNL     1      -5.962  15.046  71.682  1.00  0.00     0.346 NA 
HETATM   37  C   UNL     1      -5.603  14.040  72.447  1.00  0.00    -0.103 A  
ENDBRANCH  29  30
ENDBRANCH  26  29
ENDBRANCH   8  25
TORSDOF 9
ENDMDL
MODEL      297
REMARK 921   NORMALIZED FREE ENERGY PREDICTED BY IDOCK:   -0.72 KCAL/MOL
REMARK 922        TOTAL FREE ENERGY PREDICTED BY IDOCK:   -3.04 KCAL/MOL
REMARK 923 INTER-LIGAND FREE ENERGY PREDICTED BY IDOCK:   -3.64 KCAL/MOL
REMARK 924 INTRA-LIGAND FREE ENERGY PREDICTED BY IDOCK:    0.60 KCAL/MOL
REMARK 927      BINDING AFFINITY PREDICTED BY RF-SCORE:    0.00 PKD
ROOT
HETATM    1  C   UNL     1      -8.624  11.475  66.230  1.00  0.00    -0.133 C  
HETATM    2  S   UNL     1      -9.758  11.279  67.623  1.00  0.00    -0.173 SA 
HETATM    3  C   UNL     1     -10.021  13.055  67.822  1.00  0.00    -0.227 C  
HETATM    4  C   UNL     1      -8.753  13.899  67.816  1.00  0.00    -0.187 C  
HETATM    5  C   UNL     1      -6.543  11.341  66.373  1.00  0.00    -0.069 C  
HETATM    6  CA  UNL     1      -7.562  13.480  67.293  1.00  0.00    -0.058 C  
HETATM    7  C   UNL     1      -6.335  14.364  67.392  1.00  0.00     0.164 C  
HETATM    8  CA  UNL     1      -7.633  10.292  65.986  1.00  0.00    -0.128 C  
HETATM    9  N   UNL     1      -7.485  12.256  66.680  1.00  0.00     0.136 N  
HETATM   10  O   UNL     1      -5.131  13.777  67.280  1.00  0.00    -0.315 OA 
HETATM   11  OXT UNL     1      -6.400  15.575  67.553  1.00  0.00    -0.153 OA 
HETATM   12  O   UNL     1      -5.341  11.378  66.534  1.00  0.00    -0.116 OA 
ENDROOT
BRANCH   4  13
HETATM   13  C   UNL     1      -8.962  15.198  68.605  1.00  0.00    -0.191 C  
BRANCH  13  14
HETATM   14  S   UNL     1      -9.187  14.915  70.398  1.00  0.00     1.489 SA 
BRANCH  14  15
HETATM   15  C   UNL     1     -10.824  15.380  70.666  1.00  0.00    -0.284 A  
HETATM   16  N   UNL     1     -11.448  15.373  71.822  1.00  0.00    -0.412 NA 
HETATM   17  N   UNL     1     -12.745  15.727  71.561  1.00  0.00    -0.455 NA 
HETATM   18  N   UNL     1     -11.706  15.790  69.701  1.00  0.00    -0.353 NA 
HETATM   19  N   UNL     1     -12.918  15.970  70.270  1.00  0.00     0.006 NA 
BRANCH  18  20
HETATM   20  C   UNL     1     -11.553  16.088  68.287  1.00  0.00    -0.232 C  
BRANCH  20  21
HETATM   21  C   UNL     1     -10.789  17.410  68.094  1.00  0.00    -0.273 C  
BRANCH  21  22
HETATM   22  N   UNL     1     -11.011  18.150  66.831  1.00  0.00    -0.066 NA 
HETATM   23  C   UNL     1     -10.244  17.495  65.756  1.00  0.00    -0.173 C  
HETATM   24  C   UNL     1     -10.592  19.555  66.899  1.00  0.00    -0.490 C  
ENDBRANCH  21  22
ENDBRANCH  20  21
ENDBRANCH  18  20
ENDBRANCH  14  15
ENDBRANCH  13  14
ENDBRANCH   4  13
BRANCH   8  25
HETATM   25  N   UNL     1      -7.743   9.120  66.906  1.00  0.00    -0.097 N  
HETATM   26  C   UNL     1      -7.808   7.825  66.439  1.00  0.00    -0.094 C  
HETATM   27  H   UNL     1      -7.771   9.284  67.913  1.00  0.00     0.000 HD 
HETATM   28  O   UNL     1      -7.657   7.543  65.251  1.00  0.00    -0.085 OA 
BRANCH  26  29
HETATM   29  C   UNL     1      -8.097   6.778  67.494  1.00  0.00    -0.115 C  
BRANCH  29  30
HETATM   30  C   UNL     1      -7.781   5.412  66.997  1.00  0.00    -0.100 A  
HETATM   31  N   UNL     1      -9.025   2.660  65.216  1.00  0.00    -0.134 NA 
HETATM   32  C   UNL     1      -6.585   4.736  67.143  1.00  0.00    -0.050 A  
HETATM   33  S   UNL     1      -6.681   3.205  66.386  1.00  0.00    -0.049 SA 
HETATM   34  H2  UNL     1      -8.607   1.768  64.951  1.00  0.00     0.000 HD 
HETATM   35  H1  UNL     1      -9.986   2.862  64.940  1.00  0.00     0.000 HD 
HETATM   36  N   UNL     1      -8.755   4.720  66.285  1.00  0.00    -0.113 NA 
HETATM   37  C   UNL     1      -8.297   3.545  65.921  1.00  0.00    -0.106 A  
ENDBRANCH  29  30
ENDBRANCH  26  29
ENDBRANCH   8  25
TORSDOF 9
ENDMDL
MODEL      298
REMARK 921   NORMALIZED FREE ENERGY PREDICTED BY IDOCK:   -0.50 KCAL/MOL
REMARK 922        TOTAL FREE ENERGY PREDICTED BY IDOCK:   -2.70 KCAL/MOL
REMARK 923 INTER-LIGAND FREE ENERGY PREDICTED BY IDOCK:   -3.45 KCAL/MOL
REMARK 924 INTRA-LIGAND FREE ENERGY PREDICTED BY IDOCK:    0.75 KCAL/MOL
REMARK 927      BINDING AFFINITY PREDICTED BY RF-SCORE:    0.00 PKD
ROOT
HETATM    1  C   UNL     1      -9.124  17.169  67.635  1.00  0.00    -0.227 C  
HETATM    2  S   UNL     1      -8.689  16.118  66.231  1.00  0.00    -0.324 SA 
HETATM    3  C   UNL     1     -10.407  15.736  65.823  1.00  0.00    -0.369 C  
HETATM    4  C   UNL     1     -11.276  15.331  67.006  1.00  0.00    -0.275 C  
HETATM    5  C   UNL     1      -9.026  16.569  69.635  1.00  0.00     0.414 C  
HETATM    6  CA  UNL     1     -10.972  15.618  68.307  1.00  0.00    -0.315 C  
HETATM    7  C   UNL     1     -11.865  15.115  69.426  1.00  0.00    -0.330 C  
HETATM    8  CA  UNL     1      -8.018  17.342  68.726  1.00  0.00    -0.250 C  
HETATM    9  N   UNL     1      -9.858  16.363  68.595  1.00  0.00    -0.225 N  
HETATM   10  O   UNL     1     -11.334  15.027  70.657  1.00  0.00    -0.272 OA 
HETATM   11  OXT UNL     1     -13.035  14.804  69.253  1.00  0.00     0.331 OA 
HETATM   12  O   UNL     1      -9.070  16.132  70.766  1.00  0.00     2.036 OA 
ENDROOT
BRANCH   4  13
HETATM   13  C   UNL     1     -12.435  14.436  66.548  1.00  0.00    -0.118 C  
BRANCH  13  14
HETATM   14  S   UNL     1     -12.018  12.656  66.582  1.00  0.00    -0.213 SA 
BRANCH  14  15
HETATM   15  C   UNL     1     -11.972  12.231  64.912  1.00  0.00    -0.357 A  
HETATM   16  N   UNL     1     -12.959  12.367  64.055  1.00  0.00    -0.765 NA 
HETATM   17  N   UNL     1     -12.520  11.825  62.876  1.00  0.00     0.010 NA 
HETATM   18  N   UNL     1     -10.908  11.664  64.261  1.00  0.00    -0.336 NA 
HETATM   19  N   UNL     1     -11.277  11.381  62.993  1.00  0.00     0.054 NA 
BRANCH  18  20
HETATM   20  C   UNL     1      -9.540  11.384  64.664  1.00  0.00    -0.199 C  
BRANCH  20  21
HETATM   21  C   UNL     1      -9.194   9.906  64.410  1.00  0.00    -0.264 C  
BRANCH  21  22
HETATM   22  N   UNL     1      -8.805   9.084  65.578  1.00  0.00    -0.183 NA 
HETATM   23  C   UNL     1      -8.355   7.763  65.100  1.00  0.00    -0.106 C  
HETATM   24  C   UNL     1      -9.900   8.874  66.533  1.00  0.00    -0.274 C  
ENDBRANCH  21  22
ENDBRANCH  20  21
ENDBRANCH  18  20
ENDBRANCH  14  15
ENDBRANCH  13  14
ENDBRANCH   4  13
BRANCH   8  25
HETATM   25  N   UNL     1      -6.718  16.647  68.483  1.00  0.00    -0.142 N  
HETATM   26  C   UNL     1      -6.630  15.276  68.372  1.00  0.00    -0.110 C  
HETATM   27  H   UNL     1      -5.868  17.205  68.396  1.00  0.00     0.000 HD 
HETATM   28  O   UNL     1      -7.622  14.549  68.344  1.00  0.00    -0.108 OA 
BRANCH  26  29
HETATM   29  C   UNL     1      -5.219  14.730  68.306  1.00  0.00    -0.113 C  
BRANCH  29  30
HETATM   30  C   UNL     1      -5.205  13.252  68.477  1.00  0.00    -0.076 A  
HETATM   31  N   UNL     1      -5.135  10.645  70.820  1.00  0.00    -0.072 NA 
HETATM   32  C   UNL     1      -5.257  12.304  67.473  1.00  0.00    -0.105 A  
HETATM   33  S   UNL     1      -5.243  10.733  68.148  1.00  0.00    -0.035 SA 
HETATM   34  H2  UNL     1      -5.154   9.630  70.719  1.00  0.00     0.000 HD 
HETATM   35  H1  UNL     1      -5.089  11.052  71.754  1.00  0.00     0.000 HD 
HETATM   36  N   UNL     1      -5.163  12.730  69.765  1.00  0.00    -0.079 NA 
HETATM   37  C   UNL     1      -5.168  11.417  69.719  1.00  0.00    -0.056 A  
ENDBRANCH  29  30
ENDBRANCH  26  29
ENDBRANCH   8  25
TORSDOF 9
ENDMDL
MODEL      299
REMARK 921   NORMALIZED FREE ENERGY PREDICTED BY IDOCK:    0.24 KCAL/MOL
REMARK 922        TOTAL FREE ENERGY PREDICTED BY IDOCK:   -1.58 KCAL/MOL
REMARK 923 INTER-LIGAND FREE ENERGY PREDICTED BY IDOCK:   -2.96 KCAL/MOL
REMARK 924 INTRA-LIGAND FREE ENERGY PREDICTED BY IDOCK:    1.38 KCAL/MOL
REMARK 927      BINDING AFFINITY PREDICTED BY RF-SCORE:    0.00 PKD
ROOT
HETATM    1  C   UNL     1      -6.441   9.381  67.111  1.00  0.00    -0.067 C  
HETATM    2  S   UNL     1      -5.569   7.807  66.945  1.00  0.00    -0.033 SA 
HETATM    3  C   UNL     1      -5.320   7.988  65.165  1.00  0.00    -0.032 C  
HETATM    4  C   UNL     1      -6.556   8.411  64.380  1.00  0.00    -0.066 C  
HETATM    5  C   UNL     1      -8.517   9.571  67.265  1.00  0.00    -0.128 C  
HETATM    6  CA  UNL     1      -7.644   9.017  64.944  1.00  0.00    -0.107 C  
HETATM    7  C   UNL     1      -8.858   9.343  64.095  1.00  0.00    -0.182 C  
HETATM    8  CA  UNL     1      -7.390   9.507  68.346  1.00  0.00    -0.076 C  
HETATM    9  N   UNL     1      -7.630   9.330  66.278  1.00  0.00    -0.096 N  
HETATM   10  O   UNL     1     -10.031   9.519  64.725  1.00  0.00     0.005 OA 
HETATM   11  OXT UNL     1      -8.805   9.462  62.879  1.00  0.00    -0.228 OA 
HETATM   12  O   UNL     1      -9.727   9.633  67.226  1.00  0.00    -0.154 OA 
ENDROOT
BRANCH   4  13
HETATM   13  C   UNL     1      -6.471   7.925  62.928  1.00  0.00    -0.080 C  
BRANCH  13  14
HETATM   14  S   UNL     1      -5.763   6.246  62.778  1.00  0.00    -0.023 SA 
BRANCH  14  15
HETATM   15  C   UNL     1      -6.064   5.553  64.327  1.00  0.00    -0.022 A  
HETATM   16  N   UNL     1      -5.152   5.191  65.200  1.00  0.00    -0.009 NA 
HETATM   17  N   UNL     1      -5.826   4.611  66.242  1.00  0.00    -0.022 NA 
HETATM   18  N   UNL     1      -7.299   5.255  64.842  1.00  0.00    -0.066 NA 
HETATM   19  N   UNL     1      -7.134   4.632  66.029  1.00  0.00    -0.073 NA 
BRANCH  18  20
HETATM   20  C   UNL     1      -8.650   5.523  64.381  1.00  0.00    -0.025 C  
BRANCH  20  21
HETATM   21  C   UNL     1      -9.671   5.204  65.488  1.00  0.00    -0.010 C  
BRANCH  21  22
HETATM   22  N   UNL     1      -9.792   6.169  66.605  1.00  0.00    -0.162 NA 
HETATM   23  C   UNL     1      -9.275   5.539  67.834  1.00  0.00    -0.108 C  
HETATM   24  C   UNL     1     -11.174   6.594  66.859  1.00  0.00    -0.108 C  
ENDBRANCH  21  22
ENDBRANCH  20  21
ENDBRANCH  18  20
ENDBRANCH  14  15
ENDBRANCH  13  14
ENDBRANCH   4  13
BRANCH   8  25
HETATM   25  N   UNL     1      -7.458   8.332  69.267  1.00  0.00    -0.083 N  
HETATM   26  C   UNL     1      -6.706   8.261  70.419  1.00  0.00    -0.036 C  
HETATM   27  H   UNL     1      -8.080   7.558  69.034  1.00  0.00     0.000 HD 
HETATM   28  O   UNL     1      -6.028   9.205  70.826  1.00  0.00    -0.036 OA 
BRANCH  26  29
HETATM   29  C   UNL     1      -6.762   6.930  71.138  1.00  0.00    -0.057 C  
BRANCH  29  30
HETATM   30  C   UNL     1      -8.159   6.580  71.513  1.00  0.00    -0.112 A  
HETATM   31  N   UNL     1     -10.369   3.936  72.159  1.00  0.00    -0.123 NA 
HETATM   32  C   UNL     1      -9.184   7.462  71.795  1.00  0.00    -0.140 A  
HETATM   33  S   UNL     1     -10.605   6.601  72.202  1.00  0.00    -0.217 SA 
HETATM   34  H2  UNL     1     -11.349   3.914  72.441  1.00  0.00     0.000 HD 
HETATM   35  H1  UNL     1      -9.869   3.058  72.023  1.00  0.00     0.000 HD 
HETATM   36  N   UNL     1      -8.502   5.237  71.627  1.00  0.00    -0.124 NA 
HETATM   37  C   UNL     1      -9.764   5.123  71.974  1.00  0.00    -0.159 A  
ENDBRANCH  29  30
ENDBRANCH  26  29
ENDBRANCH   8  25
TORSDOF 9
ENDMDL
MODEL      300
REMARK 921   NORMALIZED FREE ENERGY PREDICTED BY IDOCK:    0.57 KCAL/MOL
REMARK 922        TOTAL FREE ENERGY PREDICTED BY IDOCK:   -1.07 KCAL/MOL
REMARK 923 INTER-LIGAND FREE ENERGY PREDICTED BY IDOCK:   -1.11 KCAL/MOL
REMARK 924 INTRA-LIGAND FREE ENERGY PREDICTED BY IDOCK:    0.04 KCAL/MOL
REMARK 927      BINDING AFFINITY PREDICTED BY RF-SCORE:    0.00 PKD
ROOT
HETATM    1  C   UNL     1     -10.674   6.168  68.919  1.00  0.00    -0.312 C  
HETATM    2  S   UNL     1      -8.881   5.962  68.826  1.00  0.00    -0.110 SA 
HETATM    3  C   UNL     1      -8.666   5.915  70.618  1.00  0.00    -0.137 C  
HETATM    4  C   UNL     1      -9.400   7.008  71.385  1.00  0.00    -0.155 C  
HETATM    5  C   UNL     1     -11.669   7.988  68.665  1.00  0.00     1.723 C  
HETATM    6  CA  UNL     1     -10.459   7.710  70.882  1.00  0.00    -0.206 C  
HETATM    7  C   UNL     1     -11.086   8.827  71.694  1.00  0.00    -0.327 C  
HETATM    8  CA  UNL     1     -11.351   6.825  67.673  1.00  0.00     0.042 C  
HETATM    9  N   UNL     1     -10.952   7.397  69.642  1.00  0.00    -0.213 N  
HETATM   10  O   UNL     1     -11.798   9.755  71.034  1.00  0.00    -0.303 OA 
HETATM   11  OXT UNL     1     -10.980   8.904  72.910  1.00  0.00     0.320 OA 
HETATM   12  O   UNL     1     -12.185   9.086  68.634  1.00  0.00     2.136 OA 
ENDROOT
BRANCH   4  13
HETATM   13  C   UNL     1      -8.694   7.308  72.713  1.00  0.00    -0.122 C  
BRANCH  13  14
HETATM   14  S   UNL     1      -6.916   6.880  72.688  1.00  0.00    -0.070 SA 
BRANCH  14  15
HETATM   15  C   UNL     1      -6.159   8.311  73.277  1.00  0.00    -0.090 A  
HETATM   16  N   UNL     1      -5.934   8.601  74.539  1.00  0.00    -0.123 NA 
HETATM   17  N   UNL     1      -5.402   9.863  74.554  1.00  0.00    -0.299 NA 
HETATM   18  N   UNL     1      -5.718   9.356  72.508  1.00  0.00    -0.257 NA 
HETATM   19  N   UNL     1      -5.278  10.339  73.323  1.00  0.00    -0.323 NA 
BRANCH  18  20
HETATM   20  C   UNL     1      -5.608   9.546  71.071  1.00  0.00    -0.060 C  
BRANCH  20  21
HETATM   21  C   UNL     1      -5.358  11.028  70.740  1.00  0.00    -0.118 C  
BRANCH  21  22
HETATM   22  N   UNL     1      -5.834  11.525  69.429  1.00  0.00    -0.059 NA 
HETATM   23  C   UNL     1      -5.441  12.940  69.288  1.00  0.00    -0.073 C  
HETATM   24  C   UNL     1      -7.290  11.439  69.267  1.00  0.00    -0.042 C  
ENDBRANCH  21  22
ENDBRANCH  20  21
ENDBRANCH  18  20
ENDBRANCH  14  15
ENDBRANCH  13  14
ENDBRANCH   4  13
BRANCH   8  25
HETATM   25  N   UNL     1     -10.456   7.187  66.533  1.00  0.00    -0.504 N  
HETATM   26  C   UNL     1      -9.814   8.404  66.463  1.00  0.00    -0.268 C  
HETATM   27  H   UNL     1     -10.315   6.510  65.782  1.00  0.00     0.000 HD 
HETATM   28  O   UNL     1      -9.838   9.218  67.386  1.00  0.00    -0.159 OA 
BRANCH  26  29
HETATM   29  C   UNL     1      -9.093   8.673  65.159  1.00  0.00    -0.045 C  
BRANCH  29  30
HETATM   30  C   UNL     1      -7.681   9.075  65.398  1.00  0.00    -0.095 A  
HETATM   31  N   UNL     1      -5.580  11.732  66.306  1.00  0.00    -0.504 NA 
HETATM   32  C   UNL     1      -6.566   8.263  65.320  1.00  0.00    -0.052 A  
HETATM   33  S   UNL     1      -5.160   9.159  65.703  1.00  0.00    -0.033 SA 
HETATM   34  H2  UNL     1      -4.571  11.793  66.441  1.00  0.00     0.000 HD 
HETATM   35  H1  UNL     1      -6.154  12.562  66.448  1.00  0.00     0.000 HD 
HETATM   36  N   UNL     1      -7.416  10.390  65.766  1.00  0.00    -0.143 NA 
HETATM   37  C   UNL     1      -6.125  10.556  65.943  1.00  0.00    -0.128 A  
ENDBRANCH  29  30
ENDBRANCH  26  29
ENDBRANCH   8  25
TORSDOF 9
ENDMDL
MODEL      301
REMARK 921   NORMALIZED FREE ENERGY PREDICTED BY IDOCK:    1.52 KCAL/MOL
REMARK 922        TOTAL FREE ENERGY PREDICTED BY IDOCK:    0.37 KCAL/MOL
REMARK 923 INTER-LIGAND FREE ENERGY PREDICTED BY IDOCK:    0.33 KCAL/MOL
REMARK 924 INTRA-LIGAND FREE ENERGY PREDICTED BY IDOCK:    0.04 KCAL/MOL
REMARK 927      BINDING AFFINITY PREDICTED BY RF-SCORE:    0.00 PKD
ROOT
HETATM    1  C   UNL     1      -8.919  15.890  66.961  1.00  0.00    -0.217 C  
HETATM    2  S   UNL     1      -8.187  14.576  65.960  1.00  0.00     2.082 SA 
HETATM    3  C   UNL     1      -9.724  14.214  65.083  1.00  0.00     0.056 C  
HETATM    4  C   UNL     1     -10.956  14.079  65.969  1.00  0.00    -0.298 C  
HETATM    5  C   UNL     1      -9.511  15.666  68.953  1.00  0.00    -0.228 C  
HETATM    6  CA  UNL     1     -11.041  14.587  67.235  1.00  0.00    -0.312 C  
HETATM    7  C   UNL     1     -12.285  14.346  68.069  1.00  0.00    -0.126 C  
HETATM    8  CA  UNL     1      -8.194  16.204  68.309  1.00  0.00    -0.162 C  
HETATM    9  N   UNL     1      -9.997  15.314  67.746  1.00  0.00    -0.224 N  
HETATM   10  O   UNL     1     -12.174  14.460  69.403  1.00  0.00    -0.317 OA 
HETATM   11  OXT UNL     1     -13.370  14.069  67.578  1.00  0.00     2.124 OA 
HETATM   12  O   UNL     1      -9.950  15.449  70.063  1.00  0.00    -0.271 OA 
ENDROOT
BRANCH   4  13
HETATM   13  C   UNL     1     -12.004  13.177  65.308  1.00  0.00    -0.398 C  
BRANCH  13  14
HETATM   14  S   UNL     1     -11.469  11.432  65.186  1.00  0.00     0.197 SA 
BRANCH  14  15
HETATM   15  C   UNL     1     -11.145  11.005  66.824  1.00  0.00    -0.172 A  
HETATM   16  N   UNL     1     -11.426  11.734  67.881  1.00  0.00    -0.325 NA 
HETATM   17  N   UNL     1     -10.918  11.059  68.959  1.00  0.00    -0.216 NA 
HETATM   18  N   UNL     1     -10.519   9.860  67.242  1.00  0.00    -0.248 NA 
HETATM   19  N   UNL     1     -10.351   9.923  68.582  1.00  0.00    -0.187 NA 
BRANCH  18  20
HETATM   20  C   UNL     1     -10.085   8.662  66.545  1.00  0.00    -0.269 C  
BRANCH  20  21
HETATM   21  C   UNL     1      -8.861   8.044  67.243  1.00  0.00    -0.131 C  
BRANCH  21  22
HETATM   22  N   UNL     1      -7.759   7.553  66.384  1.00  0.00    -0.088 NA 
HETATM   23  C   UNL     1      -7.680   8.404  65.182  1.00  0.00    -0.097 C  
HETATM   24  C   UNL     1      -7.937   6.163  65.947  1.00  0.00    -0.112 C  
ENDBRANCH  21  22
ENDBRANCH  20  21
ENDBRANCH  18  20
ENDBRANCH  14  15
ENDBRANCH  13  14
ENDBRANCH   4  13
BRANCH   8  25
HETATM   25  N   UNL     1      -6.965  15.410  68.614  1.00  0.00    -0.108 N  
HETATM   26  C   UNL     1      -6.482  15.273  69.897  1.00  0.00    -0.162 C  
HETATM   27  H   UNL     1      -6.469  14.955  67.848  1.00  0.00     0.000 HD 
HETATM   28  O   UNL     1      -7.092  15.689  70.882  1.00  0.00     1.037 OA 
BRANCH  26  29
HETATM   29  C   UNL     1      -5.135  14.589  70.003  1.00  0.00    -0.093 C  
BRANCH  29  30
HETATM   30  C   UNL     1      -5.231  13.153  69.626  1.00  0.00    -0.086 A  
HETATM   31  N   UNL     1      -5.405  10.908  66.938  1.00  0.00    -0.050 NA 
HETATM   32  C   UNL     1      -5.255  12.072  70.487  1.00  0.00    -0.128 A  
HETATM   33  S   UNL     1      -5.347  10.614  69.597  1.00  0.00    -0.039 SA 
HETATM   34  H2  UNL     1      -5.447   9.890  66.896  1.00  0.00     0.000 HD 
HETATM   35  H1  UNL     1      -5.408  11.444  66.071  1.00  0.00     0.000 HD 
HETATM   36  N   UNL     1      -5.277  12.819  68.277  1.00  0.00    -0.063 NA 
HETATM   37  C   UNL     1      -5.350  11.515  68.138  1.00  0.00    -0.043 A  
ENDBRANCH  29  30
ENDBRANCH  26  29
ENDBRANCH   8  25
TORSDOF 9
ENDMDL
MODEL      302
REMARK 921   NORMALIZED FREE ENERGY PREDICTED BY IDOCK:    1.62 KCAL/MOL
REMARK 922        TOTAL FREE ENERGY PREDICTED BY IDOCK:    0.53 KCAL/MOL
REMARK 923 INTER-LIGAND FREE ENERGY PREDICTED BY IDOCK:   -0.30 KCAL/MOL
REMARK 924 INTRA-LIGAND FREE ENERGY PREDICTED BY IDOCK:    0.82 KCAL/MOL
REMARK 927      BINDING AFFINITY PREDICTED BY RF-SCORE:    0.00 PKD
ROOT
HETATM    1  C   UNL     1     -10.427   5.594  69.600  1.00  0.00    -0.304 C  
HETATM    2  S   UNL     1      -8.649   5.691  69.291  1.00  0.00    -0.105 SA 
HETATM    3  C   UNL     1      -8.225   5.847  71.040  1.00  0.00    -0.122 C  
HETATM    4  C   UNL     1      -9.053   6.864  71.816  1.00  0.00    -0.138 C  
HETATM    5  C   UNL     1     -11.758   7.185  69.348  1.00  0.00     0.341 C  
HETATM    6  CA  UNL     1     -10.273   7.324  71.405  1.00  0.00    -0.188 C  
HETATM    7  C   UNL     1     -10.995   8.388  72.210  1.00  0.00    -0.361 C  
HETATM    8  CA  UNL     1     -11.349   6.007  68.408  1.00  0.00     0.223 C  
HETATM    9  N   UNL     1     -10.839   6.819  70.264  1.00  0.00    -0.253 N  
HETATM   10  O   UNL     1     -11.935   9.115  71.583  1.00  0.00    -0.319 OA 
HETATM   11  OXT UNL     1     -10.767   8.594  73.394  1.00  0.00     0.862 OA 
HETATM   12  O   UNL     1     -12.464   8.171  69.306  1.00  0.00     2.391 OA 
ENDROOT
BRANCH   4  13
HETATM   13  C   UNL     1      -8.267   7.402  73.017  1.00  0.00    -0.113 C  
BRANCH  13  14
HETATM   14  S   UNL     1      -6.461   7.163  72.852  1.00  0.00    -0.064 SA 
BRANCH  14  15
HETATM   15  C   UNL     1      -5.828   8.740  73.136  1.00  0.00    -0.086 A  
HETATM   16  N   UNL     1      -5.585   9.274  74.312  1.00  0.00    -0.209 NA 
HETATM   17  N   UNL     1      -5.181  10.560  74.074  1.00  0.00    -0.338 NA 
HETATM   18  N   UNL     1      -5.524   9.665  72.171  1.00  0.00    -0.200 NA 
HETATM   19  N   UNL     1      -5.153  10.815  72.774  1.00  0.00    -0.319 NA 
BRANCH  18  20
HETATM   20  C   UNL     1      -5.490   9.600  70.720  1.00  0.00    -0.053 C  
BRANCH  20  21
HETATM   21  C   UNL     1      -6.912   9.707  70.141  1.00  0.00    -0.105 C  
BRANCH  21  22
HETATM   22  N   UNL     1      -7.337  11.022  69.611  1.00  0.00    -0.075 NA 
HETATM   23  C   UNL     1      -8.306  10.804  68.521  1.00  0.00    -0.138 C  
HETATM   24  C   UNL     1      -6.227  11.822  69.079  1.00  0.00    -0.072 C  
ENDBRANCH  21  22
ENDBRANCH  20  21
ENDBRANCH  18  20
ENDBRANCH  14  15
ENDBRANCH  13  14
ENDBRANCH   4  13
BRANCH   8  25
HETATM   25  N   UNL     1     -10.671   6.410  67.140  1.00  0.00    -0.316 N  
HETATM   26  C   UNL     1      -9.832   7.502  67.072  1.00  0.00    -0.214 C  
HETATM   27  H   UNL     1     -10.834   5.859  66.296  1.00  0.00     0.000 HD 
HETATM   28  O   UNL     1      -9.493   8.138  68.069  1.00  0.00    -0.142 OA 
BRANCH  26  29
HETATM   29  C   UNL     1      -9.374   7.870  65.677  1.00  0.00     0.133 C  
BRANCH  29  30
HETATM   30  C   UNL     1      -8.438   6.851  65.132  1.00  0.00    -0.021 A  
HETATM   31  N   UNL     1      -5.136   5.673  65.204  1.00  0.00    -0.009 NA 
HETATM   32  C   UNL     1      -8.745   5.837  64.244  1.00  0.00     0.175 A  
HETATM   33  S   UNL     1      -7.353   4.896  63.923  1.00  0.00    -0.052 SA 
HETATM   34  H2  UNL     1      -4.675   4.892  64.737  1.00  0.00     0.000 HD 
HETATM   35  H1  UNL     1      -4.595   6.268  65.831  1.00  0.00     0.000 HD 
HETATM   36  N   UNL     1      -7.113   6.869  65.554  1.00  0.00    -0.066 NA 
HETATM   37  C   UNL     1      -6.444   5.897  64.979  1.00  0.00    -0.042 A  
ENDBRANCH  29  30
ENDBRANCH  26  29
ENDBRANCH   8  25
TORSDOF 9
ENDMDL
MODEL      303
REMARK 921   NORMALIZED FREE ENERGY PREDICTED BY IDOCK:    7.22 KCAL/MOL
REMARK 922        TOTAL FREE ENERGY PREDICTED BY IDOCK:    9.07 KCAL/MOL
REMARK 923 INTER-LIGAND FREE ENERGY PREDICTED BY IDOCK:    1.28 KCAL/MOL
REMARK 924 INTRA-LIGAND FREE ENERGY PREDICTED BY IDOCK:    7.79 KCAL/MOL
REMARK 927      BINDING AFFINITY PREDICTED BY RF-SCORE:    0.00 PKD
ROOT
HETATM    1  C   UNL     1      -7.663  16.298  68.480  1.00  0.00    -0.189 C  
HETATM    2  S   UNL     1      -7.331  14.969  67.302  1.00  0.00    -0.081 SA 
HETATM    3  C   UNL     1      -6.586  16.068  66.078  1.00  0.00     2.470 C  
HETATM    4  C   UNL     1      -7.372  17.340  65.789  1.00  0.00     0.158 C  
HETATM    5  C   UNL     1      -9.533  17.190  68.759  1.00  0.00    -0.263 C  
HETATM    6  CA  UNL     1      -8.314  17.860  66.632  1.00  0.00    -0.261 C  
HETATM    7  C   UNL     1      -9.095  19.096  66.230  1.00  0.00    -0.310 C  
HETATM    8  CA  UNL     1      -8.808  16.027  69.508  1.00  0.00    -0.052 C  
HETATM    9  N   UNL     1      -8.547  17.259  67.842  1.00  0.00    -0.219 N  
HETATM   10  O   UNL     1     -10.271  19.318  66.842  1.00  0.00    -0.343 OA 
HETATM   11  OXT UNL     1      -8.694  19.893  65.393  1.00  0.00    -0.138 OA 
HETATM   12  O   UNL     1     -10.606  17.755  68.792  1.00  0.00    -0.291 OA 
ENDROOT
BRANCH   4  13
HETATM   13  C   UNL     1      -7.074  17.855  64.376  1.00  0.00     4.719 C  
BRANCH  13  14
HETATM   14  S   UNL     1      -5.511  18.801  64.276  1.00  0.00    -0.148 SA 
BRANCH  14  15
HETATM   15  C   UNL     1      -5.529  19.741  65.720  1.00  0.00    -0.162 A  
HETATM   16  N   UNL     1      -5.695  21.042  65.792  1.00  0.00    -0.234 NA 
HETATM   17  N   UNL     1      -5.549  21.376  67.112  1.00  0.00    -0.300 NA 
HETATM   18  N   UNL     1      -5.339  19.258  66.989  1.00  0.00    -0.161 NA 
HETATM   19  N   UNL     1      -5.318  20.300  67.850  1.00  0.00    -0.193 NA 
BRANCH  18  20
HETATM   20  C   UNL     1      -5.216  17.914  67.525  1.00  0.00    -0.132 C  
BRANCH  20  21
HETATM   21  C   UNL     1      -6.013  17.780  68.835  1.00  0.00    -0.197 C  
BRANCH  21  22
HETATM   22  N   UNL     1      -5.245  17.587  70.086  1.00  0.00    -0.201 NA 
HETATM   23  C   UNL     1      -5.623  16.291  70.680  1.00  0.00    -0.043 C  
HETATM   24  C   UNL     1      -5.488  18.634  71.086  1.00  0.00    -0.171 C  
ENDBRANCH  21  22
ENDBRANCH  20  21
ENDBRANCH  18  20
ENDBRANCH  14  15
ENDBRANCH  13  14
ENDBRANCH   4  13
BRANCH   8  25
HETATM   25  N   UNL     1      -9.485  14.698  69.428  1.00  0.00    -0.415 N  
HETATM   26  C   UNL     1     -10.227  14.319  68.331  1.00  0.00    -0.245 C  
HETATM   27  H   UNL     1      -9.395  14.050  70.212  1.00  0.00     0.000 HD 
HETATM   28  O   UNL     1     -10.279  14.993  67.303  1.00  0.00    -0.239 OA 
BRANCH  26  29
HETATM   29  C   UNL     1     -10.987  13.019  68.492  1.00  0.00    -0.290 C  
BRANCH  29  30
HETATM   30  C   UNL     1     -10.104  11.846  68.252  1.00  0.00    -0.203 A  
HETATM   31  N   UNL     1      -6.946  10.466  68.896  1.00  0.00    -0.063 NA 
HETATM   32  C   UNL     1     -10.423  10.703  67.543  1.00  0.00    -0.230 A  
HETATM   33  S   UNL     1      -9.101   9.617  67.556  1.00  0.00    -0.130 SA 
HETATM   34  H2  UNL     1      -6.519   9.577  68.636  1.00  0.00     0.000 HD 
HETATM   35  H1  UNL     1      -6.411  11.131  69.453  1.00  0.00     0.000 HD 
HETATM   36  N   UNL     1      -8.827  11.850  68.801  1.00  0.00    -0.023 NA 
HETATM   37  C   UNL     1      -8.201  10.736  68.494  1.00  0.00    -0.136 A  
ENDBRANCH  29  30
ENDBRANCH  26  29
ENDBRANCH   8  25
TORSDOF 9
ENDMDL
MODEL      304
REMARK 921   NORMALIZED FREE ENERGY PREDICTED BY IDOCK:   36.63 KCAL/MOL
REMARK 922        TOTAL FREE ENERGY PREDICTED BY IDOCK:   53.96 KCAL/MOL
REMARK 923 INTER-LIGAND FREE ENERGY PREDICTED BY IDOCK:   52.04 KCAL/MOL
REMARK 924 INTRA-LIGAND FREE ENERGY PREDICTED BY IDOCK:    1.93 KCAL/MOL
REMARK 927      BINDING AFFINITY PREDICTED BY RF-SCORE:    0.00 PKD
ROOT
HETATM    1  C   UNL     1     -10.757   5.806  69.559  1.00  0.00    -0.338 C  
HETATM    2  S   UNL     1      -9.104   6.481  69.277  1.00  0.00    -0.136 SA 
HETATM    3  C   UNL     1      -8.809   6.825  71.026  1.00  0.00    -0.141 C  
HETATM    4  C   UNL     1      -9.951   7.531  71.746  1.00  0.00    -0.200 C  
HETATM    5  C   UNL     1     -12.534   6.853  69.220  1.00  0.00     2.304 C  
HETATM    6  CA  UNL     1     -11.242   7.545  71.296  1.00  0.00    -0.251 C  
HETATM    7  C   UNL     1     -12.300   8.331  72.045  1.00  0.00    -0.349 C  
HETATM    8  CA  UNL     1     -11.728   5.850  68.335  1.00  0.00     1.621 C  
HETATM    9  N   UNL     1     -11.573   6.843  70.166  1.00  0.00    -0.313 N  
HETATM   10  O   UNL     1     -13.409   8.683  71.373  1.00  0.00    -0.308 OA 
HETATM   11  OXT UNL     1     -12.189   8.638  73.224  1.00  0.00     0.166 OA 
HETATM   12  O   UNL     1     -13.526   7.544  69.127  1.00  0.00     5.587 OA 
ENDROOT
BRANCH   4  13
HETATM   13  C   UNL     1      -9.424   8.339  72.938  1.00  0.00    -0.250 C  
BRANCH  13  14
HETATM   14  S   UNL     1      -7.642   8.728  72.805  1.00  0.00     0.337 SA 
BRANCH  14  15
HETATM   15  C   UNL     1      -7.633  10.420  72.481  1.00  0.00     5.905 A  
HETATM   16  N   UNL     1      -8.598  11.265  72.767  1.00  0.00    16.034 NA 
HETATM   17  N   UNL     1      -8.211  12.476  72.257  1.00  0.00    16.162 NA 
HETATM   18  N   UNL     1      -6.629  11.107  71.850  1.00  0.00     2.296 NA 
HETATM   19  N   UNL     1      -7.020  12.390  71.684  1.00  0.00     4.543 NA 
BRANCH  18  20
HETATM   20  C   UNL     1      -5.298  10.725  71.411  1.00  0.00    -0.007 C  
BRANCH  20  21
HETATM   21  C   UNL     1      -5.329   9.344  70.733  1.00  0.00    -0.032 C  
BRANCH  21  22
HETATM   22  N   UNL     1      -5.646   9.299  69.287  1.00  0.00    -0.035 NA 
HETATM   23  C   UNL     1      -6.914  10.014  69.057  1.00  0.00    -0.056 C  
HETATM   24  C   UNL     1      -5.791   7.934  68.765  1.00  0.00    -0.035 C  
ENDBRANCH  21  22
ENDBRANCH  20  21
ENDBRANCH  18  20
ENDBRANCH  14  15
ENDBRANCH  13  14
ENDBRANCH   4  13
BRANCH   8  25
HETATM   25  N   UNL     1     -11.185   6.416  67.064  1.00  0.00    -0.689 N  
HETATM   26  C   UNL     1     -10.568   7.647  67.015  1.00  0.00    -0.336 C  
HETATM   27  H   UNL     1     -11.275   5.873  66.204  1.00  0.00     0.000 HD 
HETATM   28  O   UNL     1     -10.316   8.301  68.026  1.00  0.00    -0.209 OA 
BRANCH  26  29
HETATM   29  C   UNL     1     -10.240   8.142  65.622  1.00  0.00     1.411 C  
BRANCH  29  30
HETATM   30  C   UNL     1      -8.852   8.672  65.553  1.00  0.00    -0.179 A  
HETATM   31  N   UNL     1      -5.469   7.799  65.252  1.00  0.00    -0.032 NA 
HETATM   32  C   UNL     1      -8.473  10.001  65.572  1.00  0.00    -0.147 A  
HETATM   33  S   UNL     1      -6.772  10.129  65.444  1.00  0.00    -0.124 SA 
HETATM   34  H2  UNL     1      -4.618   8.359  65.200  1.00  0.00     0.000 HD 
HETATM   35  H1  UNL     1      -5.401   6.783  65.211  1.00  0.00     0.000 HD 
HETATM   36  N   UNL     1      -7.799   7.772  65.430  1.00  0.00    -0.106 NA 
HETATM   37  C   UNL     1      -6.658   8.419  65.374  1.00  0.00    -0.056 A  
ENDBRANCH  29  30
ENDBRANCH  26  29
ENDBRANCH   8  25
TORSDOF 9
ENDMDL
