MODEL        1
REMARK 921   NORMALIZED FREE ENERGY PREDICTED BY IDOCK:   -7.74 KCAL/MOL
REMARK 922        TOTAL FREE ENERGY PREDICTED BY IDOCK:  -11.87 KCAL/MOL
REMARK 923 INTER-LIGAND FREE ENERGY PREDICTED BY IDOCK:  -10.90 KCAL/MOL
REMARK 924 INTRA-LIGAND FREE ENERGY PREDICTED BY IDOCK:   -0.97 KCAL/MOL
REMARK 927      BINDING AFFINITY PREDICTED BY RF-SCORE:    0.00 PKD
ROOT
HETATM    1  C   UNL     1     -11.523  14.898  68.690  1.00  0.00    -0.306 C  
HETATM    2  S   UNL     1      -9.850  15.168  69.313  1.00  0.00    -0.212 SA 
HETATM    3  C   UNL     1      -9.599  16.704  68.391  1.00  0.00    -0.233 C  
HETATM    4  C   UNL     1     -10.052  16.678  66.934  1.00  0.00    -0.280 C  
HETATM    5  C   UNL     1     -12.102  13.616  67.147  1.00  0.00    -0.362 C  
HETATM    6  CA  UNL     1     -10.911  15.749  66.417  1.00  0.00    -0.159 C  
HETATM    7  C   UNL     1     -11.211  15.748  64.930  1.00  0.00    -0.350 C  
HETATM    8  CA  UNL     1     -12.015  13.408  68.701  1.00  0.00    -0.327 C  
HETATM    9  N   UNL     1     -11.474  14.806  67.245  1.00  0.00    -0.361 N  
HETATM   10  O   UNL     1     -11.680  14.611  64.390  1.00  0.00    -0.393 OA 
HETATM   11  OXT UNL     1     -11.036  16.723  64.210  1.00  0.00    -1.106 OA 
HETATM   12  O   UNL     1     -12.427  12.990  66.164  1.00  0.00    -0.453 OA 
ENDROOT
BRANCH   4  13
HETATM   13  C   UNL     1      -9.269  17.705  66.105  1.00  0.00    -0.119 C  
BRANCH  13  14
HETATM   14  S   UNL     1      -7.454  17.504  66.205  1.00  0.00    -0.315 SA 
BRANCH  14  15
HETATM   15  C   UNL     1      -6.974  19.161  66.027  1.00  0.00    -0.256 A  
HETATM   16  N   UNL     1      -6.566  19.713  64.905  1.00  0.00    -0.384 NA 
HETATM   17  N   UNL     1      -6.327  21.033  65.189  1.00  0.00    -0.205 NA 
HETATM   18  N   UNL     1      -6.976  20.123  67.002  1.00  0.00    -0.224 NA 
HETATM   19  N   UNL     1      -6.584  21.298  66.460  1.00  0.00    -0.319 NA 
BRANCH  18  20
HETATM   20  C   UNL     1      -7.440  20.122  68.359  1.00  0.00    -0.165 C  
HETATM   21  O   UNL     1      -6.691  20.355  70.864  1.00  0.00    -0.375 OA 
HETATM   22  O   UNL     1      -5.128  21.012  69.111  1.00  0.00    -0.307 OA 
HETATM   23  O   UNL     1      -5.570  18.591  69.444  1.00  0.00    -0.205 OA 
HETATM   24  S   UNL     1      -6.186  19.889  69.594  1.00  0.00    -0.357 S  
ENDBRANCH  18  20
ENDBRANCH  14  15
ENDBRANCH  13  14
ENDBRANCH   4  13
BRANCH   8  25
HETATM   25  N   UNL     1     -11.024  12.397  69.145  1.00  0.00    -0.402 N  
HETATM   26  C   UNL     1     -11.218  11.033  69.086  1.00  0.00    -0.255 C  
HETATM   27  H   UNL     1     -10.138  12.735  69.521  1.00  0.00     0.000 HD 
HETATM   28  O   UNL     1     -12.264  10.518  68.706  1.00  0.00    -0.286 OA 
BRANCH  26  29
HETATM   29  C   UNL     1      -9.973  10.231  69.529  1.00  0.00    -0.228 C  
HETATM   30  O   UNL     1      -9.249   9.779  68.375  1.00  0.00    -0.129 OA 
HETATM   31  H   UNL     1      -8.484   9.286  68.647  1.00  0.00     0.000 HD 
BRANCH  29  32
HETATM   32  C   UNL     1     -10.337   9.041  70.391  1.00  0.00    -0.253 A  
HETATM   33  C   UNL     1     -11.008   9.236  71.609  1.00  0.00    -0.433 A  
HETATM   34  C   UNL     1     -10.035   7.727  69.996  1.00  0.00    -0.187 A  
HETATM   35  C   UNL     1     -10.368   6.642  70.809  1.00  0.00    -0.232 A  
HETATM   36  C   UNL     1     -11.015   6.853  72.023  1.00  0.00    -0.266 A  
HETATM   37  C   UNL     1     -11.340   8.149  72.420  1.00  0.00    -0.456 A  
ENDBRANCH  29  32
ENDBRANCH  26  29
ENDBRANCH   8  25
TORSDOF 7
ENDMDL
MODEL        2
REMARK 921   NORMALIZED FREE ENERGY PREDICTED BY IDOCK:   -7.65 KCAL/MOL
REMARK 922        TOTAL FREE ENERGY PREDICTED BY IDOCK:  -11.74 KCAL/MOL
REMARK 923 INTER-LIGAND FREE ENERGY PREDICTED BY IDOCK:  -10.62 KCAL/MOL
REMARK 924 INTRA-LIGAND FREE ENERGY PREDICTED BY IDOCK:   -1.13 KCAL/MOL
REMARK 927      BINDING AFFINITY PREDICTED BY RF-SCORE:    0.00 PKD
ROOT
HETATM    1  C   UNL     1     -11.552  14.990  68.857  1.00  0.00    -0.326 C  
HETATM    2  S   UNL     1      -9.870  15.161  69.489  1.00  0.00    -0.137 SA 
HETATM    3  C   UNL     1      -9.526  16.682  68.573  1.00  0.00    -0.239 C  
HETATM    4  C   UNL     1      -9.972  16.687  67.115  1.00  0.00    -0.268 C  
HETATM    5  C   UNL     1     -12.197  13.748  67.308  1.00  0.00    -0.278 C  
HETATM    6  CA  UNL     1     -10.881  15.810  66.590  1.00  0.00    -0.241 C  
HETATM    7  C   UNL     1     -11.172  15.832  65.102  1.00  0.00    -0.248 C  
HETATM    8  CA  UNL     1     -12.130  13.532  68.861  1.00  0.00    -0.279 C  
HETATM    9  N   UNL     1     -11.501  14.900  67.413  1.00  0.00    -0.348 N  
HETATM   10  O   UNL     1     -11.705  14.725  64.555  1.00  0.00    -0.411 OA 
HETATM   11  OXT UNL     1     -10.939  16.798  64.386  1.00  0.00    -0.974 OA 
HETATM   12  O   UNL     1     -12.553  13.145  66.320  1.00  0.00    -0.366 OA 
ENDROOT
BRANCH   4  13
HETATM   13  C   UNL     1      -9.127  17.670  66.292  1.00  0.00    -0.186 C  
BRANCH  13  14
HETATM   14  S   UNL     1      -7.353  17.231  66.215  1.00  0.00    -0.286 SA 
BRANCH  14  15
HETATM   15  C   UNL     1      -6.675  18.817  66.041  1.00  0.00    -0.243 A  
HETATM   16  N   UNL     1      -6.974  19.666  65.081  1.00  0.00    -0.393 NA 
HETATM   17  N   UNL     1      -6.253  20.805  65.335  1.00  0.00    -0.244 NA 
HETATM   18  N   UNL     1      -5.769  19.416  66.875  1.00  0.00    -0.171 NA 
HETATM   19  N   UNL     1      -5.525  20.670  66.432  1.00  0.00    -0.167 NA 
BRANCH  18  20
HETATM   20  C   UNL     1      -5.203  19.018  68.132  1.00  0.00    -0.177 C  
HETATM   21  O   UNL     1      -5.599  18.974  70.726  1.00  0.00    -0.229 OA 
HETATM   22  O   UNL     1      -7.486  19.473  69.263  1.00  0.00    -0.351 OA 
HETATM   23  O   UNL     1      -5.724  21.201  69.540  1.00  0.00    -0.362 OA 
HETATM   24  S   UNL     1      -5.927  19.771  69.568  1.00  0.00    -0.311 S  
ENDBRANCH  18  20
ENDBRANCH  14  15
ENDBRANCH  13  14
ENDBRANCH   4  13
BRANCH   8  25
HETATM   25  N   UNL     1     -11.201  12.463  69.307  1.00  0.00    -0.382 N  
HETATM   26  C   UNL     1     -11.555  11.142  69.484  1.00  0.00    -0.321 C  
HETATM   27  H   UNL     1     -10.233  12.725  69.496  1.00  0.00     0.000 HD 
HETATM   28  O   UNL     1     -12.701  10.728  69.341  1.00  0.00    -0.261 OA 
BRANCH  26  29
HETATM   29  C   UNL     1     -10.355  10.245  69.860  1.00  0.00    -0.233 C  
HETATM   30  O   UNL     1      -9.129  10.889  69.484  1.00  0.00    -0.401 OA 
HETATM   31  H   UNL     1      -8.390  10.338  69.715  1.00  0.00     0.000 HD 
BRANCH  29  32
HETATM   32  C   UNL     1     -10.430   8.883  69.202  1.00  0.00    -0.236 A  
HETATM   33  C   UNL     1     -10.773   7.755  69.962  1.00  0.00    -0.245 A  
HETATM   34  C   UNL     1     -10.179   8.715  67.829  1.00  0.00    -0.282 A  
HETATM   35  C   UNL     1     -10.242   7.451  67.241  1.00  0.00    -0.330 A  
HETATM   36  C   UNL     1     -10.564   6.338  68.013  1.00  0.00    -0.326 A  
HETATM   37  C   UNL     1     -10.835   6.491  69.372  1.00  0.00    -0.363 A  
ENDBRANCH  29  32
ENDBRANCH  26  29
ENDBRANCH   8  25
TORSDOF 7
ENDMDL
MODEL        3
REMARK 921   NORMALIZED FREE ENERGY PREDICTED BY IDOCK:   -7.55 KCAL/MOL
REMARK 922        TOTAL FREE ENERGY PREDICTED BY IDOCK:  -11.61 KCAL/MOL
REMARK 923 INTER-LIGAND FREE ENERGY PREDICTED BY IDOCK:  -10.51 KCAL/MOL
REMARK 924 INTRA-LIGAND FREE ENERGY PREDICTED BY IDOCK:   -1.10 KCAL/MOL
REMARK 927      BINDING AFFINITY PREDICTED BY RF-SCORE:    0.00 PKD
ROOT
HETATM    1  C   UNL     1     -12.140  13.978  68.577  1.00  0.00    -0.294 C  
HETATM    2  S   UNL     1     -11.058  14.663  69.850  1.00  0.00    -0.154 SA 
HETATM    3  C   UNL     1     -11.077  16.338  69.169  1.00  0.00    -0.322 C  
HETATM    4  C   UNL     1     -10.903  16.435  67.656  1.00  0.00    -0.280 C  
HETATM    5  C   UNL     1     -11.569  12.885  66.892  1.00  0.00    -0.368 C  
HETATM    6  CA  UNL     1     -11.087  15.387  66.797  1.00  0.00    -0.244 C  
HETATM    7  C   UNL     1     -10.782  15.564  65.322  1.00  0.00    -0.422 C  
HETATM    8  CA  UNL     1     -12.001  12.434  68.332  1.00  0.00    -0.216 C  
HETATM    9  N   UNL     1     -11.521  14.176  67.283  1.00  0.00    -0.331 N  
HETATM   10  O   UNL     1     -10.549  14.455  64.597  1.00  0.00    -0.415 OA 
HETATM   11  OXT UNL     1     -10.730  16.657  64.773  1.00  0.00    -0.721 OA 
HETATM   12  O   UNL     1     -11.240  12.381  65.842  1.00  0.00    -0.306 OA 
ENDROOT
BRANCH   4  13
HETATM   13  C   UNL     1     -10.314  17.796  67.264  1.00  0.00    -0.363 C  
BRANCH  13  14
HETATM   14  S   UNL     1      -9.850  18.838  68.694  1.00  0.00    -0.394 SA 
BRANCH  14  15
HETATM   15  C   UNL     1      -8.490  19.669  68.011  1.00  0.00    -0.312 A  
HETATM   16  N   UNL     1      -8.537  20.461  66.961  1.00  0.00    -0.314 NA 
HETATM   17  N   UNL     1      -7.264  20.939  66.781  1.00  0.00    -0.232 NA 
HETATM   18  N   UNL     1      -7.201  19.644  68.471  1.00  0.00    -0.318 NA 
HETATM   19  N   UNL     1      -6.443  20.459  67.702  1.00  0.00    -0.240 NA 
BRANCH  18  20
HETATM   20  C   UNL     1      -6.602  19.064  69.639  1.00  0.00    -0.191 C  
HETATM   21  O   UNL     1      -5.235  17.010  70.534  1.00  0.00    -0.209 OA 
HETATM   22  O   UNL     1      -5.389  17.352  68.123  1.00  0.00    -0.130 OA 
HETATM   23  O   UNL     1      -7.410  16.560  69.330  1.00  0.00    -0.237 OA 
HETATM   24  S   UNL     1      -6.208  17.337  69.517  1.00  0.00    -0.235 S  
ENDBRANCH  18  20
ENDBRANCH  14  15
ENDBRANCH  13  14
ENDBRANCH   4  13
BRANCH   8  25
HETATM   25  N   UNL     1     -10.949  11.742  69.116  1.00  0.00    -0.322 N  
HETATM   26  C   UNL     1     -10.525  10.449  68.886  1.00  0.00    -0.212 C  
HETATM   27  H   UNL     1     -10.508  12.257  69.878  1.00  0.00     0.000 HD 
HETATM   28  O   UNL     1     -11.023   9.719  68.036  1.00  0.00    -0.246 OA 
BRANCH  26  29
HETATM   29  C   UNL     1      -9.349  10.033  69.799  1.00  0.00    -0.202 C  
HETATM   30  O   UNL     1      -8.374   9.307  69.036  1.00  0.00    -0.117 OA 
HETATM   31  H   UNL     1      -7.651   9.051  69.596  1.00  0.00     0.000 HD 
BRANCH  29  32
HETATM   32  C   UNL     1      -9.805   9.184  70.967  1.00  0.00    -0.366 A  
HETATM   33  C   UNL     1     -11.154   9.192  71.355  1.00  0.00    -0.415 A  
HETATM   34  C   UNL     1      -8.910   8.365  71.675  1.00  0.00    -0.246 A  
HETATM   35  C   UNL     1      -9.345   7.597  72.756  1.00  0.00    -0.236 A  
HETATM   36  C   UNL     1     -10.683   7.631  73.141  1.00  0.00    -0.445 A  
HETATM   37  C   UNL     1     -11.588   8.423  72.438  1.00  0.00    -0.450 A  
ENDBRANCH  29  32
ENDBRANCH  26  29
ENDBRANCH   8  25
TORSDOF 7
ENDMDL
MODEL        4
REMARK 921   NORMALIZED FREE ENERGY PREDICTED BY IDOCK:   -7.53 KCAL/MOL
REMARK 922        TOTAL FREE ENERGY PREDICTED BY IDOCK:  -11.58 KCAL/MOL
REMARK 923 INTER-LIGAND FREE ENERGY PREDICTED BY IDOCK:  -10.54 KCAL/MOL
REMARK 924 INTRA-LIGAND FREE ENERGY PREDICTED BY IDOCK:   -1.04 KCAL/MOL
REMARK 927      BINDING AFFINITY PREDICTED BY RF-SCORE:    0.00 PKD
ROOT
HETATM    1  C   UNL     1      -8.639   9.320  68.619  1.00  0.00    -0.127 C  
HETATM    2  S   UNL     1     -10.429   9.517  68.495  1.00  0.00    -0.212 SA 
HETATM    3  C   UNL     1     -10.353  10.659  67.095  1.00  0.00    -0.228 C  
HETATM    4  C   UNL     1      -9.306  11.763  67.203  1.00  0.00    -0.178 C  
HETATM    5  C   UNL     1      -7.355  10.275  69.961  1.00  0.00    -0.149 C  
HETATM    6  CA  UNL     1      -8.246  11.730  68.067  1.00  0.00    -0.152 C  
HETATM    7  C   UNL     1      -7.325  12.930  68.171  1.00  0.00    -0.119 C  
HETATM    8  CA  UNL     1      -8.102   8.895  70.030  1.00  0.00    -0.116 C  
HETATM    9  N   UNL     1      -8.042  10.619  68.852  1.00  0.00    -0.131 N  
HETATM   10  O   UNL     1      -6.590  13.056  69.289  1.00  0.00    -0.107 OA 
HETATM   11  OXT UNL     1      -7.231  13.782  67.296  1.00  0.00    -0.136 OA 
HETATM   12  O   UNL     1      -6.590  10.929  70.633  1.00  0.00    -0.319 OA 
ENDROOT
BRANCH   4  13
HETATM   13  C   UNL     1      -9.713  12.980  66.361  1.00  0.00    -0.268 C  
BRANCH  13  14
HETATM   14  S   UNL     1     -11.370  13.638  66.768  1.00  0.00    -0.342 SA 
BRANCH  14  15
HETATM   15  C   UNL     1     -11.533  14.806  65.498  1.00  0.00    -0.329 A  
HETATM   16  N   UNL     1     -12.471  14.794  64.576  1.00  0.00    -0.560 NA 
HETATM   17  N   UNL     1     -12.262  15.905  63.798  1.00  0.00    -0.661 NA 
HETATM   18  N   UNL     1     -10.740  15.903  65.288  1.00  0.00    -0.420 NA 
HETATM   19  N   UNL     1     -11.218  16.595  64.229  1.00  0.00    -1.080 NA 
BRANCH  18  20
HETATM   20  C   UNL     1      -9.666  16.477  66.046  1.00  0.00    -0.301 C  
HETATM   21  O   UNL     1      -9.079  17.834  68.215  1.00  0.00    -0.266 OA 
HETATM   22  O   UNL     1     -11.305  16.857  68.013  1.00  0.00    -0.190 OA 
HETATM   23  O   UNL     1     -10.754  18.827  66.606  1.00  0.00    -0.389 OA 
HETATM   24  S   UNL     1     -10.146  17.688  67.253  1.00  0.00    -0.344 S  
ENDBRANCH  18  20
ENDBRANCH  14  15
ENDBRANCH  13  14
ENDBRANCH   4  13
BRANCH   8  25
HETATM   25  N   UNL     1      -9.116   8.783  71.107  1.00  0.00    -0.203 N  
HETATM   26  C   UNL     1      -9.307   7.662  71.888  1.00  0.00    -0.145 C  
HETATM   27  H   UNL     1      -9.714   9.591  71.282  1.00  0.00     0.000 HD 
HETATM   28  O   UNL     1      -8.686   6.616  71.728  1.00  0.00    -0.130 OA 
BRANCH  26  29
HETATM   29  C   UNL     1     -10.369   7.873  72.991  1.00  0.00    -0.334 C  
HETATM   30  O   UNL     1     -10.317   6.790  73.931  1.00  0.00    -0.327 OA 
HETATM   31  H   UNL     1     -10.970   6.920  74.609  1.00  0.00     0.000 HD 
BRANCH  29  32
HETATM   32  C   UNL     1     -11.769   7.979  72.423  1.00  0.00    -0.444 A  
HETATM   33  C   UNL     1     -12.337   6.886  71.750  1.00  0.00    -0.401 A  
HETATM   34  C   UNL     1     -12.535   9.148  72.566  1.00  0.00    -0.260 A  
HETATM   35  C   UNL     1     -13.820   9.232  72.028  1.00  0.00    -0.446 A  
HETATM   36  C   UNL     1     -14.362   8.146  71.345  1.00  0.00    -0.472 A  
HETATM   37  C   UNL     1     -13.623   6.972  71.212  1.00  0.00    -0.251 A  
ENDBRANCH  29  32
ENDBRANCH  26  29
ENDBRANCH   8  25
TORSDOF 7
ENDMDL
MODEL        5
REMARK 921   NORMALIZED FREE ENERGY PREDICTED BY IDOCK:   -7.47 KCAL/MOL
REMARK 922        TOTAL FREE ENERGY PREDICTED BY IDOCK:  -11.50 KCAL/MOL
REMARK 923 INTER-LIGAND FREE ENERGY PREDICTED BY IDOCK:  -11.00 KCAL/MOL
REMARK 924 INTRA-LIGAND FREE ENERGY PREDICTED BY IDOCK:   -0.49 KCAL/MOL
REMARK 927      BINDING AFFINITY PREDICTED BY RF-SCORE:    0.00 PKD
ROOT
HETATM    1  C   UNL     1      -9.986  14.393  66.629  1.00  0.00    -0.272 C  
HETATM    2  S   UNL     1      -9.490  13.391  68.046  1.00  0.00    -0.222 SA 
HETATM    3  C   UNL     1      -8.626  12.152  67.052  1.00  0.00    -0.191 C  
HETATM    4  C   UNL     1      -9.361  11.684  65.800  1.00  0.00    -0.220 C  
HETATM    5  C   UNL     1     -11.849  14.409  65.685  1.00  0.00    -0.355 C  
HETATM    6  CA  UNL     1     -10.399  12.363  65.224  1.00  0.00    -0.282 C  
HETATM    7  C   UNL     1     -11.131  11.755  64.043  1.00  0.00    -0.390 C  
HETATM    8  CA  UNL     1     -11.257  15.287  66.845  1.00  0.00    -0.256 C  
HETATM    9  N   UNL     1     -10.787  13.578  65.738  1.00  0.00    -0.273 N  
HETATM   10  O   UNL     1     -12.372  12.200  63.783  1.00  0.00    -0.492 OA 
HETATM   11  OXT UNL     1     -10.650  10.881  63.332  1.00  0.00    -0.282 OA 
HETATM   12  O   UNL     1     -12.871  14.319  65.045  1.00  0.00    -0.674 OA 
ENDROOT
BRANCH   4  13
HETATM   13  C   UNL     1      -8.906  10.274  65.399  1.00  0.00    -0.172 C  
BRANCH  13  14
HETATM   14  S   UNL     1      -7.989   9.394  66.713  1.00  0.00    -0.109 SA 
BRANCH  14  15
HETATM   15  C   UNL     1      -9.229   8.306  67.246  1.00  0.00    -0.138 A  
HETATM   16  N   UNL     1     -10.247   7.905  66.516  1.00  0.00    -0.215 NA 
HETATM   17  N   UNL     1     -10.959   7.028  67.294  1.00  0.00    -0.325 NA 
HETATM   18  N   UNL     1      -9.313   7.696  68.469  1.00  0.00    -0.147 NA 
HETATM   19  N   UNL     1     -10.393   6.883  68.482  1.00  0.00    -0.177 NA 
BRANCH  18  20
HETATM   20  C   UNL     1      -8.423   7.661  69.594  1.00  0.00    -0.135 C  
HETATM   21  O   UNL     1      -7.971   8.654  71.982  1.00  0.00    -0.242 OA 
HETATM   22  O   UNL     1     -10.157   9.013  70.960  1.00  0.00    -0.232 OA 
HETATM   23  O   UNL     1      -8.214  10.263  70.049  1.00  0.00    -0.120 OA 
HETATM   24  S   UNL     1      -8.559   9.030  70.717  1.00  0.00    -0.229 S  
ENDBRANCH  18  20
ENDBRANCH  14  15
ENDBRANCH  13  14
ENDBRANCH   4  13
BRANCH   8  25
HETATM   25  N   UNL     1     -11.941  15.142  68.154  1.00  0.00    -0.521 N  
HETATM   26  C   UNL     1     -11.586  15.821  69.301  1.00  0.00    -0.373 C  
HETATM   27  H   UNL     1     -12.728  14.495  68.210  1.00  0.00     0.000 HD 
HETATM   28  O   UNL     1     -10.623  16.579  69.364  1.00  0.00    -0.295 OA 
BRANCH  26  29
HETATM   29  C   UNL     1     -12.540  15.539  70.484  1.00  0.00    -0.416 C  
HETATM   30  O   UNL     1     -12.098  16.256  71.647  1.00  0.00    -0.602 OA 
HETATM   31  H   UNL     1     -12.684  16.083  72.374  1.00  0.00     0.000 HD 
BRANCH  29  32
HETATM   32  C   UNL     1     -12.628  14.063  70.808  1.00  0.00    -0.431 A  
HETATM   33  C   UNL     1     -13.330  13.635  71.945  1.00  0.00    -0.510 A  
HETATM   34  C   UNL     1     -12.034  13.092  69.983  1.00  0.00    -0.391 A  
HETATM   35  C   UNL     1     -12.116  11.736  70.302  1.00  0.00    -0.426 A  
HETATM   36  C   UNL     1     -12.800  11.329  71.444  1.00  0.00    -0.515 A  
HETATM   37  C   UNL     1     -13.411  12.277  72.262  1.00  0.00    -0.375 A  
ENDBRANCH  29  32
ENDBRANCH  26  29
ENDBRANCH   8  25
TORSDOF 7
ENDMDL
MODEL        6
REMARK 921   NORMALIZED FREE ENERGY PREDICTED BY IDOCK:   -7.47 KCAL/MOL
REMARK 922        TOTAL FREE ENERGY PREDICTED BY IDOCK:  -11.49 KCAL/MOL
REMARK 923 INTER-LIGAND FREE ENERGY PREDICTED BY IDOCK:  -10.36 KCAL/MOL
REMARK 924 INTRA-LIGAND FREE ENERGY PREDICTED BY IDOCK:   -1.13 KCAL/MOL
REMARK 927      BINDING AFFINITY PREDICTED BY RF-SCORE:    0.00 PKD
ROOT
HETATM    1  C   UNL     1     -11.913  13.227  67.698  1.00  0.00    -0.322 C  
HETATM    2  S   UNL     1     -10.474  12.144  67.570  1.00  0.00    -0.213 SA 
HETATM    3  C   UNL     1     -11.154  10.872  68.660  1.00  0.00    -0.252 C  
HETATM    4  C   UNL     1     -11.818  11.383  69.935  1.00  0.00    -0.435 C  
HETATM    5  C   UNL     1     -12.119  14.916  68.908  1.00  0.00    -0.194 C  
HETATM    6  CA  UNL     1     -12.228  12.674  70.118  1.00  0.00    -0.238 C  
HETATM    7  C   UNL     1     -12.778  13.103  71.465  1.00  0.00    -0.269 C  
HETATM    8  CA  UNL     1     -11.642  14.747  67.422  1.00  0.00    -0.360 C  
HETATM    9  N   UNL     1     -12.112  13.578  69.089  1.00  0.00    -0.320 N  
HETATM   10  O   UNL     1     -12.759  14.416  71.756  1.00  0.00    -0.324 OA 
HETATM   11  OXT UNL     1     -13.223  12.316  72.290  1.00  0.00    -0.470 OA 
HETATM   12  O   UNL     1     -12.300  15.804  69.709  1.00  0.00    -0.319 OA 
ENDROOT
BRANCH   4  13
HETATM   13  C   UNL     1     -11.785  10.310  71.032  1.00  0.00    -0.370 C  
BRANCH  13  14
HETATM   14  S   UNL     1     -11.056   8.723  70.488  1.00  0.00    -0.237 SA 
BRANCH  14  15
HETATM   15  C   UNL     1      -9.580   8.762  71.397  1.00  0.00    -0.267 A  
HETATM   16  N   UNL     1      -8.485   9.394  71.034  1.00  0.00    -0.298 NA 
HETATM   17  N   UNL     1      -7.577   9.205  72.044  1.00  0.00    -0.297 NA 
HETATM   18  N   UNL     1      -9.352   8.175  72.613  1.00  0.00    -0.244 NA 
HETATM   19  N   UNL     1      -8.096   8.475  73.018  1.00  0.00    -0.388 NA 
BRANCH  18  20
HETATM   20  C   UNL     1     -10.212   7.482  73.528  1.00  0.00    -0.324 C  
HETATM   21  O   UNL     1     -10.958   5.108  74.366  1.00  0.00    -0.256 OA 
HETATM   22  O   UNL     1      -8.944   5.287  73.000  1.00  0.00    -0.120 OA 
HETATM   23  O   UNL     1     -11.145   5.614  71.898  1.00  0.00    -0.256 OA 
HETATM   24  S   UNL     1     -10.480   5.763  73.170  1.00  0.00    -0.243 S  
ENDBRANCH  18  20
ENDBRANCH  14  15
ENDBRANCH  13  14
ENDBRANCH   4  13
BRANCH   8  25
HETATM   25  N   UNL     1     -10.228  15.122  67.169  1.00  0.00    -0.244 N  
HETATM   26  C   UNL     1      -9.812  15.970  66.164  1.00  0.00    -0.325 C  
HETATM   27  H   UNL     1      -9.516  14.724  67.780  1.00  0.00     0.000 HD 
HETATM   28  O   UNL     1     -10.574  16.459  65.337  1.00  0.00    -0.480 OA 
BRANCH  26  29
HETATM   29  C   UNL     1      -8.292  16.248  66.207  1.00  0.00    -0.308 C  
HETATM   30  O   UNL     1      -7.633  15.237  66.984  1.00  0.00    -0.205 OA 
HETATM   31  H   UNL     1      -6.699  15.408  67.010  1.00  0.00     0.000 HD 
BRANCH  29  32
HETATM   32  C   UNL     1      -7.977  17.612  66.785  1.00  0.00    -0.268 A  
HETATM   33  C   UNL     1      -7.436  18.613  65.965  1.00  0.00    -0.265 A  
HETATM   34  C   UNL     1      -8.229  17.914  68.134  1.00  0.00    -0.269 A  
HETATM   35  C   UNL     1      -7.922  19.173  68.654  1.00  0.00    -0.398 A  
HETATM   36  C   UNL     1      -7.367  20.150  67.832  1.00  0.00    -0.326 A  
HETATM   37  C   UNL     1      -7.129  19.872  66.487  1.00  0.00    -0.261 A  
ENDBRANCH  29  32
ENDBRANCH  26  29
ENDBRANCH   8  25
TORSDOF 7
ENDMDL
MODEL        7
REMARK 921   NORMALIZED FREE ENERGY PREDICTED BY IDOCK:   -7.46 KCAL/MOL
REMARK 922        TOTAL FREE ENERGY PREDICTED BY IDOCK:  -11.49 KCAL/MOL
REMARK 923 INTER-LIGAND FREE ENERGY PREDICTED BY IDOCK:   -9.99 KCAL/MOL
REMARK 924 INTRA-LIGAND FREE ENERGY PREDICTED BY IDOCK:   -1.50 KCAL/MOL
REMARK 927      BINDING AFFINITY PREDICTED BY RF-SCORE:    0.00 PKD
ROOT
HETATM    1  C   UNL     1     -10.550  10.333  67.112  1.00  0.00    -0.260 C  
HETATM    2  S   UNL     1     -11.430  10.484  68.681  1.00  0.00    -0.164 SA 
HETATM    3  C   UNL     1     -11.483  12.291  68.644  1.00  0.00    -0.307 C  
HETATM    4  C   UNL     1     -10.181  12.979  68.243  1.00  0.00    -0.246 C  
HETATM    5  C   UNL     1      -8.506  10.004  66.839  1.00  0.00    -0.125 C  
HETATM    6  CA  UNL     1      -9.151  12.351  67.600  1.00  0.00    -0.186 C  
HETATM    7  C   UNL     1      -7.857  13.100  67.344  1.00  0.00    -0.165 C  
HETATM    8  CA  UNL     1      -9.721   9.014  66.926  1.00  0.00    -0.200 C  
HETATM    9  N   UNL     1      -9.288  11.038  67.215  1.00  0.00    -0.156 N  
HETATM   10  O   UNL     1      -6.749  12.371  67.125  1.00  0.00    -0.148 OA 
HETATM   11  OXT UNL     1      -7.779  14.322  67.339  1.00  0.00    -0.177 OA 
HETATM   12  O   UNL     1      -7.308   9.961  66.671  1.00  0.00    -0.096 OA 
ENDROOT
BRANCH   4  13
HETATM   13  C   UNL     1     -10.115  14.397  68.826  1.00  0.00    -0.234 C  
BRANCH  13  14
HETATM   14  S   UNL     1     -11.602  15.405  68.481  1.00  0.00    -0.340 SA 
BRANCH  14  15
HETATM   15  C   UNL     1     -10.956  16.459  67.265  1.00  0.00    -0.118 A  
HETATM   16  N   UNL     1     -10.658  17.727  67.445  1.00  0.00    -0.361 NA 
HETATM   17  N   UNL     1     -10.143  18.175  66.255  1.00  0.00    -0.420 NA 
HETATM   18  N   UNL     1     -10.644  16.124  65.975  1.00  0.00    -0.315 NA 
HETATM   19  N   UNL     1     -10.118  17.205  65.355  1.00  0.00    -0.530 NA 
BRANCH  18  20
HETATM   20  C   UNL     1     -10.637  14.871  65.276  1.00  0.00    -0.401 C  
HETATM   21  O   UNL     1     -11.924  13.408  63.517  1.00  0.00    -0.483 OA 
HETATM   22  O   UNL     1     -12.505  15.768  63.724  1.00  0.00    -0.674 OA 
HETATM   23  O   UNL     1     -13.192  14.224  65.544  1.00  0.00    -0.641 OA 
HETATM   24  S   UNL     1     -12.179  14.405  64.530  1.00  0.00    -0.421 S  
ENDBRANCH  18  20
ENDBRANCH  14  15
ENDBRANCH  13  14
ENDBRANCH   4  13
BRANCH   8  25
HETATM   25  N   UNL     1      -9.697   8.090  68.088  1.00  0.00    -0.156 N  
HETATM   26  C   UNL     1     -10.042   6.756  68.033  1.00  0.00    -0.159 C  
HETATM   27  H   UNL     1      -9.406   8.469  68.989  1.00  0.00     0.000 HD 
HETATM   28  O   UNL     1     -10.460   6.210  67.017  1.00  0.00    -0.209 OA 
BRANCH  26  29
HETATM   29  C   UNL     1      -9.826   6.026  69.378  1.00  0.00    -0.163 C  
HETATM   30  O   UNL     1     -10.308   4.677  69.282  1.00  0.00    -0.102 OA 
HETATM   31  H   UNL     1     -10.176   4.228  70.108  1.00  0.00     0.000 HD 
BRANCH  29  32
HETATM   32  C   UNL     1     -10.521   6.726  70.527  1.00  0.00    -0.238 A  
HETATM   33  C   UNL     1      -9.763   7.382  71.509  1.00  0.00    -0.170 A  
HETATM   34  C   UNL     1     -11.922   6.755  70.632  1.00  0.00    -0.418 A  
HETATM   35  C   UNL     1     -12.545   7.396  71.704  1.00  0.00    -0.391 A  
HETATM   36  C   UNL     1     -11.778   8.026  72.681  1.00  0.00    -0.418 A  
HETATM   37  C   UNL     1     -10.388   8.023  72.580  1.00  0.00    -0.398 A  
ENDBRANCH  29  32
ENDBRANCH  26  29
ENDBRANCH   8  25
TORSDOF 7
ENDMDL
MODEL        8
REMARK 921   NORMALIZED FREE ENERGY PREDICTED BY IDOCK:   -7.44 KCAL/MOL
REMARK 922        TOTAL FREE ENERGY PREDICTED BY IDOCK:  -11.46 KCAL/MOL
REMARK 923 INTER-LIGAND FREE ENERGY PREDICTED BY IDOCK:  -10.30 KCAL/MOL
REMARK 924 INTRA-LIGAND FREE ENERGY PREDICTED BY IDOCK:   -1.16 KCAL/MOL
REMARK 927      BINDING AFFINITY PREDICTED BY RF-SCORE:    0.00 PKD
ROOT
HETATM    1  C   UNL     1     -11.699  14.448  67.072  1.00  0.00    -0.399 C  
HETATM    2  S   UNL     1     -10.414  13.351  66.437  1.00  0.00    -0.290 SA 
HETATM    3  C   UNL     1     -11.164  11.847  67.105  1.00  0.00    -0.319 C  
HETATM    4  C   UNL     1     -11.669  11.946  68.541  1.00  0.00    -0.388 C  
HETATM    5  C   UNL     1     -11.613  15.628  68.792  1.00  0.00    -0.384 C  
HETATM    6  CA  UNL     1     -11.906  13.127  69.188  1.00  0.00    -0.314 C  
HETATM    7  C   UNL     1     -12.304  13.114  70.652  1.00  0.00    -0.326 C  
HETATM    8  CA  UNL     1     -11.267  15.939  67.292  1.00  0.00    -0.094 C  
HETATM    9  N   UNL     1     -11.755  14.316  68.513  1.00  0.00    -0.322 N  
HETATM   10  O   UNL     1     -12.106  14.240  71.361  1.00  0.00    -0.340 OA 
HETATM   11  OXT UNL     1     -12.781  12.134  71.210  1.00  0.00    -0.366 OA 
HETATM   12  O   UNL     1     -11.629  16.200  69.858  1.00  0.00    -0.316 OA 
ENDROOT
BRANCH   4  13
HETATM   13  C   UNL     1     -11.688  10.563  69.206  1.00  0.00    -0.209 C  
BRANCH  13  14
HETATM   14  S   UNL     1     -10.040   9.778  69.321  1.00  0.00    -0.212 SA 
BRANCH  14  15
HETATM   15  C   UNL     1     -10.484   8.135  68.994  1.00  0.00    -0.198 A  
HETATM   16  N   UNL     1     -10.867   7.674  67.822  1.00  0.00    -0.124 NA 
HETATM   17  N   UNL     1     -11.084   6.330  67.988  1.00  0.00    -0.329 NA 
HETATM   18  N   UNL     1     -10.475   7.093  69.882  1.00  0.00    -0.217 NA 
HETATM   19  N   UNL     1     -10.837   5.961  69.235  1.00  0.00    -0.335 NA 
BRANCH  18  20
HETATM   20  C   UNL     1     -10.028   6.985  71.240  1.00  0.00    -0.189 C  
HETATM   21  O   UNL     1     -10.820   6.908  73.742  1.00  0.00    -0.289 OA 
HETATM   22  O   UNL     1     -12.482   6.618  71.980  1.00  0.00    -0.325 OA 
HETATM   23  O   UNL     1     -11.522   8.882  72.330  1.00  0.00    -0.348 OA 
HETATM   24  S   UNL     1     -11.206   7.480  72.473  1.00  0.00    -0.350 S  
ENDBRANCH  18  20
ENDBRANCH  14  15
ENDBRANCH  13  14
ENDBRANCH   4  13
BRANCH   8  25
HETATM   25  N   UNL     1      -9.840  16.250  67.028  1.00  0.00    -0.239 N  
HETATM   26  C   UNL     1      -9.396  17.353  66.330  1.00  0.00    -0.252 C  
HETATM   27  H   UNL     1      -9.139  15.602  67.388  1.00  0.00     0.000 HD 
HETATM   28  O   UNL     1     -10.150  18.166  65.806  1.00  0.00    -0.563 OA 
BRANCH  26  29
HETATM   29  C   UNL     1      -7.854  17.462  66.299  1.00  0.00    -0.295 C  
HETATM   30  O   UNL     1      -7.270  16.247  66.791  1.00  0.00    -0.214 OA 
HETATM   31  H   UNL     1      -6.323  16.314  66.772  1.00  0.00     0.000 HD 
BRANCH  29  32
HETATM   32  C   UNL     1      -7.347  18.631  67.117  1.00  0.00    -0.218 A  
HETATM   33  C   UNL     1      -7.021  18.451  68.470  1.00  0.00    -0.273 A  
HETATM   34  C   UNL     1      -7.173  19.905  66.551  1.00  0.00    -0.275 A  
HETATM   35  C   UNL     1      -6.715  20.974  67.322  1.00  0.00    -0.430 A  
HETATM   36  C   UNL     1      -6.415  20.784  68.668  1.00  0.00    -0.182 A  
HETATM   37  C   UNL     1      -6.563  19.521  69.241  1.00  0.00    -0.374 A  
ENDBRANCH  29  32
ENDBRANCH  26  29
ENDBRANCH   8  25
TORSDOF 7
ENDMDL
MODEL        9
REMARK 921   NORMALIZED FREE ENERGY PREDICTED BY IDOCK:   -7.43 KCAL/MOL
REMARK 922        TOTAL FREE ENERGY PREDICTED BY IDOCK:  -11.44 KCAL/MOL
REMARK 923 INTER-LIGAND FREE ENERGY PREDICTED BY IDOCK:  -10.85 KCAL/MOL
REMARK 924 INTRA-LIGAND FREE ENERGY PREDICTED BY IDOCK:   -0.59 KCAL/MOL
REMARK 927      BINDING AFFINITY PREDICTED BY RF-SCORE:    0.00 PKD
ROOT
HETATM    1  C   UNL     1     -11.845  14.324  68.418  1.00  0.00    -0.338 C  
HETATM    2  S   UNL     1     -10.211  13.620  68.110  1.00  0.00    -0.252 SA 
HETATM    3  C   UNL     1     -10.695  11.934  68.546  1.00  0.00    -0.224 C  
HETATM    4  C   UNL     1     -11.538  11.797  69.810  1.00  0.00    -0.372 C  
HETATM    5  C   UNL     1     -12.474  15.354  70.122  1.00  0.00    -0.335 C  
HETATM    6  CA  UNL     1     -12.213  12.832  70.394  1.00  0.00    -0.293 C  
HETATM    7  C   UNL     1     -12.933  12.611  71.711  1.00  0.00    -0.313 C  
HETATM    8  CA  UNL     1     -11.868  15.854  68.763  1.00  0.00    -0.268 C  
HETATM    9  N   UNL     1     -12.209  14.071  69.797  1.00  0.00    -0.342 N  
HETATM   10  O   UNL     1     -13.201  13.692  72.463  1.00  0.00    -0.482 OA 
HETATM   11  OXT UNL     1     -13.268  11.505  72.115  1.00  0.00    -0.505 OA 
HETATM   12  O   UNL     1     -12.888  15.821  71.158  1.00  0.00    -0.486 OA 
ENDROOT
BRANCH   4  13
HETATM   13  C   UNL     1     -11.366  10.403  70.428  1.00  0.00    -0.337 C  
BRANCH  13  14
HETATM   14  S   UNL     1      -9.785   9.593  69.992  1.00  0.00    -0.249 SA 
BRANCH  14  15
HETATM   15  C   UNL     1      -9.369   8.930  71.538  1.00  0.00    -0.265 A  
HETATM   16  N   UNL     1      -8.163   8.938  72.064  1.00  0.00    -0.370 NA 
HETATM   17  N   UNL     1      -8.277   8.356  73.301  1.00  0.00    -0.368 NA 
HETATM   18  N   UNL     1     -10.221   8.338  72.432  1.00  0.00    -0.306 NA 
HETATM   19  N   UNL     1      -9.528   7.998  73.542  1.00  0.00    -0.247 NA 
BRANCH  18  20
HETATM   20  C   UNL     1     -11.647   8.177  72.446  1.00  0.00    -0.399 C  
HETATM   21  O   UNL     1     -13.598   6.458  72.085  1.00  0.00    -0.011 OA 
HETATM   22  O   UNL     1     -11.321   5.612  72.311  1.00  0.00    -0.272 OA 
HETATM   23  O   UNL     1     -11.936   6.785  70.210  1.00  0.00    -0.352 OA 
HETATM   24  S   UNL     1     -12.259   6.731  71.617  1.00  0.00    -0.359 S  
ENDBRANCH  18  20
ENDBRANCH  14  15
ENDBRANCH  13  14
ENDBRANCH   4  13
BRANCH   8  25
HETATM   25  N   UNL     1     -10.545  16.518  68.870  1.00  0.00    -0.304 N  
HETATM   26  C   UNL     1     -10.169  17.634  68.152  1.00  0.00    -0.371 C  
HETATM   27  H   UNL     1      -9.867  16.122  69.521  1.00  0.00     0.000 HD 
HETATM   28  O   UNL     1     -10.881  18.159  67.302  1.00  0.00    -0.353 OA 
BRANCH  26  29
HETATM   29  C   UNL     1      -8.769  18.157  68.546  1.00  0.00    -0.296 C  
HETATM   30  O   UNL     1      -8.900  19.287  69.421  1.00  0.00    -0.098 OA 
HETATM   31  H   UNL     1      -8.040  19.609  69.664  1.00  0.00     0.000 HD 
BRANCH  29  32
HETATM   32  C   UNL     1      -7.944  18.549  67.338  1.00  0.00    -0.246 A  
HETATM   33  C   UNL     1      -7.150  17.591  66.690  1.00  0.00    -0.268 A  
HETATM   34  C   UNL     1      -7.964  19.859  66.829  1.00  0.00    -0.340 A  
HETATM   35  C   UNL     1      -7.189  20.206  65.721  1.00  0.00    -0.302 A  
HETATM   36  C   UNL     1      -6.390  19.249  65.101  1.00  0.00    -0.313 A  
HETATM   37  C   UNL     1      -6.375  17.941  65.583  1.00  0.00    -0.213 A  
ENDBRANCH  29  32
ENDBRANCH  26  29
ENDBRANCH   8  25
TORSDOF 7
ENDMDL
MODEL       10
REMARK 921   NORMALIZED FREE ENERGY PREDICTED BY IDOCK:   -7.41 KCAL/MOL
REMARK 922        TOTAL FREE ENERGY PREDICTED BY IDOCK:  -11.41 KCAL/MOL
REMARK 923 INTER-LIGAND FREE ENERGY PREDICTED BY IDOCK:  -10.64 KCAL/MOL
REMARK 924 INTRA-LIGAND FREE ENERGY PREDICTED BY IDOCK:   -0.78 KCAL/MOL
REMARK 927      BINDING AFFINITY PREDICTED BY RF-SCORE:    0.00 PKD
ROOT
HETATM    1  C   UNL     1     -11.232  13.508  67.814  1.00  0.00    -0.282 C  
HETATM    2  S   UNL     1      -9.453  13.401  68.103  1.00  0.00    -0.216 SA 
HETATM    3  C   UNL     1      -9.146  15.151  67.764  1.00  0.00    -0.179 C  
HETATM    4  C   UNL     1      -9.851  15.716  66.535  1.00  0.00    -0.278 C  
HETATM    5  C   UNL     1     -12.264  12.959  66.084  1.00  0.00    -0.317 C  
HETATM    6  CA  UNL     1     -10.919  15.119  65.924  1.00  0.00    -0.339 C  
HETATM    7  C   UNL     1     -11.477  15.709  64.643  1.00  0.00    -0.303 C  
HETATM    8  CA  UNL     1     -11.931  12.167  67.398  1.00  0.00    -0.098 C  
HETATM    9  N   UNL     1     -11.458  13.973  66.461  1.00  0.00    -0.342 N  
HETATM   10  O   UNL     1     -12.201  14.901  63.849  1.00  0.00    -0.567 OA 
HETATM   11  OXT UNL     1     -11.292  16.870  64.302  1.00  0.00    -1.202 OA 
HETATM   12  O   UNL     1     -12.850  12.782  65.040  1.00  0.00    -0.743 OA 
ENDROOT
BRANCH   4  13
HETATM   13  C   UNL     1      -9.087  16.925  65.979  1.00  0.00    -0.164 C  
BRANCH  13  14
HETATM   14  S   UNL     1      -7.342  17.006  66.522  1.00  0.00    -0.297 SA 
BRANCH  14  15
HETATM   15  C   UNL     1      -7.042  18.694  66.262  1.00  0.00    -0.245 A  
HETATM   16  N   UNL     1      -6.723  19.236  65.107  1.00  0.00    -0.451 NA 
HETATM   17  N   UNL     1      -6.615  20.585  65.330  1.00  0.00    -0.265 NA 
HETATM   18  N   UNL     1      -7.118  19.692  67.197  1.00  0.00    -0.203 NA 
HETATM   19  N   UNL     1      -6.865  20.877  66.596  1.00  0.00    -0.271 NA 
BRANCH  18  20
HETATM   20  C   UNL     1      -7.543  19.702  68.567  1.00  0.00    -0.337 C  
HETATM   21  O   UNL     1      -6.768  20.158  71.033  1.00  0.00    -0.246 OA 
HETATM   22  O   UNL     1      -5.348  20.919  69.201  1.00  0.00    -0.319 OA 
HETATM   23  O   UNL     1      -5.464  18.482  69.665  1.00  0.00    -0.198 OA 
HETATM   24  S   UNL     1      -6.239  19.696  69.771  1.00  0.00    -0.335 S  
ENDBRANCH  18  20
ENDBRANCH  14  15
ENDBRANCH  13  14
ENDBRANCH   4  13
BRANCH   8  25
HETATM   25  N   UNL     1     -11.038  10.995  67.217  1.00  0.00    -0.301 N  
HETATM   26  C   UNL     1     -10.893   9.974  68.132  1.00  0.00    -0.255 C  
HETATM   27  H   UNL     1     -10.494  10.942  66.356  1.00  0.00     0.000 HD 
HETATM   28  O   UNL     1     -11.453   9.963  69.223  1.00  0.00    -0.129 OA 
BRANCH  26  29
HETATM   29  C   UNL     1      -9.968   8.844  67.626  1.00  0.00    -0.196 C  
HETATM   30  O   UNL     1     -10.553   8.213  66.477  1.00  0.00    -0.398 OA 
HETATM   31  H   UNL     1      -9.985   7.518  66.167  1.00  0.00     0.000 HD 
BRANCH  29  32
HETATM   32  C   UNL     1      -9.704   7.801  68.692  1.00  0.00    -0.159 A  
HETATM   33  C   UNL     1     -10.475   6.629  68.733  1.00  0.00    -0.241 A  
HETATM   34  C   UNL     1      -8.685   7.966  69.646  1.00  0.00    -0.134 A  
HETATM   35  C   UNL     1      -8.463   6.999  70.628  1.00  0.00    -0.139 A  
HETATM   36  C   UNL     1      -9.249   5.851  70.667  1.00  0.00    -0.167 A  
HETATM   37  C   UNL     1     -10.251   5.664  69.717  1.00  0.00    -0.321 A  
ENDBRANCH  29  32
ENDBRANCH  26  29
ENDBRANCH   8  25
TORSDOF 7
ENDMDL
MODEL       11
REMARK 921   NORMALIZED FREE ENERGY PREDICTED BY IDOCK:   -7.38 KCAL/MOL
REMARK 922        TOTAL FREE ENERGY PREDICTED BY IDOCK:  -11.36 KCAL/MOL
REMARK 923 INTER-LIGAND FREE ENERGY PREDICTED BY IDOCK:  -10.36 KCAL/MOL
REMARK 924 INTRA-LIGAND FREE ENERGY PREDICTED BY IDOCK:   -1.00 KCAL/MOL
REMARK 927      BINDING AFFINITY PREDICTED BY RF-SCORE:    0.00 PKD
ROOT
HETATM    1  C   UNL     1      -8.966  14.895  66.388  1.00  0.00    -0.219 C  
HETATM    2  S   UNL     1      -9.010  14.851  68.192  1.00  0.00    -0.181 SA 
HETATM    3  C   UNL     1      -9.839  13.247  68.277  1.00  0.00    -0.231 C  
HETATM    4  C   UNL     1     -11.011  13.060  67.319  1.00  0.00    -0.288 C  
HETATM    5  C   UNL     1     -10.263  15.929  65.119  1.00  0.00    -0.163 C  
HETATM    6  CA  UNL     1     -11.230  13.841  66.218  1.00  0.00    -0.306 C  
HETATM    7  C   UNL     1     -12.486  13.639  65.392  1.00  0.00    -0.499 C  
HETATM    8  CA  UNL     1      -8.880  16.325  65.748  1.00  0.00     0.032 C  
HETATM    9  N   UNL     1     -10.323  14.820  65.886  1.00  0.00    -0.302 N  
HETATM   10  O   UNL     1     -12.890  14.658  64.614  1.00  0.00    -0.559 OA 
HETATM   11  OXT UNL     1     -13.143  12.605  65.410  1.00  0.00    -0.463 OA 
HETATM   12  O   UNL     1     -11.093  16.402  64.377  1.00  0.00    -0.825 OA 
ENDROOT
BRANCH   4  13
HETATM   13  C   UNL     1     -11.996  12.017  67.863  1.00  0.00    -0.134 C  
BRANCH  13  14
HETATM   14  S   UNL     1     -11.187  10.538  68.573  1.00  0.00    -0.257 SA 
BRANCH  14  15
HETATM   15  C   UNL     1     -11.963  10.506  70.123  1.00  0.00    -0.316 A  
HETATM   16  N   UNL     1     -12.603  11.517  70.669  1.00  0.00    -0.282 NA 
HETATM   17  N   UNL     1     -13.096  11.061  71.865  1.00  0.00    -0.483 NA 
HETATM   18  N   UNL     1     -12.044   9.437  70.975  1.00  0.00    -0.301 NA 
HETATM   19  N   UNL     1     -12.772   9.792  72.058  1.00  0.00    -0.389 NA 
BRANCH  18  20
HETATM   20  C   UNL     1     -11.648   8.064  70.844  1.00  0.00    -0.269 C  
HETATM   21  O   UNL     1      -9.760   6.330  71.409  1.00  0.00    -0.172 OA 
HETATM   22  O   UNL     1      -9.742   8.490  72.544  1.00  0.00    -0.288 OA 
HETATM   23  O   UNL     1      -9.118   8.419  70.141  1.00  0.00    -0.146 OA 
HETATM   24  S   UNL     1      -9.926   7.737  71.125  1.00  0.00    -0.176 S  
ENDBRANCH  18  20
ENDBRANCH  14  15
ENDBRANCH  13  14
ENDBRANCH   4  13
BRANCH   8  25
HETATM   25  N   UNL     1      -8.924  17.466  66.696  1.00  0.00    -0.243 N  
HETATM   26  C   UNL     1      -8.528  18.752  66.391  1.00  0.00    -0.284 C  
HETATM   27  H   UNL     1      -9.272  17.288  67.638  1.00  0.00     0.000 HD 
HETATM   28  O   UNL     1      -8.041  19.067  65.310  1.00  0.00     0.090 OA 
BRANCH  26  29
HETATM   29  C   UNL     1      -8.779  19.746  67.546  1.00  0.00    -0.330 C  
HETATM   30  O   UNL     1      -9.347  20.959  67.030  1.00  0.00    -0.651 OA 
HETATM   31  H   UNL     1      -9.502  21.571  67.740  1.00  0.00     0.000 HD 
BRANCH  29  32
HETATM   32  C   UNL     1      -7.511  20.071  68.308  1.00  0.00    -0.279 A  
HETATM   33  C   UNL     1      -7.215  19.390  69.499  1.00  0.00    -0.199 A  
HETATM   34  C   UNL     1      -6.600  21.034  67.843  1.00  0.00    -0.333 A  
HETATM   35  C   UNL     1      -5.441  21.328  68.563  1.00  0.00    -0.259 A  
HETATM   36  C   UNL     1      -5.171  20.659  69.753  1.00  0.00    -0.366 A  
HETATM   37  C   UNL     1      -6.055  19.686  70.218  1.00  0.00    -0.292 A  
ENDBRANCH  29  32
ENDBRANCH  26  29
ENDBRANCH   8  25
TORSDOF 7
ENDMDL
MODEL       12
REMARK 921   NORMALIZED FREE ENERGY PREDICTED BY IDOCK:   -7.37 KCAL/MOL
REMARK 922        TOTAL FREE ENERGY PREDICTED BY IDOCK:  -11.35 KCAL/MOL
REMARK 923 INTER-LIGAND FREE ENERGY PREDICTED BY IDOCK:  -10.87 KCAL/MOL
REMARK 924 INTRA-LIGAND FREE ENERGY PREDICTED BY IDOCK:   -0.48 KCAL/MOL
REMARK 927      BINDING AFFINITY PREDICTED BY RF-SCORE:    0.00 PKD
ROOT
HETATM    1  C   UNL     1     -10.365  14.096  66.704  1.00  0.00    -0.277 C  
HETATM    2  S   UNL     1      -9.688  12.895  67.869  1.00  0.00    -0.223 SA 
HETATM    3  C   UNL     1      -8.813  11.944  66.604  1.00  0.00    -0.191 C  
HETATM    4  C   UNL     1      -9.605  11.656  65.332  1.00  0.00    -0.228 C  
HETATM    5  C   UNL     1     -12.290  14.125  65.896  1.00  0.00    -0.463 C  
HETATM    6  CA  UNL     1     -10.732  12.336  64.962  1.00  0.00    -0.298 C  
HETATM    7  C   UNL     1     -11.505  11.897  63.733  1.00  0.00    -0.454 C  
HETATM    8  CA  UNL     1     -11.679  14.819  67.165  1.00  0.00    -0.334 C  
HETATM    9  N   UNL     1     -11.169  13.395  65.724  1.00  0.00    -0.289 N  
HETATM   10  O   UNL     1     -12.792  12.272  63.641  1.00  0.00    -0.753 OA 
HETATM   11  OXT UNL     1     -11.016  11.217  62.840  1.00  0.00     0.006 OA 
HETATM   12  O   UNL     1     -13.350  14.066  65.314  1.00  0.00    -0.741 OA 
ENDROOT
BRANCH   4  13
HETATM   13  C   UNL     1      -9.079  10.391  64.640  1.00  0.00    -0.222 C  
BRANCH  13  14
HETATM   14  S   UNL     1      -7.648   9.629  65.488  1.00  0.00    -0.113 SA 
BRANCH  14  15
HETATM   15  C   UNL     1      -7.985   7.958  65.168  1.00  0.00    -0.132 A  
HETATM   16  N   UNL     1      -7.779   7.352  64.018  1.00  0.00    -0.116 NA 
HETATM   17  N   UNL     1      -8.138   6.042  64.203  1.00  0.00    -0.117 NA 
HETATM   18  N   UNL     1      -8.478   7.039  66.054  1.00  0.00    -0.134 NA 
HETATM   19  N   UNL     1      -8.554   5.835  65.443  1.00  0.00    -0.151 NA 
BRANCH  18  20
HETATM   20  C   UNL     1      -8.757   7.105  67.460  1.00  0.00    -0.121 C  
HETATM   21  O   UNL     1     -10.677   7.208  69.247  1.00  0.00    -0.224 OA 
HETATM   22  O   UNL     1     -11.246   6.603  66.953  1.00  0.00    -0.391 OA 
HETATM   23  O   UNL     1     -10.643   8.965  67.431  1.00  0.00    -0.277 OA 
HETATM   24  S   UNL     1     -10.402   7.616  67.889  1.00  0.00    -0.206 S  
ENDBRANCH  18  20
ENDBRANCH  14  15
ENDBRANCH  13  14
ENDBRANCH   4  13
BRANCH   8  25
HETATM   25  N   UNL     1     -12.247  14.373  68.461  1.00  0.00    -0.588 N  
HETATM   26  C   UNL     1     -11.862  14.860  69.693  1.00  0.00    -0.318 C  
HETATM   27  H   UNL     1     -12.973  13.657  68.440  1.00  0.00     0.000 HD 
HETATM   28  O   UNL     1     -10.961  15.679  69.841  1.00  0.00    -0.262 OA 
BRANCH  26  29
HETATM   29  C   UNL     1     -12.698  14.277  70.855  1.00  0.00    -0.357 C  
HETATM   30  O   UNL     1     -12.259  14.842  72.100  1.00  0.00    -0.339 OA 
HETATM   31  H   UNL     1     -12.772  14.484  72.815  1.00  0.00     0.000 HD 
BRANCH  29  32
HETATM   32  C   UNL     1     -12.603  12.768  70.927  1.00  0.00    -0.342 A  
HETATM   33  C   UNL     1     -13.257  12.072  71.956  1.00  0.00    -0.481 A  
HETATM   34  C   UNL     1     -11.883  12.030  69.972  1.00  0.00    -0.392 A  
HETATM   35  C   UNL     1     -11.798  10.640  70.060  1.00  0.00    -0.403 A  
HETATM   36  C   UNL     1     -12.436   9.966  71.098  1.00  0.00    -0.464 A  
HETATM   37  C   UNL     1     -13.170  10.681  72.042  1.00  0.00    -0.473 A  
ENDBRANCH  29  32
ENDBRANCH  26  29
ENDBRANCH   8  25
TORSDOF 7
ENDMDL
MODEL       13
REMARK 921   NORMALIZED FREE ENERGY PREDICTED BY IDOCK:   -7.33 KCAL/MOL
REMARK 922        TOTAL FREE ENERGY PREDICTED BY IDOCK:  -11.30 KCAL/MOL
REMARK 923 INTER-LIGAND FREE ENERGY PREDICTED BY IDOCK:  -10.19 KCAL/MOL
REMARK 924 INTRA-LIGAND FREE ENERGY PREDICTED BY IDOCK:   -1.11 KCAL/MOL
REMARK 927      BINDING AFFINITY PREDICTED BY RF-SCORE:    0.00 PKD
ROOT
HETATM    1  C   UNL     1     -11.971  13.675  67.665  1.00  0.00    -0.351 C  
HETATM    2  S   UNL     1     -10.637  12.519  67.289  1.00  0.00    -0.230 SA 
HETATM    3  C   UNL     1     -11.393  11.134  68.172  1.00  0.00    -0.309 C  
HETATM    4  C   UNL     1     -11.971  11.465  69.544  1.00  0.00    -0.409 C  
HETATM    5  C   UNL     1     -11.991  15.136  69.156  1.00  0.00    -0.274 C  
HETATM    6  CA  UNL     1     -12.260  12.734  69.966  1.00  0.00    -0.209 C  
HETATM    7  C   UNL     1     -12.729  12.963  71.390  1.00  0.00    -0.270 C  
HETATM    8  CA  UNL     1     -11.576  15.193  67.643  1.00  0.00    -0.277 C  
HETATM    9  N   UNL     1     -12.096  13.792  69.103  1.00  0.00    -0.352 N  
HETATM   10  O   UNL     1     -12.586  14.198  71.901  1.00  0.00    -0.325 OA 
HETATM   11  OXT UNL     1     -13.217  12.081  72.086  1.00  0.00    -0.495 OA 
HETATM   12  O   UNL     1     -12.069  15.882  70.106  1.00  0.00    -0.344 OA 
ENDROOT
BRANCH   4  13
HETATM   13  C   UNL     1     -11.998  10.218  70.437  1.00  0.00    -0.303 C  
BRANCH  13  14
HETATM   14  S   UNL     1     -10.340   9.548  70.819  1.00  0.00    -0.293 SA 
BRANCH  14  15
HETATM   15  C   UNL     1     -10.802   8.099  71.651  1.00  0.00    -0.249 A  
HETATM   16  N   UNL     1     -10.826   7.954  72.959  1.00  0.00    -0.385 NA 
HETATM   17  N   UNL     1     -11.284   6.683  73.197  1.00  0.00    -0.160 NA 
HETATM   18  N   UNL     1     -11.227   6.929  71.082  1.00  0.00    -0.262 NA 
HETATM   19  N   UNL     1     -11.544   6.053  72.063  1.00  0.00    -0.298 NA 
BRANCH  18  20
HETATM   20  C   UNL     1     -11.519   6.564  69.726  1.00  0.00    -0.379 C  
HETATM   21  O   UNL     1     -10.640   5.225  67.646  1.00  0.00    -0.156 OA 
HETATM   22  O   UNL     1      -9.590   4.840  69.814  1.00  0.00    -0.142 OA 
HETATM   23  O   UNL     1      -9.134   6.987  68.652  1.00  0.00    -0.134 OA 
HETATM   24  S   UNL     1     -10.140   5.959  68.785  1.00  0.00    -0.190 S  
ENDBRANCH  18  20
ENDBRANCH  14  15
ENDBRANCH  13  14
ENDBRANCH   4  13
BRANCH   8  25
HETATM   25  N   UNL     1     -10.143  15.490  67.395  1.00  0.00    -0.243 N  
HETATM   26  C   UNL     1      -9.660  16.128  66.272  1.00  0.00    -0.306 C  
HETATM   27  H   UNL     1      -9.469  15.202  68.104  1.00  0.00     0.000 HD 
HETATM   28  O   UNL     1     -10.371  16.467  65.332  1.00  0.00    -0.558 OA 
BRANCH  26  29
HETATM   29  C   UNL     1      -8.137  16.385  66.337  1.00  0.00    -0.322 C  
HETATM   30  O   UNL     1      -7.490  15.304  67.025  1.00  0.00    -0.198 OA 
HETATM   31  H   UNL     1      -6.554  15.461  67.065  1.00  0.00     0.000 HD 
BRANCH  29  32
HETATM   32  C   UNL     1      -7.806  17.690  67.030  1.00  0.00    -0.239 A  
HETATM   33  C   UNL     1      -8.038  18.910  66.376  1.00  0.00    -0.306 A  
HETATM   34  C   UNL     1      -7.282  17.718  68.334  1.00  0.00    -0.250 A  
HETATM   35  C   UNL     1      -6.972  18.930  68.953  1.00  0.00    -0.342 A  
HETATM   36  C   UNL     1      -7.189  20.131  68.283  1.00  0.00    -0.280 A  
HETATM   37  C   UNL     1      -7.727  20.121  66.997  1.00  0.00    -0.350 A  
ENDBRANCH  29  32
ENDBRANCH  26  29
ENDBRANCH   8  25
TORSDOF 7
ENDMDL
MODEL       14
REMARK 921   NORMALIZED FREE ENERGY PREDICTED BY IDOCK:   -7.33 KCAL/MOL
REMARK 922        TOTAL FREE ENERGY PREDICTED BY IDOCK:  -11.30 KCAL/MOL
REMARK 923 INTER-LIGAND FREE ENERGY PREDICTED BY IDOCK:  -10.21 KCAL/MOL
REMARK 924 INTRA-LIGAND FREE ENERGY PREDICTED BY IDOCK:   -1.09 KCAL/MOL
REMARK 927      BINDING AFFINITY PREDICTED BY RF-SCORE:    0.00 PKD
ROOT
HETATM    1  C   UNL     1     -11.807  14.356  67.451  1.00  0.00    -0.400 C  
HETATM    2  S   UNL     1     -10.594  13.149  66.876  1.00  0.00    -0.264 SA 
HETATM    3  C   UNL     1     -11.428  11.734  67.633  1.00  0.00    -0.300 C  
HETATM    4  C   UNL     1     -11.917  11.946  69.063  1.00  0.00    -0.321 C  
HETATM    5  C   UNL     1     -11.638  15.627  69.099  1.00  0.00    -0.383 C  
HETATM    6  CA  UNL     1     -12.078  13.175  69.641  1.00  0.00    -0.255 C  
HETATM    7  C   UNL     1     -12.465  13.270  71.105  1.00  0.00    -0.308 C  
HETATM    8  CA  UNL     1     -11.284  15.829  67.583  1.00  0.00    -0.246 C  
HETATM    9  N   UNL     1     -11.860  14.311  68.898  1.00  0.00    -0.325 N  
HETATM   10  O   UNL     1     -12.195  14.420  71.746  1.00  0.00    -0.339 OA 
HETATM   11  OXT UNL     1     -12.997  12.355  71.720  1.00  0.00    -0.380 OA 
HETATM   12  O   UNL     1     -11.612  16.259  70.131  1.00  0.00    -0.289 OA 
ENDROOT
BRANCH   4  13
HETATM   13  C   UNL     1     -12.013  10.608  69.807  1.00  0.00    -0.291 C  
BRANCH  13  14
HETATM   14  S   UNL     1     -10.391   9.839  70.156  1.00  0.00    -0.296 SA 
BRANCH  14  15
HETATM   15  C   UNL     1     -10.889   8.188  70.328  1.00  0.00    -0.244 A  
HETATM   16  N   UNL     1     -11.888   7.774  71.077  1.00  0.00    -0.288 NA 
HETATM   17  N   UNL     1     -11.967   6.416  70.899  1.00  0.00    -0.282 NA 
HETATM   18  N   UNL     1     -10.343   7.099  69.702  1.00  0.00    -0.209 NA 
HETATM   19  N   UNL     1     -11.039   5.995  70.054  1.00  0.00    -0.377 NA 
BRANCH  18  20
HETATM   20  C   UNL     1      -9.334   6.972  68.690  1.00  0.00    -0.136 C  
HETATM   21  O   UNL     1      -8.852   7.218  66.121  1.00  0.00    -0.156 OA 
HETATM   22  O   UNL     1     -10.903   8.183  67.025  1.00  0.00    -0.265 OA 
HETATM   23  O   UNL     1     -10.749   5.712  66.839  1.00  0.00    -0.283 OA 
HETATM   24  S   UNL     1      -9.933   6.889  67.021  1.00  0.00    -0.214 S  
ENDBRANCH  18  20
ENDBRANCH  14  15
ENDBRANCH  13  14
ENDBRANCH   4  13
BRANCH   8  25
HETATM   25  N   UNL     1      -9.842  16.037  67.297  1.00  0.00    -0.233 N  
HETATM   26  C   UNL     1      -9.354  16.768  66.234  1.00  0.00    -0.279 C  
HETATM   27  H   UNL     1      -9.166  15.610  67.930  1.00  0.00     0.000 HD 
HETATM   28  O   UNL     1     -10.073  17.277  65.380  1.00  0.00    -0.574 OA 
BRANCH  26  29
HETATM   29  C   UNL     1      -7.813  16.890  66.248  1.00  0.00    -0.311 C  
HETATM   30  O   UNL     1      -7.252  15.868  67.085  1.00  0.00    -0.196 OA 
HETATM   31  H   UNL     1      -6.305  15.943  67.094  1.00  0.00     0.000 HD 
BRANCH  29  32
HETATM   32  C   UNL     1      -7.352  18.248  66.735  1.00  0.00    -0.237 A  
HETATM   33  C   UNL     1      -7.054  18.442  68.092  1.00  0.00    -0.256 A  
HETATM   34  C   UNL     1      -7.195  19.331  65.854  1.00  0.00    -0.305 A  
HETATM   35  C   UNL     1      -6.779  20.578  66.321  1.00  0.00    -0.288 A  
HETATM   36  C   UNL     1      -6.506  20.760  67.674  1.00  0.00    -0.366 A  
HETATM   37  C   UNL     1      -6.638  19.690  68.559  1.00  0.00    -0.314 A  
ENDBRANCH  29  32
ENDBRANCH  26  29
ENDBRANCH   8  25
TORSDOF 7
ENDMDL
MODEL       15
REMARK 921   NORMALIZED FREE ENERGY PREDICTED BY IDOCK:   -7.33 KCAL/MOL
REMARK 922        TOTAL FREE ENERGY PREDICTED BY IDOCK:  -11.29 KCAL/MOL
REMARK 923 INTER-LIGAND FREE ENERGY PREDICTED BY IDOCK:  -10.26 KCAL/MOL
REMARK 924 INTRA-LIGAND FREE ENERGY PREDICTED BY IDOCK:   -1.04 KCAL/MOL
REMARK 927      BINDING AFFINITY PREDICTED BY RF-SCORE:    0.00 PKD
ROOT
HETATM    1  C   UNL     1     -11.704  12.645  66.697  1.00  0.00    -0.398 C  
HETATM    2  S   UNL     1     -10.099  12.099  66.076  1.00  0.00    -0.240 SA 
HETATM    3  C   UNL     1     -10.342  10.371  66.551  1.00  0.00    -0.224 C  
HETATM    4  C   UNL     1     -10.920  10.146  67.945  1.00  0.00    -0.335 C  
HETATM    5  C   UNL     1     -12.096  13.599  68.513  1.00  0.00    -0.286 C  
HETATM    6  CA  UNL     1     -11.565  11.111  68.669  1.00  0.00    -0.315 C  
HETATM    7  C   UNL     1     -12.006  10.813  70.090  1.00  0.00    -0.349 C  
HETATM    8  CA  UNL     1     -11.799  14.164  67.078  1.00  0.00    -0.429 C  
HETATM    9  N   UNL     1     -11.782  12.349  68.113  1.00  0.00    -0.341 N  
HETATM   10  O   UNL     1     -12.225  11.859  70.905  1.00  0.00    -0.357 OA 
HETATM   11  OXT UNL     1     -12.159   9.678  70.521  1.00  0.00    -0.231 OA 
HETATM   12  O   UNL     1     -12.351  14.018  69.619  1.00  0.00    -0.334 OA 
ENDROOT
BRANCH   4  13
HETATM   13  C   UNL     1     -10.513   8.770  68.486  1.00  0.00    -0.175 C  
BRANCH  13  14
HETATM   14  S   UNL     1      -8.704   8.538  68.626  1.00  0.00    -0.139 SA 
BRANCH  14  15
HETATM   15  C   UNL     1      -8.573   8.349  70.344  1.00  0.00    -0.136 A  
HETATM   16  N   UNL     1      -8.684   9.322  71.223  1.00  0.00    -0.308 NA 
HETATM   17  N   UNL     1      -8.558   8.742  72.459  1.00  0.00    -0.399 NA 
HETATM   18  N   UNL     1      -8.367   7.179  71.025  1.00  0.00    -0.123 NA 
HETATM   19  N   UNL     1      -8.376   7.435  72.353  1.00  0.00    -0.103 NA 
BRANCH  18  20
HETATM   20  C   UNL     1      -8.306   5.810  70.599  1.00  0.00    -0.120 C  
HETATM   21  O   UNL     1      -9.748   3.691  70.032  1.00  0.00    -0.190 OA 
HETATM   22  O   UNL     1     -10.868   5.849  70.231  1.00  0.00    -0.284 OA 
HETATM   23  O   UNL     1     -10.040   4.759  72.303  1.00  0.00    -0.174 OA 
HETATM   24  S   UNL     1      -9.775   4.855  70.887  1.00  0.00    -0.208 S  
ENDBRANCH  18  20
ENDBRANCH  14  15
ENDBRANCH  13  14
ENDBRANCH   4  13
BRANCH   8  25
HETATM   25  N   UNL     1     -10.544  14.947  66.957  1.00  0.00    -0.283 N  
HETATM   26  C   UNL     1     -10.155  15.632  65.825  1.00  0.00    -0.366 C  
HETATM   27  H   UNL     1      -9.926  14.980  67.768  1.00  0.00     0.000 HD 
HETATM   28  O   UNL     1     -10.791  15.615  64.776  1.00  0.00    -0.437 OA 
BRANCH  26  29
HETATM   29  C   UNL     1      -8.850  16.433  66.028  1.00  0.00    -0.261 C  
HETATM   30  O   UNL     1      -7.996  15.746  66.956  1.00  0.00    -0.193 OA 
HETATM   31  H   UNL     1      -7.194  16.238  67.081  1.00  0.00     0.000 HD 
BRANCH  29  32
HETATM   32  C   UNL     1      -9.113  17.837  66.533  1.00  0.00    -0.281 A  
HETATM   33  C   UNL     1     -10.299  18.498  66.180  1.00  0.00    -0.457 A  
HETATM   34  C   UNL     1      -8.199  18.501  67.369  1.00  0.00    -0.259 A  
HETATM   35  C   UNL     1      -8.453  19.798  67.816  1.00  0.00    -0.359 A  
HETATM   36  C   UNL     1      -9.625  20.449  67.440  1.00  0.00    -0.584 A  
HETATM   37  C   UNL     1     -10.550  19.796  66.627  1.00  0.00    -0.578 A  
ENDBRANCH  29  32
ENDBRANCH  26  29
ENDBRANCH   8  25
TORSDOF 7
ENDMDL
MODEL       16
REMARK 921   NORMALIZED FREE ENERGY PREDICTED BY IDOCK:   -7.29 KCAL/MOL
REMARK 922        TOTAL FREE ENERGY PREDICTED BY IDOCK:  -11.25 KCAL/MOL
REMARK 923 INTER-LIGAND FREE ENERGY PREDICTED BY IDOCK:  -10.31 KCAL/MOL
REMARK 924 INTRA-LIGAND FREE ENERGY PREDICTED BY IDOCK:   -0.93 KCAL/MOL
REMARK 927      BINDING AFFINITY PREDICTED BY RF-SCORE:    0.00 PKD
ROOT
HETATM    1  C   UNL     1      -7.899   9.229  67.175  1.00  0.00    -0.099 C  
HETATM    2  S   UNL     1      -9.533   9.728  66.592  1.00  0.00    -0.182 SA 
HETATM    3  C   UNL     1      -9.015  11.393  66.114  1.00  0.00    -0.201 C  
HETATM    4  C   UNL     1      -8.130  12.121  67.122  1.00  0.00    -0.175 C  
HETATM    5  C   UNL     1      -7.228   9.172  69.151  1.00  0.00    -0.067 C  
HETATM    6  CA  UNL     1      -7.449  11.498  68.131  1.00  0.00    -0.101 C  
HETATM    7  C   UNL     1      -6.684  12.328  69.144  1.00  0.00    -0.095 C  
HETATM    8  CA  UNL     1      -7.883   8.076  68.238  1.00  0.00    -0.123 C  
HETATM    9  N   UNL     1      -7.487  10.127  68.234  1.00  0.00    -0.082 N  
HETATM   10  O   UNL     1      -6.405  11.761  70.331  1.00  0.00    -0.218 OA 
HETATM   11  OXT UNL     1      -6.323  13.480  68.934  1.00  0.00    -0.086 OA 
HETATM   12  O   UNL     1      -6.786   9.275  70.273  1.00  0.00    -0.051 OA 
ENDROOT
BRANCH   4  13
HETATM   13  C   UNL     1      -8.265  13.641  66.963  1.00  0.00    -0.037 C  
BRANCH  13  14
HETATM   14  S   UNL     1      -9.797  14.325  67.691  1.00  0.00    -0.227 SA 
BRANCH  14  15
HETATM   15  C   UNL     1     -10.181  15.509  66.485  1.00  0.00    -0.283 A  
HETATM   16  N   UNL     1      -9.997  16.806  66.613  1.00  0.00    -0.280 NA 
HETATM   17  N   UNL     1     -10.391  17.370  65.427  1.00  0.00    -0.632 NA 
HETATM   18  N   UNL     1     -10.696  15.271  65.239  1.00  0.00    -0.385 NA 
HETATM   19  N   UNL     1     -10.807  16.445  64.577  1.00  0.00    -0.731 NA 
BRANCH  18  20
HETATM   20  C   UNL     1     -10.967  14.059  64.521  1.00  0.00    -0.350 C  
HETATM   21  O   UNL     1     -12.795  12.241  64.026  1.00  0.00    -0.696 OA 
HETATM   22  O   UNL     1     -13.480  14.331  65.082  1.00  0.00    -0.459 OA 
HETATM   23  O   UNL     1     -12.190  12.697  66.437  1.00  0.00    -0.550 OA 
HETATM   24  S   UNL     1     -12.383  13.143  65.077  1.00  0.00    -0.463 S  
ENDBRANCH  18  20
ENDBRANCH  14  15
ENDBRANCH  13  14
ENDBRANCH   4  13
BRANCH   8  25
HETATM   25  N   UNL     1      -9.210   7.590  68.692  1.00  0.00    -0.144 N  
HETATM   26  C   UNL     1      -9.457   7.031  69.928  1.00  0.00    -0.157 C  
HETATM   27  H   UNL     1      -9.994   7.677  68.045  1.00  0.00     0.000 HD 
HETATM   28  O   UNL     1      -8.580   6.826  70.762  1.00  0.00    -0.138 OA 
BRANCH  26  29
HETATM   29  C   UNL     1     -10.951   6.709  70.153  1.00  0.00    -0.305 C  
HETATM   30  O   UNL     1     -11.563   6.343  68.907  1.00  0.00    -0.576 OA 
HETATM   31  H   UNL     1     -12.482   6.145  69.045  1.00  0.00     0.000 HD 
BRANCH  29  32
HETATM   32  C   UNL     1     -11.703   7.876  70.758  1.00  0.00    -0.230 A  
HETATM   33  C   UNL     1     -11.287   9.190  70.496  1.00  0.00    -0.300 A  
HETATM   34  C   UNL     1     -12.831   7.681  71.573  1.00  0.00    -0.376 A  
HETATM   35  C   UNL     1     -13.506   8.768  72.131  1.00  0.00    -0.469 A  
HETATM   36  C   UNL     1     -13.068  10.065  71.878  1.00  0.00    -0.563 A  
HETATM   37  C   UNL     1     -11.962  10.276  71.056  1.00  0.00    -0.483 A  
ENDBRANCH  29  32
ENDBRANCH  26  29
ENDBRANCH   8  25
TORSDOF 7
ENDMDL
MODEL       17
REMARK 921   NORMALIZED FREE ENERGY PREDICTED BY IDOCK:   -7.29 KCAL/MOL
REMARK 922        TOTAL FREE ENERGY PREDICTED BY IDOCK:  -11.24 KCAL/MOL
REMARK 923 INTER-LIGAND FREE ENERGY PREDICTED BY IDOCK:  -10.81 KCAL/MOL
REMARK 924 INTRA-LIGAND FREE ENERGY PREDICTED BY IDOCK:   -0.43 KCAL/MOL
REMARK 927      BINDING AFFINITY PREDICTED BY RF-SCORE:    0.00 PKD
ROOT
HETATM    1  C   UNL     1      -9.047   8.921  71.296  1.00  0.00    -0.253 C  
HETATM    2  S   UNL     1      -8.681   8.659  69.548  1.00  0.00    -0.141 SA 
HETATM    3  C   UNL     1      -9.258  10.294  69.032  1.00  0.00    -0.183 C  
HETATM    4  C   UNL     1     -10.580  10.747  69.644  1.00  0.00    -0.222 C  
HETATM    5  C   UNL     1     -10.715   8.243  72.352  1.00  0.00    -0.341 C  
HETATM    6  CA  UNL     1     -11.137  10.190  70.761  1.00  0.00    -0.298 C  
HETATM    7  C   UNL     1     -12.509  10.644  71.223  1.00  0.00    -0.410 C  
HETATM    8  CA  UNL     1      -9.290   7.621  72.138  1.00  0.00    -0.145 C  
HETATM    9  N   UNL     1     -10.460   9.204  71.440  1.00  0.00    -0.323 N  
HETATM   10  O   UNL     1     -13.204   9.814  72.020  1.00  0.00    -0.416 OA 
HETATM   11  OXT UNL     1     -13.007  11.714  70.897  1.00  0.00    -0.214 OA 
HETATM   12  O   UNL     1     -11.743   7.981  72.934  1.00  0.00    -0.369 OA 
ENDROOT
BRANCH   4  13
HETATM   13  C   UNL     1     -11.278  11.767  68.733  1.00  0.00    -0.251 C  
BRANCH  13  14
HETATM   14  S   UNL     1     -10.257  12.306  67.314  1.00  0.00    -0.211 SA 
BRANCH  14  15
HETATM   15  C   UNL     1     -11.516  12.816  66.236  1.00  0.00    -0.354 A  
HETATM   16  N   UNL     1     -12.227  12.016  65.471  1.00  0.00    -0.421 NA 
HETATM   17  N   UNL     1     -13.130  12.812  64.814  1.00  0.00    -0.836 NA 
HETATM   18  N   UNL     1     -11.963  14.097  66.048  1.00  0.00    -0.396 NA 
HETATM   19  N   UNL     1     -12.988  14.080  65.166  1.00  0.00    -0.771 NA 
BRANCH  18  20
HETATM   20  C   UNL     1     -11.650  15.335  66.701  1.00  0.00    -0.036 C  
HETATM   21  O   UNL     1     -10.478  17.665  66.398  1.00  0.00    -0.341 OA 
HETATM   22  O   UNL     1     -10.929  16.316  64.416  1.00  0.00    -0.708 OA 
HETATM   23  O   UNL     1      -9.121  15.581  65.952  1.00  0.00    -0.323 OA 
HETATM   24  S   UNL     1     -10.373  16.301  65.934  1.00  0.00    -0.359 S  
ENDBRANCH  18  20
ENDBRANCH  14  15
ENDBRANCH  13  14
ENDBRANCH   4  13
BRANCH   8  25
HETATM   25  N   UNL     1      -9.268   6.342  71.384  1.00  0.00    -0.149 N  
HETATM   26  C   UNL     1      -9.922   5.193  71.775  1.00  0.00    -0.187 C  
HETATM   27  H   UNL     1      -8.732   6.312  70.517  1.00  0.00     0.000 HD 
HETATM   28  O   UNL     1     -10.547   5.098  72.826  1.00  0.00    -0.205 OA 
BRANCH  26  29
HETATM   29  C   UNL     1      -9.796   4.051  70.741  1.00  0.00    -0.163 C  
HETATM   30  O   UNL     1      -8.501   3.440  70.845  1.00  0.00    -0.064 OA 
HETATM   31  H   UNL     1      -8.423   2.738  70.210  1.00  0.00     0.000 HD 
BRANCH  29  32
HETATM   32  C   UNL     1     -10.010   4.537  69.323  1.00  0.00    -0.192 A  
HETATM   33  C   UNL     1     -10.754   5.703  69.086  1.00  0.00    -0.325 A  
HETATM   34  C   UNL     1      -9.463   3.856  68.222  1.00  0.00    -0.212 A  
HETATM   35  C   UNL     1      -9.679   4.313  66.921  1.00  0.00    -0.239 A  
HETATM   36  C   UNL     1     -10.437   5.460  66.701  1.00  0.00    -0.356 A  
HETATM   37  C   UNL     1     -10.969   6.158  67.784  1.00  0.00    -0.400 A  
ENDBRANCH  29  32
ENDBRANCH  26  29
ENDBRANCH   8  25
TORSDOF 7
ENDMDL
MODEL       18
REMARK 921   NORMALIZED FREE ENERGY PREDICTED BY IDOCK:   -7.28 KCAL/MOL
REMARK 922        TOTAL FREE ENERGY PREDICTED BY IDOCK:  -11.23 KCAL/MOL
REMARK 923 INTER-LIGAND FREE ENERGY PREDICTED BY IDOCK:   -9.99 KCAL/MOL
REMARK 924 INTRA-LIGAND FREE ENERGY PREDICTED BY IDOCK:   -1.23 KCAL/MOL
REMARK 927      BINDING AFFINITY PREDICTED BY RF-SCORE:    0.00 PKD
ROOT
HETATM    1  C   UNL     1     -10.919  10.075  67.949  1.00  0.00    -0.252 C  
HETATM    2  S   UNL     1     -12.016  10.910  69.115  1.00  0.00    -0.206 SA 
HETATM    3  C   UNL     1     -11.556  12.575  68.578  1.00  0.00    -0.321 C  
HETATM    4  C   UNL     1     -10.063  12.813  68.379  1.00  0.00    -0.226 C  
HETATM    5  C   UNL     1      -9.035   9.267  68.346  1.00  0.00    -0.129 C  
HETATM    6  CA  UNL     1      -9.141  11.812  68.237  1.00  0.00    -0.187 C  
HETATM    7  C   UNL     1      -7.666  12.156  68.154  1.00  0.00    -0.129 C  
HETATM    8  CA  UNL     1     -10.470   8.629  68.361  1.00  0.00    -0.176 C  
HETATM    9  N   UNL     1      -9.558  10.502  68.200  1.00  0.00    -0.151 N  
HETATM   10  O   UNL     1      -6.783  11.187  68.452  1.00  0.00    -0.057 OA 
HETATM   11  OXT UNL     1      -7.252  13.265  67.840  1.00  0.00    -0.104 OA 
HETATM   12  O   UNL     1      -7.888   8.929  68.531  1.00  0.00    -0.100 OA 
ENDROOT
BRANCH   4  13
HETATM   13  C   UNL     1      -9.722  14.299  68.552  1.00  0.00    -0.225 C  
BRANCH  13  14
HETATM   14  S   UNL     1     -11.186  15.395  68.554  1.00  0.00    -0.335 SA 
BRANCH  14  15
HETATM   15  C   UNL     1     -10.814  16.368  67.168  1.00  0.00    -0.169 A  
HETATM   16  N   UNL     1     -10.607  17.667  67.190  1.00  0.00    -0.316 NA 
HETATM   17  N   UNL     1     -10.307  18.033  65.903  1.00  0.00    -0.591 NA 
HETATM   18  N   UNL     1     -10.659  15.932  65.880  1.00  0.00    -0.336 NA 
HETATM   19  N   UNL     1     -10.324  16.983  65.097  1.00  0.00    -0.547 NA 
BRANCH  18  20
HETATM   20  C   UNL     1     -10.641  14.620  65.299  1.00  0.00    -0.391 C  
HETATM   21  O   UNL     1     -11.969  12.951  63.769  1.00  0.00    -0.435 OA 
HETATM   22  O   UNL     1     -12.640  15.296  63.799  1.00  0.00    -0.733 OA 
HETATM   23  O   UNL     1     -13.143  13.904  65.794  1.00  0.00    -0.526 OA 
HETATM   24  S   UNL     1     -12.205  14.028  64.703  1.00  0.00    -0.421 S  
ENDBRANCH  18  20
ENDBRANCH  14  15
ENDBRANCH  13  14
ENDBRANCH   4  13
BRANCH   8  25
HETATM   25  N   UNL     1     -10.934   8.156  69.689  1.00  0.00    -0.414 N  
HETATM   26  C   UNL     1     -11.229   6.843  69.992  1.00  0.00    -0.299 C  
HETATM   27  H   UNL     1     -11.042   8.850  70.429  1.00  0.00     0.000 HD 
HETATM   28  O   UNL     1     -11.189   5.937  69.167  1.00  0.00    -0.340 OA 
BRANCH  26  29
HETATM   29  C   UNL     1     -11.594   6.639  71.480  1.00  0.00    -0.309 C  
HETATM   30  O   UNL     1     -12.437   7.712  71.926  1.00  0.00    -0.304 OA 
HETATM   31  H   UNL     1     -12.661   7.587  72.840  1.00  0.00     0.000 HD 
BRANCH  29  32
HETATM   32  C   UNL     1     -10.367   6.563  72.365  1.00  0.00    -0.210 A  
HETATM   33  C   UNL     1      -9.445   5.519  72.196  1.00  0.00    -0.169 A  
HETATM   34  C   UNL     1     -10.112   7.529  73.353  1.00  0.00    -0.393 A  
HETATM   35  C   UNL     1      -8.982   7.438  74.167  1.00  0.00    -0.270 A  
HETATM   36  C   UNL     1      -8.086   6.385  74.000  1.00  0.00    -0.109 A  
HETATM   37  C   UNL     1      -8.315   5.429  73.012  1.00  0.00    -0.112 A  
ENDBRANCH  29  32
ENDBRANCH  26  29
ENDBRANCH   8  25
TORSDOF 7
ENDMDL
MODEL       19
REMARK 921   NORMALIZED FREE ENERGY PREDICTED BY IDOCK:   -7.27 KCAL/MOL
REMARK 922        TOTAL FREE ENERGY PREDICTED BY IDOCK:  -11.21 KCAL/MOL
REMARK 923 INTER-LIGAND FREE ENERGY PREDICTED BY IDOCK:  -10.12 KCAL/MOL
REMARK 924 INTRA-LIGAND FREE ENERGY PREDICTED BY IDOCK:   -1.08 KCAL/MOL
REMARK 927      BINDING AFFINITY PREDICTED BY RF-SCORE:    0.00 PKD
ROOT
HETATM    1  C   UNL     1     -11.636  12.629  66.649  1.00  0.00    -0.381 C  
HETATM    2  S   UNL     1      -9.996  12.054  66.161  1.00  0.00    -0.236 SA 
HETATM    3  C   UNL     1     -10.267  10.355  66.719  1.00  0.00    -0.226 C  
HETATM    4  C   UNL     1     -10.930  10.208  68.084  1.00  0.00    -0.313 C  
HETATM    5  C   UNL     1     -12.140  13.683  68.379  1.00  0.00    -0.277 C  
HETATM    6  CA  UNL     1     -11.619  11.210  68.711  1.00  0.00    -0.322 C  
HETATM    7  C   UNL     1     -12.148  10.992  70.116  1.00  0.00    -0.356 C  
HETATM    8  CA  UNL     1     -11.756  14.166  66.936  1.00  0.00    -0.414 C  
HETATM    9  N   UNL     1     -11.802  12.414  68.072  1.00  0.00    -0.352 N  
HETATM   10  O   UNL     1     -12.418  12.082  70.855  1.00  0.00    -0.369 OA 
HETATM   11  OXT UNL     1     -12.327   9.883  70.602  1.00  0.00    -0.273 OA 
HETATM   12  O   UNL     1     -12.464  14.163  69.442  1.00  0.00    -0.277 OA 
ENDROOT
BRANCH   4  13
HETATM   13  C   UNL     1     -10.557   8.866  68.728  1.00  0.00    -0.157 C  
BRANCH  13  14
HETATM   14  S   UNL     1      -8.909   8.246  68.234  1.00  0.00    -0.139 SA 
BRANCH  14  15
HETATM   15  C   UNL     1      -7.929   9.096  69.383  1.00  0.00    -0.097 A  
HETATM   16  N   UNL     1      -7.456  10.313  69.220  1.00  0.00    -0.099 NA 
HETATM   17  N   UNL     1      -6.774  10.620  70.369  1.00  0.00    -0.303 NA 
HETATM   18  N   UNL     1      -7.534   8.646  70.615  1.00  0.00    -0.065 NA 
HETATM   19  N   UNL     1      -6.824   9.618  71.232  1.00  0.00    -0.327 NA 
BRANCH  18  20
HETATM   20  C   UNL     1      -7.858   7.464  71.361  1.00  0.00    -0.095 C  
HETATM   21  O   UNL     1      -9.411   6.496  73.244  1.00  0.00    -0.131 OA 
HETATM   22  O   UNL     1      -9.966   8.663  72.270  1.00  0.00    -0.308 OA 
HETATM   23  O   UNL     1      -8.003   8.523  73.785  1.00  0.00    -0.374 OA 
HETATM   24  S   UNL     1      -8.778   7.735  72.856  1.00  0.00    -0.188 S  
ENDBRANCH  18  20
ENDBRANCH  14  15
ENDBRANCH  13  14
ENDBRANCH   4  13
BRANCH   8  25
HETATM   25  N   UNL     1     -10.496  14.946  66.849  1.00  0.00    -0.275 N  
HETATM   26  C   UNL     1     -10.174  15.799  65.814  1.00  0.00    -0.370 C  
HETATM   27  H   UNL     1      -9.821  14.843  67.606  1.00  0.00     0.000 HD 
HETATM   28  O   UNL     1     -10.884  15.956  64.826  1.00  0.00    -0.533 OA 
BRANCH  26  29
HETATM   29  C   UNL     1      -8.840  16.545  66.045  1.00  0.00    -0.232 C  
HETATM   30  O   UNL     1      -8.039  15.826  66.995  1.00  0.00    -0.192 OA 
HETATM   31  H   UNL     1      -7.219  16.284  67.137  1.00  0.00     0.000 HD 
BRANCH  29  32
HETATM   32  C   UNL     1      -9.054  17.961  66.538  1.00  0.00    -0.276 A  
HETATM   33  C   UNL     1     -10.259  18.310  67.167  1.00  0.00    -0.387 A  
HETATM   34  C   UNL     1      -8.063  18.946  66.396  1.00  0.00    -0.306 A  
HETATM   35  C   UNL     1      -8.281  20.249  66.846  1.00  0.00    -0.345 A  
HETATM   36  C   UNL     1      -9.489  20.585  67.451  1.00  0.00    -0.551 A  
HETATM   37  C   UNL     1     -10.476  19.614  67.617  1.00  0.00    -0.579 A  
ENDBRANCH  29  32
ENDBRANCH  26  29
ENDBRANCH   8  25
TORSDOF 7
ENDMDL
MODEL       20
REMARK 921   NORMALIZED FREE ENERGY PREDICTED BY IDOCK:   -7.26 KCAL/MOL
REMARK 922        TOTAL FREE ENERGY PREDICTED BY IDOCK:  -11.19 KCAL/MOL
REMARK 923 INTER-LIGAND FREE ENERGY PREDICTED BY IDOCK:   -9.93 KCAL/MOL
REMARK 924 INTRA-LIGAND FREE ENERGY PREDICTED BY IDOCK:   -1.26 KCAL/MOL
REMARK 927      BINDING AFFINITY PREDICTED BY RF-SCORE:    0.00 PKD
ROOT
HETATM    1  C   UNL     1      -8.668   9.839  67.946  1.00  0.00    -0.125 C  
HETATM    2  S   UNL     1     -10.467   9.772  68.081  1.00  0.00    -0.227 SA 
HETATM    3  C   UNL     1     -10.751  11.101  66.888  1.00  0.00    -0.274 C  
HETATM    4  C   UNL     1      -9.856  12.327  67.043  1.00  0.00    -0.211 C  
HETATM    5  C   UNL     1      -7.338  10.778  69.254  1.00  0.00    -0.129 C  
HETATM    6  CA  UNL     1      -8.685  12.334  67.749  1.00  0.00    -0.174 C  
HETATM    7  C   UNL     1      -7.927  13.635  67.931  1.00  0.00    -0.161 C  
HETATM    8  CA  UNL     1      -7.876   9.304  69.190  1.00  0.00    -0.086 C  
HETATM    9  N   UNL     1      -8.221  11.168  68.311  1.00  0.00    -0.127 N  
HETATM   10  O   UNL     1      -7.058  13.711  68.954  1.00  0.00    -0.108 OA 
HETATM   11  OXT UNL     1      -8.077  14.608  67.202  1.00  0.00    -0.203 OA 
HETATM   12  O   UNL     1      -6.576  11.439  69.922  1.00  0.00    -0.134 OA 
ENDROOT
BRANCH   4  13
HETATM   13  C   UNL     1     -10.541  13.574  66.468  1.00  0.00    -0.281 C  
BRANCH  13  14
HETATM   14  S   UNL     1     -12.125  13.987  67.283  1.00  0.00    -0.297 SA 
BRANCH  14  15
HETATM   15  C   UNL     1     -11.543  15.075  68.501  1.00  0.00    -0.326 A  
HETATM   16  N   UNL     1     -10.992  16.246  68.268  1.00  0.00    -0.338 NA 
HETATM   17  N   UNL     1     -10.714  16.794  69.494  1.00  0.00    -0.324 NA 
HETATM   18  N   UNL     1     -11.595  14.889  69.857  1.00  0.00    -0.272 NA 
HETATM   19  N   UNL     1     -11.088  15.982  70.471  1.00  0.00    -0.360 NA 
BRANCH  18  20
HETATM   20  C   UNL     1     -12.198  13.872  70.670  1.00  0.00    -0.373 C  
HETATM   21  O   UNL     1     -14.062  13.404  72.459  1.00  0.00    -0.726 OA 
HETATM   22  O   UNL     1     -14.118  15.514  71.236  1.00  0.00    -0.548 OA 
HETATM   23  O   UNL     1     -12.356  15.200  72.957  1.00  0.00    -0.355 OA 
HETATM   24  S   UNL     1     -13.179  14.463  72.027  1.00  0.00    -0.404 S  
ENDBRANCH  18  20
ENDBRANCH  14  15
ENDBRANCH  13  14
ENDBRANCH   4  13
BRANCH   8  25
HETATM   25  N   UNL     1      -8.697   8.884  70.353  1.00  0.00    -0.162 N  
HETATM   26  C   UNL     1      -9.179   7.606  70.549  1.00  0.00    -0.159 C  
HETATM   27  H   UNL     1      -8.919   9.588  71.056  1.00  0.00     0.000 HD 
HETATM   28  O   UNL     1      -9.021   6.696  69.742  1.00  0.00    -0.142 OA 
BRANCH  26  29
HETATM   29  C   UNL     1      -9.918   7.445  71.896  1.00  0.00    -0.170 C  
HETATM   30  O   UNL     1      -9.855   6.077  72.326  1.00  0.00    -0.161 OA 
HETATM   31  H   UNL     1     -10.309   5.977  73.154  1.00  0.00     0.000 HD 
BRANCH  29  32
HETATM   32  C   UNL     1     -11.367   7.877  71.809  1.00  0.00    -0.309 A  
HETATM   33  C   UNL     1     -12.376   6.918  71.634  1.00  0.00    -0.413 A  
HETATM   34  C   UNL     1     -11.739   9.228  71.916  1.00  0.00    -0.420 A  
HETATM   35  C   UNL     1     -13.078   9.610  71.823  1.00  0.00    -0.514 A  
HETATM   36  C   UNL     1     -14.066   8.649  71.629  1.00  0.00    -0.468 A  
HETATM   37  C   UNL     1     -13.715   7.302  71.540  1.00  0.00    -0.451 A  
ENDBRANCH  29  32
ENDBRANCH  26  29
ENDBRANCH   8  25
TORSDOF 7
ENDMDL
MODEL       21
REMARK 921   NORMALIZED FREE ENERGY PREDICTED BY IDOCK:   -7.25 KCAL/MOL
REMARK 922        TOTAL FREE ENERGY PREDICTED BY IDOCK:  -11.19 KCAL/MOL
REMARK 923 INTER-LIGAND FREE ENERGY PREDICTED BY IDOCK:  -10.15 KCAL/MOL
REMARK 924 INTRA-LIGAND FREE ENERGY PREDICTED BY IDOCK:   -1.04 KCAL/MOL
REMARK 927      BINDING AFFINITY PREDICTED BY RF-SCORE:    0.00 PKD
ROOT
HETATM    1  C   UNL     1     -11.642  13.600  67.342  1.00  0.00    -0.356 C  
HETATM    2  S   UNL     1     -10.223  12.498  67.157  1.00  0.00    -0.218 SA 
HETATM    3  C   UNL     1     -10.947  11.164  68.141  1.00  0.00    -0.238 C  
HETATM    4  C   UNL     1     -11.621  11.596  69.439  1.00  0.00    -0.392 C  
HETATM    5  C   UNL     1     -11.831  15.200  68.669  1.00  0.00    -0.302 C  
HETATM    6  CA  UNL     1     -12.007  12.880  69.710  1.00  0.00    -0.296 C  
HETATM    7  C   UNL     1     -12.570  13.222  71.077  1.00  0.00    -0.324 C  
HETATM    8  CA  UNL     1     -11.334  15.129  67.181  1.00  0.00    -0.290 C  
HETATM    9  N   UNL     1     -11.855  13.853  68.751  1.00  0.00    -0.344 N  
HETATM   10  O   UNL     1     -12.528  14.509  71.463  1.00  0.00    -0.322 OA 
HETATM   11  OXT UNL     1     -13.045  12.386  71.836  1.00  0.00    -0.424 OA 
HETATM   12  O   UNL     1     -12.007  16.032  69.530  1.00  0.00    -0.308 OA 
ENDROOT
BRANCH   4  13
HETATM   13  C   UNL     1     -11.627  10.446  70.456  1.00  0.00    -0.344 C  
BRANCH  13  14
HETATM   14  S   UNL     1     -10.601   9.017  69.958  1.00  0.00    -0.234 SA 
BRANCH  14  15
HETATM   15  C   UNL     1     -11.319   7.791  70.951  1.00  0.00    -0.275 A  
HETATM   16  N   UNL     1     -12.612   7.594  71.093  1.00  0.00    -0.271 NA 
HETATM   17  N   UNL     1     -12.749   6.512  71.924  1.00  0.00    -0.252 NA 
HETATM   18  N   UNL     1     -10.659   6.851  71.696  1.00  0.00    -0.209 NA 
HETATM   19  N   UNL     1     -11.567   6.043  72.289  1.00  0.00    -0.312 NA 
BRANCH  18  20
HETATM   20  C   UNL     1      -9.270   6.513  71.815  1.00  0.00    -0.149 C  
HETATM   21  O   UNL     1      -7.157   6.704  73.361  1.00  0.00    -0.077 OA 
HETATM   22  O   UNL     1      -9.346   7.226  74.302  1.00  0.00    -0.238 OA 
HETATM   23  O   UNL     1      -8.344   8.833  72.696  1.00  0.00    -0.407 OA 
HETATM   24  S   UNL     1      -8.363   7.429  73.035  1.00  0.00    -0.126 S  
ENDBRANCH  18  20
ENDBRANCH  14  15
ENDBRANCH  13  14
ENDBRANCH   4  13
BRANCH   8  25
HETATM   25  N   UNL     1      -9.909  15.490  66.977  1.00  0.00    -0.230 N  
HETATM   26  C   UNL     1      -9.472  16.530  66.184  1.00  0.00    -0.315 C  
HETATM   27  H   UNL     1      -9.205  14.930  67.456  1.00  0.00     0.000 HD 
HETATM   28  O   UNL     1     -10.226  17.232  65.518  1.00  0.00    -0.602 OA 
BRANCH  26  29
HETATM   29  C   UNL     1      -7.939  16.724  66.241  1.00  0.00    -0.316 C  
HETATM   30  O   UNL     1      -7.350  15.704  67.062  1.00  0.00    -0.212 OA 
HETATM   31  H   UNL     1      -6.408  15.823  67.097  1.00  0.00     0.000 HD 
BRANCH  29  32
HETATM   32  C   UNL     1      -7.555  18.086  66.779  1.00  0.00    -0.247 A  
HETATM   33  C   UNL     1      -6.843  18.984  65.971  1.00  0.00    -0.276 A  
HETATM   34  C   UNL     1      -7.911  18.491  68.077  1.00  0.00    -0.291 A  
HETATM   35  C   UNL     1      -7.539  19.746  68.561  1.00  0.00    -0.338 A  
HETATM   36  C   UNL     1      -6.815  20.618  67.753  1.00  0.00    -0.367 A  
HETATM   37  C   UNL     1      -6.471  20.240  66.456  1.00  0.00    -0.247 A  
ENDBRANCH  29  32
ENDBRANCH  26  29
ENDBRANCH   8  25
TORSDOF 7
ENDMDL
MODEL       22
REMARK 921   NORMALIZED FREE ENERGY PREDICTED BY IDOCK:   -7.24 KCAL/MOL
REMARK 922        TOTAL FREE ENERGY PREDICTED BY IDOCK:  -11.17 KCAL/MOL
REMARK 923 INTER-LIGAND FREE ENERGY PREDICTED BY IDOCK:  -10.30 KCAL/MOL
REMARK 924 INTRA-LIGAND FREE ENERGY PREDICTED BY IDOCK:   -0.88 KCAL/MOL
REMARK 927      BINDING AFFINITY PREDICTED BY RF-SCORE:    0.00 PKD
ROOT
HETATM    1  C   UNL     1     -11.935  14.417  68.488  1.00  0.00    -0.298 C  
HETATM    2  S   UNL     1     -10.317  13.682  68.170  1.00  0.00    -0.251 SA 
HETATM    3  C   UNL     1     -10.833  12.004  68.604  1.00  0.00    -0.237 C  
HETATM    4  C   UNL     1     -11.673  11.881  69.871  1.00  0.00    -0.383 C  
HETATM    5  C   UNL     1     -12.534  15.455  70.198  1.00  0.00    -0.335 C  
HETATM    6  CA  UNL     1     -12.323  12.928  70.462  1.00  0.00    -0.283 C  
HETATM    7  C   UNL     1     -13.042  12.718  71.782  1.00  0.00    -0.356 C  
HETATM    8  CA  UNL     1     -11.925  15.946  68.837  1.00  0.00    -0.189 C  
HETATM    9  N   UNL     1     -12.297  14.168  69.868  1.00  0.00    -0.346 N  
HETATM   10  O   UNL     1     -13.284  13.802  72.538  1.00  0.00    -0.478 OA 
HETATM   11  OXT UNL     1     -13.397  11.618  72.185  1.00  0.00    -0.491 OA 
HETATM   12  O   UNL     1     -12.934  15.927  71.238  1.00  0.00    -0.471 OA 
ENDROOT
BRANCH   4  13
HETATM   13  C   UNL     1     -11.526  10.482  70.485  1.00  0.00    -0.345 C  
BRANCH  13  14
HETATM   14  S   UNL     1      -9.959   9.645  70.048  1.00  0.00    -0.260 SA 
BRANCH  14  15
HETATM   15  C   UNL     1     -10.576   8.074  69.652  1.00  0.00    -0.223 A  
HETATM   16  N   UNL     1     -10.492   7.505  68.469  1.00  0.00    -0.197 NA 
HETATM   17  N   UNL     1     -11.063   6.264  68.596  1.00  0.00    -0.353 NA 
HETATM   18  N   UNL     1     -11.205   7.204  70.502  1.00  0.00    -0.280 NA 
HETATM   19  N   UNL     1     -11.490   6.064  69.833  1.00  0.00    -0.309 NA 
BRANCH  18  20
HETATM   20  C   UNL     1     -11.449   7.240  71.915  1.00  0.00    -0.267 C  
HETATM   21  O   UNL     1     -10.410   6.717  74.269  1.00  0.00    -0.369 OA 
HETATM   22  O   UNL     1      -8.938   6.761  72.324  1.00  0.00    -0.133 OA 
HETATM   23  O   UNL     1     -10.508   4.852  72.568  1.00  0.00    -0.194 OA 
HETATM   24  S   UNL     1     -10.358   6.248  72.904  1.00  0.00    -0.219 S  
ENDBRANCH  18  20
ENDBRANCH  14  15
ENDBRANCH  13  14
ENDBRANCH   4  13
BRANCH   8  25
HETATM   25  N   UNL     1     -10.588  16.583  68.940  1.00  0.00    -0.304 N  
HETATM   26  C   UNL     1     -10.164  17.640  68.162  1.00  0.00    -0.371 C  
HETATM   27  H   UNL     1      -9.939  16.213  69.634  1.00  0.00     0.000 HD 
HETATM   28  O   UNL     1     -10.838  18.126  67.260  1.00  0.00    -0.353 OA 
BRANCH  26  29
HETATM   29  C   UNL     1      -8.761  18.153  68.562  1.00  0.00    -0.296 C  
HETATM   30  O   UNL     1      -8.888  19.301  69.414  1.00  0.00    -0.098 OA 
HETATM   31  H   UNL     1      -8.026  19.617  69.660  1.00  0.00     0.000 HD 
BRANCH  29  32
HETATM   32  C   UNL     1      -7.919  18.512  67.357  1.00  0.00    -0.246 A  
HETATM   33  C   UNL     1      -7.858  19.843  66.915  1.00  0.00    -0.330 A  
HETATM   34  C   UNL     1      -7.171  17.543  66.667  1.00  0.00    -0.269 A  
HETATM   35  C   UNL     1      -6.408  17.890  65.551  1.00  0.00    -0.142 A  
HETATM   36  C   UNL     1      -6.374  19.211  65.113  1.00  0.00    -0.309 A  
HETATM   37  C   UNL     1      -7.095  20.188  65.798  1.00  0.00    -0.311 A  
ENDBRANCH  29  32
ENDBRANCH  26  29
ENDBRANCH   8  25
TORSDOF 7
ENDMDL
MODEL       23
REMARK 921   NORMALIZED FREE ENERGY PREDICTED BY IDOCK:   -7.21 KCAL/MOL
REMARK 922        TOTAL FREE ENERGY PREDICTED BY IDOCK:  -11.13 KCAL/MOL
REMARK 923 INTER-LIGAND FREE ENERGY PREDICTED BY IDOCK:  -10.26 KCAL/MOL
REMARK 924 INTRA-LIGAND FREE ENERGY PREDICTED BY IDOCK:   -0.88 KCAL/MOL
REMARK 927      BINDING AFFINITY PREDICTED BY RF-SCORE:    0.00 PKD
ROOT
HETATM    1  C   UNL     1      -9.246   9.660  68.966  1.00  0.00    -0.156 C  
HETATM    2  S   UNL     1      -9.684   9.058  67.321  1.00  0.00    -0.193 SA 
HETATM    3  C   UNL     1     -10.022  10.704  66.651  1.00  0.00    -0.212 C  
HETATM    4  C   UNL     1     -10.843  11.624  67.548  1.00  0.00    -0.287 C  
HETATM    5  C   UNL     1     -10.459   9.684  70.665  1.00  0.00    -0.312 C  
HETATM    6  CA  UNL     1     -11.018  11.427  68.890  1.00  0.00    -0.226 C  
HETATM    7  C   UNL     1     -11.943  12.342  69.669  1.00  0.00    -0.274 C  
HETATM    8  CA  UNL     1      -9.426   8.628  70.133  1.00  0.00    -0.164 C  
HETATM    9  N   UNL     1     -10.375  10.384  69.514  1.00  0.00    -0.233 N  
HETATM   10  O   UNL     1     -12.431  11.887  70.836  1.00  0.00    -0.369 OA 
HETATM   11  OXT UNL     1     -12.266  13.458  69.282  1.00  0.00    -0.284 OA 
HETATM   12  O   UNL     1     -11.197   9.836  71.612  1.00  0.00    -0.331 OA 
ENDROOT
BRANCH   4  13
HETATM   13  C   UNL     1     -11.589  12.673  66.713  1.00  0.00    -0.374 C  
BRANCH  13  14
HETATM   14  S   UNL     1     -11.089  12.705  64.953  1.00  0.00    -0.310 SA 
BRANCH  14  15
HETATM   15  C   UNL     1     -11.320  14.391  64.623  1.00  0.00    -0.371 A  
HETATM   16  N   UNL     1     -12.302  14.894  63.906  1.00  0.00    -0.711 NA 
HETATM   17  N   UNL     1     -12.137  16.255  63.926  1.00  0.00    -0.820 NA 
HETATM   18  N   UNL     1     -10.545  15.427  65.073  1.00  0.00    -0.431 NA 
HETATM   19  N   UNL     1     -11.078  16.593  64.644  1.00  0.00    -0.853 NA 
BRANCH  18  20
HETATM   20  C   UNL     1      -9.439  15.481  65.985  1.00  0.00    -0.352 C  
HETATM   21  O   UNL     1      -8.687  16.271  68.373  1.00  0.00    -0.190 OA 
HETATM   22  O   UNL     1     -11.071  16.199  67.863  1.00  0.00    -0.340 OA 
HETATM   23  O   UNL     1      -9.698  17.983  66.815  1.00  0.00    -0.295 OA 
HETATM   24  S   UNL     1      -9.610  16.635  67.324  1.00  0.00    -0.248 S  
ENDBRANCH  18  20
ENDBRANCH  14  15
ENDBRANCH  13  14
ENDBRANCH   4  13
BRANCH   8  25
HETATM   25  N   UNL     1     -10.006   7.315  69.759  1.00  0.00    -0.181 N  
HETATM   26  C   UNL     1      -9.273   6.163  69.564  1.00  0.00    -0.138 C  
HETATM   27  H   UNL     1     -11.017   7.260  69.637  1.00  0.00     0.000 HD 
HETATM   28  O   UNL     1      -8.049   6.125  69.628  1.00  0.00    -0.108 OA 
BRANCH  26  29
HETATM   29  C   UNL     1     -10.159   4.930  69.277  1.00  0.00    -0.178 C  
HETATM   30  O   UNL     1      -9.979   3.949  70.309  1.00  0.00    -0.162 OA 
HETATM   31  H   UNL     1     -10.523   3.191  70.133  1.00  0.00     0.000 HD 
BRANCH  29  32
HETATM   32  C   UNL     1      -9.852   4.305  67.932  1.00  0.00    -0.120 A  
HETATM   33  C   UNL     1      -9.297   3.018  67.867  1.00  0.00    -0.255 A  
HETATM   34  C   UNL     1     -10.124   4.979  66.729  1.00  0.00    -0.270 A  
HETATM   35  C   UNL     1      -9.824   4.393  65.498  1.00  0.00    -0.225 A  
HETATM   36  C   UNL     1      -9.256   3.123  65.451  1.00  0.00    -0.148 A  
HETATM   37  C   UNL     1      -8.997   2.434  66.635  1.00  0.00    -0.133 A  
ENDBRANCH  29  32
ENDBRANCH  26  29
ENDBRANCH   8  25
TORSDOF 7
ENDMDL
MODEL       24
REMARK 921   NORMALIZED FREE ENERGY PREDICTED BY IDOCK:   -7.17 KCAL/MOL
REMARK 922        TOTAL FREE ENERGY PREDICTED BY IDOCK:  -11.07 KCAL/MOL
REMARK 923 INTER-LIGAND FREE ENERGY PREDICTED BY IDOCK:   -9.95 KCAL/MOL
REMARK 924 INTRA-LIGAND FREE ENERGY PREDICTED BY IDOCK:   -1.12 KCAL/MOL
REMARK 927      BINDING AFFINITY PREDICTED BY RF-SCORE:    0.00 PKD
ROOT
HETATM    1  C   UNL     1     -11.960  14.488  68.658  1.00  0.00    -0.285 C  
HETATM    2  S   UNL     1     -10.321  13.789  68.364  1.00  0.00    -0.248 SA 
HETATM    3  C   UNL     1     -10.822  12.089  68.723  1.00  0.00    -0.230 C  
HETATM    4  C   UNL     1     -11.696  11.908  69.959  1.00  0.00    -0.366 C  
HETATM    5  C   UNL     1     -12.627  15.455  70.384  1.00  0.00    -0.389 C  
HETATM    6  CA  UNL     1     -12.382  12.924  70.566  1.00  0.00    -0.283 C  
HETATM    7  C   UNL     1     -13.135  12.656  71.855  1.00  0.00    -0.366 C  
HETATM    8  CA  UNL     1     -11.986  16.003  69.060  1.00  0.00    -0.149 C  
HETATM    9  N   UNL     1     -12.359  14.184  70.017  1.00  0.00    -0.346 N  
HETATM   10  O   UNL     1     -13.418  13.709  72.641  1.00  0.00    -0.550 OA 
HETATM   11  OXT UNL     1     -13.483  11.536  72.209  1.00  0.00    -0.368 OA 
HETATM   12  O   UNL     1     -13.066  15.884  71.427  1.00  0.00    -0.465 OA 
ENDROOT
BRANCH   4  13
HETATM   13  C   UNL     1     -11.544  10.491  70.528  1.00  0.00    -0.350 C  
BRANCH  13  14
HETATM   14  S   UNL     1     -10.335   9.459  69.624  1.00  0.00    -0.229 SA 
BRANCH  14  15
HETATM   15  C   UNL     1      -9.234   9.112  70.917  1.00  0.00    -0.261 A  
HETATM   16  N   UNL     1      -7.991   9.537  70.987  1.00  0.00    -0.309 NA 
HETATM   17  N   UNL     1      -7.491   9.074  72.177  1.00  0.00    -0.332 NA 
HETATM   18  N   UNL     1      -9.501   8.381  72.044  1.00  0.00    -0.241 NA 
HETATM   19  N   UNL     1      -8.404   8.379  72.837  1.00  0.00    -0.343 NA 
BRANCH  18  20
HETATM   20  C   UNL     1     -10.708   7.797  72.555  1.00  0.00    -0.314 C  
HETATM   21  O   UNL     1     -12.066   5.561  72.768  1.00  0.00    -0.192 OA 
HETATM   22  O   UNL     1      -9.726   5.448  72.085  1.00  0.00    -0.158 OA 
HETATM   23  O   UNL     1     -11.384   6.326  70.458  1.00  0.00    -0.337 OA 
HETATM   24  S   UNL     1     -11.135   6.213  71.876  1.00  0.00    -0.285 S  
ENDBRANCH  18  20
ENDBRANCH  14  15
ENDBRANCH  13  14
ENDBRANCH   4  13
BRANCH   8  25
HETATM   25  N   UNL     1     -10.664  16.657  69.226  1.00  0.00    -0.336 N  
HETATM   26  C   UNL     1     -10.145  17.600  68.364  1.00  0.00    -0.368 C  
HETATM   27  H   UNL     1     -10.101  16.390  70.033  1.00  0.00     0.000 HD 
HETATM   28  O   UNL     1     -10.708  17.954  67.333  1.00  0.00    -0.370 OA 
BRANCH  26  29
HETATM   29  C   UNL     1      -8.792  18.172  68.846  1.00  0.00    -0.114 C  
HETATM   30  O   UNL     1      -8.592  19.481  68.292  1.00  0.00    -0.326 OA 
HETATM   31  H   UNL     1      -7.761  19.833  68.588  1.00  0.00     0.000 HD 
BRANCH  29  32
HETATM   32  C   UNL     1      -7.627  17.283  68.467  1.00  0.00    -0.251 A  
HETATM   33  C   UNL     1      -6.971  17.470  67.241  1.00  0.00    -0.191 A  
HETATM   34  C   UNL     1      -7.165  16.271  69.325  1.00  0.00    -0.221 A  
HETATM   35  C   UNL     1      -6.097  15.453  68.955  1.00  0.00    -0.104 A  
HETATM   36  C   UNL     1      -5.469  15.638  67.726  1.00  0.00    -0.141 A  
HETATM   37  C   UNL     1      -5.903  16.650  66.872  1.00  0.00    -0.132 A  
ENDBRANCH  29  32
ENDBRANCH  26  29
ENDBRANCH   8  25
TORSDOF 7
ENDMDL
MODEL       25
REMARK 921   NORMALIZED FREE ENERGY PREDICTED BY IDOCK:   -7.16 KCAL/MOL
REMARK 922        TOTAL FREE ENERGY PREDICTED BY IDOCK:  -11.06 KCAL/MOL
REMARK 923 INTER-LIGAND FREE ENERGY PREDICTED BY IDOCK:  -10.17 KCAL/MOL
REMARK 924 INTRA-LIGAND FREE ENERGY PREDICTED BY IDOCK:   -0.89 KCAL/MOL
REMARK 927      BINDING AFFINITY PREDICTED BY RF-SCORE:    0.00 PKD
ROOT
HETATM    1  C   UNL     1      -9.012   9.929  69.236  1.00  0.00    -0.178 C  
HETATM    2  S   UNL     1      -9.187   9.459  67.501  1.00  0.00    -0.123 SA 
HETATM    3  C   UNL     1      -9.563  11.135  66.935  1.00  0.00    -0.186 C  
HETATM    4  C   UNL     1     -10.561  11.910  67.789  1.00  0.00    -0.233 C  
HETATM    5  C   UNL     1     -10.431   9.711  70.751  1.00  0.00    -0.305 C  
HETATM    6  CA  UNL     1     -10.891  11.574  69.073  1.00  0.00    -0.212 C  
HETATM    7  C   UNL     1     -11.977  12.348  69.796  1.00  0.00    -0.289 C  
HETATM    8  CA  UNL     1      -9.259   8.781  70.275  1.00  0.00    -0.174 C  
HETATM    9  N   UNL     1     -10.254  10.521  69.687  1.00  0.00    -0.207 N  
HETATM   10  O   UNL     1     -12.574  11.753  70.843  1.00  0.00    -0.349 OA 
HETATM   11  OXT UNL     1     -12.333  13.472  69.466  1.00  0.00    -0.268 OA 
HETATM   12  O   UNL     1     -11.294   9.723  71.599  1.00  0.00    -0.349 OA 
ENDROOT
BRANCH   4  13
HETATM   13  C   UNL     1     -11.273  12.982  66.954  1.00  0.00    -0.295 C  
BRANCH  13  14
HETATM   14  S   UNL     1     -10.882  12.905  65.169  1.00  0.00    -0.307 SA 
BRANCH  14  15
HETATM   15  C   UNL     1     -11.347  14.510  64.706  1.00  0.00    -0.396 A  
HETATM   16  N   UNL     1     -12.423  14.816  64.013  1.00  0.00    -0.809 NA 
HETATM   17  N   UNL     1     -12.436  16.182  63.902  1.00  0.00    -0.575 NA 
HETATM   18  N   UNL     1     -10.690  15.672  65.011  1.00  0.00    -0.441 NA 
HETATM   19  N   UNL     1     -11.392  16.717  64.516  1.00  0.00    -0.993 NA 
BRANCH  18  20
HETATM   20  C   UNL     1      -9.553  15.951  65.840  1.00  0.00    -0.343 C  
HETATM   21  O   UNL     1      -8.802  16.806  68.206  1.00  0.00    -0.213 OA 
HETATM   22  O   UNL     1     -11.140  16.194  67.871  1.00  0.00    -0.340 OA 
HETATM   23  O   UNL     1     -10.312  18.289  66.826  1.00  0.00    -0.355 OA 
HETATM   24  S   UNL     1      -9.871  16.981  67.251  1.00  0.00    -0.267 S  
ENDBRANCH  18  20
ENDBRANCH  14  15
ENDBRANCH  13  14
ENDBRANCH   4  13
BRANCH   8  25
HETATM   25  N   UNL     1      -9.683   7.473  69.714  1.00  0.00    -0.170 N  
HETATM   26  C   UNL     1      -8.850   6.387  69.548  1.00  0.00    -0.136 C  
HETATM   27  H   UNL     1     -10.657   7.372  69.431  1.00  0.00     0.000 HD 
HETATM   28  O   UNL     1      -7.650   6.414  69.801  1.00  0.00    -0.089 OA 
BRANCH  26  29
HETATM   29  C   UNL     1      -9.594   5.134  69.032  1.00  0.00    -0.145 C  
HETATM   30  O   UNL     1     -10.954   5.471  68.718  1.00  0.00    -0.145 OA 
HETATM   31  H   UNL     1     -11.411   4.702  68.401  1.00  0.00     0.000 HD 
BRANCH  29  32
HETATM   32  C   UNL     1      -9.575   4.002  70.037  1.00  0.00    -0.274 A  
HETATM   33  C   UNL     1      -9.166   2.720  69.642  1.00  0.00    -0.206 A  
HETATM   34  C   UNL     1      -9.943   4.204  71.378  1.00  0.00    -0.223 A  
HETATM   35  C   UNL     1      -9.930   3.147  72.289  1.00  0.00    -0.236 A  
HETATM   36  C   UNL     1      -9.542   1.875  71.876  1.00  0.00    -0.190 A  
HETATM   37  C   UNL     1      -9.154   1.663  70.554  1.00  0.00    -0.145 A  
ENDBRANCH  29  32
ENDBRANCH  26  29
ENDBRANCH   8  25
TORSDOF 7
ENDMDL
MODEL       26
REMARK 921   NORMALIZED FREE ENERGY PREDICTED BY IDOCK:   -7.13 KCAL/MOL
REMARK 922        TOTAL FREE ENERGY PREDICTED BY IDOCK:  -11.01 KCAL/MOL
REMARK 923 INTER-LIGAND FREE ENERGY PREDICTED BY IDOCK:   -9.91 KCAL/MOL
REMARK 924 INTRA-LIGAND FREE ENERGY PREDICTED BY IDOCK:   -1.10 KCAL/MOL
REMARK 927      BINDING AFFINITY PREDICTED BY RF-SCORE:    0.00 PKD
ROOT
HETATM    1  C   UNL     1     -11.750  14.320  68.413  1.00  0.00    -0.338 C  
HETATM    2  S   UNL     1     -10.111  13.618  68.132  1.00  0.00    -0.250 SA 
HETATM    3  C   UNL     1     -10.598  11.933  68.573  1.00  0.00    -0.222 C  
HETATM    4  C   UNL     1     -11.458  11.803  69.826  1.00  0.00    -0.320 C  
HETATM    5  C   UNL     1     -12.405  15.360  70.100  1.00  0.00    -0.361 C  
HETATM    6  CA  UNL     1     -12.143  12.842  70.393  1.00  0.00    -0.302 C  
HETATM    7  C   UNL     1     -12.882  12.628  71.701  1.00  0.00    -0.264 C  
HETATM    8  CA  UNL     1     -11.781  15.852  68.746  1.00  0.00    -0.349 C  
HETATM    9  N   UNL     1     -12.133  14.076  69.788  1.00  0.00    -0.332 N  
HETATM   10  O   UNL     1     -13.162  13.714  72.442  1.00  0.00    -0.453 OA 
HETATM   11  OXT UNL     1     -13.220  11.524  72.109  1.00  0.00    -0.505 OA 
HETATM   12  O   UNL     1     -12.835  15.834  71.127  1.00  0.00    -0.486 OA 
ENDROOT
BRANCH   4  13
HETATM   13  C   UNL     1     -11.293  10.414  70.456  1.00  0.00    -0.341 C  
BRANCH  13  14
HETATM   14  S   UNL     1      -9.697   9.611  70.062  1.00  0.00    -0.249 SA 
BRANCH  14  15
HETATM   15  C   UNL     1     -10.284   8.099  69.448  1.00  0.00    -0.211 A  
HETATM   16  N   UNL     1     -10.610   7.059  70.185  1.00  0.00    -0.221 NA 
HETATM   17  N   UNL     1     -11.059   6.097  69.317  1.00  0.00    -0.385 NA 
HETATM   18  N   UNL     1     -10.514   7.783  68.135  1.00  0.00    -0.199 NA 
HETATM   19  N   UNL     1     -11.017   6.530  68.067  1.00  0.00    -0.290 NA 
BRANCH  18  20
HETATM   20  C   UNL     1     -10.462   8.561  66.931  1.00  0.00    -0.275 C  
HETATM   21  O   UNL     1      -9.067   9.025  64.756  1.00  0.00    -0.165 OA 
HETATM   22  O   UNL     1      -8.549   7.040  66.076  1.00  0.00    -0.139 OA 
HETATM   23  O   UNL     1      -7.907   9.259  66.988  1.00  0.00    -0.098 OA 
HETATM   24  S   UNL     1      -8.879   8.622  66.130  1.00  0.00    -0.182 S  
ENDBRANCH  18  20
ENDBRANCH  14  15
ENDBRANCH  13  14
ENDBRANCH   4  13
BRANCH   8  25
HETATM   25  N   UNL     1     -10.461  16.520  68.868  1.00  0.00    -0.282 N  
HETATM   26  C   UNL     1     -10.058  17.600  68.111  1.00  0.00    -0.347 C  
HETATM   27  H   UNL     1      -9.806  16.154  69.559  1.00  0.00     0.000 HD 
HETATM   28  O   UNL     1     -10.739  18.084  67.213  1.00  0.00    -0.372 OA 
BRANCH  26  29
HETATM   29  C   UNL     1      -8.671  18.140  68.528  1.00  0.00    -0.296 C  
HETATM   30  O   UNL     1      -8.829  19.317  69.333  1.00  0.00    -0.098 OA 
HETATM   31  H   UNL     1      -7.977  19.649  69.590  1.00  0.00     0.000 HD 
BRANCH  29  32
HETATM   32  C   UNL     1      -7.800  18.462  67.332  1.00  0.00    -0.237 A  
HETATM   33  C   UNL     1      -7.786  19.763  66.805  1.00  0.00    -0.306 A  
HETATM   34  C   UNL     1      -6.980  17.489  66.735  1.00  0.00    -0.239 A  
HETATM   35  C   UNL     1      -6.192  17.802  65.627  1.00  0.00    -0.142 A  
HETATM   36  C   UNL     1      -6.204  19.092  65.103  1.00  0.00    -0.320 A  
HETATM   37  C   UNL     1      -6.997  20.073  65.696  1.00  0.00    -0.334 A  
ENDBRANCH  29  32
ENDBRANCH  26  29
ENDBRANCH   8  25
TORSDOF 7
ENDMDL
MODEL       27
REMARK 921   NORMALIZED FREE ENERGY PREDICTED BY IDOCK:   -7.10 KCAL/MOL
REMARK 922        TOTAL FREE ENERGY PREDICTED BY IDOCK:  -10.97 KCAL/MOL
REMARK 923 INTER-LIGAND FREE ENERGY PREDICTED BY IDOCK:  -10.03 KCAL/MOL
REMARK 924 INTRA-LIGAND FREE ENERGY PREDICTED BY IDOCK:   -0.93 KCAL/MOL
REMARK 927      BINDING AFFINITY PREDICTED BY RF-SCORE:    0.00 PKD
ROOT
HETATM    1  C   UNL     1     -11.635  12.288  66.602  1.00  0.00    -0.375 C  
HETATM    2  S   UNL     1     -10.018  11.823  65.947  1.00  0.00    -0.243 SA 
HETATM    3  C   UNL     1     -10.150  10.091  66.450  1.00  0.00    -0.241 C  
HETATM    4  C   UNL     1     -10.680   9.854  67.860  1.00  0.00    -0.316 C  
HETATM    5  C   UNL     1     -12.035  13.243  68.414  1.00  0.00    -0.301 C  
HETATM    6  CA  UNL     1     -11.361  10.791  68.589  1.00  0.00    -0.291 C  
HETATM    7  C   UNL     1     -11.749  10.489  70.024  1.00  0.00    -0.312 C  
HETATM    8  CA  UNL     1     -11.807  13.804  66.966  1.00  0.00    -0.410 C  
HETATM    9  N   UNL     1     -11.662  12.007  68.022  1.00  0.00    -0.340 N  
HETATM   10  O   UNL     1     -12.007  11.532  70.831  1.00  0.00    -0.307 OA 
HETATM   11  OXT UNL     1     -11.827   9.353  70.473  1.00  0.00    -0.243 OA 
HETATM   12  O   UNL     1     -12.286  13.662  69.521  1.00  0.00    -0.294 OA 
ENDROOT
BRANCH   4  13
HETATM   13  C   UNL     1     -10.182   8.510  68.408  1.00  0.00    -0.203 C  
BRANCH  13  14
HETATM   14  S   UNL     1     -11.020   7.059  67.675  1.00  0.00    -0.141 SA 
BRANCH  14  15
HETATM   15  C   UNL     1     -10.272   5.800  68.601  1.00  0.00    -0.197 A  
HETATM   16  N   UNL     1      -9.323   5.001  68.163  1.00  0.00    -0.120 NA 
HETATM   17  N   UNL     1      -8.988   4.186  69.214  1.00  0.00    -0.099 NA 
HETATM   18  N   UNL     1     -10.535   5.477  69.906  1.00  0.00    -0.296 NA 
HETATM   19  N   UNL     1      -9.711   4.474  70.285  1.00  0.00    -0.200 NA 
BRANCH  18  20
HETATM   20  C   UNL     1     -11.366   6.087  70.904  1.00  0.00    -0.229 C  
HETATM   21  O   UNL     1     -11.351   7.575  73.066  1.00  0.00    -0.341 OA 
HETATM   22  O   UNL     1      -9.323   7.455  71.716  1.00  0.00    -0.145 OA 
HETATM   23  O   UNL     1      -9.959   5.467  73.061  1.00  0.00    -0.163 OA 
HETATM   24  S   UNL     1     -10.528   6.606  72.380  1.00  0.00    -0.214 S  
ENDBRANCH  18  20
ENDBRANCH  14  15
ENDBRANCH  13  14
ENDBRANCH   4  13
BRANCH   8  25
HETATM   25  N   UNL     1     -10.601  14.654  66.803  1.00  0.00    -0.284 N  
HETATM   26  C   UNL     1     -10.325  15.413  65.685  1.00  0.00    -0.372 C  
HETATM   27  H   UNL     1      -9.931  14.678  67.571  1.00  0.00     0.000 HD 
HETATM   28  O   UNL     1     -11.030  15.415  64.681  1.00  0.00    -0.397 OA 
BRANCH  26  29
HETATM   29  C   UNL     1      -9.047  16.269  65.843  1.00  0.00    -0.211 C  
HETATM   30  O   UNL     1      -8.035  15.511  66.523  1.00  0.00    -0.299 OA 
HETATM   31  H   UNL     1      -7.250  16.036  66.620  1.00  0.00     0.000 HD 
BRANCH  29  32
HETATM   32  C   UNL     1      -9.309  17.552  66.603  1.00  0.00    -0.275 A  
HETATM   33  C   UNL     1      -8.478  17.915  67.674  1.00  0.00    -0.234 A  
HETATM   34  C   UNL     1     -10.364  18.412  66.253  1.00  0.00    -0.440 A  
HETATM   35  C   UNL     1     -10.597  19.586  66.971  1.00  0.00    -0.607 A  
HETATM   36  C   UNL     1      -9.776  19.922  68.044  1.00  0.00    -0.510 A  
HETATM   37  C   UNL     1      -8.714  19.089  68.392  1.00  0.00    -0.381 A  
ENDBRANCH  29  32
ENDBRANCH  26  29
ENDBRANCH   8  25
TORSDOF 7
ENDMDL
MODEL       28
REMARK 921   NORMALIZED FREE ENERGY PREDICTED BY IDOCK:   -7.08 KCAL/MOL
REMARK 922        TOTAL FREE ENERGY PREDICTED BY IDOCK:  -10.95 KCAL/MOL
REMARK 923 INTER-LIGAND FREE ENERGY PREDICTED BY IDOCK:   -9.35 KCAL/MOL
REMARK 924 INTRA-LIGAND FREE ENERGY PREDICTED BY IDOCK:   -1.60 KCAL/MOL
REMARK 927      BINDING AFFINITY PREDICTED BY RF-SCORE:    0.00 PKD
ROOT
HETATM    1  C   UNL     1     -10.674  10.013  69.138  1.00  0.00    -0.220 C  
HETATM    2  S   UNL     1      -9.002  10.684  69.246  1.00  0.00    -0.016 SA 
HETATM    3  C   UNL     1      -8.240   9.103  69.682  1.00  0.00    -0.116 C  
HETATM    4  C   UNL     1      -8.978   8.285  70.736  1.00  0.00    -0.166 C  
HETATM    5  C   UNL     1     -12.174  10.127  70.586  1.00  0.00    -0.302 C  
HETATM    6  CA  UNL     1     -10.285   8.489  71.085  1.00  0.00    -0.214 C  
HETATM    7  C   UNL     1     -10.891   7.691  72.224  1.00  0.00    -0.267 C  
HETATM    8  CA  UNL     1     -11.833  11.047  69.361  1.00  0.00    -0.335 C  
HETATM    9  N   UNL     1     -11.028   9.434  70.418  1.00  0.00    -0.249 N  
HETATM   10  O   UNL     1     -11.986   8.193  72.821  1.00  0.00    -0.365 OA 
HETATM   11  OXT UNL     1     -10.428   6.630  72.622  1.00  0.00    -0.198 OA 
HETATM   12  O   UNL     1     -12.996  10.060  71.472  1.00  0.00    -0.366 OA 
ENDROOT
BRANCH   4  13
HETATM   13  C   UNL     1      -8.011   7.350  71.473  1.00  0.00    -0.095 C  
BRANCH  13  14
HETATM   14  S   UNL     1      -7.180   6.140  70.382  1.00  0.00    -0.089 SA 
BRANCH  14  15
HETATM   15  C   UNL     1      -8.257   4.795  70.576  1.00  0.00    -0.090 A  
HETATM   16  N   UNL     1      -8.070   3.790  71.404  1.00  0.00    -0.067 NA 
HETATM   17  N   UNL     1      -9.165   2.974  71.275  1.00  0.00    -0.111 NA 
HETATM   18  N   UNL     1      -9.448   4.601  69.929  1.00  0.00    -0.148 NA 
HETATM   19  N   UNL     1     -10.018   3.463  70.389  1.00  0.00     0.071 NA 
BRANCH  18  20
HETATM   20  C   UNL     1     -10.206   5.423  69.031  1.00  0.00    -0.221 C  
HETATM   21  O   UNL     1     -10.832   5.806  66.510  1.00  0.00    -0.276 OA 
HETATM   22  O   UNL     1      -9.765   3.706  67.145  1.00  0.00    -0.199 OA 
HETATM   23  O   UNL     1      -8.385   5.770  67.138  1.00  0.00    -0.105 OA 
HETATM   24  S   UNL     1      -9.742   5.313  67.320  1.00  0.00    -0.162 S  
ENDBRANCH  18  20
ENDBRANCH  14  15
ENDBRANCH  13  14
ENDBRANCH   4  13
BRANCH   8  25
HETATM   25  N   UNL     1     -11.415  12.428  69.710  1.00  0.00    -0.486 N  
HETATM   26  C   UNL     1     -11.629  13.534  68.914  1.00  0.00    -0.323 C  
HETATM   27  H   UNL     1     -10.937  12.569  70.600  1.00  0.00     0.000 HD 
HETATM   28  O   UNL     1     -12.142  13.474  67.801  1.00  0.00    -0.349 OA 
BRANCH  26  29
HETATM   29  C   UNL     1     -11.172  14.851  69.582  1.00  0.00    -0.275 C  
HETATM   30  O   UNL     1      -9.770  14.783  69.882  1.00  0.00    -0.429 OA 
HETATM   31  H   UNL     1      -9.488  15.592  70.293  1.00  0.00     0.000 HD 
BRANCH  29  32
HETATM   32  C   UNL     1     -11.944  15.147  70.851  1.00  0.00    -0.378 A  
HETATM   33  C   UNL     1     -13.347  15.133  70.837  1.00  0.00    -0.463 A  
HETATM   34  C   UNL     1     -11.288  15.422  72.063  1.00  0.00    -0.466 A  
HETATM   35  C   UNL     1     -12.015  15.703  73.221  1.00  0.00    -0.573 A  
HETATM   36  C   UNL     1     -13.407  15.705  73.187  1.00  0.00    -0.660 A  
HETATM   37  C   UNL     1     -14.073  15.415  71.996  1.00  0.00    -0.647 A  
ENDBRANCH  29  32
ENDBRANCH  26  29
ENDBRANCH   8  25
TORSDOF 7
ENDMDL
MODEL       29
REMARK 921   NORMALIZED FREE ENERGY PREDICTED BY IDOCK:   -7.07 KCAL/MOL
REMARK 922        TOTAL FREE ENERGY PREDICTED BY IDOCK:  -10.93 KCAL/MOL
REMARK 923 INTER-LIGAND FREE ENERGY PREDICTED BY IDOCK:   -9.84 KCAL/MOL
REMARK 924 INTRA-LIGAND FREE ENERGY PREDICTED BY IDOCK:   -1.09 KCAL/MOL
REMARK 927      BINDING AFFINITY PREDICTED BY RF-SCORE:    0.00 PKD
ROOT
HETATM    1  C   UNL     1     -10.418   9.992  67.173  1.00  0.00    -0.244 C  
HETATM    2  S   UNL     1     -11.656  11.000  68.016  1.00  0.00    -0.174 SA 
HETATM    3  C   UNL     1     -10.980  12.574  67.438  1.00  0.00    -0.259 C  
HETATM    4  C   UNL     1      -9.463  12.709  67.522  1.00  0.00    -0.186 C  
HETATM    5  C   UNL     1      -8.712   9.128  68.010  1.00  0.00    -0.129 C  
HETATM    6  CA  UNL     1      -8.608  11.650  67.658  1.00  0.00    -0.142 C  
HETATM    7  C   UNL     1      -7.123  11.903  67.842  1.00  0.00    -0.093 C  
HETATM    8  CA  UNL     1     -10.165   8.574  67.793  1.00  0.00    -0.225 C  
HETATM    9  N   UNL     1      -9.105  10.368  67.653  1.00  0.00    -0.138 N  
HETATM   10  O   UNL     1      -6.389  10.923  68.396  1.00  0.00    -0.052 OA 
HETATM   11  OXT UNL     1      -6.576  12.950  67.521  1.00  0.00    -0.145 OA 
HETATM   12  O   UNL     1      -7.651   8.748  68.451  1.00  0.00    -0.092 OA 
ENDROOT
BRANCH   4  13
HETATM   13  C   UNL     1      -9.054  14.184  67.628  1.00  0.00    -0.194 C  
BRANCH  13  14
HETATM   14  S   UNL     1     -10.441  15.306  68.031  1.00  0.00    -0.253 SA 
BRANCH  14  15
HETATM   15  C   UNL     1     -10.657  16.059  66.484  1.00  0.00    -0.284 A  
HETATM   16  N   UNL     1     -11.016  15.435  65.383  1.00  0.00    -0.362 NA 
HETATM   17  N   UNL     1     -11.108  16.395  64.408  1.00  0.00    -0.834 NA 
HETATM   18  N   UNL     1     -10.513  17.390  66.195  1.00  0.00    -0.327 NA 
HETATM   19  N   UNL     1     -10.816  17.592  64.892  1.00  0.00    -0.728 NA 
BRANCH  18  20
HETATM   20  C   UNL     1     -10.267  18.537  67.020  1.00  0.00    -0.380 C  
HETATM   21  O   UNL     1      -8.434  20.251  67.791  1.00  0.00    -0.287 OA 
HETATM   22  O   UNL     1      -7.972  18.833  65.861  1.00  0.00    -0.471 OA 
HETATM   23  O   UNL     1      -7.974  17.788  68.113  1.00  0.00    -0.244 OA 
HETATM   24  S   UNL     1      -8.559  18.876  67.366  1.00  0.00    -0.276 S  
ENDBRANCH  18  20
ENDBRANCH  14  15
ENDBRANCH  13  14
ENDBRANCH   4  13
BRANCH   8  25
HETATM   25  N   UNL     1     -10.912   8.264  69.038  1.00  0.00    -0.429 N  
HETATM   26  C   UNL     1     -11.047   7.000  69.574  1.00  0.00    -0.187 C  
HETATM   27  H   UNL     1     -11.357   9.038  69.530  1.00  0.00     0.000 HD 
HETATM   28  O   UNL     1     -10.604   5.990  69.038  1.00  0.00    -0.227 OA 
BRANCH  26  29
HETATM   29  C   UNL     1     -11.797   7.001  70.926  1.00  0.00    -0.356 C  
HETATM   30  O   UNL     1     -12.624   8.170  71.024  1.00  0.00    -0.486 OA 
HETATM   31  H   UNL     1     -13.085   8.170  71.854  1.00  0.00     0.000 HD 
BRANCH  29  32
HETATM   32  C   UNL     1     -10.849   6.956  72.106  1.00  0.00    -0.256 A  
HETATM   33  C   UNL     1      -9.836   7.919  72.229  1.00  0.00    -0.276 A  
HETATM   34  C   UNL     1     -10.964   5.975  73.105  1.00  0.00    -0.269 A  
HETATM   35  C   UNL     1     -10.075   5.942  74.180  1.00  0.00    -0.272 A  
HETATM   36  C   UNL     1      -9.063   6.893  74.277  1.00  0.00    -0.238 A  
HETATM   37  C   UNL     1      -8.947   7.885  73.305  1.00  0.00    -0.326 A  
ENDBRANCH  29  32
ENDBRANCH  26  29
ENDBRANCH   8  25
TORSDOF 7
ENDMDL
MODEL       30
REMARK 921   NORMALIZED FREE ENERGY PREDICTED BY IDOCK:   -7.05 KCAL/MOL
REMARK 922        TOTAL FREE ENERGY PREDICTED BY IDOCK:  -10.91 KCAL/MOL
REMARK 923 INTER-LIGAND FREE ENERGY PREDICTED BY IDOCK:  -10.17 KCAL/MOL
REMARK 924 INTRA-LIGAND FREE ENERGY PREDICTED BY IDOCK:   -0.74 KCAL/MOL
REMARK 927      BINDING AFFINITY PREDICTED BY RF-SCORE:    0.00 PKD
ROOT
HETATM    1  C   UNL     1     -11.498  12.659  67.075  1.00  0.00    -0.346 C  
HETATM    2  S   UNL     1      -9.802  12.079  66.855  1.00  0.00    -0.207 SA 
HETATM    3  C   UNL     1     -10.080  10.500  67.691  1.00  0.00    -0.179 C  
HETATM    4  C   UNL     1     -10.872  10.575  68.993  1.00  0.00    -0.272 C  
HETATM    5  C   UNL     1     -12.199  13.987  68.525  1.00  0.00    -0.174 C  
HETATM    6  CA  UNL     1     -11.646  11.641  69.356  1.00  0.00    -0.327 C  
HETATM    7  C   UNL     1     -12.305  11.660  70.723  1.00  0.00    -0.358 C  
HETATM    8  CA  UNL     1     -11.687  14.216  67.059  1.00  0.00    -0.405 C  
HETATM    9  N   UNL     1     -11.798  12.699  68.491  1.00  0.00    -0.317 N  
HETATM   10  O   UNL     1     -12.676  12.853  71.219  1.00  0.00    -0.367 OA 
HETATM   11  OXT UNL     1     -12.501  10.650  71.388  1.00  0.00    -0.368 OA 
HETATM   12  O   UNL     1     -12.639  14.637  69.446  1.00  0.00    -0.139 OA 
ENDROOT
BRANCH   4  13
HETATM   13  C   UNL     1     -10.527   9.390  69.906  1.00  0.00    -0.233 C  
BRANCH  13  14
HETATM   14  S   UNL     1      -9.020   8.485  69.402  1.00  0.00    -0.150 SA 
BRANCH  14  15
HETATM   15  C   UNL     1      -9.604   6.859  69.547  1.00  0.00    -0.148 A  
HETATM   16  N   UNL     1     -10.015   6.111  68.546  1.00  0.00    -0.140 NA 
HETATM   17  N   UNL     1     -10.350   4.895  69.084  1.00  0.00    -0.117 NA 
HETATM   18  N   UNL     1      -9.695   6.122  70.697  1.00  0.00    -0.172 NA 
HETATM   19  N   UNL     1     -10.148   4.884  70.392  1.00  0.00    -0.247 NA 
BRANCH  18  20
HETATM   20  C   UNL     1      -9.271   6.376  72.044  1.00  0.00    -0.148 C  
HETATM   21  O   UNL     1     -10.081   6.529  74.537  1.00  0.00    -0.344 OA 
HETATM   22  O   UNL     1     -11.557   5.501  72.889  1.00  0.00    -0.297 OA 
HETATM   23  O   UNL     1     -11.247   7.964  72.815  1.00  0.00    -0.372 OA 
HETATM   24  S   UNL     1     -10.571   6.746  73.196  1.00  0.00    -0.309 S  
ENDBRANCH  18  20
ENDBRANCH  14  15
ENDBRANCH  13  14
ENDBRANCH   4  13
BRANCH   8  25
HETATM   25  N   UNL     1     -10.446  15.022  66.945  1.00  0.00    -0.274 N  
HETATM   26  C   UNL     1     -10.083  15.744  65.827  1.00  0.00    -0.371 C  
HETATM   27  H   UNL     1      -9.819  15.044  67.749  1.00  0.00     0.000 HD 
HETATM   28  O   UNL     1     -10.730  15.743  64.785  1.00  0.00    -0.500 OA 
BRANCH  26  29
HETATM   29  C   UNL     1      -8.788  16.561  66.036  1.00  0.00    -0.232 C  
HETATM   30  O   UNL     1      -7.968  15.928  67.030  1.00  0.00    -0.189 OA 
HETATM   31  H   UNL     1      -7.172  16.430  67.159  1.00  0.00     0.000 HD 
BRANCH  29  32
HETATM   32  C   UNL     1      -9.074  17.988  66.456  1.00  0.00    -0.283 A  
HETATM   33  C   UNL     1      -8.073  18.965  66.345  1.00  0.00    -0.306 A  
HETATM   34  C   UNL     1     -10.334  18.372  66.944  1.00  0.00    -0.417 A  
HETATM   35  C   UNL     1     -10.577  19.689  67.336  1.00  0.00    -0.589 A  
HETATM   36  C   UNL     1      -9.568  20.643  67.239  1.00  0.00    -0.558 A  
HETATM   37  C   UNL     1      -8.318  20.282  66.739  1.00  0.00    -0.317 A  
ENDBRANCH  29  32
ENDBRANCH  26  29
ENDBRANCH   8  25
TORSDOF 7
ENDMDL
MODEL       31
REMARK 921   NORMALIZED FREE ENERGY PREDICTED BY IDOCK:   -7.05 KCAL/MOL
REMARK 922        TOTAL FREE ENERGY PREDICTED BY IDOCK:  -10.90 KCAL/MOL
REMARK 923 INTER-LIGAND FREE ENERGY PREDICTED BY IDOCK:   -9.90 KCAL/MOL
REMARK 924 INTRA-LIGAND FREE ENERGY PREDICTED BY IDOCK:   -1.01 KCAL/MOL
REMARK 927      BINDING AFFINITY PREDICTED BY RF-SCORE:    0.00 PKD
ROOT
HETATM    1  C   UNL     1      -9.513   8.960  70.811  1.00  0.00    -0.228 C  
HETATM    2  S   UNL     1      -9.408   9.013  69.010  1.00  0.00    -0.141 SA 
HETATM    3  C   UNL     1      -9.929  10.740  68.885  1.00  0.00    -0.202 C  
HETATM    4  C   UNL     1     -11.118  11.133  69.755  1.00  0.00    -0.271 C  
HETATM    5  C   UNL     1     -11.068   8.175  71.962  1.00  0.00    -0.306 C  
HETATM    6  CA  UNL     1     -11.558  10.403  70.824  1.00  0.00    -0.358 C  
HETATM    7  C   UNL     1     -12.818  10.827  71.556  1.00  0.00    -0.462 C  
HETATM    8  CA  UNL     1      -9.734   7.538  71.434  1.00  0.00    -0.166 C  
HETATM    9  N   UNL     1     -10.869   9.277  71.209  1.00  0.00    -0.320 N  
HETATM   10  O   UNL     1     -13.456   9.896  72.286  1.00  0.00    -0.430 OA 
HETATM   11  OXT UNL     1     -13.275  11.962  71.503  1.00  0.00    -0.358 OA 
HETATM   12  O   UNL     1     -12.024   7.857  72.633  1.00  0.00    -0.327 OA 
ENDROOT
BRANCH   4  13
HETATM   13  C   UNL     1     -11.856  12.337  69.153  1.00  0.00    -0.301 C  
BRANCH  13  14
HETATM   14  S   UNL     1     -10.751  13.548  68.342  1.00  0.00    -0.264 SA 
BRANCH  14  15
HETATM   15  C   UNL     1     -11.407  13.502  66.738  1.00  0.00    -0.328 A  
HETATM   16  N   UNL     1     -12.493  12.848  66.383  1.00  0.00    -0.359 NA 
HETATM   17  N   UNL     1     -12.680  13.105  65.049  1.00  0.00    -0.686 NA 
HETATM   18  N   UNL     1     -10.917  14.148  65.635  1.00  0.00    -0.300 NA 
HETATM   19  N   UNL     1     -11.734  13.905  64.584  1.00  0.00    -0.378 NA 
BRANCH  18  20
HETATM   20  C   UNL     1      -9.851  15.092  65.462  1.00  0.00    -0.321 C  
HETATM   21  O   UNL     1      -9.133  17.586  65.856  1.00  0.00    -0.512 OA 
HETATM   22  O   UNL     1     -11.117  16.746  67.000  1.00  0.00    -0.038 OA 
HETATM   23  O   UNL     1     -11.253  17.149  64.553  1.00  0.00    -1.104 OA 
HETATM   24  S   UNL     1     -10.317  16.800  65.596  1.00  0.00    -0.186 S  
ENDBRANCH  18  20
ENDBRANCH  14  15
ENDBRANCH  13  14
ENDBRANCH   4  13
BRANCH   8  25
HETATM   25  N   UNL     1      -9.909   6.423  70.469  1.00  0.00    -0.182 N  
HETATM   26  C   UNL     1      -9.365   5.165  70.621  1.00  0.00    -0.159 C  
HETATM   27  H   UNL     1     -10.469   6.601  69.636  1.00  0.00     0.000 HD 
HETATM   28  O   UNL     1      -8.630   4.857  71.553  1.00  0.00    -0.118 OA 
BRANCH  26  29
HETATM   29  C   UNL     1      -9.798   4.187  69.506  1.00  0.00    -0.113 C  
HETATM   30  O   UNL     1      -9.378   2.854  69.836  1.00  0.00    -0.142 OA 
HETATM   31  H   UNL     1      -9.644   2.253  69.151  1.00  0.00     0.000 HD 
BRANCH  29  32
HETATM   32  C   UNL     1      -9.230   4.572  68.156  1.00  0.00    -0.170 A  
HETATM   33  C   UNL     1      -7.842   4.689  67.986  1.00  0.00    -0.081 A  
HETATM   34  C   UNL     1     -10.062   4.802  67.046  1.00  0.00    -0.228 A  
HETATM   35  C   UNL     1      -9.522   5.166  65.812  1.00  0.00    -0.153 A  
HETATM   36  C   UNL     1      -8.144   5.299  65.665  1.00  0.00    -0.117 A  
HETATM   37  C   UNL     1      -7.304   5.055  66.751  1.00  0.00    -0.086 A  
ENDBRANCH  29  32
ENDBRANCH  26  29
ENDBRANCH   8  25
TORSDOF 7
ENDMDL
MODEL       32
REMARK 921   NORMALIZED FREE ENERGY PREDICTED BY IDOCK:   -7.04 KCAL/MOL
REMARK 922        TOTAL FREE ENERGY PREDICTED BY IDOCK:  -10.89 KCAL/MOL
REMARK 923 INTER-LIGAND FREE ENERGY PREDICTED BY IDOCK:  -10.07 KCAL/MOL
REMARK 924 INTRA-LIGAND FREE ENERGY PREDICTED BY IDOCK:   -0.82 KCAL/MOL
REMARK 927      BINDING AFFINITY PREDICTED BY RF-SCORE:    0.00 PKD
ROOT
HETATM    1  C   UNL     1     -11.825  14.445  68.473  1.00  0.00    -0.334 C  
HETATM    2  S   UNL     1     -10.175  13.763  68.203  1.00  0.00    -0.259 SA 
HETATM    3  C   UNL     1     -10.652  12.066  68.607  1.00  0.00    -0.229 C  
HETATM    4  C   UNL     1     -11.528  11.907  69.846  1.00  0.00    -0.264 C  
HETATM    5  C   UNL     1     -12.513  15.450  70.168  1.00  0.00    -0.335 C  
HETATM    6  CA  UNL     1     -12.231  12.929  70.422  1.00  0.00    -0.304 C  
HETATM    7  C   UNL     1     -12.986  12.685  71.715  1.00  0.00    -0.313 C  
HETATM    8  CA  UNL     1     -11.875  15.971  68.832  1.00  0.00    -0.242 C  
HETATM    9  N   UNL     1     -12.225  14.173  69.838  1.00  0.00    -0.346 N  
HETATM   10  O   UNL     1     -13.287  13.755  72.471  1.00  0.00    -0.499 OA 
HETATM   11  OXT UNL     1     -13.319  11.571  72.099  1.00  0.00    -0.477 OA 
HETATM   12  O   UNL     1     -12.962  15.901  71.198  1.00  0.00    -0.463 OA 
ENDROOT
BRANCH   4  13
HETATM   13  C   UNL     1     -11.358  10.508  70.454  1.00  0.00    -0.328 C  
BRANCH  13  14
HETATM   14  S   UNL     1      -9.975   9.554  69.733  1.00  0.00    -0.229 SA 
BRANCH  14  15
HETATM   15  C   UNL     1     -10.565   7.947  70.004  1.00  0.00    -0.242 A  
HETATM   16  N   UNL     1     -11.574   7.635  70.790  1.00  0.00    -0.284 NA 
HETATM   17  N   UNL     1     -11.735   6.277  70.689  1.00  0.00    -0.297 NA 
HETATM   18  N   UNL     1     -10.095   6.795  69.432  1.00  0.00    -0.167 NA 
HETATM   19  N   UNL     1     -10.849   5.755  69.856  1.00  0.00    -0.347 NA 
BRANCH  18  20
HETATM   20  C   UNL     1      -9.113   6.552  68.415  1.00  0.00    -0.123 C  
HETATM   21  O   UNL     1      -8.649   6.670  65.834  1.00  0.00    -0.143 OA 
HETATM   22  O   UNL     1     -10.603   7.827  66.725  1.00  0.00    -0.331 OA 
HETATM   23  O   UNL     1     -10.650   5.346  66.625  1.00  0.00    -0.280 OA 
HETATM   24  S   UNL     1      -9.740   6.460  66.756  1.00  0.00    -0.155 S  
ENDBRANCH  18  20
ENDBRANCH  14  15
ENDBRANCH  13  14
ENDBRANCH   4  13
BRANCH   8  25
HETATM   25  N   UNL     1     -10.564  16.648  68.984  1.00  0.00    -0.320 N  
HETATM   26  C   UNL     1     -10.139  17.712  68.216  1.00  0.00    -0.362 C  
HETATM   27  H   UNL     1      -9.932  16.303  69.707  1.00  0.00     0.000 HD 
HETATM   28  O   UNL     1     -10.791  18.171  67.283  1.00  0.00    -0.353 OA 
BRANCH  26  29
HETATM   29  C   UNL     1      -8.771  18.270  68.668  1.00  0.00    -0.271 C  
HETATM   30  O   UNL     1      -8.944  19.568  69.256  1.00  0.00    -0.228 OA 
HETATM   31  H   UNL     1      -8.103  19.911  69.534  1.00  0.00     0.000 HD 
BRANCH  29  32
HETATM   32  C   UNL     1      -7.785  18.365  67.522  1.00  0.00    -0.231 A  
HETATM   33  C   UNL     1      -6.867  17.327  67.299  1.00  0.00    -0.195 A  
HETATM   34  C   UNL     1      -7.772  19.469  66.653  1.00  0.00    -0.286 A  
HETATM   35  C   UNL     1      -6.850  19.545  65.608  1.00  0.00    -0.313 A  
HETATM   36  C   UNL     1      -5.932  18.516  65.412  1.00  0.00    -0.284 A  
HETATM   37  C   UNL     1      -5.945  17.405  66.254  1.00  0.00    -0.231 A  
ENDBRANCH  29  32
ENDBRANCH  26  29
ENDBRANCH   8  25
TORSDOF 7
ENDMDL
MODEL       33
REMARK 921   NORMALIZED FREE ENERGY PREDICTED BY IDOCK:   -7.03 KCAL/MOL
REMARK 922        TOTAL FREE ENERGY PREDICTED BY IDOCK:  -10.88 KCAL/MOL
REMARK 923 INTER-LIGAND FREE ENERGY PREDICTED BY IDOCK:   -9.33 KCAL/MOL
REMARK 924 INTRA-LIGAND FREE ENERGY PREDICTED BY IDOCK:   -1.54 KCAL/MOL
REMARK 927      BINDING AFFINITY PREDICTED BY RF-SCORE:    0.00 PKD
ROOT
HETATM    1  C   UNL     1      -9.816   6.750  68.953  1.00  0.00    -0.145 C  
HETATM    2  S   UNL     1     -10.900   7.495  67.717  1.00  0.00    -0.018 SA 
HETATM    3  C   UNL     1      -9.591   7.712  66.489  1.00  0.00    -0.186 C  
HETATM    4  C   UNL     1      -8.274   8.269  67.022  1.00  0.00    -0.104 C  
HETATM    5  C   UNL     1      -8.951   7.691  70.604  1.00  0.00    -0.153 C  
HETATM    6  CA  UNL     1      -7.925   8.272  68.344  1.00  0.00    -0.119 C  
HETATM    7  C   UNL     1      -6.639   8.950  68.779  1.00  0.00    -0.054 C  
HETATM    8  CA  UNL     1     -10.292   6.890  70.442  1.00  0.00    -0.202 C  
HETATM    9  N   UNL     1      -8.756   7.685  69.269  1.00  0.00    -0.136 N  
HETATM   10  O   UNL     1      -6.536   9.319  70.068  1.00  0.00    -0.043 OA 
HETATM   11  OXT UNL     1      -5.710   9.179  68.016  1.00  0.00    -0.038 OA 
HETATM   12  O   UNL     1      -8.332   8.259  71.475  1.00  0.00    -0.114 OA 
ENDROOT
BRANCH   4  13
HETATM   13  C   UNL     1      -7.499   8.987  65.909  1.00  0.00    -0.094 C  
BRANCH  13  14
HETATM   14  S   UNL     1      -8.497  10.212  64.987  1.00  0.00    -0.170 SA 
BRANCH  14  15
HETATM   15  C   UNL     1      -8.693  11.409  66.225  1.00  0.00    -0.173 A  
HETATM   16  N   UNL     1      -7.709  12.001  66.867  1.00  0.00    -0.120 NA 
HETATM   17  N   UNL     1      -8.292  12.899  67.725  1.00  0.00    -0.164 NA 
HETATM   18  N   UNL     1      -9.876  11.922  66.687  1.00  0.00    -0.198 NA 
HETATM   19  N   UNL     1      -9.611  12.870  67.616  1.00  0.00    -0.190 NA 
BRANCH  18  20
HETATM   20  C   UNL     1     -11.236  11.746  66.266  1.00  0.00    -0.312 C  
HETATM   21  O   UNL     1     -13.125  12.706  64.717  1.00  0.00    -0.852 OA 
HETATM   22  O   UNL     1     -10.832  13.463  64.370  1.00  0.00    -0.384 OA 
HETATM   23  O   UNL     1     -12.044  14.266  66.384  1.00  0.00    -0.422 OA 
HETATM   24  S   UNL     1     -11.976  13.150  65.470  1.00  0.00    -0.439 S  
ENDBRANCH  18  20
ENDBRANCH  14  15
ENDBRANCH  13  14
ENDBRANCH   4  13
BRANCH   8  25
HETATM   25  N   UNL     1     -11.528   7.682  70.659  1.00  0.00    -0.331 N  
HETATM   26  C   UNL     1     -11.950   8.152  71.885  1.00  0.00    -0.320 C  
HETATM   27  H   UNL     1     -12.105   7.894  69.845  1.00  0.00     0.000 HD 
HETATM   28  O   UNL     1     -11.367   7.909  72.936  1.00  0.00    -0.406 OA 
BRANCH  26  29
HETATM   29  C   UNL     1     -13.221   9.027  71.786  1.00  0.00    -0.389 C  
HETATM   30  O   UNL     1     -14.130   8.458  70.832  1.00  0.00    -0.594 OA 
HETATM   31  H   UNL     1     -14.911   8.996  70.771  1.00  0.00     0.000 HD 
BRANCH  29  32
HETATM   32  C   UNL     1     -12.903  10.453  71.391  1.00  0.00    -0.556 A  
HETATM   33  C   UNL     1     -13.515  11.521  72.065  1.00  0.00    -0.298 A  
HETATM   34  C   UNL     1     -11.989  10.745  70.364  1.00  0.00    -0.448 A  
HETATM   35  C   UNL     1     -11.716  12.066  70.005  1.00  0.00    -0.346 A  
HETATM   36  C   UNL     1     -12.346  13.114  70.671  1.00  0.00    -0.405 A  
HETATM   37  C   UNL     1     -13.241  12.842  71.704  1.00  0.00    -0.410 A  
ENDBRANCH  29  32
ENDBRANCH  26  29
ENDBRANCH   8  25
TORSDOF 7
ENDMDL
MODEL       34
REMARK 921   NORMALIZED FREE ENERGY PREDICTED BY IDOCK:   -7.03 KCAL/MOL
REMARK 922        TOTAL FREE ENERGY PREDICTED BY IDOCK:  -10.87 KCAL/MOL
REMARK 923 INTER-LIGAND FREE ENERGY PREDICTED BY IDOCK:   -9.74 KCAL/MOL
REMARK 924 INTRA-LIGAND FREE ENERGY PREDICTED BY IDOCK:   -1.13 KCAL/MOL
REMARK 927      BINDING AFFINITY PREDICTED BY RF-SCORE:    0.00 PKD
ROOT
HETATM    1  C   UNL     1     -11.717  12.384  66.576  1.00  0.00    -0.379 C  
HETATM    2  S   UNL     1     -10.090  11.951  65.926  1.00  0.00    -0.242 SA 
HETATM    3  C   UNL     1     -10.179  10.223  66.451  1.00  0.00    -0.225 C  
HETATM    4  C   UNL     1     -10.702   9.992  67.865  1.00  0.00    -0.322 C  
HETATM    5  C   UNL     1     -12.139  13.353  68.377  1.00  0.00    -0.235 C  
HETATM    6  CA  UNL     1     -11.404  10.920  68.582  1.00  0.00    -0.295 C  
HETATM    7  C   UNL     1     -11.784  10.628  70.021  1.00  0.00    -0.324 C  
HETATM    8  CA  UNL     1     -11.926  13.900  66.921  1.00  0.00    -0.433 C  
HETATM    9  N   UNL     1     -11.736  12.122  68.000  1.00  0.00    -0.348 N  
HETATM   10  O   UNL     1     -12.066  11.675  70.816  1.00  0.00    -0.364 OA 
HETATM   11  OXT UNL     1     -11.833   9.496  70.486  1.00  0.00    -0.256 OA 
HETATM   12  O   UNL     1     -12.399  13.780  69.479  1.00  0.00    -0.316 OA 
ENDROOT
BRANCH   4  13
HETATM   13  C   UNL     1     -10.171   8.667  68.430  1.00  0.00    -0.200 C  
BRANCH  13  14
HETATM   14  S   UNL     1     -10.885   7.186  67.630  1.00  0.00    -0.174 SA 
BRANCH  14  15
HETATM   15  C   UNL     1     -10.559   6.011  68.863  1.00  0.00    -0.290 A  
HETATM   16  N   UNL     1     -10.944   6.106  70.117  1.00  0.00    -0.326 NA 
HETATM   17  N   UNL     1     -10.519   4.959  70.738  1.00  0.00    -0.157 NA 
HETATM   18  N   UNL     1      -9.890   4.827  68.708  1.00  0.00    -0.165 NA 
HETATM   19  N   UNL     1      -9.887   4.166  69.888  1.00  0.00    -0.212 NA 
BRANCH  18  20
HETATM   20  C   UNL     1      -9.372   4.153  67.552  1.00  0.00    -0.171 C  
HETATM   21  O   UNL     1      -7.188   3.639  66.189  1.00  0.00    -0.065 OA 
HETATM   22  O   UNL     1      -6.973   4.550  68.442  1.00  0.00    -0.050 OA 
HETATM   23  O   UNL     1      -7.772   6.056  66.636  1.00  0.00    -0.100 OA 
HETATM   24  S   UNL     1      -7.754   4.667  67.031  1.00  0.00    -0.091 S  
ENDBRANCH  18  20
ENDBRANCH  14  15
ENDBRANCH  13  14
ENDBRANCH   4  13
BRANCH   8  25
HETATM   25  N   UNL     1     -10.742  14.777  66.746  1.00  0.00    -0.302 N  
HETATM   26  C   UNL     1     -10.499  15.551  65.630  1.00  0.00    -0.374 C  
HETATM   27  H   UNL     1     -10.060  14.811  67.504  1.00  0.00     0.000 HD 
HETATM   28  O   UNL     1     -11.220  15.545  64.637  1.00  0.00    -0.423 OA 
BRANCH  26  29
HETATM   29  C   UNL     1      -9.238  16.432  65.774  1.00  0.00    -0.075 C  
HETATM   30  O   UNL     1      -8.169  15.663  66.344  1.00  0.00    -0.309 OA 
HETATM   31  H   UNL     1      -7.393  16.205  66.433  1.00  0.00     0.000 HD 
BRANCH  29  32
HETATM   32  C   UNL     1      -9.490  17.655  66.632  1.00  0.00    -0.288 A  
HETATM   33  C   UNL     1      -8.666  17.918  67.736  1.00  0.00    -0.250 A  
HETATM   34  C   UNL     1     -10.529  18.555  66.342  1.00  0.00    -0.443 A  
HETATM   35  C   UNL     1     -10.754  19.671  67.149  1.00  0.00    -0.587 A  
HETATM   36  C   UNL     1      -9.940  19.908  68.253  1.00  0.00    -0.552 A  
HETATM   37  C   UNL     1      -8.892  19.035  68.543  1.00  0.00    -0.398 A  
ENDBRANCH  29  32
ENDBRANCH  26  29
ENDBRANCH   8  25
TORSDOF 7
ENDMDL
MODEL       35
REMARK 921   NORMALIZED FREE ENERGY PREDICTED BY IDOCK:   -7.02 KCAL/MOL
REMARK 922        TOTAL FREE ENERGY PREDICTED BY IDOCK:  -10.86 KCAL/MOL
REMARK 923 INTER-LIGAND FREE ENERGY PREDICTED BY IDOCK:   -9.85 KCAL/MOL
REMARK 924 INTRA-LIGAND FREE ENERGY PREDICTED BY IDOCK:   -1.01 KCAL/MOL
REMARK 927      BINDING AFFINITY PREDICTED BY RF-SCORE:    0.00 PKD
ROOT
HETATM    1  C   UNL     1      -7.356   9.272  66.691  1.00  0.00    -0.086 C  
HETATM    2  S   UNL     1      -8.985   9.759  66.084  1.00  0.00    -0.159 SA 
HETATM    3  C   UNL     1      -8.631  11.532  66.123  1.00  0.00    -0.094 C  
HETATM    4  C   UNL     1      -7.923  12.033  67.378  1.00  0.00    -0.165 C  
HETATM    5  C   UNL     1      -6.846   8.737  68.643  1.00  0.00    -0.063 C  
HETATM    6  CA  UNL     1      -7.258  11.223  68.256  1.00  0.00    -0.080 C  
HETATM    7  C   UNL     1      -6.681  11.810  69.531  1.00  0.00    -0.067 C  
HETATM    8  CA  UNL     1      -7.291   7.878  67.406  1.00  0.00    -0.092 C  
HETATM    9  N   UNL     1      -7.141   9.879  67.988  1.00  0.00    -0.081 N  
HETATM   10  O   UNL     1      -6.434  10.967  70.548  1.00  0.00    -0.301 OA 
HETATM   11  OXT UNL     1      -6.444  13.003  69.673  1.00  0.00    -0.110 OA 
HETATM   12  O   UNL     1      -6.512   8.568  69.794  1.00  0.00    -0.035 OA 
ENDROOT
BRANCH   4  13
HETATM   13  C   UNL     1      -8.224  13.519  67.614  1.00  0.00    -0.178 C  
BRANCH  13  14
HETATM   14  S   UNL     1     -10.000  13.882  67.860  1.00  0.00    -0.248 SA 
BRANCH  14  15
HETATM   15  C   UNL     1     -10.189  15.169  66.715  1.00  0.00    -0.264 A  
HETATM   16  N   UNL     1      -9.929  16.437  66.952  1.00  0.00    -0.262 NA 
HETATM   17  N   UNL     1     -10.172  17.107  65.781  1.00  0.00    -0.572 NA 
HETATM   18  N   UNL     1     -10.602  15.053  65.415  1.00  0.00    -0.349 NA 
HETATM   19  N   UNL     1     -10.571  16.274  64.833  1.00  0.00    -0.662 NA 
BRANCH  18  20
HETATM   20  C   UNL     1     -10.888  13.915  64.589  1.00  0.00    -0.408 C  
HETATM   21  O   UNL     1     -12.751  12.197  63.904  1.00  0.00    -0.624 OA 
HETATM   22  O   UNL     1     -13.405  14.206  65.124  1.00  0.00    -0.684 OA 
HETATM   23  O   UNL     1     -12.186  12.428  66.356  1.00  0.00    -0.604 OA 
HETATM   24  S   UNL     1     -12.339  12.994  65.036  1.00  0.00    -0.478 S  
ENDBRANCH  18  20
ENDBRANCH  14  15
ENDBRANCH  13  14
ENDBRANCH   4  13
BRANCH   8  25
HETATM   25  N   UNL     1      -8.583   7.166  67.567  1.00  0.00    -0.122 N  
HETATM   26  C   UNL     1      -8.833   5.887  67.116  1.00  0.00    -0.107 C  
HETATM   27  H   UNL     1      -9.339   7.657  68.045  1.00  0.00     0.000 HD 
HETATM   28  O   UNL     1      -8.018   5.227  66.480  1.00  0.00    -0.103 OA 
BRANCH  26  29
HETATM   29  C   UNL     1     -10.236   5.375  67.512  1.00  0.00    -0.194 C  
HETATM   30  O   UNL     1     -11.242   6.115  66.806  1.00  0.00    -0.664 OA 
HETATM   31  H   UNL     1     -12.105   5.801  67.049  1.00  0.00     0.000 HD 
BRANCH  29  32
HETATM   32  C   UNL     1     -10.485   5.485  69.002  1.00  0.00    -0.296 A  
HETATM   33  C   UNL     1     -11.423   6.407  69.490  1.00  0.00    -0.412 A  
HETATM   34  C   UNL     1      -9.807   4.668  69.923  1.00  0.00    -0.296 A  
HETATM   35  C   UNL     1     -10.040   4.790  71.293  1.00  0.00    -0.258 A  
HETATM   36  C   UNL     1     -10.960   5.723  71.764  1.00  0.00    -0.317 A  
HETATM   37  C   UNL     1     -11.655   6.528  70.862  1.00  0.00    -0.417 A  
ENDBRANCH  29  32
ENDBRANCH  26  29
ENDBRANCH   8  25
TORSDOF 7
ENDMDL
MODEL       36
REMARK 921   NORMALIZED FREE ENERGY PREDICTED BY IDOCK:   -7.00 KCAL/MOL
REMARK 922        TOTAL FREE ENERGY PREDICTED BY IDOCK:  -10.83 KCAL/MOL
REMARK 923 INTER-LIGAND FREE ENERGY PREDICTED BY IDOCK:   -9.69 KCAL/MOL
REMARK 924 INTRA-LIGAND FREE ENERGY PREDICTED BY IDOCK:   -1.14 KCAL/MOL
REMARK 927      BINDING AFFINITY PREDICTED BY RF-SCORE:    0.00 PKD
ROOT
HETATM    1  C   UNL     1     -11.809  13.592  67.727  1.00  0.00    -0.368 C  
HETATM    2  S   UNL     1     -10.428  12.439  67.570  1.00  0.00    -0.217 SA 
HETATM    3  C   UNL     1     -11.198  11.154  68.582  1.00  0.00    -0.255 C  
HETATM    4  C   UNL     1     -11.858  11.637  69.870  1.00  0.00    -0.434 C  
HETATM    5  C   UNL     1     -11.945  15.228  69.017  1.00  0.00    -0.276 C  
HETATM    6  CA  UNL     1     -12.200  12.939  70.111  1.00  0.00    -0.266 C  
HETATM    7  C   UNL     1     -12.753  13.331  71.469  1.00  0.00    -0.281 C  
HETATM    8  CA  UNL     1     -11.449  15.107  67.533  1.00  0.00    -0.298 C  
HETATM    9  N   UNL     1     -12.015  13.885  69.130  1.00  0.00    -0.348 N  
HETATM   10  O   UNL     1     -12.668  14.624  71.825  1.00  0.00    -0.311 OA 
HETATM   11  OXT UNL     1     -13.256  12.530  72.245  1.00  0.00    -0.469 OA 
HETATM   12  O   UNL     1     -12.094  16.085  69.859  1.00  0.00    -0.278 OA 
ENDROOT
BRANCH   4  13
HETATM   13  C   UNL     1     -11.904  10.512  70.912  1.00  0.00    -0.355 C  
BRANCH  13  14
HETATM   14  S   UNL     1     -11.227   8.923  70.311  1.00  0.00    -0.146 SA 
BRANCH  14  15
HETATM   15  C   UNL     1      -9.753   8.879  71.223  1.00  0.00    -0.289 A  
HETATM   16  N   UNL     1      -9.621   8.355  72.422  1.00  0.00    -0.290 NA 
HETATM   17  N   UNL     1      -8.300   8.492  72.761  1.00  0.00    -0.384 NA 
HETATM   18  N   UNL     1      -8.530   9.350  70.825  1.00  0.00    -0.251 NA 
HETATM   19  N   UNL     1      -7.622   9.086  71.792  1.00  0.00    -0.340 NA 
BRANCH  18  20
HETATM   20  C   UNL     1      -8.061   9.892  69.583  1.00  0.00    -0.165 C  
HETATM   21  O   UNL     1      -7.094   9.276  67.221  1.00  0.00    -0.081 OA 
HETATM   22  O   UNL     1      -8.099   7.510  68.571  1.00  0.00    -0.121 OA 
HETATM   23  O   UNL     1      -5.890   8.407  69.266  1.00  0.00    -0.033 OA 
HETATM   24  S   UNL     1      -7.104   8.784  68.579  1.00  0.00    -0.073 S  
ENDBRANCH  18  20
ENDBRANCH  14  15
ENDBRANCH  13  14
ENDBRANCH   4  13
BRANCH   8  25
HETATM   25  N   UNL     1     -10.013  15.414  67.323  1.00  0.00    -0.225 N  
HETATM   26  C   UNL     1      -9.513  16.118  66.247  1.00  0.00    -0.316 C  
HETATM   27  H   UNL     1      -9.349  15.082  68.022  1.00  0.00     0.000 HD 
HETATM   28  O   UNL     1     -10.210  16.515  65.319  1.00  0.00    -0.588 OA 
BRANCH  26  29
HETATM   29  C   UNL     1      -7.990  16.366  66.348  1.00  0.00    -0.294 C  
HETATM   30  O   UNL     1      -7.460  15.674  67.489  1.00  0.00    -0.144 OA 
HETATM   31  H   UNL     1      -6.524  15.826  67.551  1.00  0.00     0.000 HD 
BRANCH  29  32
HETATM   32  C   UNL     1      -7.657  17.839  66.454  1.00  0.00    -0.313 A  
HETATM   33  C   UNL     1      -8.453  18.684  67.242  1.00  0.00    -0.275 A  
HETATM   34  C   UNL     1      -6.548  18.391  65.791  1.00  0.00    -0.313 A  
HETATM   35  C   UNL     1      -6.261  19.754  65.891  1.00  0.00    -0.208 A  
HETATM   36  C   UNL     1      -7.073  20.582  66.661  1.00  0.00    -0.313 A  
HETATM   37  C   UNL     1      -8.165  20.046  67.340  1.00  0.00    -0.373 A  
ENDBRANCH  29  32
ENDBRANCH  26  29
ENDBRANCH   8  25
TORSDOF 7
ENDMDL
MODEL       37
REMARK 921   NORMALIZED FREE ENERGY PREDICTED BY IDOCK:   -6.91 KCAL/MOL
REMARK 922        TOTAL FREE ENERGY PREDICTED BY IDOCK:  -10.70 KCAL/MOL
REMARK 923 INTER-LIGAND FREE ENERGY PREDICTED BY IDOCK:   -8.81 KCAL/MOL
REMARK 924 INTRA-LIGAND FREE ENERGY PREDICTED BY IDOCK:   -1.89 KCAL/MOL
REMARK 927      BINDING AFFINITY PREDICTED BY RF-SCORE:    0.00 PKD
ROOT
HETATM    1  C   UNL     1      -8.403  12.341  67.147  1.00  0.00    -0.183 C  
HETATM    2  S   UNL     1      -7.576  12.824  68.677  1.00  0.00    -0.038 SA 
HETATM    3  C   UNL     1      -6.693  11.258  68.865  1.00  0.00    -0.081 C  
HETATM    4  C   UNL     1      -7.521  10.001  68.618  1.00  0.00    -0.083 C  
HETATM    5  C   UNL     1     -10.362  11.651  66.934  1.00  0.00    -0.220 C  
HETATM    6  CA  UNL     1      -8.715   9.992  67.951  1.00  0.00    -0.125 C  
HETATM    7  C   UNL     1      -9.511   8.704  67.855  1.00  0.00    -0.139 C  
HETATM    8  CA  UNL     1      -9.745  13.092  66.837  1.00  0.00    -0.238 C  
HETATM    9  N   UNL     1      -9.196  11.156  67.398  1.00  0.00    -0.152 N  
HETATM   10  O   UNL     1     -10.827   8.803  67.599  1.00  0.00    -0.190 OA 
HETATM   11  OXT UNL     1      -9.015   7.595  68.007  1.00  0.00    -0.127 OA 
HETATM   12  O   UNL     1     -11.441  11.115  66.820  1.00  0.00    -0.380 OA 
ENDROOT
BRANCH   4  13
HETATM   13  C   UNL     1      -6.932   8.805  69.377  1.00  0.00    -0.053 C  
BRANCH  13  14
HETATM   14  S   UNL     1      -7.325   8.799  71.163  1.00  0.00    -0.100 SA 
BRANCH  14  15
HETATM   15  C   UNL     1      -8.160   7.283  71.265  1.00  0.00    -0.102 A  
HETATM   16  N   UNL     1      -7.707   6.138  70.803  1.00  0.00    -0.099 NA 
HETATM   17  N   UNL     1      -8.648   5.192  71.122  1.00  0.00    -0.121 NA 
HETATM   18  N   UNL     1      -9.375   7.056  71.854  1.00  0.00    -0.141 NA 
HETATM   19  N   UNL     1      -9.663   5.737  71.774  1.00  0.00    -0.156 NA 
BRANCH  18  20
HETATM   20  C   UNL     1     -10.249   7.896  72.622  1.00  0.00    -0.296 C  
HETATM   21  O   UNL     1     -12.457   9.313  72.535  1.00  0.00    -0.285 OA 
HETATM   22  O   UNL     1     -12.001   7.746  70.721  1.00  0.00    -0.256 OA 
HETATM   23  O   UNL     1     -10.646   9.824  70.849  1.00  0.00    -0.313 OA 
HETATM   24  S   UNL     1     -11.375   8.891  71.676  1.00  0.00    -0.361 S  
ENDBRANCH  18  20
ENDBRANCH  14  15
ENDBRANCH  13  14
ENDBRANCH   4  13
BRANCH   8  25
HETATM   25  N   UNL     1     -10.212  14.047  67.873  1.00  0.00    -0.236 N  
HETATM   26  C   UNL     1     -11.495  14.544  67.957  1.00  0.00    -0.321 C  
HETATM   27  H   UNL     1      -9.536  14.357  68.571  1.00  0.00     0.000 HD 
HETATM   28  O   UNL     1     -12.372  14.284  67.139  1.00  0.00    -0.360 OA 
BRANCH  26  29
HETATM   29  C   UNL     1     -11.710  15.442  69.196  1.00  0.00    -0.345 C  
HETATM   30  O   UNL     1     -10.443  15.888  69.700  1.00  0.00    -0.252 OA 
HETATM   31  H   UNL     1     -10.574  16.440  70.461  1.00  0.00     0.000 HD 
BRANCH  29  32
HETATM   32  C   UNL     1     -12.465  14.727  70.296  1.00  0.00    -0.393 A  
HETATM   33  C   UNL     1     -12.245  13.360  70.525  1.00  0.00    -0.425 A  
HETATM   34  C   UNL     1     -13.382  15.404  71.119  1.00  0.00    -0.580 A  
HETATM   35  C   UNL     1     -14.077  14.727  72.122  1.00  0.00    -0.604 A  
HETATM   36  C   UNL     1     -13.862  13.366  72.323  1.00  0.00    -0.671 A  
HETATM   37  C   UNL     1     -12.942  12.684  71.528  1.00  0.00    -0.380 A  
ENDBRANCH  29  32
ENDBRANCH  26  29
ENDBRANCH   8  25
TORSDOF 7
ENDMDL
MODEL       38
REMARK 921   NORMALIZED FREE ENERGY PREDICTED BY IDOCK:   -6.91 KCAL/MOL
REMARK 922        TOTAL FREE ENERGY PREDICTED BY IDOCK:  -10.70 KCAL/MOL
REMARK 923 INTER-LIGAND FREE ENERGY PREDICTED BY IDOCK:  -10.12 KCAL/MOL
REMARK 924 INTRA-LIGAND FREE ENERGY PREDICTED BY IDOCK:   -0.58 KCAL/MOL
REMARK 927      BINDING AFFINITY PREDICTED BY RF-SCORE:    0.00 PKD
ROOT
HETATM    1  C   UNL     1     -11.753  14.534  68.763  1.00  0.00    -0.327 C  
HETATM    2  S   UNL     1     -10.197  14.888  69.607  1.00  0.00    -0.030 SA 
HETATM    3  C   UNL     1      -9.922  16.456  68.749  1.00  0.00    -0.246 C  
HETATM    4  C   UNL     1     -10.176  16.437  67.246  1.00  0.00    -0.278 C  
HETATM    5  C   UNL     1     -12.045  13.256  67.138  1.00  0.00    -0.298 C  
HETATM    6  CA  UNL     1     -10.901  15.471  66.605  1.00  0.00    -0.285 C  
HETATM    7  C   UNL     1     -11.001  15.488  65.091  1.00  0.00    -0.409 C  
HETATM    8  CA  UNL     1     -12.151  13.018  68.686  1.00  0.00    -0.154 C  
HETATM    9  N   UNL     1     -11.509  14.479  67.336  1.00  0.00    -0.352 N  
HETATM   10  O   UNL     1     -11.325  14.337  64.476  1.00  0.00    -0.369 OA 
HETATM   11  OXT UNL     1     -10.794  16.488  64.415  1.00  0.00    -0.801 OA 
HETATM   12  O   UNL     1     -12.198  12.635  66.110  1.00  0.00    -0.568 OA 
ENDROOT
BRANCH   4  13
HETATM   13  C   UNL     1      -9.355  17.528  66.543  1.00  0.00    -0.265 C  
BRANCH  13  14
HETATM   14  S   UNL     1      -9.625  19.205  67.222  1.00  0.00    -0.324 SA 
BRANCH  14  15
HETATM   15  C   UNL     1      -8.111  19.428  68.036  1.00  0.00    -0.310 A  
HETATM   16  N   UNL     1      -7.969  19.923  69.247  1.00  0.00    -0.034 NA 
HETATM   17  N   UNL     1      -6.626  19.891  69.523  1.00  0.00    -0.345 NA 
HETATM   18  N   UNL     1      -6.869  19.105  67.558  1.00  0.00    -0.207 NA 
HETATM   19  N   UNL     1      -5.946  19.383  68.507  1.00  0.00    -0.214 NA 
BRANCH  18  20
HETATM   20  C   UNL     1      -6.437  18.425  66.371  1.00  0.00    -0.200 C  
HETATM   21  O   UNL     1      -5.321  18.753  64.017  1.00  0.00    -0.216 OA 
HETATM   22  O   UNL     1      -5.202  20.577  65.632  1.00  0.00    -0.168 OA 
HETATM   23  O   UNL     1      -7.388  20.103  64.554  1.00  0.00    -0.024 OA 
HETATM   24  S   UNL     1      -6.158  19.462  64.957  1.00  0.00    -0.283 S  
ENDBRANCH  18  20
ENDBRANCH  14  15
ENDBRANCH  13  14
ENDBRANCH   4  13
BRANCH   8  25
HETATM   25  N   UNL     1     -11.166  12.057  69.243  1.00  0.00    -0.341 N  
HETATM   26  C   UNL     1     -11.498  10.910  69.933  1.00  0.00    -0.323 C  
HETATM   27  H   UNL     1     -10.176  12.259  69.105  1.00  0.00     0.000 HD 
HETATM   28  O   UNL     1     -12.652  10.599  70.206  1.00  0.00    -0.324 OA 
BRANCH  26  29
HETATM   29  C   UNL     1     -10.264  10.058  70.307  1.00  0.00    -0.206 C  
HETATM   30  O   UNL     1      -9.447   9.848  69.145  1.00  0.00    -0.174 OA 
HETATM   31  H   UNL     1      -8.689   9.325  69.374  1.00  0.00     0.000 HD 
BRANCH  29  32
HETATM   32  C   UNL     1     -10.652   8.718  70.897  1.00  0.00    -0.276 A  
HETATM   33  C   UNL     1     -10.896   7.624  70.052  1.00  0.00    -0.250 A  
HETATM   34  C   UNL     1     -10.760   8.529  72.285  1.00  0.00    -0.411 A  
HETATM   35  C   UNL     1     -11.129   7.290  72.811  1.00  0.00    -0.362 A  
HETATM   36  C   UNL     1     -11.387   6.220  71.959  1.00  0.00    -0.348 A  
HETATM   37  C   UNL     1     -11.265   6.386  70.580  1.00  0.00    -0.400 A  
ENDBRANCH  29  32
ENDBRANCH  26  29
ENDBRANCH   8  25
TORSDOF 7
ENDMDL
MODEL       39
REMARK 921   NORMALIZED FREE ENERGY PREDICTED BY IDOCK:   -6.89 KCAL/MOL
REMARK 922        TOTAL FREE ENERGY PREDICTED BY IDOCK:  -10.68 KCAL/MOL
REMARK 923 INTER-LIGAND FREE ENERGY PREDICTED BY IDOCK:   -9.44 KCAL/MOL
REMARK 924 INTRA-LIGAND FREE ENERGY PREDICTED BY IDOCK:   -1.24 KCAL/MOL
REMARK 927      BINDING AFFINITY PREDICTED BY RF-SCORE:    0.00 PKD
ROOT
HETATM    1  C   UNL     1      -8.943   7.166  67.649  1.00  0.00    -0.125 C  
HETATM    2  S   UNL     1     -10.550   7.962  67.858  1.00  0.00    -0.098 SA 
HETATM    3  C   UNL     1     -10.401   8.980  66.372  1.00  0.00    -0.149 C  
HETATM    4  C   UNL     1      -9.051   9.661  66.172  1.00  0.00    -0.201 C  
HETATM    5  C   UNL     1      -7.160   7.649  68.622  1.00  0.00    -0.080 C  
HETATM    6  CA  UNL     1      -7.903   9.283  66.812  1.00  0.00    -0.104 C  
HETATM    7  C   UNL     1      -6.636  10.097  66.624  1.00  0.00    -0.075 C  
HETATM    8  CA  UNL     1      -8.287   6.611  68.962  1.00  0.00    -0.120 C  
HETATM    9  N   UNL     1      -7.914   8.186  67.641  1.00  0.00    -0.121 N  
HETATM   10  O   UNL     1      -5.679   9.985  67.561  1.00  0.00    -0.045 OA 
HETATM   11  OXT UNL     1      -6.455  10.847  65.673  1.00  0.00    -0.086 OA 
HETATM   12  O   UNL     1      -6.096   8.014  69.069  1.00  0.00    -0.037 OA 
ENDROOT
BRANCH   4  13
HETATM   13  C   UNL     1      -9.202  10.926  65.317  1.00  0.00    -0.210 C  
BRANCH  13  14
HETATM   14  S   UNL     1      -9.647  12.417  66.279  1.00  0.00    -0.223 SA 
BRANCH  14  15
HETATM   15  C   UNL     1     -11.117  12.850  65.468  1.00  0.00    -0.278 A  
HETATM   16  N   UNL     1     -11.784  12.070  64.644  1.00  0.00    -0.317 NA 
HETATM   17  N   UNL     1     -12.896  12.775  64.260  1.00  0.00    -0.720 NA 
HETATM   18  N   UNL     1     -11.799  14.031  65.586  1.00  0.00    -0.362 NA 
HETATM   19  N   UNL     1     -12.923  13.966  64.837  1.00  0.00    -0.713 NA 
BRANCH  18  20
HETATM   20  C   UNL     1     -11.612  15.175  66.431  1.00  0.00    -0.089 C  
HETATM   21  O   UNL     1     -10.827  17.679  66.481  1.00  0.00    -0.148 OA 
HETATM   22  O   UNL     1     -11.257  16.631  64.321  1.00  0.00    -1.098 OA 
HETATM   23  O   UNL     1      -9.226  15.947  65.576  1.00  0.00    -0.323 OA 
HETATM   24  S   UNL     1     -10.566  16.449  65.771  1.00  0.00    -0.261 S  
ENDBRANCH  18  20
ENDBRANCH  14  15
ENDBRANCH  13  14
ENDBRANCH   4  13
BRANCH   8  25
HETATM   25  N   UNL     1      -9.026   6.875  70.221  1.00  0.00    -0.152 N  
HETATM   26  C   UNL     1      -9.836   5.959  70.860  1.00  0.00    -0.179 C  
HETATM   27  H   UNL     1      -8.928   7.798  70.644  1.00  0.00     0.000 HD 
HETATM   28  O   UNL     1     -10.072   4.842  70.412  1.00  0.00    -0.238 OA 
BRANCH  26  29
HETATM   29  C   UNL     1     -10.396   6.486  72.201  1.00  0.00    -0.198 C  
HETATM   30  O   UNL     1     -10.638   5.388  73.092  1.00  0.00    -0.202 OA 
HETATM   31  H   UNL     1     -10.982   5.711  73.917  1.00  0.00     0.000 HD 
BRANCH  29  32
HETATM   32  C   UNL     1     -11.676   7.274  72.016  1.00  0.00    -0.329 A  
HETATM   33  C   UNL     1     -11.654   8.675  72.094  1.00  0.00    -0.440 A  
HETATM   34  C   UNL     1     -12.899   6.637  71.748  1.00  0.00    -0.231 A  
HETATM   35  C   UNL     1     -14.071   7.379  71.591  1.00  0.00    -0.552 A  
HETATM   36  C   UNL     1     -14.037   8.767  71.692  1.00  0.00    -0.437 A  
HETATM   37  C   UNL     1     -12.828   9.415  71.937  1.00  0.00    -0.497 A  
ENDBRANCH  29  32
ENDBRANCH  26  29
ENDBRANCH   8  25
TORSDOF 7
ENDMDL
MODEL       40
REMARK 921   NORMALIZED FREE ENERGY PREDICTED BY IDOCK:   -6.89 KCAL/MOL
REMARK 922        TOTAL FREE ENERGY PREDICTED BY IDOCK:  -10.68 KCAL/MOL
REMARK 923 INTER-LIGAND FREE ENERGY PREDICTED BY IDOCK:   -9.56 KCAL/MOL
REMARK 924 INTRA-LIGAND FREE ENERGY PREDICTED BY IDOCK:   -1.12 KCAL/MOL
REMARK 927      BINDING AFFINITY PREDICTED BY RF-SCORE:    0.00 PKD
ROOT
HETATM    1  C   UNL     1     -10.934  13.124  67.554  1.00  0.00    -0.263 C  
HETATM    2  S   UNL     1      -9.150  12.849  67.547  1.00  0.00    -0.201 SA 
HETATM    3  C   UNL     1      -8.736  14.596  67.328  1.00  0.00    -0.208 C  
HETATM    4  C   UNL     1      -9.562  15.342  66.284  1.00  0.00    -0.331 C  
HETATM    5  C   UNL     1     -12.259  12.842  65.965  1.00  0.00    -0.366 C  
HETATM    6  CA  UNL     1     -10.759  14.896  65.796  1.00  0.00    -0.331 C  
HETATM    7  C   UNL     1     -11.445  15.661  64.679  1.00  0.00    -0.303 C  
HETATM    8  CA  UNL     1     -11.809  11.892  67.130  1.00  0.00    -0.139 C  
HETATM    9  N   UNL     1     -11.316  13.746  66.302  1.00  0.00    -0.314 N  
HETATM   10  O   UNL     1     -12.351  15.000  63.938  1.00  0.00    -0.695 OA 
HETATM   11  OXT UNL     1     -11.206  16.834  64.423  1.00  0.00    -1.112 OA 
HETATM   12  O   UNL     1     -13.008  12.823  65.014  1.00  0.00    -0.811 OA 
ENDROOT
BRANCH   4  13
HETATM   13  C   UNL     1      -8.780  16.539  65.728  1.00  0.00     0.122 C  
BRANCH  13  14
HETATM   14  S   UNL     1      -7.209  16.866  66.607  1.00  0.00    -0.271 SA 
BRANCH  14  15
HETATM   15  C   UNL     1      -6.899  18.477  66.046  1.00  0.00    -0.268 A  
HETATM   16  N   UNL     1      -6.515  18.792  64.828  1.00  0.00    -0.468 NA 
HETATM   17  N   UNL     1      -6.423  20.160  64.795  1.00  0.00    -0.285 NA 
HETATM   18  N   UNL     1      -7.032  19.634  66.767  1.00  0.00    -0.198 NA 
HETATM   19  N   UNL     1      -6.748  20.686  65.965  1.00  0.00    -0.223 NA 
BRANCH  18  20
HETATM   20  C   UNL     1      -7.538  19.901  68.082  1.00  0.00    -0.281 C  
HETATM   21  O   UNL     1      -6.850  20.381  70.570  1.00  0.00    -0.255 OA 
HETATM   22  O   UNL     1      -5.143  20.535  68.834  1.00  0.00    -0.210 OA 
HETATM   23  O   UNL     1      -5.969  18.282  69.474  1.00  0.00    -0.234 OA 
HETATM   24  S   UNL     1      -6.379  19.665  69.407  1.00  0.00    -0.345 S  
ENDBRANCH  18  20
ENDBRANCH  14  15
ENDBRANCH  13  14
ENDBRANCH   4  13
BRANCH   8  25
HETATM   25  N   UNL     1     -11.065  10.681  66.702  1.00  0.00    -0.077 N  
HETATM   26  C   UNL     1     -10.734   9.632  67.534  1.00  0.00    -0.256 C  
HETATM   27  H   UNL     1     -10.779  10.620  65.725  1.00  0.00     0.000 HD 
HETATM   28  O   UNL     1     -10.977   9.624  68.737  1.00  0.00    -0.200 OA 
BRANCH  26  29
HETATM   29  C   UNL     1     -10.046   8.468  66.786  1.00  0.00    -0.299 C  
HETATM   30  O   UNL     1     -10.088   7.279  67.590  1.00  0.00    -0.158 OA 
HETATM   31  H   UNL     1      -9.665   6.564  67.130  1.00  0.00     0.000 HD 
BRANCH  29  32
HETATM   32  C   UNL     1      -8.608   8.786  66.435  1.00  0.00    -0.138 A  
HETATM   33  C   UNL     1      -8.223   8.902  65.090  1.00  0.00    -0.143 A  
HETATM   34  C   UNL     1      -7.635   8.987  67.429  1.00  0.00    -0.088 A  
HETATM   35  C   UNL     1      -6.311   9.268  67.087  1.00  0.00    -0.062 A  
HETATM   36  C   UNL     1      -5.942   9.361  65.748  1.00  0.00    -0.055 A  
HETATM   37  C   UNL     1      -6.899   9.183  64.750  1.00  0.00    -0.085 A  
ENDBRANCH  29  32
ENDBRANCH  26  29
ENDBRANCH   8  25
TORSDOF 7
ENDMDL
MODEL       41
REMARK 921   NORMALIZED FREE ENERGY PREDICTED BY IDOCK:   -6.88 KCAL/MOL
REMARK 922        TOTAL FREE ENERGY PREDICTED BY IDOCK:  -10.66 KCAL/MOL
REMARK 923 INTER-LIGAND FREE ENERGY PREDICTED BY IDOCK:   -9.84 KCAL/MOL
REMARK 924 INTRA-LIGAND FREE ENERGY PREDICTED BY IDOCK:   -0.83 KCAL/MOL
REMARK 927      BINDING AFFINITY PREDICTED BY RF-SCORE:    0.00 PKD
ROOT
HETATM    1  C   UNL     1     -11.615  13.677  67.906  1.00  0.00    -0.341 C  
HETATM    2  S   UNL     1      -9.917  14.087  68.360  1.00  0.00    -0.235 SA 
HETATM    3  C   UNL     1     -10.012  15.788  67.752  1.00  0.00    -0.227 C  
HETATM    4  C   UNL     1     -10.673  15.964  66.389  1.00  0.00    -0.256 C  
HETATM    5  C   UNL     1     -12.252  12.631  66.214  1.00  0.00    -0.155 C  
HETATM    6  CA  UNL     1     -11.473  15.024  65.801  1.00  0.00    -0.236 C  
HETATM    7  C   UNL     1     -11.994  15.254  64.394  1.00  0.00    -0.277 C  
HETATM    8  CA  UNL     1     -11.903  12.153  67.668  1.00  0.00    -0.246 C  
HETATM    9  N   UNL     1     -11.776  13.866  66.479  1.00  0.00    -0.372 N  
HETATM   10  O   UNL     1     -12.388  14.178  63.692  1.00  0.00    -0.741 OA 
HETATM   11  OXT UNL     1     -12.060  16.362  63.876  1.00  0.00    -0.977 OA 
HETATM   12  O   UNL     1     -12.638  12.157  65.170  1.00  0.00    -0.505 OA 
ENDROOT
BRANCH   4  13
HETATM   13  C   UNL     1     -10.167  17.238  65.700  1.00  0.00    -0.124 C  
BRANCH  13  14
HETATM   14  S   UNL     1     -10.803  18.782  66.448  1.00  0.00     0.036 SA 
BRANCH  14  15
HETATM   15  C   UNL     1      -9.456  19.181  67.464  1.00  0.00    -0.307 A  
HETATM   16  N   UNL     1      -9.412  19.002  68.766  1.00  0.00    -0.381 NA 
HETATM   17  N   UNL     1      -8.166  19.408  69.171  1.00  0.00    -0.241 NA 
HETATM   18  N   UNL     1      -8.256  19.706  67.064  1.00  0.00    -0.277 NA 
HETATM   19  N   UNL     1      -7.448  19.828  68.141  1.00  0.00    -0.302 NA 
BRANCH  18  20
HETATM   20  C   UNL     1      -7.705  19.978  65.768  1.00  0.00    -0.235 C  
HETATM   21  O   UNL     1      -6.023  19.114  63.946  1.00  0.00    -0.450 OA 
HETATM   22  O   UNL     1      -6.668  17.606  65.752  1.00  0.00    -0.238 OA 
HETATM   23  O   UNL     1      -5.151  19.499  66.286  1.00  0.00    -0.158 OA 
HETATM   24  S   UNL     1      -6.205  19.110  65.379  1.00  0.00    -0.275 S  
ENDBRANCH  18  20
ENDBRANCH  14  15
ENDBRANCH  13  14
ENDBRANCH   4  13
BRANCH   8  25
HETATM   25  N   UNL     1     -10.732  11.246  67.768  1.00  0.00    -0.206 N  
HETATM   26  C   UNL     1     -10.397  10.522  68.893  1.00  0.00    -0.208 C  
HETATM   27  H   UNL     1     -10.133  11.153  66.947  1.00  0.00     0.000 HD 
HETATM   28  O   UNL     1     -11.011  10.601  69.952  1.00  0.00    -0.270 OA 
BRANCH  26  29
HETATM   29  C   UNL     1      -9.184   9.592  68.667  1.00  0.00    -0.135 C  
HETATM   30  O   UNL     1      -8.619   9.834  67.370  1.00  0.00    -0.127 OA 
HETATM   31  H   UNL     1      -7.873   9.263  67.231  1.00  0.00     0.000 HD 
BRANCH  29  32
HETATM   32  C   UNL     1      -9.554   8.129  68.788  1.00  0.00    -0.149 A  
HETATM   33  C   UNL     1      -8.842   7.295  69.664  1.00  0.00    -0.141 A  
HETATM   34  C   UNL     1     -10.616   7.575  68.052  1.00  0.00    -0.217 A  
HETATM   35  C   UNL     1     -10.937   6.222  68.168  1.00  0.00    -0.412 A  
HETATM   36  C   UNL     1     -10.208   5.404  69.027  1.00  0.00    -0.291 A  
HETATM   37  C   UNL     1      -9.164   5.941  69.778  1.00  0.00    -0.160 A  
ENDBRANCH  29  32
ENDBRANCH  26  29
ENDBRANCH   8  25
TORSDOF 7
ENDMDL
MODEL       42
REMARK 921   NORMALIZED FREE ENERGY PREDICTED BY IDOCK:   -6.88 KCAL/MOL
REMARK 922        TOTAL FREE ENERGY PREDICTED BY IDOCK:  -10.66 KCAL/MOL
REMARK 923 INTER-LIGAND FREE ENERGY PREDICTED BY IDOCK:   -9.79 KCAL/MOL
REMARK 924 INTRA-LIGAND FREE ENERGY PREDICTED BY IDOCK:   -0.87 KCAL/MOL
REMARK 927      BINDING AFFINITY PREDICTED BY RF-SCORE:    0.00 PKD
ROOT
HETATM    1  C   UNL     1     -10.785   8.442  67.197  1.00  0.00    -0.152 C  
HETATM    2  S   UNL     1     -10.731   9.771  68.418  1.00  0.00    -0.199 SA 
HETATM    3  C   UNL     1     -11.088  11.080  67.222  1.00  0.00    -0.294 C  
HETATM    4  C   UNL     1     -10.318  10.998  65.908  1.00  0.00    -0.315 C  
HETATM    5  C   UNL     1      -9.160   7.512  66.272  1.00  0.00    -0.157 C  
HETATM    6  CA  UNL     1      -9.687   9.870  65.460  1.00  0.00    -0.302 C  
HETATM    7  C   UNL     1      -8.857   9.927  64.192  1.00  0.00    -0.225 C  
HETATM    8  CA  UNL     1      -9.972   7.152  67.567  1.00  0.00    -0.167 C  
HETATM    9  N   UNL     1      -9.788   8.702  66.179  1.00  0.00    -0.244 N  
HETATM   10  O   UNL     1      -7.924   8.976  64.015  1.00  0.00    -0.129 OA 
HETATM   11  OXT UNL     1      -8.993  10.796  63.339  1.00  0.00    -0.193 OA 
HETATM   12  O   UNL     1      -8.237   7.070  65.627  1.00  0.00    -0.123 OA 
ENDROOT
BRANCH   4  13
HETATM   13  C   UNL     1     -10.190  12.386  65.267  1.00  0.00    -0.282 C  
BRANCH  13  14
HETATM   14  S   UNL     1     -10.163  13.757  66.477  1.00  0.00    -0.290 SA 
BRANCH  14  15
HETATM   15  C   UNL     1     -10.750  15.039  65.468  1.00  0.00    -0.359 A  
HETATM   16  N   UNL     1     -11.721  14.924  64.588  1.00  0.00    -0.420 NA 
HETATM   17  N   UNL     1     -11.896  16.169  64.041  1.00  0.00    -0.859 NA 
HETATM   18  N   UNL     1     -10.316  16.338  65.459  1.00  0.00    -0.509 NA 
HETATM   19  N   UNL     1     -11.055  17.042  64.572  1.00  0.00    -1.062 NA 
BRANCH  18  20
HETATM   20  C   UNL     1      -9.387  17.051  66.287  1.00  0.00    -0.248 C  
HETATM   21  O   UNL     1      -9.068  18.206  68.623  1.00  0.00    -0.308 OA 
HETATM   22  O   UNL     1     -10.996  16.749  68.292  1.00  0.00    -0.361 OA 
HETATM   23  O   UNL     1     -10.991  18.965  67.171  1.00  0.00    -0.410 OA 
HETATM   24  S   UNL     1     -10.102  17.934  67.652  1.00  0.00    -0.365 S  
ENDBRANCH  18  20
ENDBRANCH  14  15
ENDBRANCH  13  14
ENDBRANCH   4  13
BRANCH   8  25
HETATM   25  N   UNL     1      -9.198   7.209  68.832  1.00  0.00    -0.138 N  
HETATM   26  C   UNL     1      -8.713   6.106  69.502  1.00  0.00    -0.130 C  
HETATM   27  H   UNL     1      -9.012   8.128  69.232  1.00  0.00     0.000 HD 
HETATM   28  O   UNL     1      -8.925   4.953  69.143  1.00  0.00    -0.094 OA 
BRANCH  26  29
HETATM   29  C   UNL     1      -7.862   6.482  70.737  1.00  0.00    -0.106 C  
HETATM   30  O   UNL     1      -6.763   5.567  70.867  1.00  0.00    -0.041 OA 
HETATM   31  H   UNL     1      -6.240   5.798  71.626  1.00  0.00     0.000 HD 
BRANCH  29  32
HETATM   32  C   UNL     1      -8.675   6.476  72.014  1.00  0.00    -0.132 A  
HETATM   33  C   UNL     1      -8.551   5.411  72.920  1.00  0.00    -0.119 A  
HETATM   34  C   UNL     1      -9.550   7.527  72.334  1.00  0.00    -0.205 A  
HETATM   35  C   UNL     1     -10.300   7.500  73.511  1.00  0.00    -0.373 A  
HETATM   36  C   UNL     1     -10.180   6.427  74.389  1.00  0.00    -0.343 A  
HETATM   37  C   UNL     1      -9.302   5.385  74.096  1.00  0.00    -0.134 A  
ENDBRANCH  29  32
ENDBRANCH  26  29
ENDBRANCH   8  25
TORSDOF 7
ENDMDL
MODEL       43
REMARK 921   NORMALIZED FREE ENERGY PREDICTED BY IDOCK:   -6.88 KCAL/MOL
REMARK 922        TOTAL FREE ENERGY PREDICTED BY IDOCK:  -10.66 KCAL/MOL
REMARK 923 INTER-LIGAND FREE ENERGY PREDICTED BY IDOCK:   -9.67 KCAL/MOL
REMARK 924 INTRA-LIGAND FREE ENERGY PREDICTED BY IDOCK:   -0.98 KCAL/MOL
REMARK 927      BINDING AFFINITY PREDICTED BY RF-SCORE:    0.00 PKD
ROOT
HETATM    1  C   UNL     1     -11.737  12.603  68.275  1.00  0.00    -0.342 C  
HETATM    2  S   UNL     1     -10.032  12.011  68.257  1.00  0.00    -0.202 SA 
HETATM    3  C   UNL     1     -10.434  10.390  68.949  1.00  0.00    -0.212 C  
HETATM    4  C   UNL     1     -11.397  10.400  70.132  1.00  0.00    -0.397 C  
HETATM    5  C   UNL     1     -12.623  13.854  69.693  1.00  0.00     0.003 C  
HETATM    6  CA  UNL     1     -12.207  11.455  70.449  1.00  0.00    -0.362 C  
HETATM    7  C   UNL     1     -13.048  11.403  71.711  1.00  0.00    -0.418 C  
HETATM    8  CA  UNL     1     -11.911  14.161  68.328  1.00  0.00    -0.332 C  
HETATM    9  N   UNL     1     -12.230  12.564  69.637  1.00  0.00    -0.167 N  
HETATM   10  O   UNL     1     -13.476  12.570  72.222  1.00  0.00    -0.556 OA 
HETATM   11  OXT UNL     1     -13.341  10.359  72.279  1.00  0.00    -0.396 OA 
HETATM   12  O   UNL     1     -13.181  14.456  70.582  1.00  0.00    -0.322 OA 
ENDROOT
BRANCH   4  13
HETATM   13  C   UNL     1     -11.191   9.159  71.010  1.00  0.00    -0.312 C  
BRANCH  13  14
HETATM   14  S   UNL     1      -9.433   8.756  71.316  1.00  0.00    -0.272 SA 
BRANCH  14  15
HETATM   15  C   UNL     1      -9.631   7.472  72.464  1.00  0.00    -0.165 A  
HETATM   16  N   UNL     1      -9.454   7.585  73.763  1.00  0.00    -0.279 NA 
HETATM   17  N   UNL     1      -9.749   6.359  74.301  1.00  0.00    -0.242 NA 
HETATM   18  N   UNL     1     -10.018   6.187  72.195  1.00  0.00    -0.168 NA 
HETATM   19  N   UNL     1     -10.105   5.501  73.358  1.00  0.00    -0.176 NA 
BRANCH  18  20
HETATM   20  C   UNL     1     -10.463   5.543  70.993  1.00  0.00    -0.244 C  
HETATM   21  O   UNL     1      -9.758   3.898  69.073  1.00  0.00    -0.164 OA 
HETATM   22  O   UNL     1      -8.367   4.025  71.073  1.00  0.00    -0.073 OA 
HETATM   23  O   UNL     1      -8.320   5.934  69.485  1.00  0.00    -0.111 OA 
HETATM   24  S   UNL     1      -9.179   4.876  69.964  1.00  0.00    -0.138 S  
ENDBRANCH  18  20
ENDBRANCH  14  15
ENDBRANCH  13  14
ENDBRANCH   4  13
BRANCH   8  25
HETATM   25  N   UNL     1     -10.661  14.953  68.435  1.00  0.00    -0.239 N  
HETATM   26  C   UNL     1      -9.978  15.486  67.361  1.00  0.00    -0.234 C  
HETATM   27  H   UNL     1     -10.280  15.115  69.367  1.00  0.00     0.000 HD 
HETATM   28  O   UNL     1     -10.313  15.307  66.195  1.00  0.00    -0.274 OA 
BRANCH  26  29
HETATM   29  C   UNL     1      -8.765  16.344  67.788  1.00  0.00    -0.180 C  
HETATM   30  O   UNL     1      -8.443  16.081  69.162  1.00  0.00    -0.235 OA 
HETATM   31  H   UNL     1      -7.697  16.608  69.425  1.00  0.00     0.000 HD 
BRANCH  29  32
HETATM   32  C   UNL     1      -9.019  17.825  67.606  1.00  0.00    -0.249 A  
HETATM   33  C   UNL     1      -8.340  18.535  66.604  1.00  0.00    -0.285 A  
HETATM   34  C   UNL     1      -9.940  18.518  68.410  1.00  0.00    -0.414 A  
HETATM   35  C   UNL     1     -10.154  19.886  68.235  1.00  0.00    -0.571 A  
HETATM   36  C   UNL     1      -9.458  20.580  67.250  1.00  0.00    -0.559 A  
HETATM   37  C   UNL     1      -8.555  19.904  66.431  1.00  0.00    -0.386 A  
ENDBRANCH  29  32
ENDBRANCH  26  29
ENDBRANCH   8  25
TORSDOF 7
ENDMDL
MODEL       44
REMARK 921   NORMALIZED FREE ENERGY PREDICTED BY IDOCK:   -6.79 KCAL/MOL
REMARK 922        TOTAL FREE ENERGY PREDICTED BY IDOCK:  -10.54 KCAL/MOL
REMARK 923 INTER-LIGAND FREE ENERGY PREDICTED BY IDOCK:   -9.57 KCAL/MOL
REMARK 924 INTRA-LIGAND FREE ENERGY PREDICTED BY IDOCK:   -0.97 KCAL/MOL
REMARK 927      BINDING AFFINITY PREDICTED BY RF-SCORE:    0.00 PKD
ROOT
HETATM    1  C   UNL     1      -8.143   9.636  65.955  1.00  0.00    -0.112 C  
HETATM    2  S   UNL     1      -9.868  10.045  65.610  1.00  0.00    -0.294 SA 
HETATM    3  C   UNL     1      -9.580  11.828  65.527  1.00  0.00    -0.201 C  
HETATM    4  C   UNL     1      -8.695  12.404  66.628  1.00  0.00    -0.119 C  
HETATM    5  C   UNL     1      -7.298   9.200  67.813  1.00  0.00    -0.084 C  
HETATM    6  CA  UNL     1      -7.863  11.653  67.411  1.00  0.00    -0.147 C  
HETATM    7  C   UNL     1      -7.107  12.311  68.550  1.00  0.00    -0.099 C  
HETATM    8  CA  UNL     1      -7.907   8.276  66.699  1.00  0.00    -0.094 C  
HETATM    9  N   UNL     1      -7.741  10.303  67.176  1.00  0.00    -0.092 N  
HETATM   10  O   UNL     1      -6.664  11.519  69.542  1.00  0.00    -0.117 OA 
HETATM   11  OXT UNL     1      -6.896  13.515  68.608  1.00  0.00    -0.085 OA 
HETATM   12  O   UNL     1      -6.772   9.090  68.898  1.00  0.00    -0.052 OA 
ENDROOT
BRANCH   4  13
HETATM   13  C   UNL     1      -9.010  13.888  66.856  1.00  0.00    -0.222 C  
BRANCH  13  14
HETATM   14  S   UNL     1     -10.782  14.229  67.153  1.00  0.00    -0.284 SA 
BRANCH  14  15
HETATM   15  C   UNL     1     -11.124  15.196  65.756  1.00  0.00    -0.330 A  
HETATM   16  N   UNL     1     -12.081  14.956  64.885  1.00  0.00    -0.321 NA 
HETATM   17  N   UNL     1     -12.033  15.973  63.967  1.00  0.00    -0.797 NA 
HETATM   18  N   UNL     1     -10.478  16.343  65.376  1.00  0.00    -0.583 NA 
HETATM   19  N   UNL     1     -11.069  16.832  64.262  1.00  0.00    -1.010 NA 
BRANCH  18  20
HETATM   20  C   UNL     1      -9.461  17.133  66.008  1.00  0.00    -0.137 C  
HETATM   21  O   UNL     1      -9.012  18.944  67.854  1.00  0.00    -0.287 OA 
HETATM   22  O   UNL     1     -11.166  17.797  67.839  1.00  0.00    -0.077 OA 
HETATM   23  O   UNL     1     -10.711  19.468  66.059  1.00  0.00    -0.467 OA 
HETATM   24  S   UNL     1     -10.045  18.531  66.933  1.00  0.00    -0.394 S  
ENDBRANCH  18  20
ENDBRANCH  14  15
ENDBRANCH  13  14
ENDBRANCH   4  13
BRANCH   8  25
HETATM   25  N   UNL     1      -9.126   7.531  67.098  1.00  0.00    -0.124 N  
HETATM   26  C   UNL     1      -9.258   6.159  67.043  1.00  0.00    -0.123 C  
HETATM   27  H   UNL     1      -9.923   8.070  67.436  1.00  0.00     0.000 HD 
HETATM   28  O   UNL     1      -8.387   5.417  66.601  1.00  0.00    -0.108 OA 
BRANCH  26  29
HETATM   29  C   UNL     1     -10.605   5.662  67.614  1.00  0.00    -0.204 C  
HETATM   30  O   UNL     1     -11.640   6.610  67.312  1.00  0.00    -0.747 OA 
HETATM   31  H   UNL     1     -12.469   6.305  67.663  1.00  0.00     0.000 HD 
BRANCH  29  32
HETATM   32  C   UNL     1     -10.546   5.442  69.111  1.00  0.00    -0.241 A  
HETATM   33  C   UNL     1     -11.329   6.231  69.967  1.00  0.00    -0.486 A  
HETATM   34  C   UNL     1      -9.732   4.446  69.676  1.00  0.00    -0.289 A  
HETATM   35  C   UNL     1      -9.681   4.263  71.059  1.00  0.00    -0.260 A  
HETATM   36  C   UNL     1     -10.449   5.068  71.896  1.00  0.00    -0.255 A  
HETATM   37  C   UNL     1     -11.277   6.047  71.350  1.00  0.00    -0.325 A  
ENDBRANCH  29  32
ENDBRANCH  26  29
ENDBRANCH   8  25
TORSDOF 7
ENDMDL
MODEL       45
REMARK 921   NORMALIZED FREE ENERGY PREDICTED BY IDOCK:   -6.78 KCAL/MOL
REMARK 922        TOTAL FREE ENERGY PREDICTED BY IDOCK:  -10.53 KCAL/MOL
REMARK 923 INTER-LIGAND FREE ENERGY PREDICTED BY IDOCK:   -9.52 KCAL/MOL
REMARK 924 INTRA-LIGAND FREE ENERGY PREDICTED BY IDOCK:   -1.01 KCAL/MOL
REMARK 927      BINDING AFFINITY PREDICTED BY RF-SCORE:    0.00 PKD
ROOT
HETATM    1  C   UNL     1     -11.942  14.241  68.326  1.00  0.00    -0.311 C  
HETATM    2  S   UNL     1     -10.435  14.684  69.215  1.00  0.00    -0.165 SA 
HETATM    3  C   UNL     1     -10.379  16.373  68.572  1.00  0.00    -0.270 C  
HETATM    4  C   UNL     1     -10.649  16.518  67.078  1.00  0.00    -0.255 C  
HETATM    5  C   UNL     1     -12.086  13.160  66.546  1.00  0.00    -0.358 C  
HETATM    6  CA  UNL     1     -11.250  15.557  66.313  1.00  0.00    -0.096 C  
HETATM    7  C   UNL     1     -11.372  15.758  64.814  1.00  0.00    -0.314 C  
HETATM    8  CA  UNL     1     -12.139  12.710  68.049  1.00  0.00    -0.096 C  
HETATM    9  N   UNL     1     -11.713  14.406  66.905  1.00  0.00    -0.389 N  
HETATM   10  O   UNL     1     -11.551  14.666  64.052  1.00  0.00    -0.158 OA 
HETATM   11  OXT UNL     1     -11.307  16.857  64.277  1.00  0.00    -1.202 OA 
HETATM   12  O   UNL     1     -12.171  12.664  65.445  1.00  0.00    -0.452 OA 
ENDROOT
BRANCH   4  13
HETATM   13  C   UNL     1      -9.988  17.789  66.528  1.00  0.00    -0.346 C  
BRANCH  13  14
HETATM   14  S   UNL     1      -9.794  19.116  67.772  1.00  0.00    -0.356 SA 
BRANCH  14  15
HETATM   15  C   UNL     1      -8.116  19.482  67.538  1.00  0.00    -0.290 A  
HETATM   16  N   UNL     1      -7.651  20.590  67.001  1.00  0.00    -0.312 NA 
HETATM   17  N   UNL     1      -6.284  20.494  67.040  1.00  0.00    -0.199 NA 
HETATM   18  N   UNL     1      -7.050  18.700  67.895  1.00  0.00    -0.230 NA 
HETATM   19  N   UNL     1      -5.905  19.353  67.594  1.00  0.00    -0.194 NA 
BRANCH  18  20
HETATM   20  C   UNL     1      -6.958  17.468  68.624  1.00  0.00    -0.232 C  
HETATM   21  O   UNL     1      -5.983  15.031  68.569  1.00  0.00    -0.085 OA 
HETATM   22  O   UNL     1      -5.151  16.660  66.955  1.00  0.00    -0.267 OA 
HETATM   23  O   UNL     1      -7.450  15.772  66.650  1.00  0.00    -0.166 OA 
HETATM   24  S   UNL     1      -6.468  16.053  67.670  1.00  0.00    -0.177 S  
ENDBRANCH  18  20
ENDBRANCH  14  15
ENDBRANCH  13  14
ENDBRANCH   4  13
BRANCH   8  25
HETATM   25  N   UNL     1     -11.029  11.822  68.478  1.00  0.00    -0.212 N  
HETATM   26  C   UNL     1     -11.103  10.931  69.528  1.00  0.00    -0.268 C  
HETATM   27  H   UNL     1     -10.152  11.875  67.960  1.00  0.00     0.000 HD 
HETATM   28  O   UNL     1     -12.086  10.825  70.254  1.00  0.00    -0.291 OA 
BRANCH  26  29
HETATM   29  C   UNL     1      -9.825  10.075  69.678  1.00  0.00    -0.235 C  
HETATM   30  O   UNL     1      -8.675  10.844  69.293  1.00  0.00    -0.348 OA 
HETATM   31  H   UNL     1      -7.890  10.318  69.385  1.00  0.00     0.000 HD 
BRANCH  29  32
HETATM   32  C   UNL     1      -9.884   8.810  68.847  1.00  0.00    -0.183 A  
HETATM   33  C   UNL     1      -9.604   8.860  67.473  1.00  0.00    -0.183 A  
HETATM   34  C   UNL     1     -10.199   7.567  69.421  1.00  0.00    -0.204 A  
HETATM   35  C   UNL     1     -10.260   6.413  68.639  1.00  0.00    -0.201 A  
HETATM   36  C   UNL     1      -9.999   6.482  67.273  1.00  0.00    -0.189 A  
HETATM   37  C   UNL     1      -9.666   7.705  66.691  1.00  0.00    -0.283 A  
ENDBRANCH  29  32
ENDBRANCH  26  29
ENDBRANCH   8  25
TORSDOF 7
ENDMDL
MODEL       46
REMARK 921   NORMALIZED FREE ENERGY PREDICTED BY IDOCK:   -6.78 KCAL/MOL
REMARK 922        TOTAL FREE ENERGY PREDICTED BY IDOCK:  -10.52 KCAL/MOL
REMARK 923 INTER-LIGAND FREE ENERGY PREDICTED BY IDOCK:   -9.61 KCAL/MOL
REMARK 924 INTRA-LIGAND FREE ENERGY PREDICTED BY IDOCK:   -0.91 KCAL/MOL
REMARK 927      BINDING AFFINITY PREDICTED BY RF-SCORE:    0.00 PKD
ROOT
HETATM    1  C   UNL     1     -11.648  12.393  68.378  1.00  0.00    -0.324 C  
HETATM    2  S   UNL     1      -9.938  11.816  68.382  1.00  0.00    -0.195 SA 
HETATM    3  C   UNL     1     -10.330  10.205  69.105  1.00  0.00    -0.219 C  
HETATM    4  C   UNL     1     -11.301  10.231  70.281  1.00  0.00    -0.398 C  
HETATM    5  C   UNL     1     -12.553  13.665  69.765  1.00  0.00    -0.001 C  
HETATM    6  CA  UNL     1     -12.122  11.285  70.572  1.00  0.00    -0.387 C  
HETATM    7  C   UNL     1     -12.971  11.251  71.829  1.00  0.00    -0.414 C  
HETATM    8  CA  UNL     1     -11.836  13.950  68.398  1.00  0.00    -0.374 C  
HETATM    9  N   UNL     1     -12.149  12.377  69.737  1.00  0.00    -0.262 N  
HETATM   10  O   UNL     1     -13.412  12.425  72.314  1.00  0.00    -0.541 OA 
HETATM   11  OXT UNL     1     -13.259  10.216  72.417  1.00  0.00    -0.344 OA 
HETATM   12  O   UNL     1     -13.123  14.279  70.638  1.00  0.00    -0.324 OA 
ENDROOT
BRANCH   4  13
HETATM   13  C   UNL     1     -11.090   9.009  71.185  1.00  0.00    -0.301 C  
BRANCH  13  14
HETATM   14  S   UNL     1     -12.196   7.605  70.797  1.00  0.00    -0.001 SA 
BRANCH  14  15
HETATM   15  C   UNL     1     -11.074   6.581  69.961  1.00  0.00    -0.363 A  
HETATM   16  N   UNL     1     -11.024   6.421  68.656  1.00  0.00    -0.321 NA 
HETATM   17  N   UNL     1      -9.978   5.569  68.412  1.00  0.00    -0.149 NA 
HETATM   18  N   UNL     1     -10.079   5.827  70.524  1.00  0.00    -0.196 NA 
HETATM   19  N   UNL     1      -9.386   5.210  69.540  1.00  0.00    -0.122 NA 
BRANCH  18  20
HETATM   20  C   UNL     1      -9.590   5.720  71.868  1.00  0.00    -0.151 C  
HETATM   21  O   UNL     1      -9.502   4.166  73.982  1.00  0.00    -0.105 OA 
HETATM   22  O   UNL     1     -10.223   3.209  71.857  1.00  0.00    -0.127 OA 
HETATM   23  O   UNL     1     -11.767   4.759  73.032  1.00  0.00    -0.243 OA 
HETATM   24  S   UNL     1     -10.363   4.468  72.862  1.00  0.00    -0.192 S  
ENDBRANCH  18  20
ENDBRANCH  14  15
ENDBRANCH  13  14
ENDBRANCH   4  13
BRANCH   8  25
HETATM   25  N   UNL     1     -10.593  14.755  68.497  1.00  0.00    -0.242 N  
HETATM   26  C   UNL     1      -9.951  15.338  67.424  1.00  0.00    -0.223 C  
HETATM   27  H   UNL     1     -10.185  14.887  69.423  1.00  0.00     0.000 HD 
HETATM   28  O   UNL     1     -10.320  15.199  66.263  1.00  0.00    -0.273 OA 
BRANCH  26  29
HETATM   29  C   UNL     1      -8.736  16.195  67.846  1.00  0.00    -0.174 C  
HETATM   30  O   UNL     1      -8.441  15.973  69.234  1.00  0.00    -0.251 OA 
HETATM   31  H   UNL     1      -7.695  16.499  69.493  1.00  0.00     0.000 HD 
BRANCH  29  32
HETATM   32  C   UNL     1      -8.970  17.673  67.613  1.00  0.00    -0.240 A  
HETATM   33  C   UNL     1     -10.175  18.265  68.021  1.00  0.00    -0.402 A  
HETATM   34  C   UNL     1      -7.997  18.485  67.008  1.00  0.00    -0.243 A  
HETATM   35  C   UNL     1      -8.234  19.844  66.791  1.00  0.00    -0.357 A  
HETATM   36  C   UNL     1      -9.442  20.412  67.183  1.00  0.00    -0.567 A  
HETATM   37  C   UNL     1     -10.411  19.624  67.803  1.00  0.00    -0.586 A  
ENDBRANCH  29  32
ENDBRANCH  26  29
ENDBRANCH   8  25
TORSDOF 7
ENDMDL
MODEL       47
REMARK 921   NORMALIZED FREE ENERGY PREDICTED BY IDOCK:   -6.77 KCAL/MOL
REMARK 922        TOTAL FREE ENERGY PREDICTED BY IDOCK:  -10.50 KCAL/MOL
REMARK 923 INTER-LIGAND FREE ENERGY PREDICTED BY IDOCK:  -10.34 KCAL/MOL
REMARK 924 INTRA-LIGAND FREE ENERGY PREDICTED BY IDOCK:   -0.17 KCAL/MOL
REMARK 927      BINDING AFFINITY PREDICTED BY RF-SCORE:    0.00 PKD
ROOT
HETATM    1  C   UNL     1      -9.655  14.035  66.718  1.00  0.00    -0.286 C  
HETATM    2  S   UNL     1      -9.698  12.835  68.065  1.00  0.00    -0.223 SA 
HETATM    3  C   UNL     1      -9.085  11.464  67.058  1.00  0.00    -0.167 C  
HETATM    4  C   UNL     1      -9.717  11.328  65.677  1.00  0.00    -0.267 C  
HETATM    5  C   UNL     1     -11.261  14.678  65.549  1.00  0.00    -0.343 C  
HETATM    6  CA  UNL     1     -10.411  12.327  65.052  1.00  0.00    -0.291 C  
HETATM    7  C   UNL     1     -11.093  12.051  63.725  1.00  0.00    -0.439 C  
HETATM    8  CA  UNL     1     -10.631  15.254  66.866  1.00  0.00    -0.304 C  
HETATM    9  N   UNL     1     -10.507  13.564  65.645  1.00  0.00    -0.286 N  
HETATM   10  O   UNL     1     -12.096  12.868  63.359  1.00  0.00    -0.534 OA 
HETATM   11  OXT UNL     1     -10.779  11.124  62.989  1.00  0.00    -0.167 OA 
HETATM   12  O   UNL     1     -12.152  14.946  64.775  1.00  0.00    -0.393 OA 
ENDROOT
BRANCH   4  13
HETATM   13  C   UNL     1      -9.633   9.878  65.182  1.00  0.00    -0.300 C  
BRANCH  13  14
HETATM   14  S   UNL     1      -8.362   8.879  66.039  1.00  0.00    -0.131 SA 
BRANCH  14  15
HETATM   15  C   UNL     1      -9.372   7.626  66.684  1.00  0.00    -0.190 A  
HETATM   16  N   UNL     1     -10.645   7.762  66.987  1.00  0.00    -0.352 NA 
HETATM   17  N   UNL     1     -11.071   6.534  67.424  1.00  0.00    -0.367 NA 
HETATM   18  N   UNL     1      -9.006   6.332  66.942  1.00  0.00    -0.117 NA 
HETATM   19  N   UNL     1     -10.085   5.651  67.390  1.00  0.00    -0.156 NA 
BRANCH  18  20
HETATM   20  C   UNL     1      -7.799   5.600  66.686  1.00  0.00    -0.101 C  
HETATM   21  O   UNL     1      -6.422   4.349  64.833  1.00  0.00    -0.034 OA 
HETATM   22  O   UNL     1      -8.271   5.785  64.147  1.00  0.00    -0.131 OA 
HETATM   23  O   UNL     1      -8.807   3.621  65.241  1.00  0.00    -0.114 OA 
HETATM   24  S   UNL     1      -7.790   4.645  65.188  1.00  0.00    -0.092 S  
ENDBRANCH  18  20
ENDBRANCH  14  15
ENDBRANCH  13  14
ENDBRANCH   4  13
BRANCH   8  25
HETATM   25  N   UNL     1     -11.523  15.234  68.052  1.00  0.00    -0.345 N  
HETATM   26  C   UNL     1     -11.142  15.603  69.325  1.00  0.00    -0.293 C  
HETATM   27  H   UNL     1     -12.486  14.925  67.915  1.00  0.00     0.000 HD 
HETATM   28  O   UNL     1      -9.997  15.935  69.615  1.00  0.00    -0.265 OA 
BRANCH  26  29
HETATM   29  C   UNL     1     -12.312  15.570  70.334  1.00  0.00    -0.413 C  
HETATM   30  O   UNL     1     -12.007  16.407  71.460  1.00  0.00    -0.640 OA 
HETATM   31  H   UNL     1     -12.726  16.387  72.081  1.00  0.00     0.000 HD 
BRANCH  29  32
HETATM   32  C   UNL     1     -12.610  14.167  70.818  1.00  0.00    -0.432 A  
HETATM   33  C   UNL     1     -12.040  13.063  70.165  1.00  0.00    -0.377 A  
HETATM   34  C   UNL     1     -13.440  13.932  71.928  1.00  0.00    -0.511 A  
HETATM   35  C   UNL     1     -13.713  12.631  72.353  1.00  0.00    -0.377 A  
HETATM   36  C   UNL     1     -13.155  11.546  71.682  1.00  0.00    -0.478 A  
HETATM   37  C   UNL     1     -12.315  11.763  70.592  1.00  0.00    -0.421 A  
ENDBRANCH  29  32
ENDBRANCH  26  29
ENDBRANCH   8  25
TORSDOF 7
ENDMDL
MODEL       48
REMARK 921   NORMALIZED FREE ENERGY PREDICTED BY IDOCK:   -6.74 KCAL/MOL
REMARK 922        TOTAL FREE ENERGY PREDICTED BY IDOCK:  -10.47 KCAL/MOL
REMARK 923 INTER-LIGAND FREE ENERGY PREDICTED BY IDOCK:   -9.51 KCAL/MOL
REMARK 924 INTRA-LIGAND FREE ENERGY PREDICTED BY IDOCK:   -0.95 KCAL/MOL
REMARK 927      BINDING AFFINITY PREDICTED BY RF-SCORE:    0.00 PKD
ROOT
HETATM    1  C   UNL     1     -11.778  12.583  67.012  1.00  0.00    -0.367 C  
HETATM    2  S   UNL     1     -10.180  11.999  66.407  1.00  0.00    -0.222 SA 
HETATM    3  C   UNL     1     -10.402  10.312  67.022  1.00  0.00    -0.243 C  
HETATM    4  C   UNL     1     -10.953  10.196  68.439  1.00  0.00    -0.293 C  
HETATM    5  C   UNL     1     -12.144  13.676  68.754  1.00  0.00    -0.297 C  
HETATM    6  CA  UNL     1     -11.592  11.210  69.097  1.00  0.00    -0.324 C  
HETATM    7  C   UNL     1     -12.005  11.024  70.544  1.00  0.00    -0.379 C  
HETATM    8  CA  UNL     1     -11.877  14.127  67.274  1.00  0.00    -0.419 C  
HETATM    9  N   UNL     1     -11.828  12.400  68.448  1.00  0.00    -0.332 N  
HETATM   10  O   UNL     1     -12.218  12.130  71.279  1.00  0.00    -0.173 OA 
HETATM   11  OXT UNL     1     -12.143   9.925  71.067  1.00  0.00    -0.308 OA 
HETATM   12  O   UNL     1     -12.382  14.179  69.828  1.00  0.00    -0.336 OA 
ENDROOT
BRANCH   4  13
HETATM   13  C   UNL     1     -10.526   8.868  69.080  1.00  0.00    -0.214 C  
BRANCH  13  14
HETATM   14  S   UNL     1      -8.996   8.164  68.367  1.00  0.00    -0.136 SA 
BRANCH  14  15
HETATM   15  C   UNL     1      -9.649   6.722  67.660  1.00  0.00    -0.125 A  
HETATM   16  N   UNL     1     -10.635   6.686  66.790  1.00  0.00    -0.263 NA 
HETATM   17  N   UNL     1     -10.810   5.367  66.459  1.00  0.00    -0.245 NA 
HETATM   18  N   UNL     1      -9.224   5.439  67.879  1.00  0.00    -0.109 NA 
HETATM   19  N   UNL     1      -9.949   4.598  67.106  1.00  0.00    -0.193 NA 
BRANCH  18  20
HETATM   20  C   UNL     1      -8.117   4.900  68.616  1.00  0.00    -0.084 C  
HETATM   21  O   UNL     1      -7.431   3.687  70.841  1.00  0.00    -0.040 OA 
HETATM   22  O   UNL     1      -9.793   3.779  70.240  1.00  0.00    -0.190 OA 
HETATM   23  O   UNL     1      -8.695   5.868  71.013  1.00  0.00    -0.132 OA 
HETATM   24  S   UNL     1      -8.416   4.619  70.344  1.00  0.00    -0.079 S  
ENDBRANCH  18  20
ENDBRANCH  14  15
ENDBRANCH  13  14
ENDBRANCH   4  13
BRANCH   8  25
HETATM   25  N   UNL     1     -10.630  14.905  67.068  1.00  0.00    -0.283 N  
HETATM   26  C   UNL     1     -10.323  15.602  65.918  1.00  0.00    -0.350 C  
HETATM   27  H   UNL     1      -9.953  14.925  67.831  1.00  0.00     0.000 HD 
HETATM   28  O   UNL     1     -11.036  15.600  64.920  1.00  0.00    -0.422 OA 
BRANCH  26  29
HETATM   29  C   UNL     1      -9.001  16.394  66.032  1.00  0.00    -0.272 C  
HETATM   30  O   UNL     1      -8.121  15.742  66.961  1.00  0.00    -0.192 OA 
HETATM   31  H   UNL     1      -7.309  16.229  67.031  1.00  0.00     0.000 HD 
BRANCH  29  32
HETATM   32  C   UNL     1      -9.228  17.824  66.475  1.00  0.00    -0.280 A  
HETATM   33  C   UNL     1      -8.140  18.700  66.602  1.00  0.00    -0.284 A  
HETATM   34  C   UNL     1     -10.517  18.313  66.750  1.00  0.00    -0.387 A  
HETATM   35  C   UNL     1     -10.707  19.631  67.168  1.00  0.00    -0.587 A  
HETATM   36  C   UNL     1      -9.614  20.483  67.308  1.00  0.00    -0.580 A  
HETATM   37  C   UNL     1      -8.332  20.019  67.020  1.00  0.00    -0.373 A  
ENDBRANCH  29  32
ENDBRANCH  26  29
ENDBRANCH   8  25
TORSDOF 7
ENDMDL
MODEL       49
REMARK 921   NORMALIZED FREE ENERGY PREDICTED BY IDOCK:   -6.73 KCAL/MOL
REMARK 922        TOTAL FREE ENERGY PREDICTED BY IDOCK:  -10.45 KCAL/MOL
REMARK 923 INTER-LIGAND FREE ENERGY PREDICTED BY IDOCK:   -9.16 KCAL/MOL
REMARK 924 INTRA-LIGAND FREE ENERGY PREDICTED BY IDOCK:   -1.29 KCAL/MOL
REMARK 927      BINDING AFFINITY PREDICTED BY RF-SCORE:    0.00 PKD
ROOT
HETATM    1  C   UNL     1      -9.341   8.856  71.249  1.00  0.00    -0.266 C  
HETATM    2  S   UNL     1      -9.124   8.892  69.457  1.00  0.00    -0.150 SA 
HETATM    3  C   UNL     1      -9.797  10.559  69.264  1.00  0.00    -0.205 C  
HETATM    4  C   UNL     1     -11.074  10.849  70.047  1.00  0.00    -0.285 C  
HETATM    5  C   UNL     1     -10.886   7.942  72.315  1.00  0.00    -0.293 C  
HETATM    6  CA  UNL     1     -11.511  10.095  71.102  1.00  0.00    -0.307 C  
HETATM    7  C   UNL     1     -12.851  10.406  71.742  1.00  0.00    -0.456 C  
HETATM    8  CA  UNL     1      -9.466   7.429  71.886  1.00  0.00    -0.144 C  
HETATM    9  N   UNL     1     -10.744   9.047  71.553  1.00  0.00    -0.325 N  
HETATM   10  O   UNL     1     -13.444   9.429  72.449  1.00  0.00    -0.457 OA 
HETATM   11  OXT UNL     1     -13.410  11.490  71.636  1.00  0.00    -0.342 OA 
HETATM   12  O   UNL     1     -11.849   7.543  72.929  1.00  0.00    -0.186 OA 
ENDROOT
BRANCH   4  13
HETATM   13  C   UNL     1     -11.882  11.966  69.374  1.00  0.00    -0.327 C  
BRANCH  13  14
HETATM   14  S   UNL     1     -10.856  13.157  68.439  1.00  0.00    -0.270 SA 
BRANCH  14  15
HETATM   15  C   UNL     1     -11.752  13.200  66.955  1.00  0.00    -0.377 A  
HETATM   16  N   UNL     1     -12.389  14.252  66.487  1.00  0.00    -0.406 NA 
HETATM   17  N   UNL     1     -12.926  13.874  65.283  1.00  0.00    -0.774 NA 
HETATM   18  N   UNL     1     -11.902  12.175  66.060  1.00  0.00    -0.561 NA 
HETATM   19  N   UNL     1     -12.626  12.615  65.005  1.00  0.00    -0.665 NA 
BRANCH  18  20
HETATM   20  C   UNL     1     -11.328  10.862  65.989  1.00  0.00     0.383 C  
HETATM   21  O   UNL     1      -9.217   9.501  65.226  1.00  0.00    -0.217 OA 
HETATM   22  O   UNL     1      -9.053  11.931  65.367  1.00  0.00    -0.042 OA 
HETATM   23  O   UNL     1     -10.384  10.948  63.515  1.00  0.00    -0.352 OA 
HETATM   24  S   UNL     1      -9.960  10.687  64.871  1.00  0.00    -0.337 S  
ENDBRANCH  18  20
ENDBRANCH  14  15
ENDBRANCH  13  14
ENDBRANCH   4  13
BRANCH   8  25
HETATM   25  N   UNL     1      -9.469   6.289  70.936  1.00  0.00    -0.171 N  
HETATM   26  C   UNL     1      -9.883   5.011  71.249  1.00  0.00    -0.182 C  
HETATM   27  H   UNL     1      -9.143   6.463  69.985  1.00  0.00     0.000 HD 
HETATM   28  O   UNL     1     -10.240   4.675  72.373  1.00  0.00    -0.178 OA 
BRANCH  26  29
HETATM   29  C   UNL     1      -9.865   4.060  70.030  1.00  0.00    -0.128 C  
HETATM   30  O   UNL     1      -8.770   3.139  70.148  1.00  0.00    -0.060 OA 
HETATM   31  H   UNL     1      -8.758   2.554  69.399  1.00  0.00     0.000 HD 
BRANCH  29  32
HETATM   32  C   UNL     1      -9.751   4.811  68.721  1.00  0.00    -0.235 A  
HETATM   33  C   UNL     1      -8.567   4.740  67.972  1.00  0.00    -0.105 A  
HETATM   34  C   UNL     1     -10.817   5.575  68.216  1.00  0.00    -0.057 A  
HETATM   35  C   UNL     1     -10.692   6.269  67.012  1.00  0.00    -0.435 A  
HETATM   36  C   UNL     1      -9.503   6.205  66.291  1.00  0.00    -0.144 A  
HETATM   37  C   UNL     1      -8.443   5.436  66.768  1.00  0.00    -0.107 A  
ENDBRANCH  29  32
ENDBRANCH  26  29
ENDBRANCH   8  25
TORSDOF 7
ENDMDL
MODEL       50
REMARK 921   NORMALIZED FREE ENERGY PREDICTED BY IDOCK:   -6.69 KCAL/MOL
REMARK 922        TOTAL FREE ENERGY PREDICTED BY IDOCK:  -10.40 KCAL/MOL
REMARK 923 INTER-LIGAND FREE ENERGY PREDICTED BY IDOCK:   -9.48 KCAL/MOL
REMARK 924 INTRA-LIGAND FREE ENERGY PREDICTED BY IDOCK:   -0.91 KCAL/MOL
REMARK 927      BINDING AFFINITY PREDICTED BY RF-SCORE:    0.00 PKD
ROOT
HETATM    1  C   UNL     1      -8.949   8.571  71.095  1.00  0.00    -0.186 C  
HETATM    2  S   UNL     1      -8.942   8.071  69.361  1.00  0.00    -0.148 SA 
HETATM    3  C   UNL     1      -9.504   9.676  68.746  1.00  0.00    -0.148 C  
HETATM    4  C   UNL     1     -10.653  10.312  69.521  1.00  0.00    -0.270 C  
HETATM    5  C   UNL     1     -10.423   8.169  72.518  1.00  0.00    -0.339 C  
HETATM    6  CA  UNL     1     -11.019   9.942  70.786  1.00  0.00    -0.337 C  
HETATM    7  C   UNL     1     -12.247  10.565  71.424  1.00  0.00    -0.327 C  
HETATM    8  CA  UNL     1      -9.107   7.406  72.134  1.00  0.00    -0.131 C  
HETATM    9  N   UNL     1     -10.288   8.990  71.455  1.00  0.00    -0.319 N  
HETATM   10  O   UNL     1     -12.826   9.899  72.438  1.00  0.00    -0.318 OA 
HETATM   11  OXT UNL     1     -12.730  11.627  71.055  1.00  0.00    -0.356 OA 
HETATM   12  O   UNL     1     -11.335   8.068  73.307  1.00  0.00    -0.270 OA 
ENDROOT
BRANCH   4  13
HETATM   13  C   UNL     1     -11.447  11.272  68.625  1.00  0.00    -0.297 C  
BRANCH  13  14
HETATM   14  S   UNL     1     -10.395  12.370  67.607  1.00  0.00    -0.220 SA 
BRANCH  14  15
HETATM   15  C   UNL     1     -11.575  12.908  66.457  1.00  0.00    -0.371 A  
HETATM   16  N   UNL     1     -12.268  12.123  65.661  1.00  0.00    -0.528 NA 
HETATM   17  N   UNL     1     -13.108  12.940  64.948  1.00  0.00    -0.808 NA 
HETATM   18  N   UNL     1     -11.970  14.200  66.233  1.00  0.00    -0.413 NA 
HETATM   19  N   UNL     1     -12.945  14.206  65.296  1.00  0.00    -0.735 NA 
BRANCH  18  20
HETATM   20  C   UNL     1     -11.654  15.435  66.892  1.00  0.00     0.019 C  
HETATM   21  O   UNL     1     -10.394  17.723  66.634  1.00  0.00    -0.343 OA 
HETATM   22  O   UNL     1     -10.778  16.369  64.642  1.00  0.00    -0.693 OA 
HETATM   23  O   UNL     1      -9.081  15.593  66.282  1.00  0.00    -0.289 OA 
HETATM   24  S   UNL     1     -10.306  16.352  66.189  1.00  0.00    -0.335 S  
ENDBRANCH  18  20
ENDBRANCH  14  15
ENDBRANCH  13  14
ENDBRANCH   4  13
BRANCH   8  25
HETATM   25  N   UNL     1      -9.309   6.049  71.566  1.00  0.00    -0.149 N  
HETATM   26  C   UNL     1      -9.610   4.927  72.309  1.00  0.00    -0.152 C  
HETATM   27  H   UNL     1      -9.220   5.940  70.556  1.00  0.00     0.000 HD 
HETATM   28  O   UNL     1      -9.686   4.931  73.533  1.00  0.00    -0.134 OA 
BRANCH  26  29
HETATM   29  C   UNL     1      -9.859   3.678  71.434  1.00  0.00    -0.149 C  
HETATM   30  O   UNL     1      -9.485   2.495  72.156  1.00  0.00    -0.091 OA 
HETATM   31  H   UNL     1      -9.637   1.727  71.619  1.00  0.00     0.000 HD 
BRANCH  29  32
HETATM   32  C   UNL     1      -9.094   3.732  70.129  1.00  0.00    -0.195 A  
HETATM   33  C   UNL     1      -7.725   3.423  70.105  1.00  0.00    -0.044 A  
HETATM   34  C   UNL     1      -9.724   4.072  68.920  1.00  0.00    -0.151 A  
HETATM   35  C   UNL     1      -9.001   4.128  67.727  1.00  0.00    -0.142 A  
HETATM   36  C   UNL     1      -7.640   3.838  67.724  1.00  0.00    -0.067 A  
HETATM   37  C   UNL     1      -7.003   3.480  68.911  1.00  0.00    -0.046 A  
ENDBRANCH  29  32
ENDBRANCH  26  29
ENDBRANCH   8  25
TORSDOF 7
ENDMDL
MODEL       51
REMARK 921   NORMALIZED FREE ENERGY PREDICTED BY IDOCK:   -6.68 KCAL/MOL
REMARK 922        TOTAL FREE ENERGY PREDICTED BY IDOCK:  -10.38 KCAL/MOL
REMARK 923 INTER-LIGAND FREE ENERGY PREDICTED BY IDOCK:   -9.48 KCAL/MOL
REMARK 924 INTRA-LIGAND FREE ENERGY PREDICTED BY IDOCK:   -0.90 KCAL/MOL
REMARK 927      BINDING AFFINITY PREDICTED BY RF-SCORE:    0.00 PKD
ROOT
HETATM    1  C   UNL     1      -9.421   8.552  71.462  1.00  0.00    -0.222 C  
HETATM    2  S   UNL     1      -9.027   8.150  69.747  1.00  0.00    -0.144 SA 
HETATM    3  C   UNL     1      -9.220   9.846  69.153  1.00  0.00    -0.180 C  
HETATM    4  C   UNL     1     -10.447  10.590  69.671  1.00  0.00    -0.257 C  
HETATM    5  C   UNL     1     -11.248   8.278  72.435  1.00  0.00    -0.381 C  
HETATM    6  CA  UNL     1     -11.167  10.205  70.768  1.00  0.00    -0.336 C  
HETATM    7  C   UNL     1     -12.435  10.953  71.134  1.00  0.00    -0.405 C  
HETATM    8  CA  UNL     1      -9.976   7.365  72.325  1.00  0.00    -0.169 C  
HETATM    9  N   UNL     1     -10.749   9.128  71.514  1.00  0.00    -0.345 N  
HETATM   10  O   UNL     1     -13.329  10.319  71.912  1.00  0.00    -0.415 OA 
HETATM   11  OXT UNL     1     -12.679  12.090  70.749  1.00  0.00    -0.249 OA 
HETATM   12  O   UNL     1     -12.337   8.259  72.962  1.00  0.00    -0.205 OA 
ENDROOT
BRANCH   4  13
HETATM   13  C   UNL     1     -10.866  11.695  68.692  1.00  0.00    -0.213 C  
BRANCH  13  14
HETATM   14  S   UNL     1      -9.490  12.334  67.670  1.00  0.00    -0.195 SA 
BRANCH  14  15
HETATM   15  C   UNL     1     -10.033  13.965  67.450  1.00  0.00    -0.240 A  
HETATM   16  N   UNL     1     -10.000  14.904  68.372  1.00  0.00    -0.217 NA 
HETATM   17  N   UNL     1     -10.480  16.044  67.780  1.00  0.00    -0.289 NA 
HETATM   18  N   UNL     1     -10.539  14.512  66.301  1.00  0.00    -0.297 NA 
HETATM   19  N   UNL     1     -10.800  15.822  66.515  1.00  0.00    -0.276 NA 
BRANCH  18  20
HETATM   20  C   UNL     1     -10.679  14.001  64.968  1.00  0.00    -0.396 C  
HETATM   21  O   UNL     1     -12.389  13.031  63.228  1.00  0.00    -0.682 OA 
HETATM   22  O   UNL     1     -13.252  14.137  65.224  1.00  0.00    -0.760 OA 
HETATM   23  O   UNL     1     -12.208  11.898  65.479  1.00  0.00    -0.399 OA 
HETATM   24  S   UNL     1     -12.166  13.083  64.654  1.00  0.00    -0.430 S  
ENDBRANCH  18  20
ENDBRANCH  14  15
ENDBRANCH  13  14
ENDBRANCH   4  13
BRANCH   8  25
HETATM   25  N   UNL     1     -10.183   6.081  71.610  1.00  0.00    -0.197 N  
HETATM   26  C   UNL     1      -9.234   5.087  71.496  1.00  0.00    -0.146 C  
HETATM   27  H   UNL     1     -11.091   5.923  71.172  1.00  0.00     0.000 HD 
HETATM   28  O   UNL     1      -8.093   5.192  71.933  1.00  0.00    -0.111 OA 
BRANCH  26  29
HETATM   29  C   UNL     1      -9.769   3.826  70.779  1.00  0.00    -0.165 C  
HETATM   30  O   UNL     1      -9.086   2.662  71.266  1.00  0.00    -0.089 OA 
HETATM   31  H   UNL     1      -9.414   1.887  70.826  1.00  0.00     0.000 HD 
BRANCH  29  32
HETATM   32  C   UNL     1      -9.608   3.912  69.276  1.00  0.00    -0.232 A  
HETATM   33  C   UNL     1     -10.266   4.921  68.556  1.00  0.00    -0.105 A  
HETATM   34  C   UNL     1      -8.794   3.009  68.571  1.00  0.00    -0.167 A  
HETATM   35  C   UNL     1      -8.665   3.096  67.184  1.00  0.00    -0.137 A  
HETATM   36  C   UNL     1      -9.341   4.090  66.482  1.00  0.00    -0.192 A  
HETATM   37  C   UNL     1     -10.136   5.006  67.169  1.00  0.00    -0.239 A  
ENDBRANCH  29  32
ENDBRANCH  26  29
ENDBRANCH   8  25
TORSDOF 7
ENDMDL
MODEL       52
REMARK 921   NORMALIZED FREE ENERGY PREDICTED BY IDOCK:   -6.64 KCAL/MOL
REMARK 922        TOTAL FREE ENERGY PREDICTED BY IDOCK:  -10.33 KCAL/MOL
REMARK 923 INTER-LIGAND FREE ENERGY PREDICTED BY IDOCK:   -9.22 KCAL/MOL
REMARK 924 INTRA-LIGAND FREE ENERGY PREDICTED BY IDOCK:   -1.11 KCAL/MOL
REMARK 927      BINDING AFFINITY PREDICTED BY RF-SCORE:    0.00 PKD
ROOT
HETATM    1  C   UNL     1     -10.432   8.952  68.411  1.00  0.00    -0.187 C  
HETATM    2  S   UNL     1     -11.196   9.511  69.949  1.00  0.00    -0.127 SA 
HETATM    3  C   UNL     1     -11.420  11.215  69.388  1.00  0.00    -0.298 C  
HETATM    4  C   UNL     1     -10.225  11.834  68.671  1.00  0.00    -0.211 C  
HETATM    5  C   UNL     1      -8.395   8.692  68.037  1.00  0.00    -0.123 C  
HETATM    6  CA  UNL     1      -9.195  11.111  68.137  1.00  0.00    -0.166 C  
HETATM    7  C   UNL     1      -8.001  11.832  67.540  1.00  0.00    -0.148 C  
HETATM    8  CA  UNL     1      -9.501   7.696  68.536  1.00  0.00    -0.147 C  
HETATM    9  N   UNL     1      -9.238   9.737  68.171  1.00  0.00    -0.129 N  
HETATM   10  O   UNL     1      -6.851  11.146  67.430  1.00  0.00    -0.078 OA 
HETATM   11  OXT UNL     1      -8.039  12.998  67.168  1.00  0.00    -0.171 OA 
HETATM   12  O   UNL     1      -7.215   8.679  67.766  1.00  0.00    -0.085 OA 
ENDROOT
BRANCH   4  13
HETATM   13  C   UNL     1     -10.247  13.363  68.801  1.00  0.00    -0.119 C  
BRANCH  13  14
HETATM   14  S   UNL     1     -11.776  14.136  68.161  1.00  0.00    -0.363 SA 
BRANCH  14  15
HETATM   15  C   UNL     1     -11.096  15.112  66.900  1.00  0.00    -0.314 A  
HETATM   16  N   UNL     1     -10.761  16.378  67.021  1.00  0.00    -0.268 NA 
HETATM   17  N   UNL     1     -10.230  16.754  65.814  1.00  0.00    -0.530 NA 
HETATM   18  N   UNL     1     -10.789  14.707  65.628  1.00  0.00    -0.315 NA 
HETATM   19  N   UNL     1     -10.230  15.742  64.961  1.00  0.00    -0.464 NA 
BRANCH  18  20
HETATM   20  C   UNL     1     -10.816  13.423  64.989  1.00  0.00    -0.328 C  
HETATM   21  O   UNL     1     -12.098  11.942  63.241  1.00  0.00    -0.474 OA 
HETATM   22  O   UNL     1     -12.565  14.336  63.312  1.00  0.00    -0.716 OA 
HETATM   23  O   UNL     1     -13.411  12.918  65.167  1.00  0.00    -0.605 OA 
HETATM   24  S   UNL     1     -12.346  12.999  64.195  1.00  0.00    -0.338 S  
ENDBRANCH  18  20
ENDBRANCH  14  15
ENDBRANCH  13  14
ENDBRANCH   4  13
BRANCH   8  25
HETATM   25  N   UNL     1      -9.298   7.169  69.909  1.00  0.00    -0.151 N  
HETATM   26  C   UNL     1     -10.121   6.247  70.522  1.00  0.00    -0.189 C  
HETATM   27  H   UNL     1      -8.495   7.513  70.435  1.00  0.00     0.000 HD 
HETATM   28  O   UNL     1     -11.144   5.810  70.005  1.00  0.00    -0.348 OA 
BRANCH  26  29
HETATM   29  C   UNL     1      -9.604   5.814  71.913  1.00  0.00    -0.151 C  
HETATM   30  O   UNL     1      -8.172   5.906  71.951  1.00  0.00    -0.114 OA 
HETATM   31  H   UNL     1      -7.855   5.640  72.805  1.00  0.00     0.000 HD 
BRANCH  29  32
HETATM   32  C   UNL     1     -10.027   4.404  72.266  1.00  0.00    -0.239 A  
HETATM   33  C   UNL     1      -9.603   3.326  71.475  1.00  0.00    -0.234 A  
HETATM   34  C   UNL     1     -10.829   4.136  73.389  1.00  0.00    -0.331 A  
HETATM   35  C   UNL     1     -11.219   2.831  73.694  1.00  0.00    -0.311 A  
HETATM   36  C   UNL     1     -10.806   1.774  72.888  1.00  0.00    -0.235 A  
HETATM   37  C   UNL     1      -9.994   2.021  71.782  1.00  0.00    -0.215 A  
ENDBRANCH  29  32
ENDBRANCH  26  29
ENDBRANCH   8  25
TORSDOF 7
ENDMDL
MODEL       53
REMARK 921   NORMALIZED FREE ENERGY PREDICTED BY IDOCK:   -6.64 KCAL/MOL
REMARK 922        TOTAL FREE ENERGY PREDICTED BY IDOCK:  -10.33 KCAL/MOL
REMARK 923 INTER-LIGAND FREE ENERGY PREDICTED BY IDOCK:   -9.53 KCAL/MOL
REMARK 924 INTRA-LIGAND FREE ENERGY PREDICTED BY IDOCK:   -0.80 KCAL/MOL
REMARK 927      BINDING AFFINITY PREDICTED BY RF-SCORE:    0.00 PKD
ROOT
HETATM    1  C   UNL     1      -9.355   6.062  68.274  1.00  0.00    -0.116 C  
HETATM    2  S   UNL     1     -10.799   7.048  67.826  1.00  0.00    -0.177 SA 
HETATM    3  C   UNL     1     -10.025   7.784  66.367  1.00  0.00    -0.094 C  
HETATM    4  C   UNL     1      -8.593   8.274  66.559  1.00  0.00    -0.141 C  
HETATM    5  C   UNL     1      -7.926   6.506  69.730  1.00  0.00    -0.120 C  
HETATM    6  CA  UNL     1      -7.785   7.887  67.592  1.00  0.00    -0.117 C  
HETATM    7  C   UNL     1      -6.414   8.518  67.750  1.00  0.00    -0.061 C  
HETATM    8  CA  UNL     1      -9.251   5.665  69.788  1.00  0.00    -0.138 C  
HETATM    9  N   UNL     1      -8.232   6.951  68.494  1.00  0.00    -0.120 N  
HETATM   10  O   UNL     1      -5.839   8.462  68.964  1.00  0.00    -0.038 OA 
HETATM   11  OXT UNL     1      -5.823   9.077  66.835  1.00  0.00    -0.047 OA 
HETATM   12  O   UNL     1      -7.019   6.824  70.465  1.00  0.00    -0.060 OA 
ENDROOT
BRANCH   4  13
HETATM   13  C   UNL     1      -8.262   9.389  65.558  1.00  0.00    -0.126 C  
BRANCH  13  14
HETATM   14  S   UNL     1      -9.722  10.342  65.007  1.00  0.00    -0.323 SA 
BRANCH  14  15
HETATM   15  C   UNL     1      -9.651  11.652  66.140  1.00  0.00    -0.232 A  
HETATM   16  N   UNL     1      -9.144  11.577  67.352  1.00  0.00    -0.164 NA 
HETATM   17  N   UNL     1      -9.249  12.833  67.893  1.00  0.00    -0.197 NA 
HETATM   18  N   UNL     1     -10.080  12.936  65.934  1.00  0.00    -0.286 NA 
HETATM   19  N   UNL     1      -9.806  13.673  67.035  1.00  0.00    -0.245 NA 
BRANCH  18  20
HETATM   20  C   UNL     1     -10.587  13.611  64.775  1.00  0.00    -0.422 C  
HETATM   21  O   UNL     1     -12.689  14.814  63.762  1.00  0.00    -0.767 OA 
HETATM   22  O   UNL     1     -12.638  14.372  66.160  1.00  0.00    -0.375 OA 
HETATM   23  O   UNL     1     -12.965  12.453  64.618  1.00  0.00    -0.793 OA 
HETATM   24  S   UNL     1     -12.355  13.760  64.691  1.00  0.00    -0.344 S  
ENDBRANCH  18  20
ENDBRANCH  14  15
ENDBRANCH  13  14
ENDBRANCH   4  13
BRANCH   8  25
HETATM   25  N   UNL     1     -10.304   6.212  70.679  1.00  0.00    -0.205 N  
HETATM   26  C   UNL     1     -10.150   6.424  72.033  1.00  0.00    -0.178 C  
HETATM   27  H   UNL     1     -11.204   6.447  70.261  1.00  0.00     0.000 HD 
HETATM   28  O   UNL     1      -9.133   6.126  72.650  1.00  0.00    -0.141 OA 
BRANCH  26  29
HETATM   29  C   UNL     1     -11.385   7.092  72.679  1.00  0.00    -0.268 C  
HETATM   30  O   UNL     1     -12.520   6.219  72.578  1.00  0.00    -0.542 OA 
HETATM   31  H   UNL     1     -13.279   6.630  72.974  1.00  0.00     0.000 HD 
BRANCH  29  32
HETATM   32  C   UNL     1     -11.716   8.423  72.038  1.00  0.00    -0.417 A  
HETATM   33  C   UNL     1     -10.826   9.000  71.120  1.00  0.00    -0.364 A  
HETATM   34  C   UNL     1     -12.914   9.101  72.325  1.00  0.00    -0.492 A  
HETATM   35  C   UNL     1     -13.198  10.332  71.733  1.00  0.00    -0.534 A  
HETATM   36  C   UNL     1     -12.295  10.901  70.839  1.00  0.00    -0.501 A  
HETATM   37  C   UNL     1     -11.111  10.233  70.529  1.00  0.00    -0.381 A  
ENDBRANCH  29  32
ENDBRANCH  26  29
ENDBRANCH   8  25
TORSDOF 7
ENDMDL
MODEL       54
REMARK 921   NORMALIZED FREE ENERGY PREDICTED BY IDOCK:   -6.61 KCAL/MOL
REMARK 922        TOTAL FREE ENERGY PREDICTED BY IDOCK:  -10.29 KCAL/MOL
REMARK 923 INTER-LIGAND FREE ENERGY PREDICTED BY IDOCK:   -9.41 KCAL/MOL
REMARK 924 INTRA-LIGAND FREE ENERGY PREDICTED BY IDOCK:   -0.88 KCAL/MOL
REMARK 927      BINDING AFFINITY PREDICTED BY RF-SCORE:    0.00 PKD
ROOT
HETATM    1  C   UNL     1      -8.375  10.049  65.663  1.00  0.00    -0.145 C  
HETATM    2  S   UNL     1     -10.127  10.251  65.275  1.00  0.00    -0.234 SA 
HETATM    3  C   UNL     1     -10.056  12.057  65.223  1.00  0.00    -0.260 C  
HETATM    4  C   UNL     1      -9.278  12.718  66.357  1.00  0.00    -0.149 C  
HETATM    5  C   UNL     1      -7.533   9.687  67.539  1.00  0.00    -0.091 C  
HETATM    6  CA  UNL     1      -8.382  12.060  67.153  1.00  0.00    -0.181 C  
HETATM    7  C   UNL     1      -7.742  12.786  68.322  1.00  0.00    -0.136 C  
HETATM    8  CA  UNL     1      -7.995   8.716  66.396  1.00  0.00    -0.099 C  
HETATM    9  N   UNL     1      -8.090  10.740  66.904  1.00  0.00    -0.127 N  
HETATM   10  O   UNL     1      -7.232  12.038  69.316  1.00  0.00    -0.052 OA 
HETATM   11  OXT UNL     1      -7.680  14.006  68.402  1.00  0.00    -0.122 OA 
HETATM   12  O   UNL     1      -7.027   9.624  68.637  1.00  0.00    -0.062 OA 
ENDROOT
BRANCH   4  13
HETATM   13  C   UNL     1      -9.777  14.149  66.596  1.00  0.00    -0.288 C  
BRANCH  13  14
HETATM   14  S   UNL     1     -11.589  14.271  66.814  1.00  0.00    -0.406 SA 
BRANCH  14  15
HETATM   15  C   UNL     1     -11.787  13.191  68.156  1.00  0.00    -0.348 A  
HETATM   16  N   UNL     1     -12.026  11.901  68.059  1.00  0.00    -0.553 NA 
HETATM   17  N   UNL     1     -12.072  11.420  69.343  1.00  0.00    -0.312 NA 
HETATM   18  N   UNL     1     -11.699  13.512  69.484  1.00  0.00    -0.306 NA 
HETATM   19  N   UNL     1     -11.862  12.389  70.219  1.00  0.00    -0.289 NA 
BRANCH  18  20
HETATM   20  C   UNL     1     -11.333  14.722  70.164  1.00  0.00    -0.247 C  
HETATM   21  O   UNL     1     -11.829  16.215  72.265  1.00  0.00    -0.486 OA 
HETATM   22  O   UNL     1     -12.703  13.938  72.216  1.00  0.00    -0.286 OA 
HETATM   23  O   UNL     1     -13.754  15.633  70.736  1.00  0.00    -0.490 OA 
HETATM   24  S   UNL     1     -12.500  15.301  71.370  1.00  0.00    -0.403 S  
ENDBRANCH  18  20
ENDBRANCH  14  15
ENDBRANCH  13  14
ENDBRANCH   4  13
BRANCH   8  25
HETATM   25  N   UNL     1      -9.125   7.821  66.750  1.00  0.00    -0.146 N  
HETATM   26  C   UNL     1      -9.001   6.652  67.471  1.00  0.00    -0.114 C  
HETATM   27  H   UNL     1     -10.058   8.089  66.438  1.00  0.00     0.000 HD 
HETATM   28  O   UNL     1      -7.922   6.204  67.846  1.00  0.00    -0.107 OA 
BRANCH  26  29
HETATM   29  C   UNL     1     -10.362   5.983  67.768  1.00  0.00    -0.204 C  
HETATM   30  O   UNL     1     -11.410   6.688  67.085  1.00  0.00    -0.724 OA 
HETATM   31  H   UNL     1     -12.247   6.277  67.267  1.00  0.00     0.000 HD 
BRANCH  29  32
HETATM   32  C   UNL     1     -10.668   5.942  69.250  1.00  0.00    -0.401 A  
HETATM   33  C   UNL     1     -11.658   6.779  69.786  1.00  0.00    -0.284 A  
HETATM   34  C   UNL     1      -9.991   5.066  70.116  1.00  0.00    -0.328 A  
HETATM   35  C   UNL     1     -10.278   5.048  71.482  1.00  0.00    -0.273 A  
HETATM   36  C   UNL     1     -11.250   5.899  72.001  1.00  0.00    -0.330 A  
HETATM   37  C   UNL     1     -11.944   6.760  71.152  1.00  0.00    -0.421 A  
ENDBRANCH  29  32
ENDBRANCH  26  29
ENDBRANCH   8  25
TORSDOF 7
ENDMDL
MODEL       55
REMARK 921   NORMALIZED FREE ENERGY PREDICTED BY IDOCK:   -6.61 KCAL/MOL
REMARK 922        TOTAL FREE ENERGY PREDICTED BY IDOCK:  -10.29 KCAL/MOL
REMARK 923 INTER-LIGAND FREE ENERGY PREDICTED BY IDOCK:   -9.45 KCAL/MOL
REMARK 924 INTRA-LIGAND FREE ENERGY PREDICTED BY IDOCK:   -0.83 KCAL/MOL
REMARK 927      BINDING AFFINITY PREDICTED BY RF-SCORE:    0.00 PKD
ROOT
HETATM    1  C   UNL     1     -10.588  10.522  67.345  1.00  0.00    -0.263 C  
HETATM    2  S   UNL     1     -11.626  11.707  68.227  1.00  0.00    -0.304 SA 
HETATM    3  C   UNL     1     -10.833  13.161  67.501  1.00  0.00    -0.255 C  
HETATM    4  C   UNL     1      -9.309  13.123  67.451  1.00  0.00    -0.213 C  
HETATM    5  C   UNL     1      -8.921   9.508  68.087  1.00  0.00    -0.123 C  
HETATM    6  CA  UNL     1      -8.568  11.981  67.577  1.00  0.00    -0.167 C  
HETATM    7  C   UNL     1      -7.054  12.069  67.621  1.00  0.00    -0.118 C  
HETATM    8  CA  UNL     1     -10.440   9.116  68.026  1.00  0.00    -0.224 C  
HETATM    9  N   UNL     1      -9.203  10.766  67.690  1.00  0.00    -0.146 N  
HETATM   10  O   UNL     1      -6.387  11.039  68.169  1.00  0.00    -0.056 OA 
HETATM   11  OXT UNL     1      -6.425  13.028  67.194  1.00  0.00    -0.224 OA 
HETATM   12  O   UNL     1      -7.874   9.030  68.460  1.00  0.00    -0.099 OA 
ENDROOT
BRANCH   4  13
HETATM   13  C   UNL     1      -8.731  14.545  67.434  1.00  0.00    -0.199 C  
BRANCH  13  14
HETATM   14  S   UNL     1      -9.657  15.729  68.475  1.00  0.00    -0.210 SA 
BRANCH  14  15
HETATM   15  C   UNL     1      -8.400  16.883  68.781  1.00  0.00    -0.240 A  
HETATM   16  N   UNL     1      -7.180  16.585  69.173  1.00  0.00    -0.223 NA 
HETATM   17  N   UNL     1      -6.500  17.773  69.257  1.00  0.00    -0.246 NA 
HETATM   18  N   UNL     1      -8.483  18.242  68.636  1.00  0.00    -0.310 NA 
HETATM   19  N   UNL     1      -7.279  18.789  68.921  1.00  0.00    -0.308 NA 
BRANCH  18  20
HETATM   20  C   UNL     1      -9.512  19.097  68.119  1.00  0.00    -0.342 C  
HETATM   21  O   UNL     1     -10.711  19.899  65.925  1.00  0.00    -0.465 OA 
HETATM   22  O   UNL     1      -9.284  17.923  65.823  1.00  0.00    -0.498 OA 
HETATM   23  O   UNL     1      -8.200  20.144  66.069  1.00  0.00    -0.287 OA 
HETATM   24  S   UNL     1      -9.420  19.435  66.378  1.00  0.00    -0.382 S  
ENDBRANCH  18  20
ENDBRANCH  14  15
ENDBRANCH  13  14
ENDBRANCH   4  13
BRANCH   8  25
HETATM   25  N   UNL     1     -11.102   8.957  69.344  1.00  0.00    -0.436 N  
HETATM   26  C   UNL     1     -11.146   7.779  70.060  1.00  0.00    -0.175 C  
HETATM   27  H   UNL     1     -11.556   9.776  69.749  1.00  0.00     0.000 HD 
HETATM   28  O   UNL     1     -10.684   6.721  69.645  1.00  0.00    -0.222 OA 
BRANCH  26  29
HETATM   29  C   UNL     1     -11.820   7.942  71.442  1.00  0.00    -0.299 C  
HETATM   30  O   UNL     1     -11.610   9.275  71.932  1.00  0.00    -0.372 OA 
HETATM   31  H   UNL     1     -12.024   9.375  72.781  1.00  0.00     0.000 HD 
BRANCH  29  32
HETATM   32  C   UNL     1     -11.296   6.946  72.455  1.00  0.00    -0.308 A  
HETATM   33  C   UNL     1     -10.365   7.353  73.422  1.00  0.00    -0.411 A  
HETATM   34  C   UNL     1     -11.734   5.610  72.467  1.00  0.00    -0.255 A  
HETATM   35  C   UNL     1     -11.233   4.703  73.401  1.00  0.00    -0.423 A  
HETATM   36  C   UNL     1     -10.294   5.117  74.341  1.00  0.00    -0.313 A  
HETATM   37  C   UNL     1      -9.864   6.443  74.355  1.00  0.00    -0.338 A  
ENDBRANCH  29  32
ENDBRANCH  26  29
ENDBRANCH   8  25
TORSDOF 7
ENDMDL
MODEL       56
REMARK 921   NORMALIZED FREE ENERGY PREDICTED BY IDOCK:   -6.61 KCAL/MOL
REMARK 922        TOTAL FREE ENERGY PREDICTED BY IDOCK:  -10.28 KCAL/MOL
REMARK 923 INTER-LIGAND FREE ENERGY PREDICTED BY IDOCK:   -9.04 KCAL/MOL
REMARK 924 INTRA-LIGAND FREE ENERGY PREDICTED BY IDOCK:   -1.24 KCAL/MOL
REMARK 927      BINDING AFFINITY PREDICTED BY RF-SCORE:    0.00 PKD
ROOT
HETATM    1  C   UNL     1     -11.886  14.128  67.272  1.00  0.00    -0.419 C  
HETATM    2  S   UNL     1     -10.519  13.149  66.616  1.00  0.00    -0.281 SA 
HETATM    3  C   UNL     1     -11.169  11.572  67.217  1.00  0.00    -0.301 C  
HETATM    4  C   UNL     1     -11.697  11.581  68.647  1.00  0.00    -0.389 C  
HETATM    5  C   UNL     1     -11.906  15.246  69.035  1.00  0.00    -0.318 C  
HETATM    6  CA  UNL     1     -12.025  12.717  69.334  1.00  0.00    -0.263 C  
HETATM    7  C   UNL     1     -12.439  12.621  70.790  1.00  0.00    -0.270 C  
HETATM    8  CA  UNL     1     -11.563  15.637  67.554  1.00  0.00    -0.040 C  
HETATM    9  N   UNL     1     -11.951  13.938  68.706  1.00  0.00    -0.356 N  
HETATM   10  O   UNL     1     -12.331  13.729  71.543  1.00  0.00    -0.308 OA 
HETATM   11  OXT UNL     1     -12.853  11.589  71.304  1.00  0.00    -0.404 OA 
HETATM   12  O   UNL     1     -11.975  15.774  70.121  1.00  0.00    -0.353 OA 
ENDROOT
BRANCH   4  13
HETATM   13  C   UNL     1     -11.626  10.176  69.261  1.00  0.00    -0.055 C  
BRANCH  13  14
HETATM   14  S   UNL     1      -9.949   9.446  69.239  1.00  0.00    -0.190 SA 
BRANCH  14  15
HETATM   15  C   UNL     1     -10.368   7.776  69.044  1.00  0.00    -0.211 A  
HETATM   16  N   UNL     1     -10.771   7.223  67.920  1.00  0.00    -0.198 NA 
HETATM   17  N   UNL     1     -10.956   5.891  68.189  1.00  0.00    -0.244 NA 
HETATM   18  N   UNL     1     -10.318   6.802  70.005  1.00  0.00    -0.194 NA 
HETATM   19  N   UNL     1     -10.672   5.619  69.453  1.00  0.00    -0.308 NA 
BRANCH  18  20
HETATM   20  C   UNL     1      -9.835   6.802  71.357  1.00  0.00    -0.178 C  
HETATM   21  O   UNL     1     -10.565   6.721  73.877  1.00  0.00    -0.350 OA 
HETATM   22  O   UNL     1     -12.209   6.157  72.165  1.00  0.00    -0.319 OA 
HETATM   23  O   UNL     1     -11.539   8.535  72.413  1.00  0.00    -0.372 OA 
HETATM   24  S   UNL     1     -11.044   7.191  72.598  1.00  0.00    -0.296 S  
ENDBRANCH  18  20
ENDBRANCH  14  15
ENDBRANCH  13  14
ENDBRANCH   4  13
BRANCH   8  25
HETATM   25  N   UNL     1     -10.159  16.057  67.322  1.00  0.00    -0.260 N  
HETATM   26  C   UNL     1      -9.677  17.330  67.543  1.00  0.00    -0.264 C  
HETATM   27  H   UNL     1      -9.505  15.355  66.977  1.00  0.00     0.000 HD 
HETATM   28  O   UNL     1     -10.385  18.265  67.903  1.00  0.00    -0.366 OA 
BRANCH  26  29
HETATM   29  C   UNL     1      -8.154  17.444  67.306  1.00  0.00    -0.201 C  
HETATM   30  O   UNL     1      -7.880  17.452  65.897  1.00  0.00    -0.514 OA 
HETATM   31  H   UNL     1      -6.944  17.522  65.751  1.00  0.00     0.000 HD 
BRANCH  29  32
HETATM   32  C   UNL     1      -7.387  16.314  67.960  1.00  0.00    -0.141 A  
HETATM   33  C   UNL     1      -7.569  16.041  69.325  1.00  0.00    -0.230 A  
HETATM   34  C   UNL     1      -6.499  15.507  67.229  1.00  0.00    -0.049 A  
HETATM   35  C   UNL     1      -5.793  14.476  67.850  1.00  0.00    -0.137 A  
HETATM   36  C   UNL     1      -5.969  14.231  69.209  1.00  0.00    -0.095 A  
HETATM   37  C   UNL     1      -6.861  15.010  69.945  1.00  0.00    -0.162 A  
ENDBRANCH  29  32
ENDBRANCH  26  29
ENDBRANCH   8  25
TORSDOF 7
ENDMDL
MODEL       57
REMARK 921   NORMALIZED FREE ENERGY PREDICTED BY IDOCK:   -6.60 KCAL/MOL
REMARK 922        TOTAL FREE ENERGY PREDICTED BY IDOCK:  -10.27 KCAL/MOL
REMARK 923 INTER-LIGAND FREE ENERGY PREDICTED BY IDOCK:   -8.81 KCAL/MOL
REMARK 924 INTRA-LIGAND FREE ENERGY PREDICTED BY IDOCK:   -1.47 KCAL/MOL
REMARK 927      BINDING AFFINITY PREDICTED BY RF-SCORE:    0.00 PKD
ROOT
HETATM    1  C   UNL     1      -8.012   7.918  67.203  1.00  0.00    -0.117 C  
HETATM    2  S   UNL     1      -8.834   9.283  68.051  1.00  0.00    -0.128 SA 
HETATM    3  C   UNL     1      -8.704   8.534  69.692  1.00  0.00    -0.133 C  
HETATM    4  C   UNL     1      -9.056   7.052  69.768  1.00  0.00    -0.144 C  
HETATM    5  C   UNL     1      -8.918   6.363  66.144  1.00  0.00    -0.150 C  
HETATM    6  CA  UNL     1      -9.108   6.222  68.682  1.00  0.00    -0.126 C  
HETATM    7  C   UNL     1      -9.575   4.789  68.854  1.00  0.00    -0.162 C  
HETATM    8  CA  UNL     1      -8.363   7.757  65.683  1.00  0.00    -0.139 C  
HETATM    9  N   UNL     1      -8.763   6.702  67.441  1.00  0.00    -0.118 N  
HETATM   10  O   UNL     1     -10.028   4.146  67.764  1.00  0.00    -0.104 OA 
HETATM   11  OXT UNL     1      -9.566   4.204  69.930  1.00  0.00    -0.182 OA 
HETATM   12  O   UNL     1      -9.436   5.385  65.655  1.00  0.00    -0.137 OA 
ENDROOT
BRANCH   4  13
HETATM   13  C   UNL     1      -9.524   6.677  71.180  1.00  0.00    -0.163 C  
BRANCH  13  14
HETATM   14  S   UNL     1     -10.162   8.093  72.146  1.00  0.00    -0.289 SA 
BRANCH  14  15
HETATM   15  C   UNL     1     -11.860   7.886  71.867  1.00  0.00    -0.301 A  
HETATM   16  N   UNL     1     -12.463   6.728  71.700  1.00  0.00    -0.361 NA 
HETATM   17  N   UNL     1     -13.798   7.006  71.550  1.00  0.00    -0.300 NA 
HETATM   18  N   UNL     1     -12.806   8.874  71.806  1.00  0.00    -0.343 NA 
HETATM   19  N   UNL     1     -14.022   8.309  71.625  1.00  0.00    -0.395 NA 
BRANCH  18  20
HETATM   20  C   UNL     1     -12.744  10.287  72.044  1.00  0.00    -0.301 C  
HETATM   21  O   UNL     1     -12.644  12.639  70.882  1.00  0.00    -0.338 OA 
HETATM   22  O   UNL     1     -13.243  10.694  69.537  1.00  0.00     0.110 OA 
HETATM   23  O   UNL     1     -10.883  10.932  70.273  1.00  0.00    -0.132 OA 
HETATM   24  S   UNL     1     -12.233  11.273  70.659  1.00  0.00    -0.379 S  
ENDBRANCH  18  20
ENDBRANCH  14  15
ENDBRANCH  13  14
ENDBRANCH   4  13
BRANCH   8  25
HETATM   25  N   UNL     1      -9.382   8.694  65.147  1.00  0.00    -0.408 N  
HETATM   26  C   UNL     1      -9.094   9.891  64.526  1.00  0.00    -0.250 C  
HETATM   27  H   UNL     1     -10.363   8.434  65.244  1.00  0.00     0.000 HD 
HETATM   28  O   UNL     1      -7.955  10.330  64.405  1.00  0.00    -0.160 OA 
BRANCH  26  29
HETATM   29  C   UNL     1     -10.355  10.605  63.987  1.00  0.00    -0.191 C  
HETATM   30  O   UNL     1     -10.176  10.926  62.599  1.00  0.00    -0.711 OA 
HETATM   31  H   UNL     1     -10.950  11.365  62.267  1.00  0.00     0.000 HD 
BRANCH  29  32
HETATM   32  C   UNL     1     -10.670  11.869  64.758  1.00  0.00    -0.356 A  
HETATM   33  C   UNL     1     -10.346  13.122  64.215  1.00  0.00    -0.361 A  
HETATM   34  C   UNL     1     -11.301  11.827  66.013  1.00  0.00    -0.335 A  
HETATM   35  C   UNL     1     -11.575  13.002  66.715  1.00  0.00    -0.420 A  
HETATM   36  C   UNL     1     -11.229  14.236  66.171  1.00  0.00    -0.331 A  
HETATM   37  C   UNL     1     -10.620  14.296  64.919  1.00  0.00    -0.452 A  
ENDBRANCH  29  32
ENDBRANCH  26  29
ENDBRANCH   8  25
TORSDOF 7
ENDMDL
MODEL       58
REMARK 921   NORMALIZED FREE ENERGY PREDICTED BY IDOCK:   -6.60 KCAL/MOL
REMARK 922        TOTAL FREE ENERGY PREDICTED BY IDOCK:  -10.27 KCAL/MOL
REMARK 923 INTER-LIGAND FREE ENERGY PREDICTED BY IDOCK:   -8.51 KCAL/MOL
REMARK 924 INTRA-LIGAND FREE ENERGY PREDICTED BY IDOCK:   -1.76 KCAL/MOL
REMARK 927      BINDING AFFINITY PREDICTED BY RF-SCORE:    0.00 PKD
ROOT
HETATM    1  C   UNL     1      -7.673  10.845  67.035  1.00  0.00    -0.129 C  
HETATM    2  S   UNL     1      -8.201  11.347  68.687  1.00  0.00    -0.112 SA 
HETATM    3  C   UNL     1      -7.196  10.110  69.542  1.00  0.00    -0.115 C  
HETATM    4  C   UNL     1      -7.233   8.707  68.945  1.00  0.00    -0.077 C  
HETATM    5  C   UNL     1      -8.714   9.632  65.693  1.00  0.00    -0.141 C  
HETATM    6  CA  UNL     1      -7.660   8.426  67.676  1.00  0.00    -0.098 C  
HETATM    7  C   UNL     1      -7.758   6.983  67.219  1.00  0.00    -0.109 C  
HETATM    8  CA  UNL     1      -8.669  11.190  65.873  1.00  0.00    -0.164 C  
HETATM    9  N   UNL     1      -8.021   9.453  66.837  1.00  0.00    -0.108 N  
HETATM   10  O   UNL     1      -8.565   6.714  66.178  1.00  0.00    -0.135 OA 
HETATM   11  OXT UNL     1      -7.151   6.066  67.757  1.00  0.00    -0.070 OA 
HETATM   12  O   UNL     1      -9.240   8.815  64.971  1.00  0.00    -0.085 OA 
ENDROOT
BRANCH   4  13
HETATM   13  C   UNL     1      -6.914   7.654  70.015  1.00  0.00    -0.051 C  
BRANCH  13  14
HETATM   14  S   UNL     1      -8.134   7.593  71.376  1.00  0.00    -0.097 SA 
BRANCH  14  15
HETATM   15  C   UNL     1      -9.424   6.766  70.565  1.00  0.00    -0.169 A  
HETATM   16  N   UNL     1      -9.420   5.490  70.245  1.00  0.00    -0.159 NA 
HETATM   17  N   UNL     1     -10.634   5.235  69.660  1.00  0.00    -0.263 NA 
HETATM   18  N   UNL     1     -10.620   7.303  70.172  1.00  0.00    -0.226 NA 
HETATM   19  N   UNL     1     -11.379   6.328  69.620  1.00  0.00    -0.432 NA 
BRANCH  18  20
HETATM   20  C   UNL     1     -11.215   8.592  70.376  1.00  0.00    -0.218 C  
HETATM   21  O   UNL     1     -12.610  10.050  72.055  1.00  0.00    -0.372 OA 
HETATM   22  O   UNL     1     -11.614   7.973  72.858  1.00  0.00    -0.397 OA 
HETATM   23  O   UNL     1     -13.566   7.827  71.329  1.00  0.00    -0.282 OA 
HETATM   24  S   UNL     1     -12.442   8.672  71.658  1.00  0.00    -0.352 S  
ENDBRANCH  18  20
ENDBRANCH  14  15
ENDBRANCH  13  14
ENDBRANCH   4  13
BRANCH   8  25
HETATM   25  N   UNL     1      -9.954  11.814  66.279  1.00  0.00    -0.213 N  
HETATM   26  C   UNL     1     -10.752  12.572  65.449  1.00  0.00    -0.280 C  
HETATM   27  H   UNL     1     -10.267  11.671  67.239  1.00  0.00     0.000 HD 
HETATM   28  O   UNL     1     -10.446  12.855  64.295  1.00  0.00    -0.380 OA 
BRANCH  26  29
HETATM   29  C   UNL     1     -12.074  13.007  66.122  1.00  0.00    -0.409 C  
HETATM   30  O   UNL     1     -12.879  13.738  65.185  1.00  0.00    -0.695 OA 
HETATM   31  H   UNL     1     -13.691  14.006  65.598  1.00  0.00     0.000 HD 
BRANCH  29  32
HETATM   32  C   UNL     1     -11.836  13.858  67.352  1.00  0.00    -0.437 A  
HETATM   33  C   UNL     1     -12.024  13.311  68.630  1.00  0.00    -0.345 A  
HETATM   34  C   UNL     1     -11.411  15.194  67.251  1.00  0.00    -0.305 A  
HETATM   35  C   UNL     1     -11.207  15.967  68.395  1.00  0.00    -0.368 A  
HETATM   36  C   UNL     1     -11.417  15.415  69.656  1.00  0.00    -0.331 A  
HETATM   37  C   UNL     1     -11.820  14.086  69.773  1.00  0.00    -0.385 A  
ENDBRANCH  29  32
ENDBRANCH  26  29
ENDBRANCH   8  25
TORSDOF 7
ENDMDL
MODEL       59
REMARK 921   NORMALIZED FREE ENERGY PREDICTED BY IDOCK:   -6.55 KCAL/MOL
REMARK 922        TOTAL FREE ENERGY PREDICTED BY IDOCK:  -10.20 KCAL/MOL
REMARK 923 INTER-LIGAND FREE ENERGY PREDICTED BY IDOCK:   -9.15 KCAL/MOL
REMARK 924 INTRA-LIGAND FREE ENERGY PREDICTED BY IDOCK:   -1.04 KCAL/MOL
REMARK 927      BINDING AFFINITY PREDICTED BY RF-SCORE:    0.00 PKD
ROOT
HETATM    1  C   UNL     1     -10.213   9.271  67.435  1.00  0.00    -0.243 C  
HETATM    2  S   UNL     1     -11.276  10.313  68.456  1.00  0.00    -0.168 SA 
HETATM    3  C   UNL     1     -10.792  11.854  67.643  1.00  0.00    -0.227 C  
HETATM    4  C   UNL     1      -9.297  12.024  67.391  1.00  0.00    -0.178 C  
HETATM    5  C   UNL     1      -8.339   8.501  67.942  1.00  0.00    -0.126 C  
HETATM    6  CA  UNL     1      -8.397  10.994  67.410  1.00  0.00    -0.126 C  
HETATM    7  C   UNL     1      -6.917  11.287  67.254  1.00  0.00    -0.109 C  
HETATM    8  CA  UNL     1      -9.786   7.906  68.079  1.00  0.00    -0.159 C  
HETATM    9  N   UNL     1      -8.840   9.706  67.596  1.00  0.00    -0.125 N  
HETATM   10  O   UNL     1      -6.049  10.363  67.701  1.00  0.00    -0.052 OA 
HETATM   11  OXT UNL     1      -6.486  12.319  66.755  1.00  0.00    -0.092 OA 
HETATM   12  O   UNL     1      -7.197   8.174  68.169  1.00  0.00    -0.089 OA 
ENDROOT
BRANCH   4  13
HETATM   13  C   UNL     1      -8.925  13.510  67.309  1.00  0.00    -0.222 C  
BRANCH  13  14
HETATM   14  S   UNL     1     -10.264  14.569  66.653  1.00  0.00    -0.282 SA 
BRANCH  14  15
HETATM   15  C   UNL     1     -10.540  15.572  68.040  1.00  0.00    -0.270 A  
HETATM   16  N   UNL     1     -11.205  15.208  69.116  1.00  0.00    -0.261 NA 
HETATM   17  N   UNL     1     -11.154  16.272  69.979  1.00  0.00    -0.357 NA 
HETATM   18  N   UNL     1     -10.092  16.852  68.226  1.00  0.00    -0.286 NA 
HETATM   19  N   UNL     1     -10.469  17.276  69.455  1.00  0.00    -0.254 NA 
BRANCH  18  20
HETATM   20  C   UNL     1      -9.222  17.694  67.456  1.00  0.00    -0.243 C  
HETATM   21  O   UNL     1      -9.135  19.800  65.892  1.00  0.00    -0.364 OA 
HETATM   22  O   UNL     1     -11.160  19.389  67.188  1.00  0.00    -0.445 OA 
HETATM   23  O   UNL     1     -10.681  17.906  65.255  1.00  0.00    -0.640 OA 
HETATM   24  S   UNL     1     -10.025  18.721  66.251  1.00  0.00    -0.366 S  
ENDBRANCH  18  20
ENDBRANCH  14  15
ENDBRANCH  13  14
ENDBRANCH   4  13
BRANCH   8  25
HETATM   25  N   UNL     1     -10.240   7.672  69.472  1.00  0.00    -0.203 N  
HETATM   26  C   UNL     1      -9.993   6.522  70.192  1.00  0.00    -0.167 C  
HETATM   27  H   UNL     1     -10.772   8.413  69.928  1.00  0.00     0.000 HD 
HETATM   28  O   UNL     1      -9.414   5.546  69.725  1.00  0.00    -0.139 OA 
BRANCH  26  29
HETATM   29  C   UNL     1     -10.506   6.605  71.648  1.00  0.00    -0.207 C  
HETATM   30  O   UNL     1     -10.785   5.286  72.141  1.00  0.00    -0.219 OA 
HETATM   31  H   UNL     1     -11.101   5.336  73.036  1.00  0.00     0.000 HD 
BRANCH  29  32
HETATM   32  C   UNL     1     -11.750   7.460  71.768  1.00  0.00    -0.319 A  
HETATM   33  C   UNL     1     -11.634   8.830  72.048  1.00  0.00    -0.436 A  
HETATM   34  C   UNL     1     -13.034   6.919  71.589  1.00  0.00    -0.359 A  
HETATM   35  C   UNL     1     -14.171   7.720  71.714  1.00  0.00    -0.558 A  
HETATM   36  C   UNL     1     -14.040   9.073  72.012  1.00  0.00    -0.434 A  
HETATM   37  C   UNL     1     -12.772   9.629  72.173  1.00  0.00    -0.427 A  
ENDBRANCH  29  32
ENDBRANCH  26  29
ENDBRANCH   8  25
TORSDOF 7
ENDMDL
MODEL       60
REMARK 921   NORMALIZED FREE ENERGY PREDICTED BY IDOCK:   -6.55 KCAL/MOL
REMARK 922        TOTAL FREE ENERGY PREDICTED BY IDOCK:  -10.20 KCAL/MOL
REMARK 923 INTER-LIGAND FREE ENERGY PREDICTED BY IDOCK:   -8.89 KCAL/MOL
REMARK 924 INTRA-LIGAND FREE ENERGY PREDICTED BY IDOCK:   -1.31 KCAL/MOL
REMARK 927      BINDING AFFINITY PREDICTED BY RF-SCORE:    0.00 PKD
ROOT
HETATM    1  C   UNL     1     -11.804  14.178  68.272  1.00  0.00    -0.356 C  
HETATM    2  S   UNL     1     -10.449  14.736  69.327  1.00  0.00    -0.193 SA 
HETATM    3  C   UNL     1     -10.568  16.465  68.811  1.00  0.00    -0.310 C  
HETATM    4  C   UNL     1     -10.729  16.695  67.312  1.00  0.00    -0.227 C  
HETATM    5  C   UNL     1     -11.651  13.235  66.416  1.00  0.00    -0.347 C  
HETATM    6  CA  UNL     1     -11.129  15.730  66.429  1.00  0.00    -0.070 C  
HETATM    7  C   UNL     1     -11.152  16.035  64.943  1.00  0.00    -0.370 C  
HETATM    8  CA  UNL     1     -11.768  12.661  67.873  1.00  0.00    -0.358 C  
HETATM    9  N   UNL     1     -11.480  14.485  66.895  1.00  0.00    -0.352 N  
HETATM   10  O   UNL     1     -11.117  14.994  64.094  1.00  0.00    -0.024 OA 
HETATM   11  OXT UNL     1     -11.191  17.172  64.492  1.00  0.00    -1.104 OA 
HETATM   12  O   UNL     1     -11.576  12.823  65.280  1.00  0.00    -0.316 OA 
ENDROOT
BRANCH   4  13
HETATM   13  C   UNL     1     -10.203  18.081  66.916  1.00  0.00    -0.362 C  
BRANCH  13  14
HETATM   14  S   UNL     1      -9.717  19.120  68.340  1.00  0.00    -0.413 SA 
BRANCH  14  15
HETATM   15  C   UNL     1      -8.282  19.843  67.690  1.00  0.00    -0.313 A  
HETATM   16  N   UNL     1      -8.204  21.062  67.203  1.00  0.00    -0.079 NA 
HETATM   17  N   UNL     1      -6.896  21.248  66.836  1.00  0.00    -0.450 NA 
HETATM   18  N   UNL     1      -7.040  19.271  67.614  1.00  0.00    -0.223 NA 
HETATM   19  N   UNL     1      -6.174  20.169  67.092  1.00  0.00    -0.182 NA 
BRANCH  18  20
HETATM   20  C   UNL     1      -6.517  18.029  68.106  1.00  0.00    -0.191 C  
HETATM   21  O   UNL     1      -5.385  15.768  67.400  1.00  0.00    -0.291 OA 
HETATM   22  O   UNL     1      -5.484  17.583  65.774  1.00  0.00    -0.211 OA 
HETATM   23  O   UNL     1      -7.588  16.385  66.326  1.00  0.00    -0.234 OA 
HETATM   24  S   UNL     1      -6.309  16.753  66.889  1.00  0.00    -0.171 S  
ENDBRANCH  18  20
ENDBRANCH  14  15
ENDBRANCH  13  14
ENDBRANCH   4  13
BRANCH   8  25
HETATM   25  N   UNL     1     -10.589  11.891  68.341  1.00  0.00    -0.211 N  
HETATM   26  C   UNL     1     -10.290  10.603  67.951  1.00  0.00    -0.199 C  
HETATM   27  H   UNL     1      -9.955  12.347  68.998  1.00  0.00     0.000 HD 
HETATM   28  O   UNL     1     -11.010   9.940  67.211  1.00  0.00    -0.251 OA 
BRANCH  26  29
HETATM   29  C   UNL     1      -8.949  10.097  68.528  1.00  0.00    -0.127 C  
HETATM   30  O   UNL     1      -8.650  10.794  69.747  1.00  0.00    -0.364 OA 
HETATM   31  H   UNL     1      -7.825  10.483  70.102  1.00  0.00     0.000 HD 
BRANCH  29  32
HETATM   32  C   UNL     1      -7.804  10.274  67.554  1.00  0.00    -0.102 A  
HETATM   33  C   UNL     1      -7.490   9.250  66.647  1.00  0.00    -0.093 A  
HETATM   34  C   UNL     1      -7.045  11.456  67.518  1.00  0.00    -0.106 A  
HETATM   35  C   UNL     1      -5.986  11.598  66.620  1.00  0.00    -0.099 A  
HETATM   36  C   UNL     1      -5.674  10.565  65.740  1.00  0.00    -0.124 A  
HETATM   37  C   UNL     1      -6.430   9.394  65.750  1.00  0.00    -0.069 A  
ENDBRANCH  29  32
ENDBRANCH  26  29
ENDBRANCH   8  25
TORSDOF 7
ENDMDL
MODEL       61
REMARK 921   NORMALIZED FREE ENERGY PREDICTED BY IDOCK:   -6.54 KCAL/MOL
REMARK 922        TOTAL FREE ENERGY PREDICTED BY IDOCK:  -10.19 KCAL/MOL
REMARK 923 INTER-LIGAND FREE ENERGY PREDICTED BY IDOCK:   -9.29 KCAL/MOL
REMARK 924 INTRA-LIGAND FREE ENERGY PREDICTED BY IDOCK:   -0.90 KCAL/MOL
REMARK 927      BINDING AFFINITY PREDICTED BY RF-SCORE:    0.00 PKD
ROOT
HETATM    1  C   UNL     1     -12.267  12.518  68.574  1.00  0.00     0.115 C  
HETATM    2  S   UNL     1     -11.539  13.370  69.990  1.00  0.00    -0.075 SA 
HETATM    3  C   UNL     1     -11.540  14.995  69.197  1.00  0.00    -0.310 C  
HETATM    4  C   UNL     1     -11.056  15.022  67.751  1.00  0.00    -0.312 C  
HETATM    5  C   UNL     1     -11.268  11.390  67.130  1.00  0.00    -0.296 C  
HETATM    6  CA  UNL     1     -10.971  13.916  66.952  1.00  0.00    -0.295 C  
HETATM    7  C   UNL     1     -10.373  14.036  65.563  1.00  0.00    -0.339 C  
HETATM    8  CA  UNL     1     -11.961  10.983  68.478  1.00  0.00    -0.135 C  
HETATM    9  N   UNL     1     -11.404  12.699  67.425  1.00  0.00    -0.294 N  
HETATM   10  O   UNL     1      -9.907  12.915  64.987  1.00  0.00    -0.174 OA 
HETATM   11  OXT UNL     1     -10.290  15.097  64.957  1.00  0.00    -0.383 OA 
HETATM   12  O   UNL     1     -10.684  10.860  66.212  1.00  0.00    -0.243 OA 
ENDROOT
BRANCH   4  13
HETATM   13  C   UNL     1     -10.505  16.408  67.389  1.00  0.00    -0.309 C  
BRANCH  13  14
HETATM   14  S   UNL     1      -9.147  16.968  68.479  1.00  0.00    -0.263 SA 
BRANCH  14  15
HETATM   15  C   UNL     1      -8.102  17.678  67.291  1.00  0.00    -0.209 A  
HETATM   16  N   UNL     1      -8.432  17.913  66.039  1.00  0.00    -0.521 NA 
HETATM   17  N   UNL     1      -7.342  18.511  65.459  1.00  0.00    -0.519 NA 
HETATM   18  N   UNL     1      -6.818  18.112  67.485  1.00  0.00    -0.194 NA 
HETATM   19  N   UNL     1      -6.357  18.650  66.332  1.00  0.00    -0.183 NA 
BRANCH  18  20
HETATM   20  C   UNL     1      -6.004  18.225  68.660  1.00  0.00    -0.197 C  
HETATM   21  O   UNL     1      -5.628  19.598  70.866  1.00  0.00    -0.235 OA 
HETATM   22  O   UNL     1      -7.717  19.898  69.643  1.00  0.00    -0.047 OA 
HETATM   23  O   UNL     1      -5.639  20.849  68.671  1.00  0.00    -0.310 OA 
HETATM   24  S   UNL     1      -6.110  19.777  69.516  1.00  0.00    -0.332 S  
ENDBRANCH  18  20
ENDBRANCH  14  15
ENDBRANCH  13  14
ENDBRANCH   4  13
BRANCH   8  25
HETATM   25  N   UNL     1     -11.049  10.434  69.513  1.00  0.00    -0.247 N  
HETATM   26  C   UNL     1     -11.465   9.835  70.684  1.00  0.00    -0.324 C  
HETATM   27  H   UNL     1     -10.045  10.505  69.347  1.00  0.00     0.000 HD 
HETATM   28  O   UNL     1     -12.643   9.746  71.013  1.00  0.00    -0.317 OA 
BRANCH  26  29
HETATM   29  C   UNL     1     -10.292   9.275  71.520  1.00  0.00    -0.294 C  
HETATM   30  O   UNL     1      -9.063   9.417  70.791  1.00  0.00    -0.245 OA 
HETATM   31  H   UNL     1      -8.342   9.073  71.305  1.00  0.00     0.000 HD 
BRANCH  29  32
HETATM   32  C   UNL     1     -10.494   7.819  71.884  1.00  0.00    -0.268 A  
HETATM   33  C   UNL     1     -10.478   7.424  73.231  1.00  0.00    -0.424 A  
HETATM   34  C   UNL     1     -10.717   6.839  70.902  1.00  0.00    -0.269 A  
HETATM   35  C   UNL     1     -10.891   5.500  71.255  1.00  0.00    -0.250 A  
HETATM   36  C   UNL     1     -10.852   5.121  72.594  1.00  0.00    -0.303 A  
HETATM   37  C   UNL     1     -10.651   6.084  73.582  1.00  0.00    -0.281 A  
ENDBRANCH  29  32
ENDBRANCH  26  29
ENDBRANCH   8  25
TORSDOF 7
ENDMDL
MODEL       62
REMARK 921   NORMALIZED FREE ENERGY PREDICTED BY IDOCK:   -6.53 KCAL/MOL
REMARK 922        TOTAL FREE ENERGY PREDICTED BY IDOCK:  -10.17 KCAL/MOL
REMARK 923 INTER-LIGAND FREE ENERGY PREDICTED BY IDOCK:   -8.98 KCAL/MOL
REMARK 924 INTRA-LIGAND FREE ENERGY PREDICTED BY IDOCK:   -1.19 KCAL/MOL
REMARK 927      BINDING AFFINITY PREDICTED BY RF-SCORE:    0.00 PKD
ROOT
HETATM    1  C   UNL     1      -9.271  12.778  66.624  1.00  0.00    -0.212 C  
HETATM    2  S   UNL     1      -7.776  13.168  67.557  1.00  0.00    -0.154 SA 
HETATM    3  C   UNL     1      -7.622  11.518  68.280  1.00  0.00    -0.115 C  
HETATM    4  C   UNL     1      -8.914  10.911  68.816  1.00  0.00    -0.166 C  
HETATM    5  C   UNL     1     -11.239  13.241  67.145  1.00  0.00    -0.299 C  
HETATM    6  CA  UNL     1     -10.164  11.353  68.478  1.00  0.00    -0.208 C  
HETATM    7  C   UNL     1     -11.381  10.750  69.153  1.00  0.00    -0.282 C  
HETATM    8  CA  UNL     1     -10.184  14.003  66.267  1.00  0.00    -0.296 C  
HETATM    9  N   UNL     1     -10.303  12.359  67.551  1.00  0.00    -0.213 N  
HETATM   10  O   UNL     1     -12.518  11.468  69.143  1.00  0.00    -0.271 OA 
HETATM   11  OXT UNL     1     -11.370   9.658  69.707  1.00  0.00    -0.213 OA 
HETATM   12  O   UNL     1     -12.386  13.375  67.508  1.00  0.00    -0.246 OA 
ENDROOT
BRANCH   4  13
HETATM   13  C   UNL     1      -8.616   9.883  69.916  1.00  0.00    -0.194 C  
BRANCH  13  14
HETATM   14  S   UNL     1      -7.887   8.327  69.291  1.00  0.00    -0.110 SA 
BRANCH  14  15
HETATM   15  C   UNL     1      -9.307   7.599  68.614  1.00  0.00    -0.147 A  
HETATM   16  N   UNL     1      -9.823   7.896  67.441  1.00  0.00    -0.166 NA 
HETATM   17  N   UNL     1     -10.906   7.071  67.275  1.00  0.00    -0.332 NA 
HETATM   18  N   UNL     1     -10.068   6.610  69.178  1.00  0.00    -0.163 NA 
HETATM   19  N   UNL     1     -11.059   6.274  68.320  1.00  0.00    -0.325 NA 
BRANCH  18  20
HETATM   20  C   UNL     1      -9.905   5.824  70.367  1.00  0.00    -0.186 C  
HETATM   21  O   UNL     1     -10.830   5.410  72.788  1.00  0.00    -0.228 OA 
HETATM   22  O   UNL     1     -12.165   6.738  71.238  1.00  0.00    -0.356 OA 
HETATM   23  O   UNL     1     -10.100   7.749  72.176  1.00  0.00    -0.190 OA 
HETATM   24  S   UNL     1     -10.682   6.475  71.825  1.00  0.00    -0.235 S  
ENDBRANCH  18  20
ENDBRANCH  14  15
ENDBRANCH  13  14
ENDBRANCH   4  13
BRANCH   8  25
HETATM   25  N   UNL     1      -9.751  15.317  66.804  1.00  0.00    -0.228 N  
HETATM   26  C   UNL     1      -9.997  16.530  66.195  1.00  0.00    -0.343 C  
HETATM   27  H   UNL     1      -9.235  15.323  67.684  1.00  0.00     0.000 HD 
HETATM   28  O   UNL     1     -10.556  16.637  65.109  1.00  0.00    -0.645 OA 
BRANCH  26  29
HETATM   29  C   UNL     1      -9.509  17.732  67.036  1.00  0.00    -0.271 C  
HETATM   30  O   UNL     1     -10.539  18.730  67.100  1.00  0.00    -0.406 OA 
HETATM   31  H   UNL     1     -10.240  19.469  67.616  1.00  0.00     0.000 HD 
BRANCH  29  32
HETATM   32  C   UNL     1      -8.246  18.348  66.473  1.00  0.00    -0.289 A  
HETATM   33  C   UNL     1      -8.171  19.735  66.272  1.00  0.00    -0.372 A  
HETATM   34  C   UNL     1      -7.123  17.565  66.157  1.00  0.00    -0.341 A  
HETATM   35  C   UNL     1      -5.970  18.148  65.630  1.00  0.00    -0.253 A  
HETATM   36  C   UNL     1      -5.919  19.523  65.417  1.00  0.00    -0.234 A  
HETATM   37  C   UNL     1      -7.017  20.317  65.744  1.00  0.00    -0.289 A  
ENDBRANCH  29  32
ENDBRANCH  26  29
ENDBRANCH   8  25
TORSDOF 7
ENDMDL
MODEL       63
REMARK 921   NORMALIZED FREE ENERGY PREDICTED BY IDOCK:   -6.50 KCAL/MOL
REMARK 922        TOTAL FREE ENERGY PREDICTED BY IDOCK:  -10.12 KCAL/MOL
REMARK 923 INTER-LIGAND FREE ENERGY PREDICTED BY IDOCK:   -9.23 KCAL/MOL
REMARK 924 INTRA-LIGAND FREE ENERGY PREDICTED BY IDOCK:   -0.89 KCAL/MOL
REMARK 927      BINDING AFFINITY PREDICTED BY RF-SCORE:    0.00 PKD
ROOT
HETATM    1  C   UNL     1     -10.436  11.207  67.345  1.00  0.00    -0.220 C  
HETATM    2  S   UNL     1     -11.705  12.184  68.178  1.00  0.00    -0.308 SA 
HETATM    3  C   UNL     1     -11.048  13.775  67.625  1.00  0.00    -0.273 C  
HETATM    4  C   UNL     1      -9.535  13.937  67.734  1.00  0.00    -0.214 C  
HETATM    5  C   UNL     1      -8.728  10.365  68.199  1.00  0.00    -0.125 C  
HETATM    6  CA  UNL     1      -8.663  12.892  67.872  1.00  0.00    -0.186 C  
HETATM    7  C   UNL     1      -7.186  13.170  68.081  1.00  0.00    -0.117 C  
HETATM    8  CA  UNL     1     -10.167   9.787  67.955  1.00  0.00    -0.190 C  
HETATM    9  N   UNL     1      -9.137  11.602  67.848  1.00  0.00    -0.164 N  
HETATM   10  O   UNL     1      -6.443  12.198  68.637  1.00  0.00    -0.062 OA 
HETATM   11  OXT UNL     1      -6.653  14.230  67.778  1.00  0.00    -0.154 OA 
HETATM   12  O   UNL     1      -7.667  10.000  68.653  1.00  0.00    -0.082 OA 
ENDROOT
BRANCH   4  13
HETATM   13  C   UNL     1      -9.155  15.418  67.859  1.00  0.00    -0.178 C  
BRANCH  13  14
HETATM   14  S   UNL     1      -8.908  16.254  66.251  1.00  0.00    -0.330 SA 
BRANCH  14  15
HETATM   15  C   UNL     1      -9.572  17.809  66.634  1.00  0.00    -0.307 A  
HETATM   16  N   UNL     1     -10.732  18.012  67.220  1.00  0.00    -0.342 NA 
HETATM   17  N   UNL     1     -10.856  19.369  67.372  1.00  0.00    -0.490 NA 
HETATM   18  N   UNL     1      -8.987  19.026  66.410  1.00  0.00    -0.329 NA 
HETATM   19  N   UNL     1      -9.794  19.998  66.894  1.00  0.00    -0.409 NA 
BRANCH  18  20
HETATM   20  C   UNL     1      -7.688  19.400  65.929  1.00  0.00    -0.248 C  
HETATM   21  O   UNL     1      -5.244  20.020  66.660  1.00  0.00    -0.165 OA 
HETATM   22  O   UNL     1      -6.734  19.004  68.303  1.00  0.00    -0.229 OA 
HETATM   23  O   UNL     1      -7.154  21.358  67.632  1.00  0.00    -0.449 OA 
HETATM   24  S   UNL     1      -6.604  20.118  67.138  1.00  0.00    -0.221 S  
ENDBRANCH  18  20
ENDBRANCH  14  15
ENDBRANCH  13  14
ENDBRANCH   4  13
BRANCH   8  25
HETATM   25  N   UNL     1     -10.927   9.452  69.185  1.00  0.00    -0.403 N  
HETATM   26  C   UNL     1     -10.722   8.320  69.947  1.00  0.00    -0.234 C  
HETATM   27  H   UNL     1     -11.651  10.103  69.488  1.00  0.00     0.000 HD 
HETATM   28  O   UNL     1      -9.920   7.443  69.646  1.00  0.00    -0.177 OA 
BRANCH  26  29
HETATM   29  C   UNL     1     -11.596   8.290  71.221  1.00  0.00    -0.281 C  
HETATM   30  O   UNL     1     -11.711   9.613  71.764  1.00  0.00    -0.388 OA 
HETATM   31  H   UNL     1     -12.248   9.595  72.548  1.00  0.00     0.000 HD 
BRANCH  29  32
HETATM   32  C   UNL     1     -11.035   7.361  72.277  1.00  0.00    -0.296 A  
HETATM   33  C   UNL     1     -10.059   7.825  73.173  1.00  0.00    -0.390 A  
HETATM   34  C   UNL     1     -11.479   6.033  72.400  1.00  0.00    -0.357 A  
HETATM   35  C   UNL     1     -10.943   5.187  73.372  1.00  0.00    -0.381 A  
HETATM   36  C   UNL     1      -9.961   5.657  74.241  1.00  0.00    -0.245 A  
HETATM   37  C   UNL     1      -9.524   6.977  74.145  1.00  0.00    -0.285 A  
ENDBRANCH  29  32
ENDBRANCH  26  29
ENDBRANCH   8  25
TORSDOF 7
ENDMDL
MODEL       64
REMARK 921   NORMALIZED FREE ENERGY PREDICTED BY IDOCK:   -6.40 KCAL/MOL
REMARK 922        TOTAL FREE ENERGY PREDICTED BY IDOCK:   -9.99 KCAL/MOL
REMARK 923 INTER-LIGAND FREE ENERGY PREDICTED BY IDOCK:   -8.78 KCAL/MOL
REMARK 924 INTRA-LIGAND FREE ENERGY PREDICTED BY IDOCK:   -1.21 KCAL/MOL
REMARK 927      BINDING AFFINITY PREDICTED BY RF-SCORE:    0.00 PKD
ROOT
HETATM    1  C   UNL     1      -9.602   9.947  69.831  1.00  0.00    -0.227 C  
HETATM    2  S   UNL     1     -10.964   9.838  71.011  1.00  0.00    -0.284 SA 
HETATM    3  C   UNL     1     -10.872   8.040  71.173  1.00  0.00    -0.238 C  
HETATM    4  C   UNL     1     -10.717   7.268  69.866  1.00  0.00    -0.257 C  
HETATM    5  C   UNL     1      -9.742  10.137  67.757  1.00  0.00    -0.153 C  
HETATM    6  CA  UNL     1     -10.303   7.832  68.691  1.00  0.00    -0.199 C  
HETATM    7  C   UNL     1     -10.287   6.998  67.423  1.00  0.00    -0.244 C  
HETATM    8  CA  UNL     1      -9.615  11.207  68.898  1.00  0.00    -0.142 C  
HETATM    9  N   UNL     1      -9.932   9.156  68.663  1.00  0.00    -0.165 N  
HETATM   10  O   UNL     1     -10.306   7.651  66.249  1.00  0.00    -0.012 OA 
HETATM   11  OXT UNL     1     -10.266   5.774  67.425  1.00  0.00    -0.159 OA 
HETATM   12  O   UNL     1      -9.813  10.100  66.549  1.00  0.00    -0.193 OA 
ENDROOT
BRANCH   4  13
HETATM   13  C   UNL     1     -11.265   5.843  70.009  1.00  0.00    -0.270 C  
BRANCH  13  14
HETATM   14  S   UNL     1     -10.028   4.633  70.601  1.00  0.00    -0.199 SA 
BRANCH  14  15
HETATM   15  C   UNL     1     -10.078   4.982  72.298  1.00  0.00    -0.192 A  
HETATM   16  N   UNL     1     -11.163   4.965  73.042  1.00  0.00    -0.293 NA 
HETATM   17  N   UNL     1     -10.760   5.256  74.320  1.00  0.00    -0.294 NA 
HETATM   18  N   UNL     1      -9.014   5.294  73.101  1.00  0.00    -0.119 NA 
HETATM   19  N   UNL     1      -9.452   5.446  74.372  1.00  0.00    -0.134 NA 
BRANCH  18  20
HETATM   20  C   UNL     1      -7.600   5.326  72.862  1.00  0.00    -0.097 C  
HETATM   21  O   UNL     1      -5.561   6.902  72.360  1.00  0.00    -0.037 OA 
HETATM   22  O   UNL     1      -7.651   7.901  73.126  1.00  0.00    -0.110 OA 
HETATM   23  O   UNL     1      -7.556   7.004  70.813  1.00  0.00    -0.087 OA 
HETATM   24  S   UNL     1      -6.984   6.820  72.126  1.00  0.00    -0.067 S  
ENDBRANCH  18  20
ENDBRANCH  14  15
ENDBRANCH  13  14
ENDBRANCH   4  13
BRANCH   8  25
HETATM   25  N   UNL     1     -10.781  12.114  69.043  1.00  0.00    -0.375 N  
HETATM   26  C   UNL     1     -10.731  13.483  68.889  1.00  0.00    -0.201 C  
HETATM   27  H   UNL     1     -11.683  11.694  69.271  1.00  0.00     0.000 HD 
HETATM   28  O   UNL     1      -9.693  14.099  68.671  1.00  0.00    -0.223 OA 
BRANCH  26  29
HETATM   29  C   UNL     1     -12.121  14.150  69.004  1.00  0.00    -0.313 C  
HETATM   30  O   UNL     1     -12.159  15.338  68.199  1.00  0.00    -0.499 OA 
HETATM   31  H   UNL     1     -13.012  15.749  68.269  1.00  0.00     0.000 HD 
BRANCH  29  32
HETATM   32  C   UNL     1     -12.470  14.502  70.435  1.00  0.00    -0.407 A  
HETATM   33  C   UNL     1     -13.257  13.628  71.200  1.00  0.00    -0.254 A  
HETATM   34  C   UNL     1     -12.009  15.686  71.035  1.00  0.00    -0.445 A  
HETATM   35  C   UNL     1     -12.349  16.000  72.351  1.00  0.00    -0.581 A  
HETATM   36  C   UNL     1     -13.147  15.132  73.091  1.00  0.00    -0.625 A  
HETATM   37  C   UNL     1     -13.597  13.944  72.517  1.00  0.00    -0.680 A  
ENDBRANCH  29  32
ENDBRANCH  26  29
ENDBRANCH   8  25
TORSDOF 7
ENDMDL
MODEL       65
REMARK 921   NORMALIZED FREE ENERGY PREDICTED BY IDOCK:   -6.39 KCAL/MOL
REMARK 922        TOTAL FREE ENERGY PREDICTED BY IDOCK:   -9.97 KCAL/MOL
REMARK 923 INTER-LIGAND FREE ENERGY PREDICTED BY IDOCK:   -8.78 KCAL/MOL
REMARK 924 INTRA-LIGAND FREE ENERGY PREDICTED BY IDOCK:   -1.19 KCAL/MOL
REMARK 927      BINDING AFFINITY PREDICTED BY RF-SCORE:    0.00 PKD
ROOT
HETATM    1  C   UNL     1     -11.536  12.506  68.239  1.00  0.00    -0.328 C  
HETATM    2  S   UNL     1      -9.929  11.689  68.148  1.00  0.00    -0.200 SA 
HETATM    3  C   UNL     1     -10.545  10.092  68.733  1.00  0.00    -0.213 C  
HETATM    4  C   UNL     1     -11.487  10.149  69.930  1.00  0.00    -0.317 C  
HETATM    5  C   UNL     1     -12.230  13.761  69.757  1.00  0.00    -0.310 C  
HETATM    6  CA  UNL     1     -12.141  11.280  70.335  1.00  0.00    -0.384 C  
HETATM    7  C   UNL     1     -12.971  11.252  71.605  1.00  0.00    -0.432 C  
HETATM    8  CA  UNL     1     -11.494  14.065  68.404  1.00  0.00    -0.306 C  
HETATM    9  N   UNL     1     -12.019  12.437  69.603  1.00  0.00    -0.298 N  
HETATM   10  O   UNL     1     -13.230  12.427  72.205  1.00  0.00    -0.491 OA 
HETATM   11  OXT UNL     1     -13.401  10.220  72.105  1.00  0.00    -0.443 OA 
HETATM   12  O   UNL     1     -12.693  14.368  70.696  1.00  0.00    -0.338 OA 
ENDROOT
BRANCH   4  13
HETATM   13  C   UNL     1     -11.447   8.831  70.716  1.00  0.00    -0.270 C  
BRANCH  13  14
HETATM   14  S   UNL     1     -10.127   8.768  71.981  1.00  0.00    -0.279 SA 
BRANCH  14  15
HETATM   15  C   UNL     1      -9.029   7.683  71.193  1.00  0.00    -0.138 A  
HETATM   16  N   UNL     1      -9.376   6.743  70.341  1.00  0.00    -0.163 NA 
HETATM   17  N   UNL     1      -8.212   6.147  69.928  1.00  0.00    -0.118 NA 
HETATM   18  N   UNL     1      -7.665   7.665  71.319  1.00  0.00    -0.083 NA 
HETATM   19  N   UNL     1      -7.162   6.708  70.506  1.00  0.00    -0.072 NA 
BRANCH  18  20
HETATM   20  C   UNL     1      -6.746   8.532  71.998  1.00  0.00    -0.082 C  
HETATM   21  O   UNL     1      -5.522  10.852  71.876  1.00  0.00    -0.327 OA 
HETATM   22  O   UNL     1      -7.391  10.435  70.364  1.00  0.00    -0.245 OA 
HETATM   23  O   UNL     1      -5.248   9.256  69.936  1.00  0.00    -0.032 OA 
HETATM   24  S   UNL     1      -6.038   9.822  71.004  1.00  0.00    -0.038 S  
ENDBRANCH  18  20
ENDBRANCH  14  15
ENDBRANCH  13  14
ENDBRANCH   4  13
BRANCH   8  25
HETATM   25  N   UNL     1     -10.146  14.669  68.543  1.00  0.00    -0.232 N  
HETATM   26  C   UNL     1      -9.460  15.296  67.524  1.00  0.00    -0.202 C  
HETATM   27  H   UNL     1      -9.695  14.618  69.457  1.00  0.00     0.000 HD 
HETATM   28  O   UNL     1      -9.880  15.366  66.374  1.00  0.00    -0.251 OA 
BRANCH  26  29
HETATM   29  C   UNL     1      -8.122  15.912  67.991  1.00  0.00    -0.141 C  
HETATM   30  O   UNL     1      -8.012  15.811  69.419  1.00  0.00    -0.229 OA 
HETATM   31  H   UNL     1      -7.190  16.190  69.707  1.00  0.00     0.000 HD 
BRANCH  29  32
HETATM   32  C   UNL     1      -7.985  17.362  67.578  1.00  0.00    -0.205 A  
HETATM   33  C   UNL     1      -7.553  17.684  66.282  1.00  0.00    -0.334 A  
HETATM   34  C   UNL     1      -8.297  18.411  68.460  1.00  0.00    -0.344 A  
HETATM   35  C   UNL     1      -8.154  19.742  68.066  1.00  0.00    -0.338 A  
HETATM   36  C   UNL     1      -7.706  20.046  66.783  1.00  0.00    -0.335 A  
HETATM   37  C   UNL     1      -7.411  19.017  65.890  1.00  0.00    -0.268 A  
ENDBRANCH  29  32
ENDBRANCH  26  29
ENDBRANCH   8  25
TORSDOF 7
ENDMDL
MODEL       66
REMARK 921   NORMALIZED FREE ENERGY PREDICTED BY IDOCK:   -6.39 KCAL/MOL
REMARK 922        TOTAL FREE ENERGY PREDICTED BY IDOCK:   -9.97 KCAL/MOL
REMARK 923 INTER-LIGAND FREE ENERGY PREDICTED BY IDOCK:   -9.23 KCAL/MOL
REMARK 924 INTRA-LIGAND FREE ENERGY PREDICTED BY IDOCK:   -0.74 KCAL/MOL
REMARK 927      BINDING AFFINITY PREDICTED BY RF-SCORE:    0.00 PKD
ROOT
HETATM    1  C   UNL     1     -10.579  14.380  67.644  1.00  0.00    -0.260 C  
HETATM    2  S   UNL     1      -9.841  12.733  67.655  1.00  0.00    -0.220 SA 
HETATM    3  C   UNL     1      -8.384  13.233  68.601  1.00  0.00     0.004 C  
HETATM    4  C   UNL     1      -7.728  14.538  68.159  1.00  0.00    -0.128 C  
HETATM    5  C   UNL     1     -10.525  15.777  66.093  1.00  0.00    -0.317 C  
HETATM    6  CA  UNL     1      -8.345  15.477  67.380  1.00  0.00    -0.182 C  
HETATM    7  C   UNL     1      -7.565  16.690  66.907  1.00  0.00    -0.227 C  
HETATM    8  CA  UNL     1     -11.572  14.668  66.465  1.00  0.00    -0.344 C  
HETATM    9  N   UNL     1      -9.657  15.300  67.010  1.00  0.00    -0.219 N  
HETATM   10  O   UNL     1      -8.026  17.344  65.827  1.00  0.00    -0.538 OA 
HETATM   11  OXT UNL     1      -6.543  17.086  67.454  1.00  0.00    -0.132 OA 
HETATM   12  O   UNL     1     -10.375  16.643  65.261  1.00  0.00    -0.609 OA 
ENDROOT
BRANCH   4  13
HETATM   13  C   UNL     1      -6.243  14.556  68.543  1.00  0.00    -0.089 C  
BRANCH  13  14
HETATM   14  S   UNL     1      -5.475  12.897  68.596  1.00  0.00    -0.068 SA 
BRANCH  14  15
HETATM   15  C   UNL     1      -5.359  12.692  70.314  1.00  0.00    -0.125 A  
HETATM   16  N   UNL     1      -5.448  13.662  71.199  1.00  0.00    -0.186 NA 
HETATM   17  N   UNL     1      -5.345  13.070  72.432  1.00  0.00    -0.383 NA 
HETATM   18  N   UNL     1      -5.189  11.512  70.988  1.00  0.00    -0.164 NA 
HETATM   19  N   UNL     1      -5.199  11.760  72.317  1.00  0.00    -0.309 NA 
BRANCH  18  20
HETATM   20  C   UNL     1      -5.162  10.146  70.552  1.00  0.00    -0.050 C  
HETATM   21  O   UNL     1      -6.651   8.041  70.055  1.00  0.00    -0.039 OA 
HETATM   22  O   UNL     1      -7.741  10.207  70.326  1.00  0.00    -0.184 OA 
HETATM   23  O   UNL     1      -6.810   9.099  72.344  1.00  0.00    -0.313 OA 
HETATM   24  S   UNL     1      -6.621   9.201  70.916  1.00  0.00    -0.090 S  
ENDBRANCH  18  20
ENDBRANCH  14  15
ENDBRANCH  13  14
ENDBRANCH   4  13
BRANCH   8  25
HETATM   25  N   UNL     1     -11.725  13.585  65.462  1.00  0.00    -0.329 N  
HETATM   26  C   UNL     1     -12.230  13.762  64.191  1.00  0.00    -0.396 C  
HETATM   27  H   UNL     1     -11.436  12.645  65.731  1.00  0.00     0.000 HD 
HETATM   28  O   UNL     1     -12.660  14.835  63.780  1.00  0.00    -0.806 OA 
BRANCH  26  29
HETATM   29  C   UNL     1     -12.179  12.472  63.341  1.00  0.00    -0.517 C  
HETATM   30  O   UNL     1     -13.393  11.727  63.512  1.00  0.00    -0.518 OA 
HETATM   31  H   UNL     1     -13.362  10.934  62.990  1.00  0.00     0.000 HD 
BRANCH  29  32
HETATM   32  C   UNL     1     -10.997  11.597  63.701  1.00  0.00    -0.507 A  
HETATM   33  C   UNL     1      -9.856  11.587  62.885  1.00  0.00    -0.279 A  
HETATM   34  C   UNL     1     -11.001  10.794  64.855  1.00  0.00     0.086 A  
HETATM   35  C   UNL     1      -9.907   9.985  65.166  1.00  0.00    -0.388 A  
HETATM   36  C   UNL     1      -8.791   9.972  64.335  1.00  0.00    -0.239 A  
HETATM   37  C   UNL     1      -8.763  10.777  63.198  1.00  0.00    -0.169 A  
ENDBRANCH  29  32
ENDBRANCH  26  29
ENDBRANCH   8  25
TORSDOF 7
ENDMDL
MODEL       67
REMARK 921   NORMALIZED FREE ENERGY PREDICTED BY IDOCK:   -6.39 KCAL/MOL
REMARK 922        TOTAL FREE ENERGY PREDICTED BY IDOCK:   -9.97 KCAL/MOL
REMARK 923 INTER-LIGAND FREE ENERGY PREDICTED BY IDOCK:   -8.81 KCAL/MOL
REMARK 924 INTRA-LIGAND FREE ENERGY PREDICTED BY IDOCK:   -1.15 KCAL/MOL
REMARK 927      BINDING AFFINITY PREDICTED BY RF-SCORE:    0.00 PKD
ROOT
HETATM    1  C   UNL     1     -11.388  10.350  67.545  1.00  0.00    -0.031 C  
HETATM    2  S   UNL     1     -10.952  11.159  69.099  1.00  0.00    -0.255 SA 
HETATM    3  C   UNL     1     -11.757  12.723  68.678  1.00  0.00    -0.324 C  
HETATM    4  C   UNL     1     -11.502  13.235  67.265  1.00  0.00    -0.378 C  
HETATM    5  C   UNL     1     -10.166  10.089  65.872  1.00  0.00    -0.205 C  
HETATM    6  CA  UNL     1     -11.032  12.458  66.243  1.00  0.00    -0.286 C  
HETATM    7  C   UNL     1     -10.710  13.093  64.903  1.00  0.00    -0.346 C  
HETATM    8  CA  UNL     1     -10.451   9.169  67.112  1.00  0.00    -0.255 C  
HETATM    9  N   UNL     1     -10.829  11.113  66.448  1.00  0.00    -0.256 N  
HETATM   10  O   UNL     1      -9.867  12.434  64.089  1.00  0.00    -0.230 OA 
HETATM   11  OXT UNL     1     -11.171  14.168  64.542  1.00  0.00    -0.373 OA 
HETATM   12  O   UNL     1      -9.517  10.062  64.851  1.00  0.00    -0.251 OA 
ENDROOT
BRANCH   4  13
HETATM   13  C   UNL     1     -11.661  14.760  67.204  1.00  0.00    -0.359 C  
BRANCH  13  14
HETATM   14  S   UNL     1     -11.674  15.566  68.846  1.00  0.00    -0.351 SA 
BRANCH  14  15
HETATM   15  C   UNL     1     -10.035  16.130  68.898  1.00  0.00    -0.233 A  
HETATM   16  N   UNL     1      -8.999  15.411  69.273  1.00  0.00    -0.250 NA 
HETATM   17  N   UNL     1      -7.898  16.215  69.130  1.00  0.00    -0.231 NA 
HETATM   18  N   UNL     1      -9.586  17.373  68.540  1.00  0.00    -0.288 NA 
HETATM   19  N   UNL     1      -8.240  17.409  68.673  1.00  0.00    -0.273 NA 
BRANCH  18  20
HETATM   20  C   UNL     1     -10.239  18.502  67.944  1.00  0.00    -0.384 C  
HETATM   21  O   UNL     1     -10.904  19.616  65.661  1.00  0.00    -0.473 OA 
HETATM   22  O   UNL     1     -10.162  17.292  65.656  1.00  0.00    -0.579 OA 
HETATM   23  O   UNL     1      -8.469  19.065  66.055  1.00  0.00    -0.455 OA 
HETATM   24  S   UNL     1      -9.874  18.777  66.228  1.00  0.00    -0.321 S  
ENDBRANCH  18  20
ENDBRANCH  14  15
ENDBRANCH  13  14
ENDBRANCH   4  13
BRANCH   8  25
HETATM   25  N   UNL     1      -9.280   8.911  67.986  1.00  0.00    -0.139 N  
HETATM   26  C   UNL     1      -9.020   7.709  68.611  1.00  0.00    -0.133 C  
HETATM   27  H   UNL     1      -8.622   9.676  68.136  1.00  0.00     0.000 HD 
HETATM   28  O   UNL     1      -9.771   6.742  68.548  1.00  0.00    -0.133 OA 
BRANCH  26  29
HETATM   29  C   UNL     1      -7.678   7.711  69.378  1.00  0.00    -0.107 C  
HETATM   30  O   UNL     1      -6.921   6.540  69.038  1.00  0.00    -0.069 OA 
HETATM   31  H   UNL     1      -6.096   6.540  69.509  1.00  0.00     0.000 HD 
BRANCH  29  32
HETATM   32  C   UNL     1      -7.877   7.762  70.878  1.00  0.00    -0.089 A  
HETATM   33  C   UNL     1      -8.858   8.602  71.427  1.00  0.00    -0.276 A  
HETATM   34  C   UNL     1      -7.110   6.970  71.750  1.00  0.00    -0.070 A  
HETATM   35  C   UNL     1      -7.299   7.038  73.131  1.00  0.00    -0.074 A  
HETATM   36  C   UNL     1      -8.263   7.891  73.661  1.00  0.00    -0.264 A  
HETATM   37  C   UNL     1      -9.046   8.669  72.809  1.00  0.00    -0.077 A  
ENDBRANCH  29  32
ENDBRANCH  26  29
ENDBRANCH   8  25
TORSDOF 7
ENDMDL
MODEL       68
REMARK 921   NORMALIZED FREE ENERGY PREDICTED BY IDOCK:   -6.38 KCAL/MOL
REMARK 922        TOTAL FREE ENERGY PREDICTED BY IDOCK:   -9.96 KCAL/MOL
REMARK 923 INTER-LIGAND FREE ENERGY PREDICTED BY IDOCK:   -8.63 KCAL/MOL
REMARK 924 INTRA-LIGAND FREE ENERGY PREDICTED BY IDOCK:   -1.33 KCAL/MOL
REMARK 927      BINDING AFFINITY PREDICTED BY RF-SCORE:    0.00 PKD
ROOT
HETATM    1  C   UNL     1     -11.511  10.801  68.172  1.00  0.00    -0.271 C  
HETATM    2  S   UNL     1     -10.995  12.284  69.062  1.00  0.00    -0.161 SA 
HETATM    3  C   UNL     1     -11.927  13.418  68.006  1.00  0.00    -0.322 C  
HETATM    4  C   UNL     1     -11.825  13.156  66.507  1.00  0.00    -0.456 C  
HETATM    5  C   UNL     1     -10.422   9.749  66.735  1.00  0.00    -0.189 C  
HETATM    6  CA  UNL     1     -11.396  11.976  65.965  1.00  0.00    -0.343 C  
HETATM    7  C   UNL     1     -11.228  11.857  64.462  1.00  0.00    -0.319 C  
HETATM    8  CA  UNL     1     -10.545   9.571  68.290  1.00  0.00    -0.216 C  
HETATM    9  N   UNL     1     -11.095  10.917  66.790  1.00  0.00    -0.195 N  
HETATM   10  O   UNL     1     -10.419  10.887  64.001  1.00  0.00    -0.364 OA 
HETATM   11  OXT UNL     1     -11.783  12.601  63.663  1.00  0.00    -0.441 OA 
HETATM   12  O   UNL     1      -9.862   9.220  65.801  1.00  0.00    -0.296 OA 
ENDROOT
BRANCH   4  13
HETATM   13  C   UNL     1     -12.080  14.443  65.712  1.00  0.00    -0.355 C  
BRANCH  13  14
HETATM   14  S   UNL     1     -10.553  15.274  65.143  1.00  0.00    -0.424 SA 
BRANCH  14  15
HETATM   15  C   UNL     1      -9.687  15.334  66.644  1.00  0.00    -0.252 A  
HETATM   16  N   UNL     1      -8.753  14.484  67.013  1.00  0.00    -0.231 NA 
HETATM   17  N   UNL     1      -8.303  14.911  68.236  1.00  0.00    -0.142 NA 
HETATM   18  N   UNL     1      -9.826  16.272  67.632  1.00  0.00    -0.235 NA 
HETATM   19  N   UNL     1      -8.940  16.006  68.618  1.00  0.00    -0.199 NA 
BRANCH  18  20
HETATM   20  C   UNL     1     -10.587  17.485  67.712  1.00  0.00    -0.375 C  
HETATM   21  O   UNL     1     -10.673  19.998  66.956  1.00  0.00    -0.399 OA 
HETATM   22  O   UNL     1      -9.104  18.496  65.846  1.00  0.00    -0.477 OA 
HETATM   23  O   UNL     1      -8.615  19.191  68.179  1.00  0.00    -0.301 OA 
HETATM   24  S   UNL     1      -9.712  18.966  67.268  1.00  0.00    -0.323 S  
ENDBRANCH  18  20
ENDBRANCH  14  15
ENDBRANCH  13  14
ENDBRANCH   4  13
BRANCH   8  25
HETATM   25  N   UNL     1      -9.290   9.799  69.049  1.00  0.00    -0.153 N  
HETATM   26  C   UNL     1      -8.219   8.930  69.068  1.00  0.00    -0.116 C  
HETATM   27  H   UNL     1      -9.215  10.657  69.596  1.00  0.00     0.000 HD 
HETATM   28  O   UNL     1      -8.221   7.845  68.495  1.00  0.00    -0.124 OA 
BRANCH  26  29
HETATM   29  C   UNL     1      -7.016   9.479  69.869  1.00  0.00    -0.078 C  
HETATM   30  O   UNL     1      -7.414   9.749  71.221  1.00  0.00    -0.260 OA 
HETATM   31  H   UNL     1      -6.675  10.086  71.713  1.00  0.00     0.000 HD 
BRANCH  29  32
HETATM   32  C   UNL     1      -6.446  10.739  69.252  1.00  0.00    -0.067 A  
HETATM   33  C   UNL     1      -6.314  10.841  67.859  1.00  0.00    -0.061 A  
HETATM   34  C   UNL     1      -6.055  11.833  70.043  1.00  0.00    -0.158 A  
HETATM   35  C   UNL     1      -5.522  12.983  69.458  1.00  0.00    -0.083 A  
HETATM   36  C   UNL     1      -5.378  13.060  68.076  1.00  0.00    -0.103 A  
HETATM   37  C   UNL     1      -5.780  11.991  67.276  1.00  0.00    -0.139 A  
ENDBRANCH  29  32
ENDBRANCH  26  29
ENDBRANCH   8  25
TORSDOF 7
ENDMDL
MODEL       69
REMARK 921   NORMALIZED FREE ENERGY PREDICTED BY IDOCK:   -6.38 KCAL/MOL
REMARK 922        TOTAL FREE ENERGY PREDICTED BY IDOCK:   -9.96 KCAL/MOL
REMARK 923 INTER-LIGAND FREE ENERGY PREDICTED BY IDOCK:   -8.62 KCAL/MOL
REMARK 924 INTRA-LIGAND FREE ENERGY PREDICTED BY IDOCK:   -1.34 KCAL/MOL
REMARK 927      BINDING AFFINITY PREDICTED BY RF-SCORE:    0.00 PKD
ROOT
HETATM    1  C   UNL     1      -8.238  13.106  67.100  1.00  0.00    -0.120 C  
HETATM    2  S   UNL     1      -7.833  12.182  68.597  1.00  0.00    -0.027 SA 
HETATM    3  C   UNL     1      -7.105  10.784  67.711  1.00  0.00    -0.086 C  
HETATM    4  C   UNL     1      -7.892  10.288  66.502  1.00  0.00    -0.116 C  
HETATM    5  C   UNL     1     -10.096  13.230  66.158  1.00  0.00    -0.293 C  
HETATM    6  CA  UNL     1      -8.862  11.018  65.871  1.00  0.00    -0.195 C  
HETATM    7  C   UNL     1      -9.661  10.388  64.745  1.00  0.00    -0.293 C  
HETATM    8  CA  UNL     1      -9.411  14.138  67.240  1.00  0.00    -0.229 C  
HETATM    9  N   UNL     1      -9.122  12.304  66.281  1.00  0.00    -0.174 N  
HETATM   10  O   UNL     1     -10.853  10.933  64.448  1.00  0.00    -0.299 OA 
HETATM   11  OXT UNL     1      -9.275   9.415  64.111  1.00  0.00    -0.176 OA 
HETATM   12  O   UNL     1     -11.128  13.189  65.527  1.00  0.00    -0.277 OA 
ENDROOT
BRANCH   4  13
HETATM   13  C   UNL     1      -7.584   8.812  66.222  1.00  0.00    -0.091 C  
BRANCH  13  14
HETATM   14  S   UNL     1      -7.475   7.782  67.730  1.00  0.00    -0.106 SA 
BRANCH  14  15
HETATM   15  C   UNL     1      -9.088   7.148  67.759  1.00  0.00    -0.127 A  
HETATM   16  N   UNL     1      -9.923   7.159  66.743  1.00  0.00    -0.214 NA 
HETATM   17  N   UNL     1     -11.063   6.530  67.173  1.00  0.00    -0.401 NA 
HETATM   18  N   UNL     1      -9.705   6.530  68.814  1.00  0.00    -0.129 NA 
HETATM   19  N   UNL     1     -10.939   6.131  68.429  1.00  0.00    -0.315 NA 
BRANCH  18  20
HETATM   20  C   UNL     1      -9.235   6.129  70.109  1.00  0.00    -0.155 C  
HETATM   21  O   UNL     1      -9.398   6.628  72.681  1.00  0.00    -0.141 OA 
HETATM   22  O   UNL     1     -11.057   7.617  71.190  1.00  0.00    -0.244 OA 
HETATM   23  O   UNL     1      -8.744   8.520  71.139  1.00  0.00    -0.142 OA 
HETATM   24  S   UNL     1      -9.485   7.311  71.411  1.00  0.00    -0.159 S  
ENDBRANCH  18  20
ENDBRANCH  14  15
ENDBRANCH  13  14
ENDBRANCH   4  13
BRANCH   8  25
HETATM   25  N   UNL     1     -10.095  14.173  68.556  1.00  0.00    -0.240 N  
HETATM   26  C   UNL     1     -11.335  14.736  68.779  1.00  0.00    -0.282 C  
HETATM   27  H   UNL     1      -9.616  13.751  69.352  1.00  0.00     0.000 HD 
HETATM   28  O   UNL     1     -11.975  15.319  67.911  1.00  0.00    -0.234 OA 
BRANCH  26  29
HETATM   29  C   UNL     1     -11.832  14.535  70.229  1.00  0.00    -0.308 C  
HETATM   30  O   UNL     1     -10.807  14.927  71.154  1.00  0.00    -0.550 OA 
HETATM   31  H   UNL     1     -11.112  14.804  72.045  1.00  0.00     0.000 HD 
BRANCH  29  32
HETATM   32  C   UNL     1     -12.234  13.101  70.502  1.00  0.00    -0.405 A  
HETATM   33  C   UNL     1     -11.869  12.087  69.604  1.00  0.00    -0.401 A  
HETATM   34  C   UNL     1     -12.958  12.748  71.653  1.00  0.00    -0.402 A  
HETATM   35  C   UNL     1     -13.330  11.422  71.884  1.00  0.00    -0.409 A  
HETATM   36  C   UNL     1     -12.978  10.430  70.974  1.00  0.00    -0.490 A  
HETATM   37  C   UNL     1     -12.242  10.762  69.837  1.00  0.00    -0.384 A  
ENDBRANCH  29  32
ENDBRANCH  26  29
ENDBRANCH   8  25
TORSDOF 7
ENDMDL
MODEL       70
REMARK 921   NORMALIZED FREE ENERGY PREDICTED BY IDOCK:   -6.38 KCAL/MOL
REMARK 922        TOTAL FREE ENERGY PREDICTED BY IDOCK:   -9.96 KCAL/MOL
REMARK 923 INTER-LIGAND FREE ENERGY PREDICTED BY IDOCK:   -8.61 KCAL/MOL
REMARK 924 INTRA-LIGAND FREE ENERGY PREDICTED BY IDOCK:   -1.35 KCAL/MOL
REMARK 927      BINDING AFFINITY PREDICTED BY RF-SCORE:    0.00 PKD
ROOT
HETATM    1  C   UNL     1      -9.729  11.903  67.583  1.00  0.00    -0.185 C  
HETATM    2  S   UNL     1      -9.066  10.351  68.227  1.00  0.00    -0.150 SA 
HETATM    3  C   UNL     1      -7.949  10.081  66.830  1.00  0.00    -0.113 C  
HETATM    4  C   UNL     1      -8.550  10.329  65.450  1.00  0.00    -0.169 C  
HETATM    5  C   UNL     1     -11.537  12.181  66.577  1.00  0.00    -0.359 C  
HETATM    6  CA  UNL     1      -9.693  11.046  65.232  1.00  0.00    -0.239 C  
HETATM    7  C   UNL     1     -10.263  11.141  63.829  1.00  0.00    -0.377 C  
HETATM    8  CA  UNL     1     -11.159  12.292  68.097  1.00  0.00    -0.240 C  
HETATM    9  N   UNL     1     -10.330  11.652  66.289  1.00  0.00    -0.227 N  
HETATM   10  O   UNL     1     -11.564  11.456  63.706  1.00  0.00    -0.319 OA 
HETATM   11  OXT UNL     1      -9.601  10.936  62.820  1.00  0.00    -0.307 OA 
HETATM   12  O   UNL     1     -12.508  12.327  65.870  1.00  0.00    -0.535 OA 
ENDROOT
BRANCH   4  13
HETATM   13  C   UNL     1      -7.811   9.511  64.382  1.00  0.00    -0.128 C  
BRANCH  13  14
HETATM   14  S   UNL     1      -6.892   8.080  65.055  1.00  0.00    -0.055 SA 
BRANCH  14  15
HETATM   15  C   UNL     1      -7.666   6.804  64.172  1.00  0.00    -0.113 A  
HETATM   16  N   UNL     1      -7.848   6.789  62.870  1.00  0.00    -0.109 NA 
HETATM   17  N   UNL     1      -8.456   5.594  62.579  1.00  0.00    -0.099 NA 
HETATM   18  N   UNL     1      -8.167   5.639  64.689  1.00  0.00    -0.128 NA 
HETATM   19  N   UNL     1      -8.644   4.879  63.677  1.00  0.00    -0.132 NA 
BRANCH  18  20
HETATM   20  C   UNL     1      -8.127   5.070  66.005  1.00  0.00    -0.108 C  
HETATM   21  O   UNL     1      -9.544   4.601  68.165  1.00  0.00    -0.139 OA 
HETATM   22  O   UNL     1     -10.707   5.253  66.122  1.00  0.00    -0.266 OA 
HETATM   23  O   UNL     1      -9.395   6.981  67.331  1.00  0.00    -0.123 OA 
HETATM   24  S   UNL     1      -9.447   5.558  67.088  1.00  0.00    -0.128 S  
ENDBRANCH  18  20
ENDBRANCH  14  15
ENDBRANCH  13  14
ENDBRANCH   4  13
BRANCH   8  25
HETATM   25  N   UNL     1     -11.823  11.305  68.984  1.00  0.00    -0.335 N  
HETATM   26  C   UNL     1     -12.249  11.570  70.269  1.00  0.00    -0.332 C  
HETATM   27  H   UNL     1     -11.976  10.365  68.618  1.00  0.00     0.000 HD 
HETATM   28  O   UNL     1     -12.067  12.646  70.830  1.00  0.00    -0.329 OA 
BRANCH  26  29
HETATM   29  C   UNL     1     -12.993  10.378  70.912  1.00  0.00    -0.387 C  
HETATM   30  O   UNL     1     -13.654  10.806  72.112  1.00  0.00    -0.472 OA 
HETATM   31  H   UNL     1     -14.111  10.073  72.508  1.00  0.00     0.000 HD 
BRANCH  29  32
HETATM   32  C   UNL     1     -12.060   9.229  71.235  1.00  0.00    -0.412 A  
HETATM   33  C   UNL     1     -12.567   7.927  71.356  1.00  0.00    -0.319 A  
HETATM   34  C   UNL     1     -10.679   9.429  71.404  1.00  0.00    -0.407 A  
HETATM   35  C   UNL     1      -9.835   8.361  71.712  1.00  0.00    -0.313 A  
HETATM   36  C   UNL     1     -10.356   7.077  71.848  1.00  0.00    -0.213 A  
HETATM   37  C   UNL     1     -11.721   6.859  71.664  1.00  0.00    -0.343 A  
ENDBRANCH  29  32
ENDBRANCH  26  29
ENDBRANCH   8  25
TORSDOF 7
ENDMDL
MODEL       71
REMARK 921   NORMALIZED FREE ENERGY PREDICTED BY IDOCK:   -6.38 KCAL/MOL
REMARK 922        TOTAL FREE ENERGY PREDICTED BY IDOCK:   -9.96 KCAL/MOL
REMARK 923 INTER-LIGAND FREE ENERGY PREDICTED BY IDOCK:   -8.98 KCAL/MOL
REMARK 924 INTRA-LIGAND FREE ENERGY PREDICTED BY IDOCK:   -0.97 KCAL/MOL
REMARK 927      BINDING AFFINITY PREDICTED BY RF-SCORE:    0.00 PKD
ROOT
HETATM    1  C   UNL     1      -8.020  10.717  69.670  1.00  0.00    -0.003 C  
HETATM    2  S   UNL     1      -6.971  10.675  68.200  1.00  0.00    -0.074 SA 
HETATM    3  C   UNL     1      -7.595  12.236  67.534  1.00  0.00    -0.155 C  
HETATM    4  C   UNL     1      -9.109  12.416  67.585  1.00  0.00    -0.186 C  
HETATM    5  C   UNL     1      -9.811   9.688  69.971  1.00  0.00    -0.246 C  
HETATM    6  CA  UNL     1      -9.939  11.678  68.383  1.00  0.00    -0.201 C  
HETATM    7  C   UNL     1     -11.441  11.863  68.277  1.00  0.00    -0.311 C  
HETATM    8  CA  UNL     1      -8.325   9.324  70.322  1.00  0.00    -0.186 C  
HETATM    9  N   UNL     1      -9.406  10.756  69.253  1.00  0.00    -0.126 N  
HETATM   10  O   UNL     1     -12.224  10.864  68.721  1.00  0.00    -0.518 OA 
HETATM   11  OXT UNL     1     -11.963  12.865  67.804  1.00  0.00    -0.347 OA 
HETATM   12  O   UNL     1     -10.917   9.213  70.097  1.00  0.00    -0.236 OA 
ENDROOT
BRANCH   4  13
HETATM   13  C   UNL     1      -9.578  13.388  66.495  1.00  0.00    -0.272 C  
BRANCH  13  14
HETATM   14  S   UNL     1      -8.720  15.004  66.530  1.00  0.00    -0.125 SA 
BRANCH  14  15
HETATM   15  C   UNL     1      -9.840  15.941  65.596  1.00  0.00    -0.302 A  
HETATM   16  N   UNL     1     -10.801  15.444  64.847  1.00  0.00    -0.438 NA 
HETATM   17  N   UNL     1     -11.473  16.517  64.319  1.00  0.00    -1.008 NA 
HETATM   18  N   UNL     1      -9.905  17.307  65.525  1.00  0.00    -0.472 NA 
HETATM   19  N   UNL     1     -10.944  17.657  64.734  1.00  0.00    -0.666 NA 
BRANCH  18  20
HETATM   20  C   UNL     1      -9.203  18.345  66.224  1.00  0.00    -0.207 C  
HETATM   21  O   UNL     1      -9.030  19.634  68.504  1.00  0.00    -0.348 OA 
HETATM   22  O   UNL     1     -10.313  17.560  68.428  1.00  0.00    -0.339 OA 
HETATM   23  O   UNL     1     -11.269  19.575  67.336  1.00  0.00    -0.340 OA 
HETATM   24  S   UNL     1     -10.008  18.962  67.681  1.00  0.00    -0.370 S  
ENDBRANCH  18  20
ENDBRANCH  14  15
ENDBRANCH  13  14
ENDBRANCH   4  13
BRANCH   8  25
HETATM   25  N   UNL     1      -7.783   8.138  69.611  1.00  0.00    -0.099 N  
HETATM   26  C   UNL     1      -8.068   6.830  69.943  1.00  0.00    -0.126 C  
HETATM   27  H   UNL     1      -7.157   8.303  68.823  1.00  0.00     0.000 HD 
HETATM   28  O   UNL     1      -8.761   6.515  70.904  1.00  0.00    -0.134 OA 
BRANCH  26  29
HETATM   29  C   UNL     1      -7.437   5.813  68.964  1.00  0.00    -0.084 C  
HETATM   30  O   UNL     1      -6.328   6.418  68.282  1.00  0.00    -0.036 OA 
HETATM   31  H   UNL     1      -5.940   5.794  67.681  1.00  0.00     0.000 HD 
BRANCH  29  32
HETATM   32  C   UNL     1      -8.435   5.303  67.947  1.00  0.00    -0.101 A  
HETATM   33  C   UNL     1      -9.655   5.972  67.765  1.00  0.00    -0.113 A  
HETATM   34  C   UNL     1      -8.167   4.173  67.156  1.00  0.00    -0.100 A  
HETATM   35  C   UNL     1      -9.103   3.709  66.231  1.00  0.00    -0.157 A  
HETATM   36  C   UNL     1     -10.317   4.373  66.076  1.00  0.00    -0.210 A  
HETATM   37  C   UNL     1     -10.591   5.507  66.839  1.00  0.00    -0.348 A  
ENDBRANCH  29  32
ENDBRANCH  26  29
ENDBRANCH   8  25
TORSDOF 7
ENDMDL
MODEL       72
REMARK 921   NORMALIZED FREE ENERGY PREDICTED BY IDOCK:   -6.36 KCAL/MOL
REMARK 922        TOTAL FREE ENERGY PREDICTED BY IDOCK:   -9.93 KCAL/MOL
REMARK 923 INTER-LIGAND FREE ENERGY PREDICTED BY IDOCK:   -8.99 KCAL/MOL
REMARK 924 INTRA-LIGAND FREE ENERGY PREDICTED BY IDOCK:   -0.94 KCAL/MOL
REMARK 927      BINDING AFFINITY PREDICTED BY RF-SCORE:    0.00 PKD
ROOT
HETATM    1  C   UNL     1      -9.514  10.819  68.499  1.00  0.00    -0.181 C  
HETATM    2  S   UNL     1      -9.832  10.829  66.722  1.00  0.00    -0.199 SA 
HETATM    3  C   UNL     1     -10.009  12.626  66.617  1.00  0.00    -0.242 C  
HETATM    4  C   UNL     1     -10.855  13.268  67.712  1.00  0.00    -0.268 C  
HETATM    5  C   UNL     1     -10.875  10.389  70.022  1.00  0.00    -0.289 C  
HETATM    6  CA  UNL     1     -11.164  12.658  68.896  1.00  0.00    -0.280 C  
HETATM    7  C   UNL     1     -12.103  13.343  69.871  1.00  0.00    -0.322 C  
HETATM    8  CA  UNL     1      -9.861   9.481  69.241  1.00  0.00    -0.181 C  
HETATM    9  N   UNL     1     -10.644  11.417  69.179  1.00  0.00    -0.194 N  
HETATM   10  O   UNL     1     -12.723  12.575  70.783  1.00  0.00    -0.239 OA 
HETATM   11  OXT UNL     1     -12.323  14.548  69.857  1.00  0.00    -0.320 OA 
HETATM   12  O   UNL     1     -11.688  10.285  70.913  1.00  0.00    -0.333 OA 
ENDROOT
BRANCH   4  13
HETATM   13  C   UNL     1     -11.458  14.593  67.226  1.00  0.00    -0.372 C  
BRANCH  13  14
HETATM   14  S   UNL     1     -11.089  14.971  65.474  1.00  0.00    -0.355 SA 
BRANCH  14  15
HETATM   15  C   UNL     1     -10.251  16.475  65.678  1.00  0.00    -0.292 A  
HETATM   16  N   UNL     1     -10.720  17.655  65.333  1.00  0.00    -0.579 NA 
HETATM   17  N   UNL     1      -9.768  18.571  65.700  1.00  0.00    -0.290 NA 
HETATM   18  N   UNL     1      -9.016  16.653  66.241  1.00  0.00    -0.315 NA 
HETATM   19  N   UNL     1      -8.731  17.975  66.266  1.00  0.00    -0.448 NA 
BRANCH  18  20
HETATM   20  C   UNL     1      -8.115  15.753  66.901  1.00  0.00    -0.257 C  
HETATM   21  O   UNL     1      -7.323  14.871  69.244  1.00  0.00    -0.152 OA 
HETATM   22  O   UNL     1      -9.391  16.159  69.117  1.00  0.00    -0.230 OA 
HETATM   23  O   UNL     1      -7.238  17.360  68.816  1.00  0.00    -0.230 OA 
HETATM   24  S   UNL     1      -7.853  16.066  68.629  1.00  0.00    -0.192 S  
ENDBRANCH  18  20
ENDBRANCH  14  15
ENDBRANCH  13  14
ENDBRANCH   4  13
BRANCH   8  25
HETATM   25  N   UNL     1     -10.479   8.418  68.410  1.00  0.00    -0.318 N  
HETATM   26  C   UNL     1      -9.773   7.453  67.722  1.00  0.00    -0.143 C  
HETATM   27  H   UNL     1     -11.497   8.399  68.344  1.00  0.00     0.000 HD 
HETATM   28  O   UNL     1      -8.548   7.414  67.684  1.00  0.00    -0.119 OA 
BRANCH  26  29
HETATM   29  C   UNL     1     -10.690   6.423  67.025  1.00  0.00    -0.363 C  
HETATM   30  O   UNL     1     -11.885   6.233  67.797  1.00  0.00    -0.190 OA 
HETATM   31  H   UNL     1     -12.449   5.600  67.369  1.00  0.00     0.000 HD 
BRANCH  29  32
HETATM   32  C   UNL     1     -10.003   5.088  66.826  1.00  0.00    -0.242 A  
HETATM   33  C   UNL     1      -9.691   4.287  67.935  1.00  0.00    -0.172 A  
HETATM   34  C   UNL     1      -9.678   4.612  65.544  1.00  0.00    -0.192 A  
HETATM   35  C   UNL     1      -9.035   3.385  65.379  1.00  0.00    -0.142 A  
HETATM   36  C   UNL     1      -8.714   2.611  66.491  1.00  0.00    -0.127 A  
HETATM   37  C   UNL     1      -9.047   3.060  67.768  1.00  0.00    -0.223 A  
ENDBRANCH  29  32
ENDBRANCH  26  29
ENDBRANCH   8  25
TORSDOF 7
ENDMDL
MODEL       73
REMARK 921   NORMALIZED FREE ENERGY PREDICTED BY IDOCK:   -6.35 KCAL/MOL
REMARK 922        TOTAL FREE ENERGY PREDICTED BY IDOCK:   -9.92 KCAL/MOL
REMARK 923 INTER-LIGAND FREE ENERGY PREDICTED BY IDOCK:   -8.65 KCAL/MOL
REMARK 924 INTRA-LIGAND FREE ENERGY PREDICTED BY IDOCK:   -1.26 KCAL/MOL
REMARK 927      BINDING AFFINITY PREDICTED BY RF-SCORE:    0.00 PKD
ROOT
HETATM    1  C   UNL     1      -7.875   7.534  66.738  1.00  0.00    -0.110 C  
HETATM    2  S   UNL     1      -9.676   7.648  66.662  1.00  0.00    -0.194 SA 
HETATM    3  C   UNL     1      -9.684   9.266  65.855  1.00  0.00    -0.285 C  
HETATM    4  C   UNL     1      -8.715  10.294  66.430  1.00  0.00    -0.144 C  
HETATM    5  C   UNL     1      -6.654   7.934  68.383  1.00  0.00    -0.062 C  
HETATM    6  CA  UNL     1      -7.651   9.977  67.229  1.00  0.00    -0.095 C  
HETATM    7  C   UNL     1      -6.813  11.086  67.838  1.00  0.00    -0.068 C  
HETATM    8  CA  UNL     1      -7.304   6.603  67.863  1.00  0.00    -0.096 C  
HETATM    9  N   UNL     1      -7.368   8.659  67.496  1.00  0.00    -0.088 N  
HETATM   10  O   UNL     1      -6.083  10.789  68.926  1.00  0.00    -0.040 OA 
HETATM   11  OXT UNL     1      -6.781  12.226  67.391  1.00  0.00    -0.124 OA 
HETATM   12  O   UNL     1      -5.932   8.303  69.281  1.00  0.00    -0.036 OA 
ENDROOT
BRANCH   4  13
HETATM   13  C   UNL     1      -9.207  11.720  66.151  1.00  0.00    -0.210 C  
BRANCH  13  14
HETATM   14  S   UNL     1     -10.494  12.297  67.315  1.00  0.00    -0.220 SA 
BRANCH  14  15
HETATM   15  C   UNL     1     -11.631  12.951  66.182  1.00  0.00    -0.372 A  
HETATM   16  N   UNL     1     -12.377  12.241  65.363  1.00  0.00    -0.563 NA 
HETATM   17  N   UNL     1     -13.155  13.136  64.675  1.00  0.00    -0.605 NA 
HETATM   18  N   UNL     1     -11.931  14.274  65.996  1.00  0.00    -0.398 NA 
HETATM   19  N   UNL     1     -12.902  14.377  65.059  1.00  0.00    -0.615 NA 
BRANCH  18  20
HETATM   20  C   UNL     1     -11.529  15.464  66.690  1.00  0.00    -0.019 C  
HETATM   21  O   UNL     1     -10.296  17.767  66.428  1.00  0.00    -0.356 OA 
HETATM   22  O   UNL     1     -10.931  16.545  64.414  1.00  0.00    -0.872 OA 
HETATM   23  O   UNL     1      -9.050  15.667  65.777  1.00  0.00    -0.303 OA 
HETATM   24  S   UNL     1     -10.273  16.428  65.886  1.00  0.00    -0.348 S  
ENDBRANCH  18  20
ENDBRANCH  14  15
ENDBRANCH  13  14
ENDBRANCH   4  13
BRANCH   8  25
HETATM   25  N   UNL     1      -8.304   5.994  68.776  1.00  0.00    -0.106 N  
HETATM   26  C   UNL     1      -7.994   5.324  69.941  1.00  0.00    -0.083 C  
HETATM   27  H   UNL     1      -9.288   6.076  68.523  1.00  0.00     0.000 HD 
HETATM   28  O   UNL     1      -6.843   5.116  70.312  1.00  0.00    -0.042 OA 
BRANCH  26  29
HETATM   29  C   UNL     1      -9.247   4.884  70.731  1.00  0.00    -0.145 C  
HETATM   30  O   UNL     1     -10.144   4.173  69.865  1.00  0.00    -0.153 OA 
HETATM   31  H   UNL     1     -10.914   3.903  70.350  1.00  0.00     0.000 HD 
BRANCH  29  32
HETATM   32  C   UNL     1      -9.973   6.059  71.351  1.00  0.00    -0.223 A  
HETATM   33  C   UNL     1     -11.311   6.314  71.013  1.00  0.00    -0.378 A  
HETATM   34  C   UNL     1      -9.345   6.905  72.281  1.00  0.00    -0.148 A  
HETATM   35  C   UNL     1     -10.026   7.990  72.834  1.00  0.00    -0.360 A  
HETATM   36  C   UNL     1     -11.347   8.242  72.474  1.00  0.00    -0.455 A  
HETATM   37  C   UNL     1     -11.991   7.401  71.568  1.00  0.00    -0.337 A  
ENDBRANCH  29  32
ENDBRANCH  26  29
ENDBRANCH   8  25
TORSDOF 7
ENDMDL
MODEL       74
REMARK 921   NORMALIZED FREE ENERGY PREDICTED BY IDOCK:   -6.34 KCAL/MOL
REMARK 922        TOTAL FREE ENERGY PREDICTED BY IDOCK:   -9.90 KCAL/MOL
REMARK 923 INTER-LIGAND FREE ENERGY PREDICTED BY IDOCK:   -8.81 KCAL/MOL
REMARK 924 INTRA-LIGAND FREE ENERGY PREDICTED BY IDOCK:   -1.09 KCAL/MOL
REMARK 927      BINDING AFFINITY PREDICTED BY RF-SCORE:    0.00 PKD
ROOT
HETATM    1  C   UNL     1      -8.491   9.834  65.331  1.00  0.00    -0.145 C  
HETATM    2  S   UNL     1     -10.232  10.297  65.450  1.00  0.00    -0.168 SA 
HETATM    3  C   UNL     1      -9.898  12.063  65.651  1.00  0.00    -0.243 C  
HETATM    4  C   UNL     1      -8.778  12.414  66.626  1.00  0.00    -0.119 C  
HETATM    5  C   UNL     1      -7.290   9.043  66.844  1.00  0.00    -0.086 C  
HETATM    6  CA  UNL     1      -7.830  11.525  67.052  1.00  0.00    -0.161 C  
HETATM    7  C   UNL     1      -6.825  11.949  68.107  1.00  0.00    -0.071 C  
HETATM    8  CA  UNL     1      -8.157   8.354  65.730  1.00  0.00    -0.117 C  
HETATM    9  N   UNL     1      -7.814  10.249  66.541  1.00  0.00    -0.112 N  
HETATM   10  O   UNL     1      -6.213  10.979  68.809  1.00  0.00    -0.043 OA 
HETATM   11  OXT UNL     1      -6.559  13.119  68.349  1.00  0.00    -0.076 OA 
HETATM   12  O   UNL     1      -6.552   8.723  67.748  1.00  0.00    -0.060 OA 
ENDROOT
BRANCH   4  13
HETATM   13  C   UNL     1      -8.979  13.823  67.198  1.00  0.00    -0.235 C  
BRANCH  13  14
HETATM   14  S   UNL     1     -10.667  14.483  66.957  1.00  0.00    -0.295 SA 
BRANCH  14  15
HETATM   15  C   UNL     1     -10.749  15.560  68.314  1.00  0.00    -0.271 A  
HETATM   16  N   UNL     1     -11.417  15.329  69.423  1.00  0.00    -0.293 NA 
HETATM   17  N   UNL     1     -11.187  16.403  70.244  1.00  0.00    -0.333 NA 
HETATM   18  N   UNL     1     -10.120  16.770  68.437  1.00  0.00    -0.270 NA 
HETATM   19  N   UNL     1     -10.388  17.282  69.660  1.00  0.00    -0.092 NA 
BRANCH  18  20
HETATM   20  C   UNL     1      -9.171  17.454  67.607  1.00  0.00    -0.234 C  
HETATM   21  O   UNL     1      -8.868  19.423  65.898  1.00  0.00    -0.425 OA 
HETATM   22  O   UNL     1     -10.914  19.329  67.222  1.00  0.00    -0.483 OA 
HETATM   23  O   UNL     1     -10.617  17.670  65.398  1.00  0.00    -0.657 OA 
HETATM   24  S   UNL     1      -9.867  18.476  66.333  1.00  0.00    -0.352 S  
ENDBRANCH  18  20
ENDBRANCH  14  15
ENDBRANCH  13  14
ENDBRANCH   4  13
BRANCH   8  25
HETATM   25  N   UNL     1      -9.293   7.542  66.231  1.00  0.00    -0.311 N  
HETATM   26  C   UNL     1      -9.175   6.272  66.757  1.00  0.00    -0.137 C  
HETATM   27  H   UNL     1     -10.226   7.950  66.183  1.00  0.00     0.000 HD 
HETATM   28  O   UNL     1      -8.112   5.662  66.811  1.00  0.00    -0.101 OA 
BRANCH  26  29
HETATM   29  C   UNL     1     -10.516   5.714  67.284  1.00  0.00    -0.258 C  
HETATM   30  O   UNL     1     -11.597   6.555  66.852  1.00  0.00    -0.725 OA 
HETATM   31  H   UNL     1     -12.421   6.212  67.176  1.00  0.00     0.000 HD 
BRANCH  29  32
HETATM   32  C   UNL     1     -10.537   5.607  68.795  1.00  0.00    -0.286 A  
HETATM   33  C   UNL     1     -11.343   6.474  69.548  1.00  0.00    -0.419 A  
HETATM   34  C   UNL     1      -9.775   4.641  69.474  1.00  0.00    -0.278 A  
HETATM   35  C   UNL     1      -9.798   4.563  70.867  1.00  0.00    -0.269 A  
HETATM   36  C   UNL     1     -10.588   5.443  71.602  1.00  0.00    -0.284 A  
HETATM   37  C   UNL     1     -11.364   6.395  70.942  1.00  0.00    -0.398 A  
ENDBRANCH  29  32
ENDBRANCH  26  29
ENDBRANCH   8  25
TORSDOF 7
ENDMDL
MODEL       75
REMARK 921   NORMALIZED FREE ENERGY PREDICTED BY IDOCK:   -6.31 KCAL/MOL
REMARK 922        TOTAL FREE ENERGY PREDICTED BY IDOCK:   -9.86 KCAL/MOL
REMARK 923 INTER-LIGAND FREE ENERGY PREDICTED BY IDOCK:   -8.11 KCAL/MOL
REMARK 924 INTRA-LIGAND FREE ENERGY PREDICTED BY IDOCK:   -1.74 KCAL/MOL
REMARK 927      BINDING AFFINITY PREDICTED BY RF-SCORE:    0.00 PKD
ROOT
HETATM    1  C   UNL     1     -10.396   9.974  66.822  1.00  0.00    -0.217 C  
HETATM    2  S   UNL     1      -9.944  11.121  68.141  1.00  0.00    -0.184 SA 
HETATM    3  C   UNL     1     -11.348  12.225  67.861  1.00  0.00    -0.298 C  
HETATM    4  C   UNL     1     -11.639  12.561  66.401  1.00  0.00    -0.449 C  
HETATM    5  C   UNL     1      -9.591   9.883  64.898  1.00  0.00    -0.288 C  
HETATM    6  CA  UNL     1     -11.165  11.839  65.341  1.00  0.00    -0.251 C  
HETATM    7  C   UNL     1     -11.424  12.323  63.927  1.00  0.00    -0.435 C  
HETATM    8  CA  UNL     1      -9.216   9.132  66.225  1.00  0.00    -0.194 C  
HETATM    9  N   UNL     1     -10.434  10.696  65.568  1.00  0.00    -0.219 N  
HETATM   10  O   UNL     1     -10.611  11.872  62.956  1.00  0.00    -0.309 OA 
HETATM   11  OXT UNL     1     -12.323  13.103  63.639  1.00  0.00    -0.646 OA 
HETATM   12  O   UNL     1      -9.236   9.917  63.742  1.00  0.00    -0.256 OA 
ENDROOT
BRANCH   4  13
HETATM   13  C   UNL     1     -12.364  13.909  66.289  1.00  0.00    -0.449 C  
BRANCH  13  14
HETATM   14  S   UNL     1     -11.239  15.333  66.055  1.00  0.00    -0.162 SA 
BRANCH  14  15
HETATM   15  C   UNL     1     -10.862  15.672  67.713  1.00  0.00    -0.307 A  
HETATM   16  N   UNL     1     -11.746  15.925  68.653  1.00  0.00    -0.380 NA 
HETATM   17  N   UNL     1     -11.037  16.097  69.814  1.00  0.00    -0.334 NA 
HETATM   18  N   UNL     1      -9.615  15.701  68.279  1.00  0.00    -0.199 NA 
HETATM   19  N   UNL     1      -9.739  15.951  69.602  1.00  0.00    -0.253 NA 
BRANCH  18  20
HETATM   20  C   UNL     1      -8.314  15.377  67.768  1.00  0.00    -0.147 C  
HETATM   21  O   UNL     1      -6.077  16.393  66.844  1.00  0.00    -0.286 OA 
HETATM   22  O   UNL     1      -7.650  17.870  67.981  1.00  0.00    -0.225 OA 
HETATM   23  O   UNL     1      -8.240  17.047  65.713  1.00  0.00    -0.486 OA 
HETATM   24  S   UNL     1      -7.491  16.684  66.893  1.00  0.00    -0.255 S  
ENDBRANCH  18  20
ENDBRANCH  14  15
ENDBRANCH  13  14
ENDBRANCH   4  13
BRANCH   8  25
HETATM   25  N   UNL     1      -7.864   9.434  66.758  1.00  0.00    -0.104 N  
HETATM   26  C   UNL     1      -7.278   8.779  67.821  1.00  0.00    -0.084 C  
HETATM   27  H   UNL     1      -7.331  10.177  66.307  1.00  0.00     0.000 HD 
HETATM   28  O   UNL     1      -7.848   7.910  68.473  1.00  0.00    -0.115 OA 
BRANCH  26  29
HETATM   29  C   UNL     1      -5.829   9.245  68.087  1.00  0.00    -0.038 C  
HETATM   30  O   UNL     1      -5.249   8.459  69.139  1.00  0.00    -0.030 OA 
HETATM   31  H   UNL     1      -4.359   8.745  69.302  1.00  0.00     0.000 HD 
BRANCH  29  32
HETATM   32  C   UNL     1      -5.758  10.711  68.459  1.00  0.00    -0.040 A  
HETATM   33  C   UNL     1      -5.307  11.652  67.521  1.00  0.00    -0.068 A  
HETATM   34  C   UNL     1      -6.153  11.168  69.728  1.00  0.00    -0.107 A  
HETATM   35  C   UNL     1      -6.072  12.521  70.058  1.00  0.00    -0.117 A  
HETATM   36  C   UNL     1      -5.603  13.440  69.122  1.00  0.00    -0.076 A  
HETATM   37  C   UNL     1      -5.226  13.006  67.853  1.00  0.00    -0.109 A  
ENDBRANCH  29  32
ENDBRANCH  26  29
ENDBRANCH   8  25
TORSDOF 7
ENDMDL
MODEL       76
REMARK 921   NORMALIZED FREE ENERGY PREDICTED BY IDOCK:   -6.30 KCAL/MOL
REMARK 922        TOTAL FREE ENERGY PREDICTED BY IDOCK:   -9.84 KCAL/MOL
REMARK 923 INTER-LIGAND FREE ENERGY PREDICTED BY IDOCK:   -9.92 KCAL/MOL
REMARK 924 INTRA-LIGAND FREE ENERGY PREDICTED BY IDOCK:    0.07 KCAL/MOL
REMARK 927      BINDING AFFINITY PREDICTED BY RF-SCORE:    0.00 PKD
ROOT
HETATM    1  C   UNL     1      -8.405  12.136  67.058  1.00  0.00    -0.173 C  
HETATM    2  S   UNL     1      -8.199  10.674  68.096  1.00  0.00    -0.120 SA 
HETATM    3  C   UNL     1      -7.572   9.633  66.757  1.00  0.00    -0.098 C  
HETATM    4  C   UNL     1      -8.331   9.732  65.437  1.00  0.00    -0.143 C  
HETATM    5  C   UNL     1     -10.176  12.836  66.202  1.00  0.00    -0.275 C  
HETATM    6  CA  UNL     1      -9.174  10.759  65.115  1.00  0.00    -0.209 C  
HETATM    7  C   UNL     1      -9.964  10.705  63.821  1.00  0.00    -0.317 C  
HETATM    8  CA  UNL     1      -9.466  13.177  67.560  1.00  0.00    -0.212 C  
HETATM    9  N   UNL     1      -9.319  11.818  65.980  1.00  0.00    -0.229 N  
HETATM   10  O   UNL     1     -11.069  11.465  63.734  1.00  0.00    -0.392 OA 
HETATM   11  OXT UNL     1      -9.647  10.001  62.870  1.00  0.00    -0.267 OA 
HETATM   12  O   UNL     1     -11.164  13.165  65.586  1.00  0.00    -0.281 OA 
ENDROOT
BRANCH   4  13
HETATM   13  C   UNL     1      -8.169   8.443  64.621  1.00  0.00    -0.154 C  
BRANCH  13  14
HETATM   14  S   UNL     1      -7.426   7.062  65.562  1.00  0.00    -0.091 SA 
BRANCH  14  15
HETATM   15  C   UNL     1      -8.820   6.045  65.724  1.00  0.00    -0.135 A  
HETATM   16  N   UNL     1      -8.990   4.892  65.114  1.00  0.00    -0.153 NA 
HETATM   17  N   UNL     1     -10.196   4.401  65.544  1.00  0.00    -0.252 NA 
HETATM   18  N   UNL     1      -9.914   6.276  66.515  1.00  0.00    -0.148 NA 
HETATM   19  N   UNL     1     -10.763   5.228  66.407  1.00  0.00    -0.293 NA 
BRANCH  18  20
HETATM   20  C   UNL     1     -10.209   7.292  67.483  1.00  0.00    -0.221 C  
HETATM   21  O   UNL     1      -9.920   7.983  69.999  1.00  0.00    -0.187 OA 
HETATM   22  O   UNL     1      -8.563   6.154  69.125  1.00  0.00    -0.118 OA 
HETATM   23  O   UNL     1     -10.985   5.749  69.492  1.00  0.00    -0.353 OA 
HETATM   24  S   UNL     1     -10.044   6.800  69.181  1.00  0.00    -0.178 S  
ENDBRANCH  18  20
ENDBRANCH  14  15
ENDBRANCH  13  14
ENDBRANCH   4  13
BRANCH   8  25
HETATM   25  N   UNL     1     -10.224  12.799  68.779  1.00  0.00    -0.410 N  
HETATM   26  C   UNL     1     -11.463  12.193  68.773  1.00  0.00    -0.307 C  
HETATM   27  H   UNL     1      -9.799  13.002  69.684  1.00  0.00     0.000 HD 
HETATM   28  O   UNL     1     -12.091  11.956  67.746  1.00  0.00    -0.564 OA 
BRANCH  26  29
HETATM   29  C   UNL     1     -11.961  11.832  70.191  1.00  0.00    -0.339 C  
HETATM   30  O   UNL     1     -12.910  10.758  70.115  1.00  0.00    -0.346 OA 
HETATM   31  H   UNL     1     -13.216  10.536  70.986  1.00  0.00     0.000 HD 
BRANCH  29  32
HETATM   32  C   UNL     1     -12.595  13.015  70.892  1.00  0.00    -0.364 A  
HETATM   33  C   UNL     1     -13.410  12.809  72.016  1.00  0.00    -0.565 A  
HETATM   34  C   UNL     1     -12.377  14.333  70.456  1.00  0.00    -0.430 A  
HETATM   35  C   UNL     1     -12.978  15.410  71.108  1.00  0.00    -0.545 A  
HETATM   36  C   UNL     1     -13.800  15.188  72.210  1.00  0.00    -0.618 A  
HETATM   37  C   UNL     1     -14.011  13.888  72.667  1.00  0.00    -0.428 A  
ENDBRANCH  29  32
ENDBRANCH  26  29
ENDBRANCH   8  25
TORSDOF 7
ENDMDL
MODEL       77
REMARK 921   NORMALIZED FREE ENERGY PREDICTED BY IDOCK:   -6.29 KCAL/MOL
REMARK 922        TOTAL FREE ENERGY PREDICTED BY IDOCK:   -9.84 KCAL/MOL
REMARK 923 INTER-LIGAND FREE ENERGY PREDICTED BY IDOCK:   -8.56 KCAL/MOL
REMARK 924 INTRA-LIGAND FREE ENERGY PREDICTED BY IDOCK:   -1.28 KCAL/MOL
REMARK 927      BINDING AFFINITY PREDICTED BY RF-SCORE:    0.00 PKD
ROOT
HETATM    1  C   UNL     1      -7.666   9.893  66.482  1.00  0.00    -0.107 C  
HETATM    2  S   UNL     1      -8.826  10.306  67.802  1.00  0.00    -0.124 SA 
HETATM    3  C   UNL     1      -8.427   8.856  68.805  1.00  0.00    -0.131 C  
HETATM    4  C   UNL     1      -8.323   7.538  68.044  1.00  0.00    -0.124 C  
HETATM    5  C   UNL     1      -8.106   8.984  64.654  1.00  0.00    -0.144 C  
HETATM    6  CA  UNL     1      -8.163   7.449  66.689  1.00  0.00    -0.125 C  
HETATM    7  C   UNL     1      -8.180   6.087  66.019  1.00  0.00    -0.125 C  
HETATM    8  CA  UNL     1      -8.004  10.494  65.073  1.00  0.00    -0.079 C  
HETATM    9  N   UNL     1      -8.015   8.594  65.943  1.00  0.00    -0.101 N  
HETATM   10  O   UNL     1      -8.458   6.044  64.705  1.00  0.00    -0.106 OA 
HETATM   11  OXT UNL     1      -7.963   5.042  66.618  1.00  0.00    -0.106 OA 
HETATM   12  O   UNL     1      -8.328   8.329  63.661  1.00  0.00    -0.125 OA 
ENDROOT
BRANCH   4  13
HETATM   13  C   UNL     1      -8.612   6.351  68.972  1.00  0.00    -0.124 C  
BRANCH  13  14
HETATM   14  S   UNL     1      -8.196   6.667  70.725  1.00  0.00    -0.121 SA 
BRANCH  14  15
HETATM   15  C   UNL     1      -9.667   6.130  71.468  1.00  0.00    -0.162 A  
HETATM   16  N   UNL     1      -9.755   5.175  72.368  1.00  0.00    -0.151 NA 
HETATM   17  N   UNL     1     -11.078   5.095  72.719  1.00  0.00    -0.265 NA 
HETATM   18  N   UNL     1     -10.924   6.630  71.250  1.00  0.00    -0.244 NA 
HETATM   19  N   UNL     1     -11.799   5.984  72.054  1.00  0.00    -0.275 NA 
BRANCH  18  20
HETATM   20  C   UNL     1     -11.401   7.746  70.486  1.00  0.00    -0.241 C  
HETATM   21  O   UNL     1     -11.530  10.366  70.398  1.00  0.00    -0.291 OA 
HETATM   22  O   UNL     1      -9.991   9.324  71.977  1.00  0.00    -0.164 OA 
HETATM   23  O   UNL     1     -12.425   9.197  72.451  1.00  0.00    -0.352 OA 
HETATM   24  S   UNL     1     -11.484   9.289  71.359  1.00  0.00    -0.396 S  
ENDBRANCH  18  20
ENDBRANCH  14  15
ENDBRANCH  13  14
ENDBRANCH   4  13
BRANCH   8  25
HETATM   25  N   UNL     1      -9.271  11.260  64.978  1.00  0.00    -0.347 N  
HETATM   26  C   UNL     1      -9.851  11.669  63.795  1.00  0.00    -0.315 C  
HETATM   27  H   UNL     1      -9.746  11.502  65.847  1.00  0.00     0.000 HD 
HETATM   28  O   UNL     1      -9.339  11.484  62.695  1.00  0.00    -0.341 OA 
BRANCH  26  29
HETATM   29  C   UNL     1     -11.215  12.364  64.005  1.00  0.00    -0.396 C  
HETATM   30  O   UNL     1     -11.664  12.939  62.769  1.00  0.00    -0.687 OA 
HETATM   31  H   UNL     1     -12.503  13.366  62.897  1.00  0.00     0.000 HD 
BRANCH  29  32
HETATM   32  C   UNL     1     -11.150  13.442  65.066  1.00  0.00    -0.332 A  
HETATM   33  C   UNL     1     -11.911  13.319  66.238  1.00  0.00    -0.471 A  
HETATM   34  C   UNL     1     -10.326  14.571  64.918  1.00  0.00    -0.401 A  
HETATM   35  C   UNL     1     -10.287  15.560  65.902  1.00  0.00    -0.365 A  
HETATM   36  C   UNL     1     -11.063  15.433  67.050  1.00  0.00    -0.273 A  
HETATM   37  C   UNL     1     -11.871  14.310  67.221  1.00  0.00    -0.444 A  
ENDBRANCH  29  32
ENDBRANCH  26  29
ENDBRANCH   8  25
TORSDOF 7
ENDMDL
MODEL       78
REMARK 921   NORMALIZED FREE ENERGY PREDICTED BY IDOCK:   -6.27 KCAL/MOL
REMARK 922        TOTAL FREE ENERGY PREDICTED BY IDOCK:   -9.80 KCAL/MOL
REMARK 923 INTER-LIGAND FREE ENERGY PREDICTED BY IDOCK:   -9.03 KCAL/MOL
REMARK 924 INTRA-LIGAND FREE ENERGY PREDICTED BY IDOCK:   -0.77 KCAL/MOL
REMARK 927      BINDING AFFINITY PREDICTED BY RF-SCORE:    0.00 PKD
ROOT
HETATM    1  C   UNL     1     -10.705  12.582  67.897  1.00  0.00    -0.217 C  
HETATM    2  S   UNL     1      -8.917  12.356  68.004  1.00  0.00    -0.198 SA 
HETATM    3  C   UNL     1      -8.540  14.121  67.878  1.00  0.00    -0.178 C  
HETATM    4  C   UNL     1      -9.314  14.883  66.807  1.00  0.00    -0.270 C  
HETATM    5  C   UNL     1     -11.909  12.327  66.211  1.00  0.00    -0.317 C  
HETATM    6  CA  UNL     1     -10.462  14.425  66.221  1.00  0.00    -0.290 C  
HETATM    7  C   UNL     1     -11.092  15.213  65.089  1.00  0.00    -0.403 C  
HETATM    8  CA  UNL     1     -11.512  11.345  67.369  1.00  0.00    -0.251 C  
HETATM    9  N   UNL     1     -11.018  13.242  66.646  1.00  0.00    -0.281 N  
HETATM   10  O   UNL     1     -11.926  14.557  64.263  1.00  0.00    -0.444 OA 
HETATM   11  OXT UNL     1     -10.871  16.402  64.893  1.00  0.00    -0.655 OA 
HETATM   12  O   UNL     1     -12.591  12.324  65.211  1.00  0.00    -0.583 OA 
ENDROOT
BRANCH   4  13
HETATM   13  C   UNL     1      -8.532  16.122  66.351  1.00  0.00    -0.334 C  
BRANCH  13  14
HETATM   14  S   UNL     1      -8.111  17.270  67.712  1.00  0.00    -0.202 SA 
BRANCH  14  15
HETATM   15  C   UNL     1      -9.114  18.614  67.271  1.00  0.00    -0.277 A  
HETATM   16  N   UNL     1     -10.410  18.551  67.054  1.00  0.00    -0.380 NA 
HETATM   17  N   UNL     1     -10.817  19.830  66.773  1.00  0.00    -0.423 NA 
HETATM   18  N   UNL     1      -8.716  19.914  67.112  1.00  0.00    -0.316 NA 
HETATM   19  N   UNL     1      -9.797  20.672  66.817  1.00  0.00    -0.321 NA 
BRANCH  18  20
HETATM   20  C   UNL     1      -7.466  20.578  67.346  1.00  0.00    -0.331 C  
HETATM   21  O   UNL     1      -5.167  21.231  66.258  1.00  0.00    -0.197 OA 
HETATM   22  O   UNL     1      -6.968  20.453  64.808  1.00  0.00    -0.246 OA 
HETATM   23  O   UNL     1      -5.833  18.793  66.265  1.00  0.00    -0.151 OA 
HETATM   24  S   UNL     1      -6.172  20.195  66.191  1.00  0.00    -0.206 S  
ENDBRANCH  18  20
ENDBRANCH  14  15
ENDBRANCH  13  14
ENDBRANCH   4  13
BRANCH   8  25
HETATM   25  N   UNL     1     -10.706  10.171  66.950  1.00  0.00    -0.200 N  
HETATM   26  C   UNL     1     -10.410   9.095  67.761  1.00  0.00    -0.245 C  
HETATM   27  H   UNL     1     -10.345  10.160  65.996  1.00  0.00     0.000 HD 
HETATM   28  O   UNL     1     -10.743   9.030  68.940  1.00  0.00    -0.205 OA 
BRANCH  26  29
HETATM   29  C   UNL     1      -9.636   7.982  67.020  1.00  0.00    -0.196 C  
HETATM   30  O   UNL     1      -9.003   7.113  67.972  1.00  0.00    -0.128 OA 
HETATM   31  H   UNL     1      -8.527   6.429  67.517  1.00  0.00     0.000 HD 
BRANCH  29  32
HETATM   32  C   UNL     1      -8.591   8.542  66.078  1.00  0.00    -0.162 A  
HETATM   33  C   UNL     1      -8.865   8.642  64.706  1.00  0.00    -0.036 A  
HETATM   34  C   UNL     1      -7.342   8.986  66.545  1.00  0.00    -0.085 A  
HETATM   35  C   UNL     1      -6.386   9.489  65.661  1.00  0.00    -0.070 A  
HETATM   36  C   UNL     1      -6.666   9.564  64.300  1.00  0.00    -0.101 A  
HETATM   37  C   UNL     1      -7.908   9.145  63.823  1.00  0.00    -0.133 A  
ENDBRANCH  29  32
ENDBRANCH  26  29
ENDBRANCH   8  25
TORSDOF 7
ENDMDL
MODEL       79
REMARK 921   NORMALIZED FREE ENERGY PREDICTED BY IDOCK:   -6.26 KCAL/MOL
REMARK 922        TOTAL FREE ENERGY PREDICTED BY IDOCK:   -9.79 KCAL/MOL
REMARK 923 INTER-LIGAND FREE ENERGY PREDICTED BY IDOCK:   -8.77 KCAL/MOL
REMARK 924 INTRA-LIGAND FREE ENERGY PREDICTED BY IDOCK:   -1.02 KCAL/MOL
REMARK 927      BINDING AFFINITY PREDICTED BY RF-SCORE:    0.00 PKD
ROOT
HETATM    1  C   UNL     1     -10.594   8.488  66.881  1.00  0.00    -0.209 C  
HETATM    2  S   UNL     1     -10.750   9.634  68.268  1.00  0.00    -0.186 SA 
HETATM    3  C   UNL     1     -11.563  10.925  67.298  1.00  0.00     0.151 C  
HETATM    4  C   UNL     1     -10.949  11.206  65.930  1.00  0.00    -0.171 C  
HETATM    5  C   UNL     1      -8.898   8.144  65.714  1.00  0.00    -0.135 C  
HETATM    6  CA  UNL     1     -10.102  10.349  65.282  1.00  0.00    -0.300 C  
HETATM    7  C   UNL     1      -9.461  10.774  63.975  1.00  0.00    -0.272 C  
HETATM    8  CA  UNL     1      -9.441   7.432  67.003  1.00  0.00    -0.158 C  
HETATM    9  N   UNL     1      -9.818   9.123  65.836  1.00  0.00    -0.282 N  
HETATM   10  O   UNL     1      -8.339  10.137  63.595  1.00  0.00    -0.155 OA 
HETATM   11  OXT UNL     1      -9.910  11.665  63.265  1.00  0.00    -0.372 OA 
HETATM   12  O   UNL     1      -7.969   8.046  64.944  1.00  0.00    -0.124 OA 
ENDROOT
BRANCH   4  13
HETATM   13  C   UNL     1     -11.255  12.641  65.482  1.00  0.00    -0.302 C  
BRANCH  13  14
HETATM   14  S   UNL     1     -10.543  13.923  66.575  1.00  0.00    -0.281 SA 
BRANCH  14  15
HETATM   15  C   UNL     1     -10.816  15.322  65.589  1.00  0.00    -0.363 A  
HETATM   16  N   UNL     1     -11.388  15.312  64.404  1.00  0.00    -0.274 NA 
HETATM   17  N   UNL     1     -11.444  16.618  63.992  1.00  0.00    -1.136 NA 
HETATM   18  N   UNL     1     -10.508  16.618  65.905  1.00  0.00    -0.340 NA 
HETATM   19  N   UNL     1     -10.923  17.425  64.902  1.00  0.00    -0.851 NA 
BRANCH  18  20
HETATM   20  C   UNL     1     -10.000  17.227  67.100  1.00  0.00    -0.282 C  
HETATM   21  O   UNL     1      -7.905  18.389  68.173  1.00  0.00    -0.271 OA 
HETATM   22  O   UNL     1      -7.966  18.092  65.752  1.00  0.00    -0.521 OA 
HETATM   23  O   UNL     1      -7.610  16.087  67.174  1.00  0.00    -0.169 OA 
HETATM   24  S   UNL     1      -8.234  17.389  67.184  1.00  0.00    -0.217 S  
ENDBRANCH  18  20
ENDBRANCH  14  15
ENDBRANCH  13  14
ENDBRANCH   4  13
BRANCH   8  25
HETATM   25  N   UNL     1      -8.572   7.552  68.201  1.00  0.00    -0.124 N  
HETATM   26  C   UNL     1      -8.313   6.525  69.085  1.00  0.00    -0.119 C  
HETATM   27  H   UNL     1      -8.136   8.456  68.382  1.00  0.00     0.000 HD 
HETATM   28  O   UNL     1      -8.827   5.415  68.997  1.00  0.00    -0.100 OA 
BRANCH  26  29
HETATM   29  C   UNL     1      -7.296   6.919  70.180  1.00  0.00    -0.081 C  
HETATM   30  O   UNL     1      -6.287   5.905  70.295  1.00  0.00    -0.029 OA 
HETATM   31  H   UNL     1      -5.662   6.147  70.968  1.00  0.00     0.000 HD 
BRANCH  29  32
HETATM   32  C   UNL     1      -7.957   7.125  71.527  1.00  0.00    -0.102 A  
HETATM   33  C   UNL     1      -7.623   6.293  72.606  1.00  0.00    -0.100 A  
HETATM   34  C   UNL     1      -8.897   8.149  71.736  1.00  0.00    -0.206 A  
HETATM   35  C   UNL     1      -9.505   8.317  72.981  1.00  0.00    -0.298 A  
HETATM   36  C   UNL     1      -9.177   7.471  74.037  1.00  0.00    -0.279 A  
HETATM   37  C   UNL     1      -8.232   6.463  73.851  1.00  0.00    -0.111 A  
ENDBRANCH  29  32
ENDBRANCH  26  29
ENDBRANCH   8  25
TORSDOF 7
ENDMDL
MODEL       80
REMARK 921   NORMALIZED FREE ENERGY PREDICTED BY IDOCK:   -6.26 KCAL/MOL
REMARK 922        TOTAL FREE ENERGY PREDICTED BY IDOCK:   -9.79 KCAL/MOL
REMARK 923 INTER-LIGAND FREE ENERGY PREDICTED BY IDOCK:   -8.65 KCAL/MOL
REMARK 924 INTRA-LIGAND FREE ENERGY PREDICTED BY IDOCK:   -1.14 KCAL/MOL
REMARK 927      BINDING AFFINITY PREDICTED BY RF-SCORE:    0.00 PKD
ROOT
HETATM    1  C   UNL     1     -11.749  13.019  67.683  1.00  0.00    -0.366 C  
HETATM    2  S   UNL     1     -10.096  12.360  67.377  1.00  0.00    -0.202 SA 
HETATM    3  C   UNL     1     -10.492  10.698  67.971  1.00  0.00    -0.196 C  
HETATM    4  C   UNL     1     -11.287  10.636  69.271  1.00  0.00    -0.346 C  
HETATM    5  C   UNL     1     -12.368  14.165  69.316  1.00  0.00    -0.169 C  
HETATM    6  CA  UNL     1     -11.988  11.689  69.790  1.00  0.00    -0.332 C  
HETATM    7  C   UNL     1     -12.655  11.552  71.145  1.00  0.00    -0.359 C  
HETATM    8  CA  UNL     1     -11.828  14.571  67.898  1.00  0.00    -0.336 C  
HETATM    9  N   UNL     1     -12.057  12.871  69.091  1.00  0.00    -0.231 N  
HETATM   10  O   UNL     1     -12.946  12.682  71.813  1.00  0.00    -0.370 OA 
HETATM   11  OXT UNL     1     -12.927  10.472  71.653  1.00  0.00    -0.412 OA 
HETATM   12  O   UNL     1     -12.769  14.701  70.323  1.00  0.00    -0.335 OA 
ENDROOT
BRANCH   4  13
HETATM   13  C   UNL     1     -11.034   9.308  69.998  1.00  0.00    -0.229 C  
BRANCH  13  14
HETATM   14  S   UNL     1      -9.365   9.177  70.735  1.00  0.00    -0.264 SA 
BRANCH  14  15
HETATM   15  C   UNL     1      -9.668   7.935  71.906  1.00  0.00    -0.177 A  
HETATM   16  N   UNL     1     -10.425   8.070  72.973  1.00  0.00    -0.333 NA 
HETATM   17  N   UNL     1     -10.429   6.851  73.601  1.00  0.00    -0.349 NA 
HETATM   18  N   UNL     1      -9.194   6.651  71.877  1.00  0.00    -0.147 NA 
HETATM   19  N   UNL     1      -9.692   5.974  72.937  1.00  0.00    -0.155 NA 
BRANCH  18  20
HETATM   20  C   UNL     1      -8.443   5.920  70.898  1.00  0.00    -0.127 C  
HETATM   21  O   UNL     1      -8.637   4.338  68.812  1.00  0.00    -0.082 OA 
HETATM   22  O   UNL     1     -10.629   5.525  69.569  1.00  0.00    -0.290 OA 
HETATM   23  O   UNL     1      -9.789   3.639  70.949  1.00  0.00    -0.174 OA 
HETATM   24  S   UNL     1      -9.344   4.660  70.030  1.00  0.00    -0.163 S  
ENDBRANCH  18  20
ENDBRANCH  14  15
ENDBRANCH  13  14
ENDBRANCH   4  13
BRANCH   8  25
HETATM   25  N   UNL     1     -10.533  15.296  67.903  1.00  0.00    -0.249 N  
HETATM   26  C   UNL     1     -10.010  15.969  66.819  1.00  0.00    -0.258 C  
HETATM   27  H   UNL     1      -9.992  15.295  68.767  1.00  0.00     0.000 HD 
HETATM   28  O   UNL     1     -10.546  15.988  65.715  1.00  0.00    -0.343 OA 
BRANCH  26  29
HETATM   29  C   UNL     1      -8.694  16.708  67.150  1.00  0.00    -0.195 C  
HETATM   30  O   UNL     1      -8.070  17.160  65.938  1.00  0.00    -0.516 OA 
HETATM   31  H   UNL     1      -7.261  17.614  66.142  1.00  0.00     0.000 HD 
BRANCH  29  32
HETATM   32  C   UNL     1      -7.725  15.834  67.918  1.00  0.00    -0.144 A  
HETATM   33  C   UNL     1      -7.346  16.186  69.223  1.00  0.00    -0.231 A  
HETATM   34  C   UNL     1      -7.199  14.655  67.363  1.00  0.00    -0.182 A  
HETATM   35  C   UNL     1      -6.299  13.867  68.081  1.00  0.00    -0.127 A  
HETATM   36  C   UNL     1      -5.917  14.240  69.367  1.00  0.00    -0.103 A  
HETATM   37  C   UNL     1      -6.445  15.396  69.940  1.00  0.00    -0.155 A  
ENDBRANCH  29  32
ENDBRANCH  26  29
ENDBRANCH   8  25
TORSDOF 7
ENDMDL
MODEL       81
REMARK 921   NORMALIZED FREE ENERGY PREDICTED BY IDOCK:   -6.26 KCAL/MOL
REMARK 922        TOTAL FREE ENERGY PREDICTED BY IDOCK:   -9.79 KCAL/MOL
REMARK 923 INTER-LIGAND FREE ENERGY PREDICTED BY IDOCK:   -7.79 KCAL/MOL
REMARK 924 INTRA-LIGAND FREE ENERGY PREDICTED BY IDOCK:   -1.99 KCAL/MOL
REMARK 927      BINDING AFFINITY PREDICTED BY RF-SCORE:    0.00 PKD
ROOT
HETATM    1  C   UNL     1      -7.760   8.489  68.469  1.00  0.00    -0.103 C  
HETATM    2  S   UNL     1      -7.926   9.635  69.854  1.00  0.00    -0.183 SA 
HETATM    3  C   UNL     1      -7.938   8.337  71.114  1.00  0.00    -0.102 C  
HETATM    4  C   UNL     1      -8.814   7.127  70.804  1.00  0.00    -0.148 C  
HETATM    5  C   UNL     1      -9.276   7.809  67.205  1.00  0.00    -0.139 C  
HETATM    6  CA  UNL     1      -9.273   6.816  69.554  1.00  0.00    -0.147 C  
HETATM    7  C   UNL     1     -10.227   5.651  69.372  1.00  0.00    -0.245 C  
HETATM    8  CA  UNL     1      -8.282   9.018  67.088  1.00  0.00    -0.110 C  
HETATM    9  N   UNL     1      -8.887   7.580  68.477  1.00  0.00    -0.127 N  
HETATM   10  O   UNL     1     -10.986   5.634  68.263  1.00  0.00    -0.171 OA 
HETATM   11  OXT UNL     1     -10.340   4.743  70.187  1.00  0.00    -0.242 OA 
HETATM   12  O   UNL     1     -10.167   7.299  66.564  1.00  0.00    -0.183 OA 
ENDROOT
BRANCH   4  13
HETATM   13  C   UNL     1      -9.257   6.432  72.098  1.00  0.00    -0.140 C  
BRANCH  13  14
HETATM   14  S   UNL     1     -10.257   7.494  73.200  1.00  0.00    -0.350 SA 
BRANCH  14  15
HETATM   15  C   UNL     1     -11.697   7.622  72.243  1.00  0.00    -0.324 A  
HETATM   16  N   UNL     1     -12.587   6.666  72.086  1.00  0.00    -0.204 NA 
HETATM   17  N   UNL     1     -13.579   7.188  71.295  1.00  0.00    -0.294 NA 
HETATM   18  N   UNL     1     -12.122   8.722  71.548  1.00  0.00    -0.312 NA 
HETATM   19  N   UNL     1     -13.314   8.443  70.971  1.00  0.00     0.030 NA 
BRANCH  18  20
HETATM   20  C   UNL     1     -11.628  10.066  71.469  1.00  0.00    -0.224 C  
HETATM   21  O   UNL     1     -11.812  12.327  70.148  1.00  0.00    -0.328 OA 
HETATM   22  O   UNL     1     -13.526  10.627  69.800  1.00  0.00     0.213 OA 
HETATM   23  O   UNL     1     -11.267  10.229  68.849  1.00  0.00    -0.236 OA 
HETATM   24  S   UNL     1     -11.939  10.904  69.935  1.00  0.00    -0.375 S  
ENDBRANCH  18  20
ENDBRANCH  14  15
ENDBRANCH  13  14
ENDBRANCH   4  13
BRANCH   8  25
HETATM   25  N   UNL     1      -8.919  10.359  67.102  1.00  0.00    -0.139 N  
HETATM   26  C   UNL     1      -8.290  11.527  66.725  1.00  0.00    -0.165 C  
HETATM   27  H   UNL     1      -9.888  10.421  67.413  1.00  0.00     0.000 HD 
HETATM   28  O   UNL     1      -7.112  11.579  66.389  1.00  0.00    -0.065 OA 
BRANCH  26  29
HETATM   29  C   UNL     1      -9.234  12.751  66.753  1.00  0.00    -0.225 C  
HETATM   30  O   UNL     1      -9.801  12.898  68.063  1.00  0.00    -0.211 OA 
HETATM   31  H   UNL     1     -10.381  13.650  68.081  1.00  0.00     0.000 HD 
BRANCH  29  32
HETATM   32  C   UNL     1     -10.347  12.639  65.732  1.00  0.00    -0.298 A  
HETATM   33  C   UNL     1     -11.669  12.929  66.102  1.00  0.00    -0.451 A  
HETATM   34  C   UNL     1     -10.090  12.264  64.402  1.00  0.00    -0.296 A  
HETATM   35  C   UNL     1     -11.130  12.155  63.478  1.00  0.00    -0.525 A  
HETATM   36  C   UNL     1     -12.439  12.427  63.865  1.00  0.00    -0.573 A  
HETATM   37  C   UNL     1     -12.708  12.819  65.175  1.00  0.00    -0.402 A  
ENDBRANCH  29  32
ENDBRANCH  26  29
ENDBRANCH   8  25
TORSDOF 7
ENDMDL
MODEL       82
REMARK 921   NORMALIZED FREE ENERGY PREDICTED BY IDOCK:   -6.26 KCAL/MOL
REMARK 922        TOTAL FREE ENERGY PREDICTED BY IDOCK:   -9.79 KCAL/MOL
REMARK 923 INTER-LIGAND FREE ENERGY PREDICTED BY IDOCK:   -8.98 KCAL/MOL
REMARK 924 INTRA-LIGAND FREE ENERGY PREDICTED BY IDOCK:   -0.80 KCAL/MOL
REMARK 927      BINDING AFFINITY PREDICTED BY RF-SCORE:    0.00 PKD
ROOT
HETATM    1  C   UNL     1     -11.772   8.804  70.032  1.00  0.00     0.268 C  
HETATM    2  S   UNL     1     -11.691  10.117  71.268  1.00  0.00    -0.284 SA 
HETATM    3  C   UNL     1     -11.758  11.459  70.057  1.00  0.00    -0.334 C  
HETATM    4  C   UNL     1     -10.865  11.285  68.833  1.00  0.00    -0.253 C  
HETATM    5  C   UNL     1     -10.180   7.685  69.275  1.00  0.00    -0.210 C  
HETATM    6  CA  UNL     1     -10.329  10.089  68.441  1.00  0.00    -0.191 C  
HETATM    7  C   UNL     1      -9.366  10.046  67.270  1.00  0.00    -0.148 C  
HETATM    8  CA  UNL     1     -11.164   7.425  70.470  1.00  0.00    -0.274 C  
HETATM    9  N   UNL     1     -10.647   8.942  69.130  1.00  0.00    -0.220 N  
HETATM   10  O   UNL     1      -8.540   8.990  67.182  1.00  0.00    -0.116 OA 
HETATM   11  OXT UNL     1      -9.304  10.925  66.419  1.00  0.00    -0.169 OA 
HETATM   12  O   UNL     1      -9.251   7.135  68.727  1.00  0.00    -0.138 OA 
ENDROOT
BRANCH   4  13
HETATM   13  C   UNL     1     -10.504  12.648  68.227  1.00  0.00    -0.239 C  
BRANCH  13  14
HETATM   14  S   UNL     1     -11.868  13.864  68.282  1.00  0.00    -0.368 SA 
BRANCH  14  15
HETATM   15  C   UNL     1     -11.157  15.133  67.339  1.00  0.00    -0.325 A  
HETATM   16  N   UNL     1     -10.875  16.338  67.783  1.00  0.00    -0.330 NA 
HETATM   17  N   UNL     1     -10.293  17.009  66.738  1.00  0.00    -0.313 NA 
HETATM   18  N   UNL     1     -10.768  15.058  66.028  1.00  0.00    -0.316 NA 
HETATM   19  N   UNL     1     -10.211  16.236  65.666  1.00  0.00    -0.469 NA 
BRANCH  18  20
HETATM   20  C   UNL     1     -10.715  13.968  65.096  1.00  0.00    -0.382 C  
HETATM   21  O   UNL     1     -11.965  12.815  63.096  1.00  0.00    -0.504 OA 
HETATM   22  O   UNL     1     -12.655  15.056  63.770  1.00  0.00    -0.776 OA 
HETATM   23  O   UNL     1     -13.230  13.152  65.257  1.00  0.00    -0.643 OA 
HETATM   24  S   UNL     1     -12.248  13.579  64.289  1.00  0.00    -0.370 S  
ENDBRANCH  18  20
ENDBRANCH  14  15
ENDBRANCH  13  14
ENDBRANCH   4  13
BRANCH   8  25
HETATM   25  N   UNL     1     -10.530   7.389  71.811  1.00  0.00    -0.197 N  
HETATM   26  C   UNL     1     -10.738   6.400  72.749  1.00  0.00    -0.239 C  
HETATM   27  H   UNL     1      -9.895   8.149  72.056  1.00  0.00     0.000 HD 
HETATM   28  O   UNL     1     -11.523   5.471  72.584  1.00  0.00    -0.296 OA 
BRANCH  26  29
HETATM   29  C   UNL     1      -9.868   6.579  74.013  1.00  0.00    -0.273 C  
HETATM   30  O   UNL     1      -9.272   7.885  74.013  1.00  0.00    -0.378 OA 
HETATM   31  H   UNL     1      -8.737   7.996  74.790  1.00  0.00     0.000 HD 
BRANCH  29  32
HETATM   32  C   UNL     1      -8.780   5.530  74.112  1.00  0.00    -0.119 A  
HETATM   33  C   UNL     1      -9.122   4.177  74.256  1.00  0.00    -0.106 A  
HETATM   34  C   UNL     1      -7.419   5.874  74.046  1.00  0.00    -0.092 A  
HETATM   35  C   UNL     1      -6.430   4.895  74.150  1.00  0.00    -0.067 A  
HETATM   36  C   UNL     1      -6.785   3.559  74.312  1.00  0.00    -0.044 A  
HETATM   37  C   UNL     1      -8.130   3.200  74.360  1.00  0.00    -0.069 A  
ENDBRANCH  29  32
ENDBRANCH  26  29
ENDBRANCH   8  25
TORSDOF 7
ENDMDL
MODEL       83
REMARK 921   NORMALIZED FREE ENERGY PREDICTED BY IDOCK:   -6.25 KCAL/MOL
REMARK 922        TOTAL FREE ENERGY PREDICTED BY IDOCK:   -9.78 KCAL/MOL
REMARK 923 INTER-LIGAND FREE ENERGY PREDICTED BY IDOCK:   -8.42 KCAL/MOL
REMARK 924 INTRA-LIGAND FREE ENERGY PREDICTED BY IDOCK:   -1.36 KCAL/MOL
REMARK 927      BINDING AFFINITY PREDICTED BY RF-SCORE:    0.00 PKD
ROOT
HETATM    1  C   UNL     1      -8.486  12.478  67.025  1.00  0.00    -0.161 C  
HETATM    2  S   UNL     1      -7.597  12.862  68.548  1.00  0.00    -0.093 SA 
HETATM    3  C   UNL     1      -6.759  11.261  68.634  1.00  0.00    -0.071 C  
HETATM    4  C   UNL     1      -7.636  10.045  68.356  1.00  0.00    -0.083 C  
HETATM    5  C   UNL     1     -10.473  11.861  66.846  1.00  0.00    -0.222 C  
HETATM    6  CA  UNL     1      -8.850  10.104  67.730  1.00  0.00    -0.125 C  
HETATM    7  C   UNL     1      -9.691   8.848  67.600  1.00  0.00    -0.161 C  
HETATM    8  CA  UNL     1      -9.812  13.284  66.795  1.00  0.00    -0.264 C  
HETATM    9  N   UNL     1      -9.310  11.307  67.248  1.00  0.00    -0.165 N  
HETATM   10  O   UNL     1     -11.010   9.000  67.393  1.00  0.00    -0.152 OA 
HETATM   11  OXT UNL     1      -9.226   7.718  67.684  1.00  0.00    -0.135 OA 
HETATM   12  O   UNL     1     -11.572  11.365  66.743  1.00  0.00    -0.465 OA 
ENDROOT
BRANCH   4  13
HETATM   13  C   UNL     1      -7.063   8.795  69.038  1.00  0.00    -0.065 C  
BRANCH  13  14
HETATM   14  S   UNL     1      -6.825   8.985  70.842  1.00  0.00    -0.096 SA 
BRANCH  14  15
HETATM   15  C   UNL     1      -8.437   8.643  71.379  1.00  0.00    -0.188 A  
HETATM   16  N   UNL     1      -9.501   9.357  71.080  1.00  0.00    -0.225 NA 
HETATM   17  N   UNL     1     -10.567   8.725  71.667  1.00  0.00    -0.302 NA 
HETATM   18  N   UNL     1      -8.834   7.586  72.155  1.00  0.00    -0.123 NA 
HETATM   19  N   UNL     1     -10.177   7.638  72.315  1.00  0.00    -0.203 NA 
BRANCH  18  20
HETATM   20  C   UNL     1      -8.136   6.437  72.653  1.00  0.00    -0.105 C  
HETATM   21  O   UNL     1      -7.547   3.926  72.163  1.00  0.00    -0.062 OA 
HETATM   22  O   UNL     1      -8.473   5.284  70.360  1.00  0.00    -0.110 OA 
HETATM   23  O   UNL     1      -9.984   4.592  72.206  1.00  0.00    -0.164 OA 
HETATM   24  S   UNL     1      -8.598   4.886  71.922  1.00  0.00    -0.129 S  
ENDBRANCH  18  20
ENDBRANCH  14  15
ENDBRANCH  13  14
ENDBRANCH   4  13
BRANCH   8  25
HETATM   25  N   UNL     1     -10.214  14.203  67.889  1.00  0.00    -0.232 N  
HETATM   26  C   UNL     1     -11.486  14.709  68.058  1.00  0.00    -0.324 C  
HETATM   27  H   UNL     1      -9.500  14.479  68.563  1.00  0.00     0.000 HD 
HETATM   28  O   UNL     1     -12.407  14.490  67.277  1.00  0.00    -0.276 OA 
BRANCH  26  29
HETATM   29  C   UNL     1     -11.627  15.561  69.339  1.00  0.00    -0.355 C  
HETATM   30  O   UNL     1     -10.327  15.882  69.856  1.00  0.00    -0.288 OA 
HETATM   31  H   UNL     1     -10.413  16.406  70.644  1.00  0.00     0.000 HD 
BRANCH  29  32
HETATM   32  C   UNL     1     -12.433  14.856  70.409  1.00  0.00    -0.403 A  
HETATM   33  C   UNL     1     -12.273  13.477  70.613  1.00  0.00    -0.434 A  
HETATM   34  C   UNL     1     -13.338  15.553  71.228  1.00  0.00    -0.588 A  
HETATM   35  C   UNL     1     -14.081  14.884  72.203  1.00  0.00    -0.616 A  
HETATM   36  C   UNL     1     -13.925  13.512  72.379  1.00  0.00    -0.638 A  
HETATM   37  C   UNL     1     -13.017  12.810  71.588  1.00  0.00    -0.402 A  
ENDBRANCH  29  32
ENDBRANCH  26  29
ENDBRANCH   8  25
TORSDOF 7
ENDMDL
MODEL       84
REMARK 921   NORMALIZED FREE ENERGY PREDICTED BY IDOCK:   -6.24 KCAL/MOL
REMARK 922        TOTAL FREE ENERGY PREDICTED BY IDOCK:   -9.77 KCAL/MOL
REMARK 923 INTER-LIGAND FREE ENERGY PREDICTED BY IDOCK:   -8.77 KCAL/MOL
REMARK 924 INTRA-LIGAND FREE ENERGY PREDICTED BY IDOCK:   -0.99 KCAL/MOL
REMARK 927      BINDING AFFINITY PREDICTED BY RF-SCORE:    0.00 PKD
ROOT
HETATM    1  C   UNL     1      -7.627  10.444  66.653  1.00  0.00    -0.114 C  
HETATM    2  S   UNL     1      -8.585  11.234  67.964  1.00  0.00    -0.146 SA 
HETATM    3  C   UNL     1      -8.074  10.063  69.243  1.00  0.00    -0.141 C  
HETATM    4  C   UNL     1      -8.099   8.593  68.837  1.00  0.00    -0.118 C  
HETATM    5  C   UNL     1      -8.333   9.130  65.193  1.00  0.00    -0.154 C  
HETATM    6  CA  UNL     1      -8.131   8.158  67.541  1.00  0.00    -0.123 C  
HETATM    7  C   UNL     1      -8.264   6.676  67.250  1.00  0.00    -0.121 C  
HETATM    8  CA  UNL     1      -8.148  10.688  65.194  1.00  0.00    -0.065 C  
HETATM    9  N   UNL     1      -8.070   9.072  66.515  1.00  0.00    -0.110 N  
HETATM   10  O   UNL     1      -8.723   6.318  66.038  1.00  0.00    -0.144 OA 
HETATM   11  OXT UNL     1      -7.983   5.804  68.062  1.00  0.00    -0.099 OA 
HETATM   12  O   UNL     1      -8.702   8.259  64.437  1.00  0.00     0.006 OA 
ENDROOT
BRANCH   4  13
HETATM   13  C   UNL     1      -8.276   7.693  70.068  1.00  0.00    -0.125 C  
BRANCH  13  14
HETATM   14  S   UNL     1      -8.796   8.595  71.571  1.00  0.00    -0.226 SA 
BRANCH  14  15
HETATM   15  C   UNL     1     -10.511   8.359  71.466  1.00  0.00    -0.239 A  
HETATM   16  N   UNL     1     -11.413   9.310  71.577  1.00  0.00    -0.358 NA 
HETATM   17  N   UNL     1     -12.632   8.709  71.393  1.00  0.00    -0.309 NA 
HETATM   18  N   UNL     1     -11.161   7.177  71.229  1.00  0.00    -0.245 NA 
HETATM   19  N   UNL     1     -12.491   7.412  71.168  1.00  0.00    -0.330 NA 
BRANCH  18  20
HETATM   20  C   UNL     1     -10.688   5.863  70.903  1.00  0.00    -0.273 C  
HETATM   21  O   UNL     1     -10.253   3.458  71.864  1.00  0.00    -0.132 OA 
HETATM   22  O   UNL     1     -11.614   5.009  73.165  1.00  0.00    -0.328 OA 
HETATM   23  O   UNL     1      -9.169   5.421  73.028  1.00  0.00    -0.134 OA 
HETATM   24  S   UNL     1     -10.265   4.838  72.290  1.00  0.00    -0.192 S  
ENDBRANCH  18  20
ENDBRANCH  14  15
ENDBRANCH  13  14
ENDBRANCH   4  13
BRANCH   8  25
HETATM   25  N   UNL     1      -9.403  11.471  65.072  1.00  0.00    -0.387 N  
HETATM   26  C   UNL     1     -10.054  11.726  63.883  1.00  0.00    -0.368 C  
HETATM   27  H   UNL     1      -9.813  11.847  65.928  1.00  0.00     0.000 HD 
HETATM   28  O   UNL     1      -9.622  11.373  62.791  1.00  0.00    -0.357 OA 
BRANCH  26  29
HETATM   29  C   UNL     1     -11.386  12.483  64.080  1.00  0.00    -0.405 C  
HETATM   30  O   UNL     1     -11.802  13.067  62.836  1.00  0.00    -0.790 OA 
HETATM   31  H   UNL     1     -12.621  13.533  62.956  1.00  0.00     0.000 HD 
BRANCH  29  32
HETATM   32  C   UNL     1     -11.279  13.566  65.132  1.00  0.00    -0.320 A  
HETATM   33  C   UNL     1     -11.986  13.445  66.338  1.00  0.00    -0.457 A  
HETATM   34  C   UNL     1     -10.467  14.698  64.943  1.00  0.00    -0.415 A  
HETATM   35  C   UNL     1     -10.388  15.692  65.919  1.00  0.00    -0.368 A  
HETATM   36  C   UNL     1     -11.112  15.566  67.102  1.00  0.00    -0.256 A  
HETATM   37  C   UNL     1     -11.906  14.441  67.314  1.00  0.00    -0.434 A  
ENDBRANCH  29  32
ENDBRANCH  26  29
ENDBRANCH   8  25
TORSDOF 7
ENDMDL
MODEL       85
REMARK 921   NORMALIZED FREE ENERGY PREDICTED BY IDOCK:   -6.23 KCAL/MOL
REMARK 922        TOTAL FREE ENERGY PREDICTED BY IDOCK:   -9.75 KCAL/MOL
REMARK 923 INTER-LIGAND FREE ENERGY PREDICTED BY IDOCK:   -8.56 KCAL/MOL
REMARK 924 INTRA-LIGAND FREE ENERGY PREDICTED BY IDOCK:   -1.19 KCAL/MOL
REMARK 927      BINDING AFFINITY PREDICTED BY RF-SCORE:    0.00 PKD
ROOT
HETATM    1  C   UNL     1     -11.901  13.361  66.063  1.00  0.00    -0.383 C  
HETATM    2  S   UNL     1     -10.658  13.263  64.757  1.00  0.00    -0.401 SA 
HETATM    3  C   UNL     1     -10.661  11.456  64.690  1.00  0.00    -0.318 C  
HETATM    4  C   UNL     1     -10.642  10.748  66.041  1.00  0.00    -0.224 C  
HETATM    5  C   UNL     1     -11.568  13.667  68.101  1.00  0.00    -0.332 C  
HETATM    6  CA  UNL     1     -10.970  11.349  67.224  1.00  0.00    -0.282 C  
HETATM    7  C   UNL     1     -10.813  10.584  68.525  1.00  0.00    -0.234 C  
HETATM    8  CA  UNL     1     -11.869  14.668  66.930  1.00  0.00    -0.326 C  
HETATM    9  N   UNL     1     -11.412  12.651  67.227  1.00  0.00    -0.321 N  
HETATM   10  O   UNL     1     -10.716  11.298  69.659  1.00  0.00    -0.164 OA 
HETATM   11  OXT UNL     1     -10.763   9.362  68.582  1.00  0.00    -0.213 OA 
HETATM   12  O   UNL     1     -11.377  13.697  69.296  1.00  0.00    -0.260 OA 
ENDROOT
BRANCH   4  13
HETATM   13  C   UNL     1     -10.028   9.347  65.910  1.00  0.00    -0.256 C  
BRANCH  13  14
HETATM   14  S   UNL     1      -8.200   9.346  65.851  1.00  0.00    -0.118 SA 
BRANCH  14  15
HETATM   15  C   UNL     1      -7.873   8.282  67.180  1.00  0.00    -0.097 A  
HETATM   16  N   UNL     1      -7.476   8.664  68.374  1.00  0.00    -0.093 NA 
HETATM   17  N   UNL     1      -7.373   7.524  69.130  1.00  0.00    -0.084 NA 
HETATM   18  N   UNL     1      -8.003   6.919  67.187  1.00  0.00    -0.112 NA 
HETATM   19  N   UNL     1      -7.704   6.456  68.422  1.00  0.00    -0.103 NA 
BRANCH  18  20
HETATM   20  C   UNL     1      -8.518   5.992  66.221  1.00  0.00    -0.130 C  
HETATM   21  O   UNL     1     -10.650   4.650  65.485  1.00  0.00    -0.261 OA 
HETATM   22  O   UNL     1     -10.908   6.460  67.099  1.00  0.00    -0.311 OA 
HETATM   23  O   UNL     1      -9.819   4.360  67.853  1.00  0.00    -0.147 OA 
HETATM   24  S   UNL     1     -10.026   5.173  66.677  1.00  0.00    -0.236 S  
ENDBRANCH  18  20
ENDBRANCH  14  15
ENDBRANCH  13  14
ENDBRANCH   4  13
BRANCH   8  25
HETATM   25  N   UNL     1     -10.777  15.626  66.625  1.00  0.00    -0.308 N  
HETATM   26  C   UNL     1     -10.431  16.697  67.422  1.00  0.00    -0.314 C  
HETATM   27  H   UNL     1     -10.246  15.482  65.766  1.00  0.00     0.000 HD 
HETATM   28  O   UNL     1     -11.038  16.998  68.445  1.00  0.00    -0.320 OA 
BRANCH  26  29
HETATM   29  C   UNL     1      -9.194  17.460  66.898  1.00  0.00    -0.256 C  
HETATM   30  O   UNL     1      -8.663  16.791  65.743  1.00  0.00    -0.496 OA 
HETATM   31  H   UNL     1      -7.903  17.259  65.421  1.00  0.00     0.000 HD 
BRANCH  29  32
HETATM   32  C   UNL     1      -8.110  17.583  67.948  1.00  0.00    -0.230 A  
HETATM   33  C   UNL     1      -7.604  18.847  68.289  1.00  0.00    -0.317 A  
HETATM   34  C   UNL     1      -7.601  16.456  68.615  1.00  0.00    -0.197 A  
HETATM   35  C   UNL     1      -6.595  16.587  69.574  1.00  0.00    -0.217 A  
HETATM   36  C   UNL     1      -6.089  17.846  69.886  1.00  0.00    -0.166 A  
HETATM   37  C   UNL     1      -6.597  18.976  69.248  1.00  0.00    -0.333 A  
ENDBRANCH  29  32
ENDBRANCH  26  29
ENDBRANCH   8  25
TORSDOF 7
ENDMDL
MODEL       86
REMARK 921   NORMALIZED FREE ENERGY PREDICTED BY IDOCK:   -6.20 KCAL/MOL
REMARK 922        TOTAL FREE ENERGY PREDICTED BY IDOCK:   -9.71 KCAL/MOL
REMARK 923 INTER-LIGAND FREE ENERGY PREDICTED BY IDOCK:   -8.67 KCAL/MOL
REMARK 924 INTRA-LIGAND FREE ENERGY PREDICTED BY IDOCK:   -1.03 KCAL/MOL
REMARK 927      BINDING AFFINITY PREDICTED BY RF-SCORE:    0.00 PKD
ROOT
HETATM    1  C   UNL     1      -8.815   8.220  69.009  1.00  0.00    -0.143 C  
HETATM    2  S   UNL     1      -8.825   7.993  67.218  1.00  0.00    -0.132 SA 
HETATM    3  C   UNL     1      -9.146   9.735  66.853  1.00  0.00    -0.142 C  
HETATM    4  C   UNL     1     -10.222  10.398  67.707  1.00  0.00    -0.229 C  
HETATM    5  C   UNL     1     -10.372   7.815  70.340  1.00  0.00    -0.212 C  
HETATM    6  CA  UNL     1     -10.672   9.895  68.897  1.00  0.00    -0.221 C  
HETATM    7  C   UNL     1     -11.823  10.576  69.613  1.00  0.00    -0.234 C  
HETATM    8  CA  UNL     1      -9.159   6.944  69.854  1.00  0.00    -0.144 C  
HETATM    9  N   UNL     1     -10.096   8.760  69.418  1.00  0.00    -0.197 N  
HETATM   10  O   UNL     1     -12.516   9.851  70.507  1.00  0.00    -0.222 OA 
HETATM   11  OXT UNL     1     -12.147  11.739  69.408  1.00  0.00    -0.292 OA 
HETATM   12  O   UNL     1     -11.312   7.722  71.096  1.00  0.00    -0.260 OA 
ENDROOT
BRANCH   4  13
HETATM   13  C   UNL     1     -10.852  11.583  66.963  1.00  0.00    -0.273 C  
BRANCH  13  14
HETATM   14  S   UNL     1      -9.913  12.108  65.484  1.00  0.00    -0.229 SA 
BRANCH  14  15
HETATM   15  C   UNL     1     -11.119  13.086  64.714  1.00  0.00    -0.322 A  
HETATM   16  N   UNL     1     -11.690  12.814  63.560  1.00  0.00    -0.515 NA 
HETATM   17  N   UNL     1     -12.604  13.811  63.337  1.00  0.00    -0.789 NA 
HETATM   18  N   UNL     1     -11.661  14.248  65.196  1.00  0.00    -0.340 NA 
HETATM   19  N   UNL     1     -12.605  14.685  64.331  1.00  0.00    -0.646 NA 
BRANCH  18  20
HETATM   20  C   UNL     1     -11.514  14.937  66.446  1.00  0.00    -0.280 C  
HETATM   21  O   UNL     1     -10.378  16.989  67.624  1.00  0.00    -0.310 OA 
HETATM   22  O   UNL     1     -10.407  16.910  65.186  1.00  0.00    -0.631 OA 
HETATM   23  O   UNL     1      -8.898  15.351  66.395  1.00  0.00    -0.290 OA 
HETATM   24  S   UNL     1     -10.146  16.064  66.539  1.00  0.00    -0.302 S  
ENDBRANCH  18  20
ENDBRANCH  14  15
ENDBRANCH  13  14
ENDBRANCH   4  13
BRANCH   8  25
HETATM   25  N   UNL     1      -9.526   5.731  69.082  1.00  0.00    -0.126 N  
HETATM   26  C   UNL     1      -8.744   4.599  68.987  1.00  0.00    -0.085 C  
HETATM   27  H   UNL     1     -10.418   5.735  68.587  1.00  0.00     0.000 HD 
HETATM   28  O   UNL     1      -7.630   4.505  69.492  1.00  0.00    -0.054 OA 
BRANCH  26  29
HETATM   29  C   UNL     1      -9.429   3.462  68.195  1.00  0.00    -0.151 C  
HETATM   30  O   UNL     1      -9.070   2.191  68.757  1.00  0.00    -0.106 OA 
HETATM   31  H   UNL     1      -9.491   1.492  68.271  1.00  0.00     0.000 HD 
BRANCH  29  32
HETATM   32  C   UNL     1      -9.059   3.484  66.727  1.00  0.00    -0.179 A  
HETATM   33  C   UNL     1      -7.933   2.779  66.277  1.00  0.00    -0.082 A  
HETATM   34  C   UNL     1      -9.830   4.186  65.784  1.00  0.00    -0.207 A  
HETATM   35  C   UNL     1      -9.468   4.205  64.437  1.00  0.00    -0.163 A  
HETATM   36  C   UNL     1      -8.336   3.516  64.009  1.00  0.00    -0.090 A  
HETATM   37  C   UNL     1      -7.572   2.799  64.928  1.00  0.00    -0.076 A  
ENDBRANCH  29  32
ENDBRANCH  26  29
ENDBRANCH   8  25
TORSDOF 7
ENDMDL
MODEL       87
REMARK 921   NORMALIZED FREE ENERGY PREDICTED BY IDOCK:   -6.17 KCAL/MOL
REMARK 922        TOTAL FREE ENERGY PREDICTED BY IDOCK:   -9.67 KCAL/MOL
REMARK 923 INTER-LIGAND FREE ENERGY PREDICTED BY IDOCK:   -8.70 KCAL/MOL
REMARK 924 INTRA-LIGAND FREE ENERGY PREDICTED BY IDOCK:   -0.96 KCAL/MOL
REMARK 927      BINDING AFFINITY PREDICTED BY RF-SCORE:    0.00 PKD
ROOT
HETATM    1  C   UNL     1     -11.204  12.796  67.182  1.00  0.00    -0.292 C  
HETATM    2  S   UNL     1      -9.613  13.434  67.750  1.00  0.00    -0.221 SA 
HETATM    3  C   UNL     1     -10.097  15.171  67.617  1.00  0.00    -0.231 C  
HETATM    4  C   UNL     1     -10.844  15.550  66.343  1.00  0.00    -0.277 C  
HETATM    5  C   UNL     1     -11.681  12.119  65.266  1.00  0.00    -0.308 C  
HETATM    6  CA  UNL     1     -11.452  14.646  65.515  1.00  0.00    -0.341 C  
HETATM    7  C   UNL     1     -12.075  15.119  64.215  1.00  0.00    -0.261 C  
HETATM    8  CA  UNL     1     -11.169  11.364  66.544  1.00  0.00    -0.209 C  
HETATM    9  N   UNL     1     -11.468  13.314  65.856  1.00  0.00    -0.322 N  
HETATM   10  O   UNL     1     -12.263  14.206  63.247  1.00  0.00    -0.531 OA 
HETATM   11  OXT UNL     1     -12.400  16.282  64.010  1.00  0.00    -0.789 OA 
HETATM   12  O   UNL     1     -12.006  11.864  64.129  1.00  0.00    -0.353 OA 
ENDROOT
BRANCH   4  13
HETATM   13  C   UNL     1     -10.655  17.039  66.025  1.00  0.00    -0.206 C  
BRANCH  13  14
HETATM   14  S   UNL     1     -10.173  18.046  67.474  1.00  0.00    -0.385 SA 
BRANCH  14  15
HETATM   15  C   UNL     1      -8.801  18.868  66.805  1.00  0.00    -0.309 A  
HETATM   16  N   UNL     1      -8.730  19.351  65.584  1.00  0.00    -0.242 NA 
HETATM   17  N   UNL     1      -7.502  19.951  65.476  1.00  0.00    -0.368 NA 
HETATM   18  N   UNL     1      -7.625  19.152  67.447  1.00  0.00    -0.233 NA 
HETATM   19  N   UNL     1      -6.824  19.848  66.608  1.00  0.00    -0.207 NA 
BRANCH  18  20
HETATM   20  C   UNL     1      -7.201  18.984  68.807  1.00  0.00    -0.323 C  
HETATM   21  O   UNL     1      -5.646  17.585  70.394  1.00  0.00    -0.244 OA 
HETATM   22  O   UNL     1      -5.305  17.424  67.984  1.00  0.00    -0.128 OA 
HETATM   23  O   UNL     1      -7.315  16.342  68.961  1.00  0.00    -0.189 OA 
HETATM   24  S   UNL     1      -6.402  17.441  69.171  1.00  0.00    -0.244 S  
ENDBRANCH  18  20
ENDBRANCH  14  15
ENDBRANCH  13  14
ENDBRANCH   4  13
BRANCH   8  25
HETATM   25  N   UNL     1      -9.829  10.741  66.412  1.00  0.00    -0.201 N  
HETATM   26  C   UNL     1      -9.600   9.383  66.354  1.00  0.00    -0.224 C  
HETATM   27  H   UNL     1      -9.021  11.361  66.360  1.00  0.00     0.000 HD 
HETATM   28  O   UNL     1     -10.489   8.545  66.463  1.00  0.00    -0.256 OA 
BRANCH  26  29
HETATM   29  C   UNL     1      -8.112   9.035  66.119  1.00  0.00    -0.111 C  
HETATM   30  O   UNL     1      -7.605   9.791  65.009  1.00  0.00    -0.115 OA 
HETATM   31  H   UNL     1      -6.691   9.578  64.864  1.00  0.00     0.000 HD 
BRANCH  29  32
HETATM   32  C   UNL     1      -7.905   7.558  65.857  1.00  0.00    -0.107 A  
HETATM   33  C   UNL     1      -7.928   7.069  64.542  1.00  0.00    -0.104 A  
HETATM   34  C   UNL     1      -7.670   6.651  66.904  1.00  0.00    -0.106 A  
HETATM   35  C   UNL     1      -7.492   5.291  66.646  1.00  0.00    -0.087 A  
HETATM   36  C   UNL     1      -7.537   4.818  65.337  1.00  0.00    -0.081 A  
HETATM   37  C   UNL     1      -7.750   5.708  64.285  1.00  0.00    -0.098 A  
ENDBRANCH  29  32
ENDBRANCH  26  29
ENDBRANCH   8  25
TORSDOF 7
ENDMDL
MODEL       88
REMARK 921   NORMALIZED FREE ENERGY PREDICTED BY IDOCK:   -6.17 KCAL/MOL
REMARK 922        TOTAL FREE ENERGY PREDICTED BY IDOCK:   -9.66 KCAL/MOL
REMARK 923 INTER-LIGAND FREE ENERGY PREDICTED BY IDOCK:   -8.66 KCAL/MOL
REMARK 924 INTRA-LIGAND FREE ENERGY PREDICTED BY IDOCK:   -1.00 KCAL/MOL
REMARK 927      BINDING AFFINITY PREDICTED BY RF-SCORE:    0.00 PKD
ROOT
HETATM    1  C   UNL     1     -11.487  11.792  66.489  1.00  0.00    -0.255 C  
HETATM    2  S   UNL     1      -9.989  11.878  65.485  1.00  0.00    -0.238 SA 
HETATM    3  C   UNL     1      -9.846  10.087  65.284  1.00  0.00    -0.318 C  
HETATM    4  C   UNL     1     -10.066   9.263  66.549  1.00  0.00    -0.343 C  
HETATM    5  C   UNL     1     -11.623  11.933  68.567  1.00  0.00    -0.318 C  
HETATM    6  CA  UNL     1     -10.683   9.739  67.673  1.00  0.00    -0.274 C  
HETATM    7  C   UNL     1     -10.754   8.870  68.915  1.00  0.00    -0.106 C  
HETATM    8  CA  UNL     1     -11.737  13.016  67.436  1.00  0.00    -0.374 C  
HETATM    9  N   UNL     1     -11.209  11.009  67.675  1.00  0.00    -0.301 N  
HETATM   10  O   UNL     1     -10.955   9.485  70.094  1.00  0.00    -0.236 OA 
HETATM   11  OXT UNL     1     -10.628   7.653  68.891  1.00  0.00    -0.211 OA 
HETATM   12  O   UNL     1     -11.696  11.868  69.773  1.00  0.00    -0.308 OA 
ENDROOT
BRANCH   4  13
HETATM   13  C   UNL     1      -9.338   7.916  66.453  1.00  0.00    -0.189 C  
BRANCH  13  14
HETATM   14  S   UNL     1      -7.555   8.011  66.848  1.00  0.00    -0.096 SA 
BRANCH  14  15
HETATM   15  C   UNL     1      -7.432   6.662  67.931  1.00  0.00    -0.098 A  
HETATM   16  N   UNL     1      -7.271   6.751  69.234  1.00  0.00    -0.087 NA 
HETATM   17  N   UNL     1      -7.263   5.465  69.710  1.00  0.00    -0.062 NA 
HETATM   18  N   UNL     1      -7.508   5.336  67.598  1.00  0.00    -0.082 NA 
HETATM   19  N   UNL     1      -7.418   4.594  68.726  1.00  0.00    -0.064 NA 
BRANCH  18  20
HETATM   20  C   UNL     1      -7.803   4.665  66.366  1.00  0.00    -0.099 C  
HETATM   21  O   UNL     1      -9.703   3.496  64.981  1.00  0.00    -0.166 OA 
HETATM   22  O   UNL     1     -10.327   4.845  66.915  1.00  0.00    -0.224 OA 
HETATM   23  O   UNL     1      -9.237   2.650  67.316  1.00  0.00    -0.168 OA 
HETATM   24  S   UNL     1      -9.308   3.723  66.352  1.00  0.00    -0.182 S  
ENDBRANCH  18  20
ENDBRANCH  14  15
ENDBRANCH  13  14
ENDBRANCH   4  13
BRANCH   8  25
HETATM   25  N   UNL     1     -10.678  14.056  67.452  1.00  0.00    -0.281 N  
HETATM   26  C   UNL     1     -10.799  15.287  68.061  1.00  0.00    -0.288 C  
HETATM   27  H   UNL     1      -9.799  13.845  66.979  1.00  0.00     0.000 HD 
HETATM   28  O   UNL     1     -11.828  15.669  68.609  1.00  0.00    -0.372 OA 
BRANCH  26  29
HETATM   29  C   UNL     1      -9.499  16.119  67.995  1.00  0.00    -0.211 C  
HETATM   30  O   UNL     1      -8.880  16.160  69.290  1.00  0.00    -0.247 OA 
HETATM   31  H   UNL     1      -8.081  16.672  69.250  1.00  0.00     0.000 HD 
BRANCH  29  32
HETATM   32  C   UNL     1      -9.748  17.533  67.512  1.00  0.00    -0.278 A  
HETATM   33  C   UNL     1     -10.432  17.752  66.307  1.00  0.00    -0.307 A  
HETATM   34  C   UNL     1      -9.325  18.649  68.254  1.00  0.00    -0.359 A  
HETATM   35  C   UNL     1      -9.554  19.944  67.789  1.00  0.00    -0.496 A  
HETATM   36  C   UNL     1     -10.216  20.145  66.581  1.00  0.00    -0.556 A  
HETATM   37  C   UNL     1     -10.659  19.049  65.843  1.00  0.00    -0.466 A  
ENDBRANCH  29  32
ENDBRANCH  26  29
ENDBRANCH   8  25
TORSDOF 7
ENDMDL
MODEL       89
REMARK 921   NORMALIZED FREE ENERGY PREDICTED BY IDOCK:   -6.16 KCAL/MOL
REMARK 922        TOTAL FREE ENERGY PREDICTED BY IDOCK:   -9.65 KCAL/MOL
REMARK 923 INTER-LIGAND FREE ENERGY PREDICTED BY IDOCK:   -7.96 KCAL/MOL
REMARK 924 INTRA-LIGAND FREE ENERGY PREDICTED BY IDOCK:   -1.69 KCAL/MOL
REMARK 927      BINDING AFFINITY PREDICTED BY RF-SCORE:    0.00 PKD
ROOT
HETATM    1  C   UNL     1     -10.706   6.646  71.814  1.00  0.00    -0.227 C  
HETATM    2  S   UNL     1     -11.363   6.386  70.153  1.00  0.00    -0.415 SA 
HETATM    3  C   UNL     1     -10.274   4.990  69.784  1.00  0.00    -0.266 C  
HETATM    4  C   UNL     1      -8.813   5.172  70.183  1.00  0.00    -0.139 C  
HETATM    5  C   UNL     1      -9.305   8.076  72.408  1.00  0.00    -0.208 C  
HETATM    6  CA  UNL     1      -8.375   6.113  71.074  1.00  0.00    -0.124 C  
HETATM    7  C   UNL     1      -6.887   6.281  71.318  1.00  0.00    -0.067 C  
HETATM    8  CA  UNL     1     -10.875   8.096  72.389  1.00  0.00    -0.339 C  
HETATM    9  N   UNL     1      -9.286   6.917  71.718  1.00  0.00    -0.146 N  
HETATM   10  O   UNL     1      -6.469   7.451  71.831  1.00  0.00    -0.043 OA 
HETATM   11  OXT UNL     1      -6.063   5.411  71.064  1.00  0.00    -0.026 OA 
HETATM   12  O   UNL     1      -8.391   8.801  72.730  1.00  0.00    -0.412 OA 
ENDROOT
BRANCH   4  13
HETATM   13  C   UNL     1      -7.900   4.295  69.316  1.00  0.00    -0.057 C  
BRANCH  13  14
HETATM   14  S   UNL     1      -7.920   4.740  67.542  1.00  0.00    -0.094 SA 
BRANCH  14  15
HETATM   15  C   UNL     1      -7.136   6.284  67.627  1.00  0.00    -0.081 A  
HETATM   16  N   UNL     1      -5.846   6.468  67.811  1.00  0.00    -0.016 NA 
HETATM   17  N   UNL     1      -5.640   7.823  67.775  1.00  0.00    -0.035 NA 
HETATM   18  N   UNL     1      -7.728   7.511  67.490  1.00  0.00    -0.115 NA 
HETATM   19  N   UNL     1      -6.777   8.470  67.567  1.00  0.00    -0.062 NA 
BRANCH  18  20
HETATM   20  C   UNL     1      -9.064   7.907  67.147  1.00  0.00    -0.137 C  
HETATM   21  O   UNL     1     -10.719   9.942  67.039  1.00  0.00    -0.231 OA 
HETATM   22  O   UNL     1      -8.339  10.385  67.340  1.00  0.00    -0.120 OA 
HETATM   23  O   UNL     1      -9.606   9.427  69.248  1.00  0.00    -0.161 OA 
HETATM   24  S   UNL     1      -9.589   9.471  67.805  1.00  0.00    -0.135 S  
ENDBRANCH  18  20
ENDBRANCH  14  15
ENDBRANCH  13  14
ENDBRANCH   4  13
BRANCH   8  25
HETATM   25  N   UNL     1     -11.481   9.094  71.472  1.00  0.00    -0.339 N  
HETATM   26  C   UNL     1     -12.759   9.596  71.597  1.00  0.00    -0.407 C  
HETATM   27  H   UNL     1     -10.912   9.431  70.695  1.00  0.00     0.000 HD 
HETATM   28  O   UNL     1     -13.549   9.220  72.457  1.00  0.00    -0.467 OA 
BRANCH  26  29
HETATM   29  C   UNL     1     -13.078  10.691  70.553  1.00  0.00    -0.110 C  
HETATM   30  O   UNL     1     -12.242  10.520  69.399  1.00  0.00    -0.529 OA 
HETATM   31  H   UNL     1     -12.437  11.193  68.757  1.00  0.00     0.000 HD 
BRANCH  29  32
HETATM   32  C   UNL     1     -12.886  12.085  71.111  1.00  0.00    -0.331 A  
HETATM   33  C   UNL     1     -12.101  13.017  70.415  1.00  0.00    -0.391 A  
HETATM   34  C   UNL     1     -13.493  12.486  72.313  1.00  0.00    -0.490 A  
HETATM   35  C   UNL     1     -13.297  13.773  72.818  1.00  0.00    -0.519 A  
HETATM   36  C   UNL     1     -12.499  14.680  72.126  1.00  0.00    -0.394 A  
HETATM   37  C   UNL     1     -11.906  14.304  70.922  1.00  0.00    -0.322 A  
ENDBRANCH  29  32
ENDBRANCH  26  29
ENDBRANCH   8  25
TORSDOF 7
ENDMDL
MODEL       90
REMARK 921   NORMALIZED FREE ENERGY PREDICTED BY IDOCK:   -6.14 KCAL/MOL
REMARK 922        TOTAL FREE ENERGY PREDICTED BY IDOCK:   -9.62 KCAL/MOL
REMARK 923 INTER-LIGAND FREE ENERGY PREDICTED BY IDOCK:   -8.46 KCAL/MOL
REMARK 924 INTRA-LIGAND FREE ENERGY PREDICTED BY IDOCK:   -1.16 KCAL/MOL
REMARK 927      BINDING AFFINITY PREDICTED BY RF-SCORE:    0.00 PKD
ROOT
HETATM    1  C   UNL     1      -8.116   8.182  68.454  1.00  0.00    -0.128 C  
HETATM    2  S   UNL     1      -9.840   7.989  67.954  1.00  0.00    -0.176 SA 
HETATM    3  C   UNL     1      -9.705   9.105  66.538  1.00  0.00    -0.241 C  
HETATM    4  C   UNL     1      -8.957  10.409  66.795  1.00  0.00    -0.153 C  
HETATM    5  C   UNL     1      -7.373   9.405  69.975  1.00  0.00    -0.101 C  
HETATM    6  CA  UNL     1      -8.121  10.613  67.858  1.00  0.00    -0.111 C  
HETATM    7  C   UNL     1      -7.511  11.984  68.081  1.00  0.00    -0.112 C  
HETATM    8  CA  UNL     1      -7.815   7.898  69.967  1.00  0.00    -0.105 C  
HETATM    9  N   UNL     1      -7.864   9.581  68.731  1.00  0.00    -0.083 N  
HETATM   10  O   UNL     1      -7.073  12.277  69.318  1.00  0.00    -0.052 OA 
HETATM   11  OXT UNL     1      -7.411  12.826  67.198  1.00  0.00    -0.126 OA 
HETATM   12  O   UNL     1      -6.920  10.215  70.751  1.00  0.00    -0.329 OA 
ENDROOT
BRANCH   4  13
HETATM   13  C   UNL     1      -9.417  11.501  65.820  1.00  0.00    -0.234 C  
BRANCH  13  14
HETATM   14  S   UNL     1     -11.232  11.717  65.759  1.00  0.00    -0.169 SA 
BRANCH  14  15
HETATM   15  C   UNL     1     -11.434  12.809  67.090  1.00  0.00    -0.337 A  
HETATM   16  N   UNL     1     -11.181  12.521  68.349  1.00  0.00    -0.251 NA 
HETATM   17  N   UNL     1     -11.433  13.664  69.064  1.00  0.00    -0.280 NA 
HETATM   18  N   UNL     1     -11.852  14.111  67.024  1.00  0.00    -0.410 NA 
HETATM   19  N   UNL     1     -11.830  14.643  68.268  1.00  0.00    -0.318 NA 
BRANCH  18  20
HETATM   20  C   UNL     1     -12.135  14.980  65.919  1.00  0.00     0.142 C  
HETATM   21  O   UNL     1     -11.056  16.590  64.147  1.00  0.00    -0.903 OA 
HETATM   22  O   UNL     1      -9.599  15.094  65.408  1.00  0.00    -0.270 OA 
HETATM   23  O   UNL     1     -10.601  17.032  66.593  1.00  0.00    -0.279 OA 
HETATM   24  S   UNL     1     -10.843  16.123  65.497  1.00  0.00    -0.215 S  
ENDBRANCH  18  20
ENDBRANCH  14  15
ENDBRANCH  13  14
ENDBRANCH   4  13
BRANCH   8  25
HETATM   25  N   UNL     1      -8.991   7.584  70.818  1.00  0.00    -0.149 N  
HETATM   26  C   UNL     1      -9.043   7.780  72.182  1.00  0.00    -0.144 C  
HETATM   27  H   UNL     1      -9.816   7.197  70.362  1.00  0.00     0.000 HD 
HETATM   28  O   UNL     1      -8.092   8.185  72.841  1.00  0.00    -0.147 OA 
BRANCH  26  29
HETATM   29  C   UNL     1     -10.430   7.451  72.781  1.00  0.00    -0.275 C  
HETATM   30  O   UNL     1     -10.802   6.108  72.440  1.00  0.00    -0.220 OA 
HETATM   31  H   UNL     1     -11.654   5.906  72.808  1.00  0.00     0.000 HD 
BRANCH  29  32
HETATM   32  C   UNL     1     -11.501   8.407  72.301  1.00  0.00    -0.454 A  
HETATM   33  C   UNL     1     -11.155   9.501  71.493  1.00  0.00    -0.406 A  
HETATM   34  C   UNL     1     -12.854   8.221  72.630  1.00  0.00    -0.104 A  
HETATM   35  C   UNL     1     -13.828   9.118  72.188  1.00  0.00    -0.508 A  
HETATM   36  C   UNL     1     -13.465  10.209  71.403  1.00  0.00    -0.325 A  
HETATM   37  C   UNL     1     -12.130  10.397  71.051  1.00  0.00    -0.488 A  
ENDBRANCH  29  32
ENDBRANCH  26  29
ENDBRANCH   8  25
TORSDOF 7
ENDMDL
MODEL       91
REMARK 921   NORMALIZED FREE ENERGY PREDICTED BY IDOCK:   -6.14 KCAL/MOL
REMARK 922        TOTAL FREE ENERGY PREDICTED BY IDOCK:   -9.62 KCAL/MOL
REMARK 923 INTER-LIGAND FREE ENERGY PREDICTED BY IDOCK:   -9.31 KCAL/MOL
REMARK 924 INTRA-LIGAND FREE ENERGY PREDICTED BY IDOCK:   -0.31 KCAL/MOL
REMARK 927      BINDING AFFINITY PREDICTED BY RF-SCORE:    0.00 PKD
ROOT
HETATM    1  C   UNL     1     -10.421   6.392  71.635  1.00  0.00    -0.217 C  
HETATM    2  S   UNL     1     -11.561   6.493  70.239  1.00  0.00    -0.351 SA 
HETATM    3  C   UNL     1     -10.386   5.814  69.044  1.00  0.00    -0.245 C  
HETATM    4  C   UNL     1      -8.969   6.373  69.124  1.00  0.00    -0.129 C  
HETATM    5  C   UNL     1      -9.285   7.942  72.451  1.00  0.00    -0.181 C  
HETATM    6  CA  UNL     1      -8.472   7.044  70.207  1.00  0.00    -0.138 C  
HETATM    7  C   UNL     1      -7.084   7.654  70.141  1.00  0.00    -0.059 C  
HETATM    8  CA  UNL     1     -10.707   7.387  72.814  1.00  0.00    -0.314 C  
HETATM    9  N   UNL     1      -9.245   7.183  71.336  1.00  0.00    -0.150 N  
HETATM   10  O   UNL     1      -6.798   8.644  71.003  1.00  0.00    -0.052 OA 
HETATM   11  OXT UNL     1      -6.230   7.293  69.341  1.00  0.00    -0.030 OA 
HETATM   12  O   UNL     1      -8.517   8.795  72.834  1.00  0.00    -0.409 OA 
ENDROOT
BRANCH   4  13
HETATM   13  C   UNL     1      -8.259   6.249  67.769  1.00  0.00    -0.118 C  
BRANCH  13  14
HETATM   14  S   UNL     1      -9.157   7.047  66.390  1.00  0.00    -0.143 SA 
BRANCH  14  15
HETATM   15  C   UNL     1      -8.151   8.439  66.163  1.00  0.00    -0.106 A  
HETATM   16  N   UNL     1      -6.835   8.432  66.178  1.00  0.00    -0.064 NA 
HETATM   17  N   UNL     1      -6.439   9.719  65.921  1.00  0.00    -0.078 NA 
HETATM   18  N   UNL     1      -8.569   9.719  65.912  1.00  0.00    -0.134 NA 
HETATM   19  N   UNL     1      -7.485  10.511  65.745  1.00  0.00    -0.147 NA 
BRANCH  18  20
HETATM   20  C   UNL     1      -9.865  10.281  65.661  1.00  0.00    -0.268 C  
HETATM   21  O   UNL     1     -11.828  11.662  66.724  1.00  0.00    -0.557 OA 
HETATM   22  O   UNL     1      -9.680  11.605  67.878  1.00  0.00    -0.170 OA 
HETATM   23  O   UNL     1     -11.081   9.555  67.900  1.00  0.00    -0.179 OA 
HETATM   24  S   UNL     1     -10.796  10.727  67.106  1.00  0.00    -0.256 S  
ENDBRANCH  18  20
ENDBRANCH  14  15
ENDBRANCH  13  14
ENDBRANCH   4  13
BRANCH   8  25
HETATM   25  N   UNL     1     -11.826   8.340  72.607  1.00  0.00    -0.480 N  
HETATM   26  C   UNL     1     -11.776   9.434  71.769  1.00  0.00    -0.374 C  
HETATM   27  H   UNL     1     -12.692   8.173  73.119  1.00  0.00     0.000 HD 
HETATM   28  O   UNL     1     -10.770   9.762  71.149  1.00  0.00    -0.324 OA 
BRANCH  26  29
HETATM   29  C   UNL     1     -13.124  10.186  71.684  1.00  0.00    -0.447 C  
HETATM   30  O   UNL     1     -13.908   9.658  70.603  1.00  0.00    -0.537 OA 
HETATM   31  H   UNL     1     -14.737  10.120  70.551  1.00  0.00     0.000 HD 
BRANCH  29  32
HETATM   32  C   UNL     1     -12.937  11.675  71.488  1.00  0.00    -0.463 A  
HETATM   33  C   UNL     1     -13.463  12.578  72.424  1.00  0.00    -0.372 A  
HETATM   34  C   UNL     1     -12.227  12.189  70.389  1.00  0.00    -0.378 A  
HETATM   35  C   UNL     1     -12.073  13.565  70.218  1.00  0.00    -0.425 A  
HETATM   36  C   UNL     1     -12.618  14.449  71.145  1.00  0.00    -0.422 A  
HETATM   37  C   UNL     1     -13.308  13.955  72.251  1.00  0.00    -0.599 A  
ENDBRANCH  29  32
ENDBRANCH  26  29
ENDBRANCH   8  25
TORSDOF 7
ENDMDL
MODEL       92
REMARK 921   NORMALIZED FREE ENERGY PREDICTED BY IDOCK:   -6.11 KCAL/MOL
REMARK 922        TOTAL FREE ENERGY PREDICTED BY IDOCK:   -9.58 KCAL/MOL
REMARK 923 INTER-LIGAND FREE ENERGY PREDICTED BY IDOCK:   -8.27 KCAL/MOL
REMARK 924 INTRA-LIGAND FREE ENERGY PREDICTED BY IDOCK:   -1.31 KCAL/MOL
REMARK 927      BINDING AFFINITY PREDICTED BY RF-SCORE:    0.00 PKD
ROOT
HETATM    1  C   UNL     1      -8.068   9.809  68.570  1.00  0.00    -0.104 C  
HETATM    2  S   UNL     1      -7.566   9.720  70.302  1.00  0.00    -0.149 SA 
HETATM    3  C   UNL     1      -6.415   8.348  70.048  1.00  0.00    -0.038 C  
HETATM    4  C   UNL     1      -6.931   7.209  69.174  1.00  0.00    -0.074 C  
HETATM    5  C   UNL     1      -9.800   9.016  67.715  1.00  0.00    -0.168 C  
HETATM    6  CA  UNL     1      -7.999   7.319  68.328  1.00  0.00    -0.124 C  
HETATM    7  C   UNL     1      -8.497   6.093  67.585  1.00  0.00    -0.108 C  
HETATM    8  CA  UNL     1      -9.481  10.435  68.307  1.00  0.00    -0.148 C  
HETATM    9  N   UNL     1      -8.629   8.532  68.180  1.00  0.00    -0.137 N  
HETATM   10  O   UNL     1      -9.760   6.114  67.126  1.00  0.00    -0.124 OA 
HETATM   11  OXT UNL     1      -7.810   5.097  67.397  1.00  0.00    -0.095 OA 
HETATM   12  O   UNL     1     -10.723   8.438  67.188  1.00  0.00    -0.291 OA 
ENDROOT
BRANCH   4  13
HETATM   13  C   UNL     1      -6.216   5.896  69.518  1.00  0.00    -0.030 C  
BRANCH  13  14
HETATM   14  S   UNL     1      -7.120   4.858  70.722  1.00  0.00    -0.050 SA 
BRANCH  14  15
HETATM   15  C   UNL     1      -7.192   5.965  72.054  1.00  0.00    -0.092 A  
HETATM   16  N   UNL     1      -6.182   6.268  72.841  1.00  0.00    -0.053 NA 
HETATM   17  N   UNL     1      -6.652   7.201  73.730  1.00  0.00    -0.066 NA 
HETATM   18  N   UNL     1      -8.282   6.690  72.457  1.00  0.00    -0.106 NA 
HETATM   19  N   UNL     1      -7.926   7.476  73.499  1.00  0.00    -0.115 NA 
BRANCH  18  20
HETATM   20  C   UNL     1      -9.592   6.857  71.898  1.00  0.00    -0.154 C  
HETATM   21  O   UNL     1     -12.116   6.180  72.150  1.00  0.00    -0.327 OA 
HETATM   22  O   UNL     1     -10.593   5.730  74.002  1.00  0.00    -0.271 OA 
HETATM   23  O   UNL     1     -10.401   4.335  71.957  1.00  0.00    -0.174 OA 
HETATM   24  S   UNL     1     -10.795   5.651  72.400  1.00  0.00    -0.260 S  
ENDBRANCH  18  20
ENDBRANCH  14  15
ENDBRANCH  13  14
ENDBRANCH   4  13
BRANCH   8  25
HETATM   25  N   UNL     1     -10.265  10.805  69.512  1.00  0.00    -0.402 N  
HETATM   26  C   UNL     1     -11.610  11.108  69.507  1.00  0.00    -0.321 C  
HETATM   27  H   UNL     1      -9.774  10.836  70.405  1.00  0.00     0.000 HD 
HETATM   28  O   UNL     1     -12.286  11.157  68.484  1.00  0.00    -0.600 OA 
BRANCH  26  29
HETATM   29  C   UNL     1     -12.173  11.359  70.925  1.00  0.00    -0.344 C  
HETATM   30  O   UNL     1     -13.299  10.502  71.161  1.00  0.00    -0.317 OA 
HETATM   31  H   UNL     1     -13.645  10.656  72.032  1.00  0.00     0.000 HD 
BRANCH  29  32
HETATM   32  C   UNL     1     -12.589  12.801  71.127  1.00  0.00    -0.365 A  
HETATM   33  C   UNL     1     -13.546  13.125  72.100  1.00  0.00    -0.637 A  
HETATM   34  C   UNL     1     -12.024  13.843  70.371  1.00  0.00    -0.393 A  
HETATM   35  C   UNL     1     -12.427  15.165  70.564  1.00  0.00    -0.429 A  
HETATM   36  C   UNL     1     -13.393  15.468  71.519  1.00  0.00    -0.593 A  
HETATM   37  C   UNL     1     -13.948  14.449  72.291  1.00  0.00    -0.610 A  
ENDBRANCH  29  32
ENDBRANCH  26  29
ENDBRANCH   8  25
TORSDOF 7
ENDMDL
MODEL       93
REMARK 921   NORMALIZED FREE ENERGY PREDICTED BY IDOCK:   -6.10 KCAL/MOL
REMARK 922        TOTAL FREE ENERGY PREDICTED BY IDOCK:   -9.57 KCAL/MOL
REMARK 923 INTER-LIGAND FREE ENERGY PREDICTED BY IDOCK:   -8.44 KCAL/MOL
REMARK 924 INTRA-LIGAND FREE ENERGY PREDICTED BY IDOCK:   -1.13 KCAL/MOL
REMARK 927      BINDING AFFINITY PREDICTED BY RF-SCORE:    0.00 PKD
ROOT
HETATM    1  C   UNL     1      -9.228  12.135  68.343  1.00  0.00    -0.154 C  
HETATM    2  S   UNL     1     -10.799  11.996  67.464  1.00  0.00    -0.255 SA 
HETATM    3  C   UNL     1     -10.763  10.190  67.388  1.00  0.00    -0.277 C  
HETATM    4  C   UNL     1      -9.424   9.575  66.993  1.00  0.00    -0.197 C  
HETATM    5  C   UNL     1      -7.361  12.590  67.525  1.00  0.00    -0.151 C  
HETATM    6  CA  UNL     1      -8.231  10.242  67.044  1.00  0.00    -0.122 C  
HETATM    7  C   UNL     1      -6.973   9.572  66.525  1.00  0.00    -0.085 C  
HETATM    8  CA  UNL     1      -8.472  13.498  68.164  1.00  0.00    -0.172 C  
HETATM    9  N   UNL     1      -8.189  11.524  67.541  1.00  0.00    -0.135 N  
HETATM   10  O   UNL     1      -5.942  10.364  66.184  1.00  0.00    -0.071 OA 
HETATM   11  OXT UNL     1      -6.862   8.359  66.397  1.00  0.00    -0.068 OA 
HETATM   12  O   UNL     1      -6.258  12.707  67.042  1.00  0.00    -0.250 OA 
ENDROOT
BRANCH   4  13
HETATM   13  C   UNL     1      -9.628   8.193  66.358  1.00  0.00    -0.216 C  
BRANCH  13  14
HETATM   14  S   UNL     1     -10.846   7.150  67.239  1.00  0.00    -0.272 SA 
BRANCH  14  15
HETATM   15  C   UNL     1      -9.947   6.821  68.684  1.00  0.00    -0.146 A  
HETATM   16  N   UNL     1      -8.641   6.670  68.745  1.00  0.00    -0.122 NA 
HETATM   17  N   UNL     1      -8.337   6.467  70.066  1.00  0.00    -0.132 NA 
HETATM   18  N   UNL     1     -10.451   6.701  69.951  1.00  0.00    -0.199 NA 
HETATM   19  N   UNL     1      -9.429   6.496  70.814  1.00  0.00    -0.171 NA 
BRANCH  18  20
HETATM   20  C   UNL     1     -11.765   6.899  70.492  1.00  0.00    -0.350 C  
HETATM   21  O   UNL     1     -13.332   8.624  71.700  1.00  0.00    -0.338 OA 
HETATM   22  O   UNL     1     -11.260   9.430  70.696  1.00  0.00    -0.249 OA 
HETATM   23  O   UNL     1     -11.111   8.076  72.773  1.00  0.00    -0.373 OA 
HETATM   24  S   UNL     1     -11.934   8.273  71.603  1.00  0.00    -0.321 S  
ENDBRANCH  18  20
ENDBRANCH  14  15
ENDBRANCH  13  14
ENDBRANCH   4  13
BRANCH   8  25
HETATM   25  N   UNL     1      -9.097  14.473  67.236  1.00  0.00    -0.199 N  
HETATM   26  C   UNL     1     -10.003  15.442  67.613  1.00  0.00    -0.225 C  
HETATM   27  H   UNL     1      -8.838  14.423  66.250  1.00  0.00     0.000 HD 
HETATM   28  O   UNL     1     -10.428  15.556  68.758  1.00  0.00    -0.222 OA 
BRANCH  26  29
HETATM   29  C   UNL     1     -10.406  16.372  66.447  1.00  0.00    -0.313 C  
HETATM   30  O   UNL     1      -9.906  15.845  65.209  1.00  0.00    -0.408 OA 
HETATM   31  H   UNL     1     -10.154  16.417  64.491  1.00  0.00     0.000 HD 
BRANCH  29  32
HETATM   32  C   UNL     1      -9.892  17.783  66.637  1.00  0.00    -0.322 A  
HETATM   33  C   UNL     1     -10.784  18.819  66.953  1.00  0.00    -0.406 A  
HETATM   34  C   UNL     1      -8.525  18.090  66.520  1.00  0.00    -0.285 A  
HETATM   35  C   UNL     1      -8.069  19.398  66.688  1.00  0.00    -0.310 A  
HETATM   36  C   UNL     1      -8.970  20.418  66.982  1.00  0.00    -0.423 A  
HETATM   37  C   UNL     1     -10.326  20.127  67.120  1.00  0.00    -0.501 A  
ENDBRANCH  29  32
ENDBRANCH  26  29
ENDBRANCH   8  25
TORSDOF 7
ENDMDL
MODEL       94
REMARK 921   NORMALIZED FREE ENERGY PREDICTED BY IDOCK:   -6.09 KCAL/MOL
REMARK 922        TOTAL FREE ENERGY PREDICTED BY IDOCK:   -9.56 KCAL/MOL
REMARK 923 INTER-LIGAND FREE ENERGY PREDICTED BY IDOCK:   -8.78 KCAL/MOL
REMARK 924 INTRA-LIGAND FREE ENERGY PREDICTED BY IDOCK:   -0.77 KCAL/MOL
REMARK 927      BINDING AFFINITY PREDICTED BY RF-SCORE:    0.00 PKD
ROOT
HETATM    1  C   UNL     1      -9.701   8.100  70.057  1.00  0.00    -0.172 C  
HETATM    2  S   UNL     1      -9.812   8.764  68.382  1.00  0.00    -0.177 SA 
HETATM    3  C   UNL     1     -10.343  10.409  68.915  1.00  0.00    -0.209 C  
HETATM    4  C   UNL     1     -11.420  10.436  69.994  1.00  0.00    -0.382 C  
HETATM    5  C   UNL     1     -11.108   6.909  71.038  1.00  0.00    -0.266 C  
HETATM    6  CA  UNL     1     -11.729   9.369  70.792  1.00  0.00    -0.282 C  
HETATM    7  C   UNL     1     -12.892   9.468  71.761  1.00  0.00    -0.406 C  
HETATM    8  CA  UNL     1      -9.847   6.542  70.177  1.00  0.00    -0.166 C  
HETATM    9  N   UNL     1     -11.000   8.208  70.690  1.00  0.00    -0.241 N  
HETATM   10  O   UNL     1     -13.440   8.320  72.196  1.00  0.00    -0.319 OA 
HETATM   11  OXT UNL     1     -13.352  10.534  72.151  1.00  0.00    -0.437 OA 
HETATM   12  O   UNL     1     -11.977   6.344  71.662  1.00  0.00    -0.323 OA 
ENDROOT
BRANCH   4  13
HETATM   13  C   UNL     1     -12.224  11.741  69.927  1.00  0.00    -0.223 C  
BRANCH  13  14
HETATM   14  S   UNL     1     -11.433  13.042  68.913  1.00  0.00    -0.318 SA 
BRANCH  14  15
HETATM   15  C   UNL     1     -11.764  14.421  69.910  1.00  0.00    -0.303 A  
HETATM   16  N   UNL     1     -12.855  14.592  70.625  1.00  0.00    -0.351 NA 
HETATM   17  N   UNL     1     -12.699  15.782  71.289  1.00  0.00    -0.470 NA 
HETATM   18  N   UNL     1     -10.944  15.498  70.116  1.00  0.00    -0.295 NA 
HETATM   19  N   UNL     1     -11.534  16.337  70.997  1.00  0.00    -0.380 NA 
BRANCH  18  20
HETATM   20  C   UNL     1      -9.599  15.781  69.705  1.00  0.00    -0.233 C  
HETATM   21  O   UNL     1      -8.114  17.359  68.223  1.00  0.00    -0.230 OA 
HETATM   22  O   UNL     1     -10.423  18.007  68.670  1.00  0.00    -0.339 OA 
HETATM   23  O   UNL     1     -10.014  16.119  67.110  1.00  0.00    -0.242 OA 
HETATM   24  S   UNL     1      -9.442  16.791  68.253  1.00  0.00    -0.248 S  
ENDBRANCH  18  20
ENDBRANCH  14  15
ENDBRANCH  13  14
ENDBRANCH   4  13
BRANCH   8  25
HETATM   25  N   UNL     1     -10.136   5.816  68.916  1.00  0.00    -0.170 N  
HETATM   26  C   UNL     1      -9.259   4.953  68.292  1.00  0.00    -0.123 C  
HETATM   27  H   UNL     1     -11.046   5.965  68.480  1.00  0.00     0.000 HD 
HETATM   28  O   UNL     1      -8.120   4.743  68.695  1.00  0.00    -0.083 OA 
BRANCH  26  29
HETATM   29  C   UNL     1      -9.873   4.270  67.049  1.00  0.00    -0.179 C  
HETATM   30  O   UNL     1      -9.707   2.847  67.143  1.00  0.00    -0.399 OA 
HETATM   31  H   UNL     1     -10.084   2.427  66.379  1.00  0.00     0.000 HD 
BRANCH  29  32
HETATM   32  C   UNL     1      -9.251   4.764  65.760  1.00  0.00    -0.149 A  
HETATM   33  C   UNL     1      -9.451   4.053  64.567  1.00  0.00    -0.167 A  
HETATM   34  C   UNL     1      -8.483   5.940  65.717  1.00  0.00    -0.148 A  
HETATM   35  C   UNL     1      -7.908   6.376  64.522  1.00  0.00    -0.115 A  
HETATM   36  C   UNL     1      -8.099   5.648  63.351  1.00  0.00    -0.105 A  
HETATM   37  C   UNL     1      -8.874   4.490  63.372  1.00  0.00    -0.132 A  
ENDBRANCH  29  32
ENDBRANCH  26  29
ENDBRANCH   8  25
TORSDOF 7
ENDMDL
MODEL       95
REMARK 921   NORMALIZED FREE ENERGY PREDICTED BY IDOCK:   -6.09 KCAL/MOL
REMARK 922        TOTAL FREE ENERGY PREDICTED BY IDOCK:   -9.55 KCAL/MOL
REMARK 923 INTER-LIGAND FREE ENERGY PREDICTED BY IDOCK:   -8.60 KCAL/MOL
REMARK 924 INTRA-LIGAND FREE ENERGY PREDICTED BY IDOCK:   -0.95 KCAL/MOL
REMARK 927      BINDING AFFINITY PREDICTED BY RF-SCORE:    0.00 PKD
ROOT
HETATM    1  C   UNL     1     -10.163   7.095  71.637  1.00  0.00    -0.193 C  
HETATM    2  S   UNL     1     -11.303   6.604  70.326  1.00  0.00    -0.390 SA 
HETATM    3  C   UNL     1     -10.359   5.134  69.857  1.00  0.00    -0.277 C  
HETATM    4  C   UNL     1      -8.850   5.328  69.747  1.00  0.00    -0.123 C  
HETATM    5  C   UNL     1      -8.673   8.554  71.533  1.00  0.00    -0.189 C  
HETATM    6  CA  UNL     1      -8.173   6.380  70.298  1.00  0.00    -0.125 C  
HETATM    7  C   UNL     1      -6.686   6.536  70.037  1.00  0.00    -0.049 C  
HETATM    8  CA  UNL     1     -10.170   8.620  72.003  1.00  0.00    -0.337 C  
HETATM    9  N   UNL     1      -8.850   7.302  71.061  1.00  0.00    -0.143 N  
HETATM   10  O   UNL     1      -6.149   7.757  70.204  1.00  0.00    -0.029 OA 
HETATM   11  OXT UNL     1      -5.968   5.612  69.676  1.00  0.00    -0.019 OA 
HETATM   12  O   UNL     1      -7.717   9.289  71.438  1.00  0.00    -0.334 OA 
ENDROOT
BRANCH   4  13
HETATM   13  C   UNL     1      -8.240   4.301  68.785  1.00  0.00    -0.079 C  
BRANCH  13  14
HETATM   14  S   UNL     1      -9.332   3.862  67.385  1.00  0.00    -0.198 SA 
BRANCH  14  15
HETATM   15  C   UNL     1      -8.161   3.835  66.107  1.00  0.00    -0.100 A  
HETATM   16  N   UNL     1      -6.973   4.400  66.158  1.00  0.00    -0.064 NA 
HETATM   17  N   UNL     1      -6.357   4.110  64.968  1.00  0.00    -0.033 NA 
HETATM   18  N   UNL     1      -8.287   3.213  64.894  1.00  0.00    -0.093 NA 
HETATM   19  N   UNL     1      -7.141   3.377  64.194  1.00  0.00    -0.049 NA 
BRANCH  18  20
HETATM   20  C   UNL     1      -9.296   2.350  64.351  1.00  0.00    -0.135 C  
HETATM   21  O   UNL     1     -11.297   2.217  62.657  1.00  0.00    -0.224 OA 
HETATM   22  O   UNL     1      -9.781   4.123  62.528  1.00  0.00    -0.135 OA 
HETATM   23  O   UNL     1     -11.362   4.006  64.440  1.00  0.00    -0.293 OA 
HETATM   24  S   UNL     1     -10.633   3.168  63.517  1.00  0.00    -0.247 S  
ENDBRANCH  18  20
ENDBRANCH  14  15
ENDBRANCH  13  14
ENDBRANCH   4  13
BRANCH   8  25
HETATM   25  N   UNL     1     -11.050   9.484  71.178  1.00  0.00    -0.352 N  
HETATM   26  C   UNL     1     -12.372   9.753  71.463  1.00  0.00    -0.405 C  
HETATM   27  H   UNL     1     -10.649   9.909  70.342  1.00  0.00     0.000 HD 
HETATM   28  O   UNL     1     -12.972   9.252  72.409  1.00  0.00    -0.403 OA 
BRANCH  26  29
HETATM   29  C   UNL     1     -13.005  10.762  70.478  1.00  0.00    -0.184 C  
HETATM   30  O   UNL     1     -12.385  10.638  69.190  1.00  0.00    -0.725 OA 
HETATM   31  H   UNL     1     -12.773  11.259  68.584  1.00  0.00     0.000 HD 
BRANCH  29  32
HETATM   32  C   UNL     1     -12.876  12.191  70.963  1.00  0.00    -0.258 A  
HETATM   33  C   UNL     1     -12.132  13.119  70.219  1.00  0.00    -0.399 A  
HETATM   34  C   UNL     1     -13.503  12.627  72.142  1.00  0.00    -0.561 A  
HETATM   35  C   UNL     1     -13.366  13.945  72.580  1.00  0.00    -0.656 A  
HETATM   36  C   UNL     1     -12.607  14.849  71.842  1.00  0.00    -0.400 A  
HETATM   37  C   UNL     1     -11.995  14.437  70.659  1.00  0.00    -0.393 A  
ENDBRANCH  29  32
ENDBRANCH  26  29
ENDBRANCH   8  25
TORSDOF 7
ENDMDL
MODEL       96
REMARK 921   NORMALIZED FREE ENERGY PREDICTED BY IDOCK:   -6.09 KCAL/MOL
REMARK 922        TOTAL FREE ENERGY PREDICTED BY IDOCK:   -9.55 KCAL/MOL
REMARK 923 INTER-LIGAND FREE ENERGY PREDICTED BY IDOCK:   -8.60 KCAL/MOL
REMARK 924 INTRA-LIGAND FREE ENERGY PREDICTED BY IDOCK:   -0.95 KCAL/MOL
REMARK 927      BINDING AFFINITY PREDICTED BY RF-SCORE:    0.00 PKD
ROOT
HETATM    1  C   UNL     1     -11.031   7.000  71.946  1.00  0.00    -0.233 C  
HETATM    2  S   UNL     1     -11.385   6.878  70.180  1.00  0.00    -0.301 SA 
HETATM    3  C   UNL     1     -10.508   5.311  69.964  1.00  0.00    -0.281 C  
HETATM    4  C   UNL     1      -9.144   5.222  70.642  1.00  0.00    -0.175 C  
HETATM    5  C   UNL     1      -9.544   8.148  72.857  1.00  0.00    -0.275 C  
HETATM    6  CA  UNL     1      -8.731   6.061  71.640  1.00  0.00    -0.135 C  
HETATM    7  C   UNL     1      -7.314   5.954  72.171  1.00  0.00    -0.094 C  
HETATM    8  CA  UNL     1     -11.052   8.451  72.540  1.00  0.00    -0.326 C  
HETATM    9  N   UNL     1      -9.594   7.010  72.134  1.00  0.00    -0.147 N  
HETATM   10  O   UNL     1      -6.804   7.025  72.805  1.00  0.00    -0.068 OA 
HETATM   11  OXT UNL     1      -6.621   4.953  72.041  1.00  0.00    -0.036 OA 
HETATM   12  O   UNL     1      -8.598   8.693  73.380  1.00  0.00    -0.361 OA 
ENDROOT
BRANCH   4  13
HETATM   13  C   UNL     1      -8.248   4.203  69.927  1.00  0.00    -0.057 C  
BRANCH  13  14
HETATM   14  S   UNL     1      -7.296   4.909  68.534  1.00  0.00    -0.066 SA 
BRANCH  14  15
HETATM   15  C   UNL     1      -8.329   4.447  67.220  1.00  0.00    -0.100 A  
HETATM   16  N   UNL     1      -8.466   3.222  66.761  1.00  0.00    -0.102 NA 
HETATM   17  N   UNL     1      -9.398   3.288  65.757  1.00  0.00    -0.147 NA 
HETATM   18  N   UNL     1      -9.155   5.269  66.502  1.00  0.00    -0.126 NA 
HETATM   19  N   UNL     1      -9.835   4.527  65.598  1.00  0.00    -0.201 NA 
BRANCH  18  20
HETATM   20  C   UNL     1      -9.507   6.652  66.647  1.00  0.00    -0.164 C  
HETATM   21  O   UNL     1      -9.115   9.061  65.679  1.00  0.00    -0.201 OA 
HETATM   22  O   UNL     1      -8.379   7.140  64.368  1.00  0.00    -0.032 OA 
HETATM   23  O   UNL     1      -7.098   7.728  66.412  1.00  0.00    -0.068 OA 
HETATM   24  S   UNL     1      -8.422   7.804  65.841  1.00  0.00    -0.146 S  
ENDBRANCH  18  20
ENDBRANCH  14  15
ENDBRANCH  13  14
ENDBRANCH   4  13
BRANCH   8  25
HETATM   25  N   UNL     1     -11.282   9.550  71.570  1.00  0.00    -0.383 N  
HETATM   26  C   UNL     1     -12.449  10.277  71.474  1.00  0.00    -0.422 C  
HETATM   27  H   UNL     1     -10.523   9.783  70.929  1.00  0.00     0.000 HD 
HETATM   28  O   UNL     1     -13.444  10.046  72.153  1.00  0.00    -0.428 OA 
BRANCH  26  29
HETATM   29  C   UNL     1     -12.361  11.420  70.437  1.00  0.00    -0.319 C  
HETATM   30  O   UNL     1     -11.060  11.426  69.830  1.00  0.00    -0.410 OA 
HETATM   31  H   UNL     1     -11.005  12.128  69.192  1.00  0.00     0.000 HD 
BRANCH  29  32
HETATM   32  C   UNL     1     -12.633  12.775  71.054  1.00  0.00    -0.362 A  
HETATM   33  C   UNL     1     -12.001  13.919  70.543  1.00  0.00    -0.384 A  
HETATM   34  C   UNL     1     -13.526  12.928  72.129  1.00  0.00    -0.619 A  
HETATM   35  C   UNL     1     -13.758  14.183  72.693  1.00  0.00    -0.568 A  
HETATM   36  C   UNL     1     -13.107  15.305  72.187  1.00  0.00    -0.471 A  
HETATM   37  C   UNL     1     -12.234  15.174  71.109  1.00  0.00    -0.392 A  
ENDBRANCH  29  32
ENDBRANCH  26  29
ENDBRANCH   8  25
TORSDOF 7
ENDMDL
MODEL       97
REMARK 921   NORMALIZED FREE ENERGY PREDICTED BY IDOCK:   -6.07 KCAL/MOL
REMARK 922        TOTAL FREE ENERGY PREDICTED BY IDOCK:   -9.52 KCAL/MOL
REMARK 923 INTER-LIGAND FREE ENERGY PREDICTED BY IDOCK:   -9.00 KCAL/MOL
REMARK 924 INTRA-LIGAND FREE ENERGY PREDICTED BY IDOCK:   -0.52 KCAL/MOL
REMARK 927      BINDING AFFINITY PREDICTED BY RF-SCORE:    0.00 PKD
ROOT
HETATM    1  C   UNL     1     -11.167   6.960  71.821  1.00  0.00    -0.252 C  
HETATM    2  S   UNL     1     -11.396   6.875  70.032  1.00  0.00    -0.272 SA 
HETATM    3  C   UNL     1     -10.606   5.258  69.862  1.00  0.00    -0.221 C  
HETATM    4  C   UNL     1      -9.305   5.076  70.638  1.00  0.00    -0.216 C  
HETATM    5  C   UNL     1      -9.683   8.004  72.854  1.00  0.00    -0.283 C  
HETATM    6  CA  UNL     1      -8.915   5.879  71.674  1.00  0.00    -0.139 C  
HETATM    7  C   UNL     1      -7.550   5.678  72.306  1.00  0.00    -0.101 C  
HETATM    8  CA  UNL     1     -11.140   8.405  72.431  1.00  0.00    -0.361 C  
HETATM    9  N   UNL     1      -9.751   6.878  72.114  1.00  0.00    -0.149 N  
HETATM   10  O   UNL     1      -7.023   6.709  72.989  1.00  0.00    -0.075 OA 
HETATM   11  OXT UNL     1      -6.915   4.636  72.215  1.00  0.00    -0.056 OA 
HETATM   12  O   UNL     1      -8.746   8.483  73.451  1.00  0.00    -0.331 OA 
ENDROOT
BRANCH   4  13
HETATM   13  C   UNL     1      -8.424   4.008  69.977  1.00  0.00    -0.064 C  
BRANCH  13  14
HETATM   14  S   UNL     1      -9.128   3.322  68.434  1.00  0.00    -0.173 SA 
BRANCH  14  15
HETATM   15  C   UNL     1      -8.540   4.500  67.306  1.00  0.00    -0.104 A  
HETATM   16  N   UNL     1      -7.406   5.156  67.420  1.00  0.00    -0.081 NA 
HETATM   17  N   UNL     1      -7.305   5.950  66.306  1.00  0.00    -0.080 NA 
HETATM   18  N   UNL     1      -9.145   4.890  66.141  1.00  0.00    -0.129 NA 
HETATM   19  N   UNL     1      -8.353   5.788  65.513  1.00  0.00    -0.135 NA 
BRANCH  18  20
HETATM   20  C   UNL     1     -10.315   4.421  65.456  1.00  0.00    -0.224 C  
HETATM   21  O   UNL     1     -11.195   2.696  63.684  1.00  0.00    -0.263 OA 
HETATM   22  O   UNL     1      -8.954   2.392  64.599  1.00  0.00    -0.109 OA 
HETATM   23  O   UNL     1      -9.329   4.257  63.002  1.00  0.00    -0.138 OA 
HETATM   24  S   UNL     1     -10.009   3.459  63.995  1.00  0.00    -0.199 S  
ENDBRANCH  18  20
ENDBRANCH  14  15
ENDBRANCH  13  14
ENDBRANCH   4  13
BRANCH   8  25
HETATM   25  N   UNL     1     -11.228   9.524  71.460  1.00  0.00    -0.383 N  
HETATM   26  C   UNL     1     -12.392  10.191  71.137  1.00  0.00    -0.385 C  
HETATM   27  H   UNL     1     -10.368   9.821  70.998  1.00  0.00     0.000 HD 
HETATM   28  O   UNL     1     -13.490   9.883  71.587  1.00  0.00    -0.372 OA 
BRANCH  26  29
HETATM   29  C   UNL     1     -12.157  11.373  70.169  1.00  0.00    -0.357 C  
HETATM   30  O   UNL     1     -10.780  11.403  69.762  1.00  0.00    -0.452 OA 
HETATM   31  H   UNL     1     -10.636  12.129  69.168  1.00  0.00     0.000 HD 
BRANCH  29  32
HETATM   32  C   UNL     1     -12.526  12.703  70.791  1.00  0.00    -0.357 A  
HETATM   33  C   UNL     1     -12.213  13.899  70.127  1.00  0.00    -0.425 A  
HETATM   34  C   UNL     1     -13.196  12.778  72.024  1.00  0.00    -0.538 A  
HETATM   35  C   UNL     1     -13.519  14.013  72.588  1.00  0.00    -0.650 A  
HETATM   36  C   UNL     1     -13.184  15.191  71.926  1.00  0.00    -0.476 A  
HETATM   37  C   UNL     1     -12.536  15.134  70.693  1.00  0.00    -0.450 A  
ENDBRANCH  29  32
ENDBRANCH  26  29
ENDBRANCH   8  25
TORSDOF 7
ENDMDL
MODEL       98
REMARK 921   NORMALIZED FREE ENERGY PREDICTED BY IDOCK:   -6.06 KCAL/MOL
REMARK 922        TOTAL FREE ENERGY PREDICTED BY IDOCK:   -9.51 KCAL/MOL
REMARK 923 INTER-LIGAND FREE ENERGY PREDICTED BY IDOCK:   -8.55 KCAL/MOL
REMARK 924 INTRA-LIGAND FREE ENERGY PREDICTED BY IDOCK:   -0.95 KCAL/MOL
REMARK 927      BINDING AFFINITY PREDICTED BY RF-SCORE:    0.00 PKD
ROOT
HETATM    1  C   UNL     1     -11.395  10.498  68.864  1.00  0.00    -0.251 C  
HETATM    2  S   UNL     1      -9.604  10.467  68.638  1.00  0.00    -0.178 SA 
HETATM    3  C   UNL     1      -9.448   8.696  68.964  1.00  0.00    -0.153 C  
HETATM    4  C   UNL     1     -10.239   8.174  70.159  1.00  0.00    -0.199 C  
HETATM    5  C   UNL     1     -12.441  11.108  70.565  1.00  0.00    -0.327 C  
HETATM    6  CA  UNL     1     -11.277   8.847  70.741  1.00  0.00    -0.272 C  
HETATM    7  C   UNL     1     -11.926   8.289  71.994  1.00  0.00    -0.348 C  
HETATM    8  CA  UNL     1     -12.000  11.886  69.274  1.00  0.00    -0.281 C  
HETATM    9  N   UNL     1     -11.705  10.038  70.202  1.00  0.00    -0.240 N  
HETATM   10  O   UNL     1     -12.611   9.143  72.774  1.00  0.00    -0.234 OA 
HETATM   11  OXT UNL     1     -11.845   7.113  72.325  1.00  0.00    -0.280 OA 
HETATM   12  O   UNL     1     -13.048  11.320  71.590  1.00  0.00    -0.451 OA 
ENDROOT
BRANCH   4  13
HETATM   13  C   UNL     1      -9.592   6.903  70.725  1.00  0.00    -0.165 C  
BRANCH  13  14
HETATM   14  S   UNL     1     -10.162   5.364  69.918  1.00  0.00    -0.301 SA 
BRANCH  14  15
HETATM   15  C   UNL     1      -8.647   4.788  69.302  1.00  0.00    -0.083 A  
HETATM   16  N   UNL     1      -7.485   4.924  69.904  1.00  0.00    -0.055 NA 
HETATM   17  N   UNL     1      -6.561   4.299  69.107  1.00  0.00    -0.040 NA 
HETATM   18  N   UNL     1      -8.447   4.098  68.137  1.00  0.00    -0.092 NA 
HETATM   19  N   UNL     1      -7.136   3.781  68.033  1.00  0.00    -0.051 NA 
BRANCH  18  20
HETATM   20  C   UNL     1      -9.354   3.561  67.164  1.00  0.00    -0.200 C  
HETATM   21  O   UNL     1     -10.496   4.010  64.843  1.00  0.00    -0.224 OA 
HETATM   22  O   UNL     1      -8.604   5.401  65.504  1.00  0.00    -0.138 OA 
HETATM   23  O   UNL     1     -10.774   5.741  66.663  1.00  0.00    -0.291 OA 
HETATM   24  S   UNL     1      -9.992   4.730  65.989  1.00  0.00    -0.252 S  
ENDBRANCH  18  20
ENDBRANCH  14  15
ENDBRANCH  13  14
ENDBRANCH   4  13
BRANCH   8  25
HETATM   25  N   UNL     1     -11.025  12.981  69.503  1.00  0.00    -0.459 N  
HETATM   26  C   UNL     1     -10.668  13.920  68.557  1.00  0.00    -0.257 C  
HETATM   27  H   UNL     1     -10.589  13.044  70.422  1.00  0.00     0.000 HD 
HETATM   28  O   UNL     1     -11.085  13.907  67.404  1.00  0.00    -0.286 OA 
BRANCH  26  29
HETATM   29  C   UNL     1      -9.705  14.993  69.113  1.00  0.00    -0.212 C  
HETATM   30  O   UNL     1     -10.059  15.311  70.468  1.00  0.00    -0.453 OA 
HETATM   31  H   UNL     1      -9.467  15.971  70.809  1.00  0.00     0.000 HD 
BRANCH  29  32
HETATM   32  C   UNL     1      -9.716  16.258  68.281  1.00  0.00    -0.222 A  
HETATM   33  C   UNL     1     -10.728  17.213  68.470  1.00  0.00    -0.326 A  
HETATM   34  C   UNL     1      -8.722  16.517  67.323  1.00  0.00    -0.204 A  
HETATM   35  C   UNL     1      -8.754  17.684  66.557  1.00  0.00    -0.289 A  
HETATM   36  C   UNL     1      -9.775  18.611  66.742  1.00  0.00    -0.348 A  
HETATM   37  C   UNL     1     -10.759  18.379  67.702  1.00  0.00    -0.390 A  
ENDBRANCH  29  32
ENDBRANCH  26  29
ENDBRANCH   8  25
TORSDOF 7
ENDMDL
MODEL       99
REMARK 921   NORMALIZED FREE ENERGY PREDICTED BY IDOCK:   -6.04 KCAL/MOL
REMARK 922        TOTAL FREE ENERGY PREDICTED BY IDOCK:   -9.48 KCAL/MOL
REMARK 923 INTER-LIGAND FREE ENERGY PREDICTED BY IDOCK:   -8.21 KCAL/MOL
REMARK 924 INTRA-LIGAND FREE ENERGY PREDICTED BY IDOCK:   -1.28 KCAL/MOL
REMARK 927      BINDING AFFINITY PREDICTED BY RF-SCORE:    0.00 PKD
ROOT
HETATM    1  C   UNL     1      -9.228   8.639  67.986  1.00  0.00    -0.140 C  
HETATM    2  S   UNL     1     -10.773   9.510  68.323  1.00  0.00    -0.154 SA 
HETATM    3  C   UNL     1     -10.487  10.796  67.084  1.00  0.00    -0.237 C  
HETATM    4  C   UNL     1      -9.079  11.383  67.059  1.00  0.00    -0.169 C  
HETATM    5  C   UNL     1      -7.451   8.755  69.075  1.00  0.00    -0.081 C  
HETATM    6  CA  UNL     1      -7.991  10.784  67.629  1.00  0.00    -0.110 C  
HETATM    7  C   UNL     1      -6.656  11.506  67.641  1.00  0.00    -0.078 C  
HETATM    8  CA  UNL     1      -8.670   7.771  69.168  1.00  0.00    -0.139 C  
HETATM    9  N   UNL     1      -8.122   9.545  68.212  1.00  0.00    -0.101 N  
HETATM   10  O   UNL     1      -5.748  11.122  68.554  1.00  0.00    -0.043 OA 
HETATM   11  OXT UNL     1      -6.379  12.418  66.871  1.00  0.00    -0.169 OA 
HETATM   12  O   UNL     1      -6.379   8.927  69.610  1.00  0.00    -0.041 OA 
ENDROOT
BRANCH   4  13
HETATM   13  C   UNL     1      -9.095  12.805  66.482  1.00  0.00    -0.147 C  
BRANCH  13  14
HETATM   14  S   UNL     1     -10.762  13.388  66.005  1.00  0.00    -0.281 SA 
BRANCH  14  15
HETATM   15  C   UNL     1     -11.111  14.400  67.368  1.00  0.00    -0.308 A  
HETATM   16  N   UNL     1     -11.575  13.977  68.524  1.00  0.00    -0.301 NA 
HETATM   17  N   UNL     1     -11.671  15.083  69.330  1.00  0.00    -0.306 NA 
HETATM   18  N   UNL     1     -10.934  15.755  67.448  1.00  0.00    -0.308 NA 
HETATM   19  N   UNL     1     -11.272  16.171  68.690  1.00  0.00    -0.355 NA 
BRANCH  18  20
HETATM   20  C   UNL     1     -10.345  16.708  66.551  1.00  0.00    -0.299 C  
HETATM   21  O   UNL     1      -8.106  17.912  65.896  1.00  0.00    -0.524 OA 
HETATM   22  O   UNL     1      -8.001  15.964  67.361  1.00  0.00    -0.138 OA 
HETATM   23  O   UNL     1      -8.897  18.086  68.290  1.00  0.00    -0.271 OA 
HETATM   24  S   UNL     1      -8.768  17.353  67.052  1.00  0.00    -0.242 S  
ENDBRANCH  18  20
ENDBRANCH  14  15
ENDBRANCH  13  14
ENDBRANCH   4  13
BRANCH   8  25
HETATM   25  N   UNL     1      -9.433   7.833  70.439  1.00  0.00    -0.164 N  
HETATM   26  C   UNL     1      -9.409   6.858  71.415  1.00  0.00    -0.156 C  
HETATM   27  H   UNL     1     -10.016   8.654  70.603  1.00  0.00     0.000 HD 
HETATM   28  O   UNL     1      -8.790   5.806  71.299  1.00  0.00    -0.134 OA 
BRANCH  26  29
HETATM   29  C   UNL     1     -10.227   7.244  72.668  1.00  0.00    -0.212 C  
HETATM   30  O   UNL     1     -10.319   6.118  73.554  1.00  0.00    -0.213 OA 
HETATM   31  H   UNL     1     -10.822   6.355  74.325  1.00  0.00     0.000 HD 
BRANCH  29  32
HETATM   32  C   UNL     1     -11.620   7.723  72.317  1.00  0.00    -0.390 A  
HETATM   33  C   UNL     1     -12.567   6.816  71.817  1.00  0.00    -0.370 A  
HETATM   34  C   UNL     1     -12.003   9.063  72.494  1.00  0.00    -0.124 A  
HETATM   35  C   UNL     1     -13.288   9.489  72.155  1.00  0.00    -0.545 A  
HETATM   36  C   UNL     1     -14.211   8.582  71.641  1.00  0.00    -0.496 A  
HETATM   37  C   UNL     1     -13.852   7.245  71.478  1.00  0.00    -0.463 A  
ENDBRANCH  29  32
ENDBRANCH  26  29
ENDBRANCH   8  25
TORSDOF 7
ENDMDL
MODEL      100
REMARK 921   NORMALIZED FREE ENERGY PREDICTED BY IDOCK:   -6.04 KCAL/MOL
REMARK 922        TOTAL FREE ENERGY PREDICTED BY IDOCK:   -9.48 KCAL/MOL
REMARK 923 INTER-LIGAND FREE ENERGY PREDICTED BY IDOCK:   -8.32 KCAL/MOL
REMARK 924 INTRA-LIGAND FREE ENERGY PREDICTED BY IDOCK:   -1.16 KCAL/MOL
REMARK 927      BINDING AFFINITY PREDICTED BY RF-SCORE:    0.00 PKD
ROOT
HETATM    1  C   UNL     1      -9.201   7.725  70.662  1.00  0.00    -0.161 C  
HETATM    2  S   UNL     1      -8.868   8.388  69.017  1.00  0.00    -0.147 SA 
HETATM    3  C   UNL     1      -9.414  10.064  69.423  1.00  0.00    -0.223 C  
HETATM    4  C   UNL     1     -10.716  10.158  70.212  1.00  0.00    -0.352 C  
HETATM    5  C   UNL     1     -10.869   6.623  71.264  1.00  0.00    -0.238 C  
HETATM    6  CA  UNL     1     -11.269   9.114  70.902  1.00  0.00    -0.295 C  
HETATM    7  C   UNL     1     -12.623   9.286  71.564  1.00  0.00    -0.352 C  
HETATM    8  CA  UNL     1      -9.462   6.180  70.728  1.00  0.00    -0.168 C  
HETATM    9  N   UNL     1     -10.605   7.912  70.965  1.00  0.00    -0.212 N  
HETATM   10  O   UNL     1     -13.325   8.174  71.843  1.00  0.00    -0.331 OA 
HETATM   11  OXT UNL     1     -13.101  10.378  71.842  1.00  0.00    -0.441 OA 
HETATM   12  O   UNL     1     -11.894   6.113  71.656  1.00  0.00    -0.286 OA 
ENDROOT
BRANCH   4  13
HETATM   13  C   UNL     1     -11.403  11.508  69.967  1.00  0.00    -0.137 C  
BRANCH  13  14
HETATM   14  S   UNL     1     -11.989  11.735  68.249  1.00  0.00    -0.018 SA 
BRANCH  14  15
HETATM   15  C   UNL     1     -11.156  13.204  67.857  1.00  0.00    -0.262 A  
HETATM   16  N   UNL     1     -10.838  14.146  68.718  1.00  0.00    -0.252 NA 
HETATM   17  N   UNL     1     -10.160  15.105  68.009  1.00  0.00    -0.221 NA 
HETATM   18  N   UNL     1     -10.693  13.578  66.623  1.00  0.00    -0.281 NA 
HETATM   19  N   UNL     1     -10.054  14.765  66.735  1.00  0.00    -0.252 NA 
BRANCH  18  20
HETATM   20  C   UNL     1     -10.641  12.895  65.363  1.00  0.00    -0.289 C  
HETATM   21  O   UNL     1     -11.703  12.769  62.965  1.00  0.00    -0.363 OA 
HETATM   22  O   UNL     1     -12.179  14.717  64.354  1.00  0.00    -0.491 OA 
HETATM   23  O   UNL     1     -13.237  12.554  64.960  1.00  0.00    -0.700 OA 
HETATM   24  S   UNL     1     -12.065  13.105  64.322  1.00  0.00    -0.421 S  
ENDBRANCH  18  20
ENDBRANCH  14  15
ENDBRANCH  13  14
ENDBRANCH   4  13
BRANCH   8  25
HETATM   25  N   UNL     1      -9.481   5.466  69.427  1.00  0.00    -0.126 N  
HETATM   26  C   UNL     1      -9.551   4.095  69.288  1.00  0.00    -0.186 C  
HETATM   27  H   UNL     1      -9.439   6.028  68.577  1.00  0.00     0.000 HD 
HETATM   28  O   UNL     1      -9.548   3.321  70.239  1.00  0.00    -0.174 OA 
BRANCH  26  29
HETATM   29  C   UNL     1      -9.651   3.647  67.812  1.00  0.00    -0.134 C  
HETATM   30  O   UNL     1      -9.771   2.218  67.744  1.00  0.00    -0.384 OA 
HETATM   31  H   UNL     1      -9.832   1.943  66.837  1.00  0.00     0.000 HD 
BRANCH  29  32
HETATM   32  C   UNL     1      -8.455   4.091  66.997  1.00  0.00    -0.100 A  
HETATM   33  C   UNL     1      -7.175   3.609  67.311  1.00  0.00    -0.063 A  
HETATM   34  C   UNL     1      -8.591   4.970  65.909  1.00  0.00    -0.124 A  
HETATM   35  C   UNL     1      -7.475   5.377  65.175  1.00  0.00    -0.073 A  
HETATM   36  C   UNL     1      -6.209   4.905  65.512  1.00  0.00    -0.034 A  
HETATM   37  C   UNL     1      -6.060   4.017  66.576  1.00  0.00    -0.031 A  
ENDBRANCH  29  32
ENDBRANCH  26  29
ENDBRANCH   8  25
TORSDOF 7
ENDMDL
MODEL      101
REMARK 921   NORMALIZED FREE ENERGY PREDICTED BY IDOCK:   -6.03 KCAL/MOL
REMARK 922        TOTAL FREE ENERGY PREDICTED BY IDOCK:   -9.46 KCAL/MOL
REMARK 923 INTER-LIGAND FREE ENERGY PREDICTED BY IDOCK:   -8.47 KCAL/MOL
REMARK 924 INTRA-LIGAND FREE ENERGY PREDICTED BY IDOCK:   -0.99 KCAL/MOL
REMARK 927      BINDING AFFINITY PREDICTED BY RF-SCORE:    0.00 PKD
ROOT
HETATM    1  C   UNL     1      -8.491   9.269  70.500  1.00  0.00    -0.216 C  
HETATM    2  S   UNL     1      -8.171   8.492  68.902  1.00  0.00    -0.118 SA 
HETATM    3  C   UNL     1      -8.927   9.823  67.939  1.00  0.00    -0.118 C  
HETATM    4  C   UNL     1     -10.262  10.340  68.466  1.00  0.00    -0.192 C  
HETATM    5  C   UNL     1     -10.041   8.832  71.828  1.00  0.00    -0.333 C  
HETATM    6  CA  UNL     1     -10.715  10.127  69.739  1.00  0.00    -0.279 C  
HETATM    7  C   UNL     1     -12.106  10.592  70.127  1.00  0.00    -0.333 C  
HETATM    8  CA  UNL     1      -8.570   8.292  71.724  1.00  0.00    -0.161 C  
HETATM    9  N   UNL     1      -9.918   9.469  70.645  1.00  0.00    -0.279 N  
HETATM   10  O   UNL     1     -12.683  10.008  71.192  1.00  0.00    -0.335 OA 
HETATM   11  OXT UNL     1     -12.720  11.458  69.516  1.00  0.00    -0.075 OA 
HETATM   12  O   UNL     1     -11.014   8.688  72.533  1.00  0.00    -0.316 OA 
ENDROOT
BRANCH   4  13
HETATM   13  C   UNL     1     -11.092  10.954  67.331  1.00  0.00    -0.307 C  
BRANCH  13  14
HETATM   14  S   UNL     1     -10.092  11.512  65.905  1.00  0.00    -0.242 SA 
BRANCH  14  15
HETATM   15  C   UNL     1     -11.101  12.801  65.336  1.00  0.00    -0.284 A  
HETATM   16  N   UNL     1     -12.313  12.652  64.845  1.00  0.00    -0.483 NA 
HETATM   17  N   UNL     1     -12.770  13.912  64.555  1.00  0.00    -0.662 NA 
HETATM   18  N   UNL     1     -10.802  14.137  65.339  1.00  0.00    -0.320 NA 
HETATM   19  N   UNL     1     -11.864  14.827  64.863  1.00  0.00    -0.387 NA 
BRANCH  18  20
HETATM   20  C   UNL     1      -9.695  14.878  65.871  1.00  0.00    -0.333 C  
HETATM   21  O   UNL     1      -8.651  15.861  68.070  1.00  0.00    -0.162 OA 
HETATM   22  O   UNL     1     -10.455  14.230  68.259  1.00  0.00    -0.235 OA 
HETATM   23  O   UNL     1     -11.017  16.519  67.476  1.00  0.00    -0.277 OA 
HETATM   24  S   UNL     1      -9.940  15.557  67.493  1.00  0.00    -0.232 S  
ENDBRANCH  18  20
ENDBRANCH  14  15
ENDBRANCH  13  14
ENDBRANCH   4  13
BRANCH   8  25
HETATM   25  N   UNL     1      -8.453   6.846  71.411  1.00  0.00    -0.119 N  
HETATM   26  C   UNL     1      -7.989   5.891  72.292  1.00  0.00    -0.107 C  
HETATM   27  H   UNL     1      -8.734   6.537  70.481  1.00  0.00     0.000 HD 
HETATM   28  O   UNL     1      -7.571   6.156  73.414  1.00  0.00    -0.095 OA 
BRANCH  26  29
HETATM   29  C   UNL     1      -8.071   4.457  71.719  1.00  0.00    -0.097 C  
HETATM   30  O   UNL     1      -8.228   4.511  70.294  1.00  0.00    -0.069 OA 
HETATM   31  H   UNL     1      -8.279   3.630  69.941  1.00  0.00     0.000 HD 
BRANCH  29  32
HETATM   32  C   UNL     1      -9.212   3.666  72.322  1.00  0.00    -0.164 A  
HETATM   33  C   UNL     1      -9.258   2.272  72.167  1.00  0.00    -0.141 A  
HETATM   34  C   UNL     1     -10.235   4.291  73.056  1.00  0.00    -0.226 A  
HETATM   35  C   UNL     1     -11.285   3.547  73.595  1.00  0.00    -0.278 A  
HETATM   36  C   UNL     1     -11.326   2.167  73.416  1.00  0.00    -0.288 A  
HETATM   37  C   UNL     1     -10.310   1.529  72.707  1.00  0.00    -0.207 A  
ENDBRANCH  29  32
ENDBRANCH  26  29
ENDBRANCH   8  25
TORSDOF 7
ENDMDL
MODEL      102
REMARK 921   NORMALIZED FREE ENERGY PREDICTED BY IDOCK:   -5.99 KCAL/MOL
REMARK 922        TOTAL FREE ENERGY PREDICTED BY IDOCK:   -9.41 KCAL/MOL
REMARK 923 INTER-LIGAND FREE ENERGY PREDICTED BY IDOCK:   -8.28 KCAL/MOL
REMARK 924 INTRA-LIGAND FREE ENERGY PREDICTED BY IDOCK:   -1.13 KCAL/MOL
REMARK 927      BINDING AFFINITY PREDICTED BY RF-SCORE:    0.00 PKD
ROOT
HETATM    1  C   UNL     1      -9.883   6.519  67.152  1.00  0.00    -0.148 C  
HETATM    2  S   UNL     1     -10.118   7.733  68.467  1.00  0.00    -0.203 SA 
HETATM    3  C   UNL     1     -10.469   9.102  67.340  1.00  0.00    -0.271 C  
HETATM    4  C   UNL     1      -9.544   9.214  66.132  1.00  0.00    -0.333 C  
HETATM    5  C   UNL     1      -8.070   5.838  66.372  1.00  0.00    -0.106 C  
HETATM    6  CA  UNL     1      -8.747   8.197  65.683  1.00  0.00    -0.145 C  
HETATM    7  C   UNL     1      -7.783   8.448  64.538  1.00  0.00    -0.121 C  
HETATM    8  CA  UNL     1      -8.987   5.286  67.521  1.00  0.00    -0.108 C  
HETATM    9  N   UNL     1      -8.807   6.965  66.291  1.00  0.00    -0.145 N  
HETATM   10  O   UNL     1      -6.739   7.611  64.409  1.00  0.00    -0.047 OA 
HETATM   11  OXT UNL     1      -7.909   9.372  63.745  1.00  0.00    -0.120 OA 
HETATM   12  O   UNL     1      -7.035   5.547  65.818  1.00  0.00    -0.062 OA 
ENDROOT
BRANCH   4  13
HETATM   13  C   UNL     1      -9.490  10.659  65.621  1.00  0.00    -0.212 C  
BRANCH  13  14
HETATM   14  S   UNL     1     -10.055  11.895  66.845  1.00  0.00    -0.210 SA 
BRANCH  14  15
HETATM   15  C   UNL     1     -11.407  12.554  65.982  1.00  0.00    -0.344 A  
HETATM   16  N   UNL     1     -12.170  11.883  65.147  1.00  0.00    -0.284 NA 
HETATM   17  N   UNL     1     -13.136  12.757  64.718  1.00  0.00    -0.836 NA 
HETATM   18  N   UNL     1     -11.883  13.835  66.062  1.00  0.00    -0.370 NA 
HETATM   19  N   UNL     1     -12.980  13.946  65.278  1.00  0.00    -0.774 NA 
BRANCH  18  20
HETATM   20  C   UNL     1     -11.531  14.946  66.898  1.00  0.00    -0.313 C  
HETATM   21  O   UNL     1     -10.461  17.343  66.914  1.00  0.00    -0.324 OA 
HETATM   22  O   UNL     1     -11.096  16.360  64.774  1.00  0.00    -0.592 OA 
HETATM   23  O   UNL     1      -9.109  15.441  65.946  1.00  0.00    -0.311 OA 
HETATM   24  S   UNL     1     -10.373  16.094  66.195  1.00  0.00    -0.345 S  
ENDBRANCH  18  20
ENDBRANCH  14  15
ENDBRANCH  13  14
ENDBRANCH   4  13
BRANCH   8  25
HETATM   25  N   UNL     1      -8.378   5.305  68.875  1.00  0.00    -0.092 N  
HETATM   26  C   UNL     1      -8.672   4.405  69.878  1.00  0.00    -0.073 C  
HETATM   27  H   UNL     1      -7.695   6.035  69.078  1.00  0.00     0.000 HD 
HETATM   28  O   UNL     1      -9.518   3.524  69.764  1.00  0.00    -0.166 OA 
BRANCH  26  29
HETATM   29  C   UNL     1      -7.812   4.616  71.144  1.00  0.00    -0.082 C  
HETATM   30  O   UNL     1      -7.919   3.470  72.002  1.00  0.00    -0.061 OA 
HETATM   31  H   UNL     1      -7.390   3.600  72.780  1.00  0.00     0.000 HD 
BRANCH  29  32
HETATM   32  C   UNL     1      -8.218   5.857  71.911  1.00  0.00    -0.115 A  
HETATM   33  C   UNL     1      -7.236   6.688  72.471  1.00  0.00    -0.084 A  
HETATM   34  C   UNL     1      -9.567   6.217  72.067  1.00  0.00    -0.164 A  
HETATM   35  C   UNL     1      -9.924   7.359  72.786  1.00  0.00    -0.263 A  
HETATM   36  C   UNL     1      -8.939   8.162  73.353  1.00  0.00    -0.313 A  
HETATM   37  C   UNL     1      -7.595   7.830  73.191  1.00  0.00    -0.145 A  
ENDBRANCH  29  32
ENDBRANCH  26  29
ENDBRANCH   8  25
TORSDOF 7
ENDMDL
MODEL      103
REMARK 921   NORMALIZED FREE ENERGY PREDICTED BY IDOCK:   -5.98 KCAL/MOL
REMARK 922        TOTAL FREE ENERGY PREDICTED BY IDOCK:   -9.39 KCAL/MOL
REMARK 923 INTER-LIGAND FREE ENERGY PREDICTED BY IDOCK:   -8.13 KCAL/MOL
REMARK 924 INTRA-LIGAND FREE ENERGY PREDICTED BY IDOCK:   -1.25 KCAL/MOL
REMARK 927      BINDING AFFINITY PREDICTED BY RF-SCORE:    0.00 PKD
ROOT
HETATM    1  C   UNL     1     -10.161   8.123  68.096  1.00  0.00    -0.209 C  
HETATM    2  S   UNL     1     -10.885   8.586  69.684  1.00  0.00    -0.089 SA 
HETATM    3  C   UNL     1     -11.150  10.315  69.224  1.00  0.00    -0.245 C  
HETATM    4  C   UNL     1      -9.986  10.990  68.506  1.00  0.00    -0.198 C  
HETATM    5  C   UNL     1      -8.133   7.915  67.648  1.00  0.00    -0.124 C  
HETATM    6  CA  UNL     1      -8.963  10.312  67.904  1.00  0.00    -0.131 C  
HETATM    7  C   UNL     1      -7.797  11.082  67.311  1.00  0.00    -0.122 C  
HETATM    8  CA  UNL     1      -9.210   6.877  68.125  1.00  0.00    -0.126 C  
HETATM    9  N   UNL     1      -8.986   8.938  67.864  1.00  0.00    -0.139 N  
HETATM   10  O   UNL     1      -6.641  10.421  67.130  1.00  0.00    -0.070 OA 
HETATM   11  OXT UNL     1      -7.862  12.266  67.005  1.00  0.00    -0.164 OA 
HETATM   12  O   UNL     1      -6.962   7.934  67.341  1.00  0.00    -0.071 OA 
ENDROOT
BRANCH   4  13
HETATM   13  C   UNL     1     -10.024  12.509  68.720  1.00  0.00    -0.015 C  
BRANCH  13  14
HETATM   14  S   UNL     1     -11.677  13.248  68.462  1.00  0.00    -0.367 SA 
BRANCH  14  15
HETATM   15  C   UNL     1     -11.209  14.729  67.690  1.00  0.00    -0.323 A  
HETATM   16  N   UNL     1     -11.149  15.903  68.280  1.00  0.00    -0.330 NA 
HETATM   17  N   UNL     1     -10.701  16.788  67.334  1.00  0.00    -0.288 NA 
HETATM   18  N   UNL     1     -10.815  14.883  66.388  1.00  0.00    -0.320 NA 
HETATM   19  N   UNL     1     -10.481  16.178  66.180  1.00  0.00    -0.325 NA 
BRANCH  18  20
HETATM   20  C   UNL     1     -10.566  13.941  65.335  1.00  0.00    -0.335 C  
HETATM   21  O   UNL     1     -11.516  12.950  63.098  1.00  0.00    -0.361 OA 
HETATM   22  O   UNL     1     -12.504  14.997  63.982  1.00  0.00    -0.796 OA 
HETATM   23  O   UNL     1     -12.978  12.861  65.157  1.00  0.00    -0.758 OA 
HETATM   24  S   UNL     1     -11.977  13.513  64.346  1.00  0.00    -0.434 S  
ENDBRANCH  18  20
ENDBRANCH  14  15
ENDBRANCH  13  14
ENDBRANCH   4  13
BRANCH   8  25
HETATM   25  N   UNL     1      -8.958   6.279  69.460  1.00  0.00    -0.134 N  
HETATM   26  C   UNL     1      -9.325   5.001  69.826  1.00  0.00    -0.134 C  
HETATM   27  H   UNL     1      -8.481   6.853  70.155  1.00  0.00     0.000 HD 
HETATM   28  O   UNL     1      -9.953   4.245  69.093  1.00  0.00    -0.145 OA 
BRANCH  26  29
HETATM   29  C   UNL     1      -8.846   4.624  71.246  1.00  0.00    -0.122 C  
HETATM   30  O   UNL     1      -9.629   3.531  71.750  1.00  0.00    -0.132 OA 
HETATM   31  H   UNL     1      -9.334   3.299  72.623  1.00  0.00     0.000 HD 
BRANCH  29  32
HETATM   32  C   UNL     1      -8.933   5.790  72.208  1.00  0.00    -0.139 A  
HETATM   33  C   UNL     1     -10.176   6.173  72.735  1.00  0.00    -0.203 A  
HETATM   34  C   UNL     1      -7.788   6.500  72.609  1.00  0.00    -0.103 A  
HETATM   35  C   UNL     1      -7.888   7.579  73.488  1.00  0.00    -0.147 A  
HETATM   36  C   UNL     1      -9.131   7.960  73.986  1.00  0.00    -0.143 A  
HETATM   37  C   UNL     1     -10.274   7.253  73.614  1.00  0.00    -0.393 A  
ENDBRANCH  29  32
ENDBRANCH  26  29
ENDBRANCH   8  25
TORSDOF 7
ENDMDL
MODEL      104
REMARK 921   NORMALIZED FREE ENERGY PREDICTED BY IDOCK:   -5.96 KCAL/MOL
REMARK 922        TOTAL FREE ENERGY PREDICTED BY IDOCK:   -9.37 KCAL/MOL
REMARK 923 INTER-LIGAND FREE ENERGY PREDICTED BY IDOCK:   -8.60 KCAL/MOL
REMARK 924 INTRA-LIGAND FREE ENERGY PREDICTED BY IDOCK:   -0.76 KCAL/MOL
REMARK 927      BINDING AFFINITY PREDICTED BY RF-SCORE:    0.00 PKD
ROOT
HETATM    1  C   UNL     1      -9.993  12.174  67.752  1.00  0.00    -0.198 C  
HETATM    2  S   UNL     1      -8.196  12.347  67.772  1.00  0.00    -0.177 SA 
HETATM    3  C   UNL     1      -8.224  14.152  67.665  1.00  0.00    -0.186 C  
HETATM    4  C   UNL     1      -9.199  14.736  66.647  1.00  0.00    -0.300 C  
HETATM    5  C   UNL     1     -11.194  11.675  66.120  1.00  0.00    -0.254 C  
HETATM    6  CA  UNL     1     -10.246  14.042  66.106  1.00  0.00    -0.302 C  
HETATM    7  C   UNL     1     -11.090  14.682  65.021  1.00  0.00    -0.394 C  
HETATM    8  CA  UNL     1     -10.533  10.794  67.238  1.00  0.00    -0.237 C  
HETATM    9  N   UNL     1     -10.505  12.760  66.531  1.00  0.00    -0.260 N  
HETATM   10  O   UNL     1     -11.799  13.866  64.221  1.00  0.00    -0.408 OA 
HETATM   11  OXT UNL     1     -11.146  15.892  64.839  1.00  0.00    -0.428 OA 
HETATM   12  O   UNL     1     -11.907  11.532  65.153  1.00  0.00    -0.060 OA 
ENDROOT
BRANCH   4  13
HETATM   13  C   UNL     1      -8.733  16.121  66.181  1.00  0.00    -0.323 C  
BRANCH  13  14
HETATM   14  S   UNL     1      -7.013  16.520  66.661  1.00  0.00    -0.062 SA 
BRANCH  14  15
HETATM   15  C   UNL     1      -6.932  18.156  66.094  1.00  0.00    -0.279 A  
HETATM   16  N   UNL     1      -6.551  18.520  64.888  1.00  0.00    -0.397 NA 
HETATM   17  N   UNL     1      -6.669  19.886  64.841  1.00  0.00    -0.344 NA 
HETATM   18  N   UNL     1      -7.270  19.283  66.794  1.00  0.00    -0.207 NA 
HETATM   19  N   UNL     1      -7.118  20.362  65.992  1.00  0.00    -0.246 NA 
BRANCH  18  20
HETATM   20  C   UNL     1      -7.863  19.476  68.086  1.00  0.00    -0.312 C  
HETATM   21  O   UNL     1     -10.139  19.562  69.392  1.00  0.00    -0.356 OA 
HETATM   22  O   UNL     1     -10.120  18.638  67.134  1.00  0.00    -0.324 OA 
HETATM   23  O   UNL     1      -9.848  21.092  67.402  1.00  0.00    -0.393 OA 
HETATM   24  S   UNL     1      -9.601  19.841  68.081  1.00  0.00    -0.376 S  
ENDBRANCH  18  20
ENDBRANCH  14  15
ENDBRANCH  13  14
ENDBRANCH   4  13
BRANCH   8  25
HETATM   25  N   UNL     1      -9.510   9.832  66.757  1.00  0.00    -0.157 N  
HETATM   26  C   UNL     1      -9.712   8.473  66.631  1.00  0.00    -0.249 C  
HETATM   27  H   UNL     1      -8.594  10.201  66.502  1.00  0.00     0.000 HD 
HETATM   28  O   UNL     1     -10.753   7.914  66.962  1.00  0.00    -0.339 OA 
BRANCH  26  29
HETATM   29  C   UNL     1      -8.498   7.741  66.015  1.00  0.00    -0.139 C  
HETATM   30  O   UNL     1      -8.782   7.391  64.652  1.00  0.00    -0.357 OA 
HETATM   31  H   UNL     1      -8.036   6.941  64.273  1.00  0.00     0.000 HD 
BRANCH  29  32
HETATM   32  C   UNL     1      -8.130   6.493  66.788  1.00  0.00    -0.109 A  
HETATM   33  C   UNL     1      -7.291   6.584  67.909  1.00  0.00    -0.093 A  
HETATM   34  C   UNL     1      -8.624   5.229  66.423  1.00  0.00    -0.114 A  
HETATM   35  C   UNL     1      -8.266   4.087  67.141  1.00  0.00    -0.099 A  
HETATM   36  C   UNL     1      -7.416   4.191  68.238  1.00  0.00    -0.063 A  
HETATM   37  C   UNL     1      -6.933   5.440  68.626  1.00  0.00    -0.060 A  
ENDBRANCH  29  32
ENDBRANCH  26  29
ENDBRANCH   8  25
TORSDOF 7
ENDMDL
MODEL      105
REMARK 921   NORMALIZED FREE ENERGY PREDICTED BY IDOCK:   -5.95 KCAL/MOL
REMARK 922        TOTAL FREE ENERGY PREDICTED BY IDOCK:   -9.36 KCAL/MOL
REMARK 923 INTER-LIGAND FREE ENERGY PREDICTED BY IDOCK:   -8.24 KCAL/MOL
REMARK 924 INTRA-LIGAND FREE ENERGY PREDICTED BY IDOCK:   -1.11 KCAL/MOL
REMARK 927      BINDING AFFINITY PREDICTED BY RF-SCORE:    0.00 PKD
ROOT
HETATM    1  C   UNL     1      -9.303   9.391  67.216  1.00  0.00    -0.131 C  
HETATM    2  S   UNL     1     -10.928  10.158  67.392  1.00  0.00    -0.141 SA 
HETATM    3  C   UNL     1     -10.509  11.613  66.405  1.00  0.00    -0.244 C  
HETATM    4  C   UNL     1      -9.152  12.243  66.704  1.00  0.00    -0.203 C  
HETATM    5  C   UNL     1      -7.744   9.408  68.604  1.00  0.00    -0.084 C  
HETATM    6  CA  UNL     1      -8.143  11.603  67.371  1.00  0.00    -0.153 C  
HETATM    7  C   UNL     1      -6.872  12.358  67.712  1.00  0.00    -0.113 C  
HETATM    8  CA  UNL     1      -8.905   8.383  68.350  1.00  0.00    -0.140 C  
HETATM    9  N   UNL     1      -8.302  10.291  67.750  1.00  0.00    -0.110 N  
HETATM   10  O   UNL     1      -6.111  11.877  68.710  1.00  0.00    -0.051 OA 
HETATM   11  OXT UNL     1      -6.520  13.377  67.131  1.00  0.00    -0.220 OA 
HETATM   12  O   UNL     1      -6.789   9.537  69.336  1.00  0.00    -0.047 OA 
ENDROOT
BRANCH   4  13
HETATM   13  C   UNL     1      -9.149  13.731  66.329  1.00  0.00     0.015 C  
BRANCH  13  14
HETATM   14  S   UNL     1     -10.820  14.433  66.089  1.00  0.00    -0.317 SA 
BRANCH  14  15
HETATM   15  C   UNL     1     -10.990  15.284  67.590  1.00  0.00    -0.311 A  
HETATM   16  N   UNL     1     -11.681  14.860  68.626  1.00  0.00    -0.331 NA 
HETATM   17  N   UNL     1     -11.523  15.803  69.609  1.00  0.00    -0.322 NA 
HETATM   18  N   UNL     1     -10.418  16.484  67.919  1.00  0.00    -0.302 NA 
HETATM   19  N   UNL     1     -10.745  16.791  69.195  1.00  0.00    -0.339 NA 
BRANCH  18  20
HETATM   20  C   UNL     1      -9.475  17.324  67.240  1.00  0.00    -0.250 C  
HETATM   21  O   UNL     1      -9.171  19.623  66.011  1.00  0.00    -0.356 OA 
HETATM   22  O   UNL     1     -11.187  19.263  67.336  1.00  0.00    -0.344 OA 
HETATM   23  O   UNL     1     -10.968  18.055  65.178  1.00  0.00    -0.645 OA 
HETATM   24  S   UNL     1     -10.180  18.617  66.249  1.00  0.00    -0.421 S  
ENDBRANCH  18  20
ENDBRANCH  14  15
ENDBRANCH  13  14
ENDBRANCH   4  13
BRANCH   8  25
HETATM   25  N   UNL     1      -9.874   8.242  69.466  1.00  0.00    -0.178 N  
HETATM   26  C   UNL     1     -10.513   7.066  69.802  1.00  0.00    -0.219 C  
HETATM   27  H   UNL     1     -10.081   9.071  70.022  1.00  0.00     0.000 HD 
HETATM   28  O   UNL     1     -10.383   6.024  69.168  1.00  0.00    -0.186 OA 
BRANCH  26  29
HETATM   29  C   UNL     1     -11.390   7.202  71.068  1.00  0.00    -0.279 C  
HETATM   30  O   UNL     1     -11.661   8.588  71.325  1.00  0.00    -0.271 OA 
HETATM   31  H   UNL     1     -12.200   8.672  72.103  1.00  0.00     0.000 HD 
BRANCH  29  32
HETATM   32  C   UNL     1     -10.736   6.583  72.285  1.00  0.00    -0.252 A  
HETATM   33  C   UNL     1     -10.811   5.198  72.494  1.00  0.00    -0.282 A  
HETATM   34  C   UNL     1     -10.031   7.364  73.218  1.00  0.00    -0.341 A  
HETATM   35  C   UNL     1      -9.444   6.778  74.341  1.00  0.00    -0.279 A  
HETATM   36  C   UNL     1      -9.545   5.405  74.544  1.00  0.00    -0.173 A  
HETATM   37  C   UNL     1     -10.223   4.614  73.618  1.00  0.00    -0.224 A  
ENDBRANCH  29  32
ENDBRANCH  26  29
ENDBRANCH   8  25
TORSDOF 7
ENDMDL
MODEL      106
REMARK 921   NORMALIZED FREE ENERGY PREDICTED BY IDOCK:   -5.95 KCAL/MOL
REMARK 922        TOTAL FREE ENERGY PREDICTED BY IDOCK:   -9.35 KCAL/MOL
REMARK 923 INTER-LIGAND FREE ENERGY PREDICTED BY IDOCK:   -8.28 KCAL/MOL
REMARK 924 INTRA-LIGAND FREE ENERGY PREDICTED BY IDOCK:   -1.07 KCAL/MOL
REMARK 927      BINDING AFFINITY PREDICTED BY RF-SCORE:    0.00 PKD
ROOT
HETATM    1  C   UNL     1     -10.556  10.213  66.906  1.00  0.00    -0.200 C  
HETATM    2  S   UNL     1     -11.403  10.912  68.339  1.00  0.00    -0.307 SA 
HETATM    3  C   UNL     1     -10.628  12.538  68.186  1.00  0.00    -0.226 C  
HETATM    4  C   UNL     1      -9.128  12.530  67.912  1.00  0.00    -0.199 C  
HETATM    5  C   UNL     1      -8.868   8.985  66.913  1.00  0.00    -0.116 C  
HETATM    6  CA  UNL     1      -8.443  11.443  67.442  1.00  0.00    -0.143 C  
HETATM    7  C   UNL     1      -6.934  11.508  67.307  1.00  0.00    -0.125 C  
HETATM    8  CA  UNL     1     -10.402   8.652  66.906  1.00  0.00    -0.285 C  
HETATM    9  N   UNL     1      -9.126  10.293  67.124  1.00  0.00    -0.142 N  
HETATM   10  O   UNL     1      -6.261  10.344  67.273  1.00  0.00    -0.056 OA 
HETATM   11  OXT UNL     1      -6.310  12.560  67.237  1.00  0.00    -0.156 OA 
HETATM   12  O   UNL     1      -7.810   8.397  66.900  1.00  0.00    -0.094 OA 
ENDROOT
BRANCH   4  13
HETATM   13  C   UNL     1      -8.477  13.826  68.411  1.00  0.00    -0.154 C  
BRANCH  13  14
HETATM   14  S   UNL     1      -8.663  15.235  67.259  1.00  0.00    -0.212 SA 
BRANCH  14  15
HETATM   15  C   UNL     1      -7.741  16.427  68.116  1.00  0.00    -0.160 A  
HETATM   16  N   UNL     1      -6.458  16.334  68.394  1.00  0.00    -0.127 NA 
HETATM   17  N   UNL     1      -6.118  17.495  69.040  1.00  0.00    -0.194 NA 
HETATM   18  N   UNL     1      -8.197  17.626  68.596  1.00  0.00    -0.281 NA 
HETATM   19  N   UNL     1      -7.166  18.296  69.158  1.00  0.00    -0.213 NA 
BRANCH  18  20
HETATM   20  C   UNL     1      -9.456  18.301  68.468  1.00  0.00    -0.331 C  
HETATM   21  O   UNL     1     -10.928  19.778  66.872  1.00  0.00    -0.433 OA 
HETATM   22  O   UNL     1      -8.975  18.645  65.948  1.00  0.00    -0.470 OA 
HETATM   23  O   UNL     1      -8.605  20.591  67.445  1.00  0.00    -0.341 OA 
HETATM   24  S   UNL     1      -9.540  19.523  67.182  1.00  0.00    -0.353 S  
ENDBRANCH  18  20
ENDBRANCH  14  15
ENDBRANCH  13  14
ENDBRANCH   4  13
BRANCH   8  25
HETATM   25  N   UNL     1     -10.898   7.949  68.115  1.00  0.00    -0.441 N  
HETATM   26  C   UNL     1     -11.068   6.583  68.211  1.00  0.00    -0.243 C  
HETATM   27  H   UNL     1     -11.129   8.514  68.932  1.00  0.00     0.000 HD 
HETATM   28  O   UNL     1     -10.876   5.814  67.275  1.00  0.00    -0.272 OA 
BRANCH  26  29
HETATM   29  C   UNL     1     -11.505   6.131  69.623  1.00  0.00    -0.262 C  
HETATM   30  O   UNL     1     -12.177   7.209  70.292  1.00  0.00    -0.583 OA 
HETATM   31  H   UNL     1     -12.446   6.931  71.160  1.00  0.00     0.000 HD 
BRANCH  29  32
HETATM   32  C   UNL     1     -10.334   5.669  70.464  1.00  0.00    -0.327 A  
HETATM   33  C   UNL     1      -9.745   6.546  71.387  1.00  0.00    -0.184 A  
HETATM   34  C   UNL     1      -9.822   4.365  70.358  1.00  0.00    -0.286 A  
HETATM   35  C   UNL     1      -8.735   3.959  71.134  1.00  0.00    -0.121 A  
HETATM   36  C   UNL     1      -8.149   4.847  72.031  1.00  0.00    -0.111 A  
HETATM   37  C   UNL     1      -8.657   6.138  72.162  1.00  0.00    -0.127 A  
ENDBRANCH  29  32
ENDBRANCH  26  29
ENDBRANCH   8  25
TORSDOF 7
ENDMDL
MODEL      107
REMARK 921   NORMALIZED FREE ENERGY PREDICTED BY IDOCK:   -5.94 KCAL/MOL
REMARK 922        TOTAL FREE ENERGY PREDICTED BY IDOCK:   -9.34 KCAL/MOL
REMARK 923 INTER-LIGAND FREE ENERGY PREDICTED BY IDOCK:   -8.22 KCAL/MOL
REMARK 924 INTRA-LIGAND FREE ENERGY PREDICTED BY IDOCK:   -1.12 KCAL/MOL
REMARK 927      BINDING AFFINITY PREDICTED BY RF-SCORE:    0.00 PKD
ROOT
HETATM    1  C   UNL     1     -11.676  12.824  68.180  1.00  0.00    -0.345 C  
HETATM    2  S   UNL     1     -10.044  12.063  68.043  1.00  0.00    -0.203 SA 
HETATM    3  C   UNL     1     -10.580  10.458  68.681  1.00  0.00    -0.209 C  
HETATM    4  C   UNL     1     -11.478  10.506  69.913  1.00  0.00    -0.384 C  
HETATM    5  C   UNL     1     -12.355  14.085  69.699  1.00  0.00    -0.260 C  
HETATM    6  CA  UNL     1     -12.156  11.621  70.321  1.00  0.00    -0.358 C  
HETATM    7  C   UNL     1     -12.936  11.591  71.623  1.00  0.00    -0.394 C  
HETATM    8  CA  UNL     1     -11.683  14.387  68.313  1.00  0.00    -0.341 C  
HETATM    9  N   UNL     1     -12.103  12.767  69.563  1.00  0.00    -0.251 N  
HETATM   10  O   UNL     1     -13.214  12.768  72.209  1.00  0.00    -0.475 OA 
HETATM   11  OXT UNL     1     -13.309  10.555  72.158  1.00  0.00    -0.437 OA 
HETATM   12  O   UNL     1     -12.804  14.695  70.643  1.00  0.00    -0.344 OA 
ENDROOT
BRANCH   4  13
HETATM   13  C   UNL     1     -11.361   9.207  70.722  1.00  0.00    -0.280 C  
BRANCH  13  14
HETATM   14  S   UNL     1      -9.650   8.574  70.854  1.00  0.00    -0.200 SA 
BRANCH  14  15
HETATM   15  C   UNL     1      -9.963   6.875  70.707  1.00  0.00    -0.190 A  
HETATM   16  N   UNL     1     -10.675   6.162  71.553  1.00  0.00    -0.243 NA 
HETATM   17  N   UNL     1     -10.708   4.886  71.050  1.00  0.00    -0.011 NA 
HETATM   18  N   UNL     1      -9.545   6.051  69.697  1.00  0.00    -0.146 NA 
HETATM   19  N   UNL     1     -10.034   4.808  69.913  1.00  0.00    -0.225 NA 
BRANCH  18  20
HETATM   20  C   UNL     1      -8.861   6.305  68.462  1.00  0.00    -0.114 C  
HETATM   21  O   UNL     1      -9.187   6.641  65.879  1.00  0.00    -0.099 OA 
HETATM   22  O   UNL     1     -11.148   6.733  67.326  1.00  0.00    -0.358 OA 
HETATM   23  O   UNL     1     -10.083   4.525  66.927  1.00  0.00    -0.212 OA 
HETATM   24  S   UNL     1      -9.782   5.936  66.990  1.00  0.00    -0.152 S  
ENDBRANCH  18  20
ENDBRANCH  14  15
ENDBRANCH  13  14
ENDBRANCH   4  13
BRANCH   8  25
HETATM   25  N   UNL     1     -10.352  15.041  68.389  1.00  0.00    -0.227 N  
HETATM   26  C   UNL     1      -9.817  15.842  67.402  1.00  0.00    -0.234 C  
HETATM   27  H   UNL     1      -9.795  14.887  69.229  1.00  0.00     0.000 HD 
HETATM   28  O   UNL     1     -10.373  16.049  66.328  1.00  0.00    -0.296 OA 
BRANCH  26  29
HETATM   29  C   UNL     1      -8.459  16.461  67.803  1.00  0.00    -0.167 C  
HETATM   30  O   UNL     1      -7.876  17.128  66.674  1.00  0.00    -0.210 OA 
HETATM   31  H   UNL     1      -7.041  17.509  66.920  1.00  0.00     0.000 HD 
BRANCH  29  32
HETATM   32  C   UNL     1      -7.490  15.422  68.328  1.00  0.00    -0.112 A  
HETATM   33  C   UNL     1      -7.078  14.367  67.501  1.00  0.00    -0.197 A  
HETATM   34  C   UNL     1      -6.971  15.494  69.632  1.00  0.00    -0.173 A  
HETATM   35  C   UNL     1      -6.088  14.522  70.103  1.00  0.00    -0.160 A  
HETATM   36  C   UNL     1      -5.703  13.469  69.277  1.00  0.00    -0.081 A  
HETATM   37  C   UNL     1      -6.194  13.395  67.974  1.00  0.00    -0.133 A  
ENDBRANCH  29  32
ENDBRANCH  26  29
ENDBRANCH   8  25
TORSDOF 7
ENDMDL
MODEL      108
REMARK 921   NORMALIZED FREE ENERGY PREDICTED BY IDOCK:   -5.93 KCAL/MOL
REMARK 922        TOTAL FREE ENERGY PREDICTED BY IDOCK:   -9.33 KCAL/MOL
REMARK 923 INTER-LIGAND FREE ENERGY PREDICTED BY IDOCK:   -7.90 KCAL/MOL
REMARK 924 INTRA-LIGAND FREE ENERGY PREDICTED BY IDOCK:   -1.44 KCAL/MOL
REMARK 927      BINDING AFFINITY PREDICTED BY RF-SCORE:    0.00 PKD
ROOT
HETATM    1  C   UNL     1      -7.165  10.308  68.079  1.00  0.00    -0.085 C  
HETATM    2  S   UNL     1      -8.247  10.218  69.522  1.00  0.00    -0.123 SA 
HETATM    3  C   UNL     1      -8.187   8.414  69.634  1.00  0.00    -0.117 C  
HETATM    4  C   UNL     1      -8.341   7.667  68.313  1.00  0.00    -0.125 C  
HETATM    5  C   UNL     1      -7.738  10.548  66.086  1.00  0.00    -0.142 C  
HETATM    6  CA  UNL     1      -8.168   8.242  67.085  1.00  0.00    -0.119 C  
HETATM    7  C   UNL     1      -8.452   7.436  65.832  1.00  0.00    -0.150 C  
HETATM    8  CA  UNL     1      -7.332  11.589  67.189  1.00  0.00    -0.139 C  
HETATM    9  N   UNL     1      -7.764   9.554  66.998  1.00  0.00    -0.091 N  
HETATM   10  O   UNL     1      -8.699   8.114  64.698  1.00  0.00    -0.013 OA 
HETATM   11  OXT UNL     1      -8.475   6.212  65.812  1.00  0.00    -0.137 OA 
HETATM   12  O   UNL     1      -8.065  10.539  64.921  1.00  0.00    -0.153 OA 
ENDROOT
BRANCH   4  13
HETATM   13  C   UNL     1      -8.897   6.256  68.550  1.00  0.00    -0.114 C  
BRANCH  13  14
HETATM   14  S   UNL     1     -10.723   6.189  68.636  1.00  0.00    -0.326 SA 
BRANCH  14  15
HETATM   15  C   UNL     1     -10.916   5.881  70.331  1.00  0.00    -0.306 A  
HETATM   16  N   UNL     1     -10.096   5.161  71.067  1.00  0.00    -0.215 NA 
HETATM   17  N   UNL     1     -10.589   5.203  72.347  1.00  0.00    -0.216 NA 
HETATM   18  N   UNL     1     -11.915   6.353  71.140  1.00  0.00    -0.285 NA 
HETATM   19  N   UNL     1     -11.689   5.936  72.407  1.00  0.00    -0.300 NA 
BRANCH  18  20
HETATM   20  C   UNL     1     -12.988   7.277  70.911  1.00  0.00    -0.062 C  
HETATM   21  O   UNL     1     -13.660   9.814  70.961  1.00  0.00    -0.320 OA 
HETATM   22  O   UNL     1     -11.295   9.229  71.074  1.00  0.00    -0.271 OA 
HETATM   23  O   UNL     1     -12.711   8.791  73.067  1.00  0.00    -0.249 OA 
HETATM   24  S   UNL     1     -12.775   8.887  71.628  1.00  0.00    -0.366 S  
ENDBRANCH  18  20
ENDBRANCH  14  15
ENDBRANCH  13  14
ENDBRANCH   4  13
BRANCH   8  25
HETATM   25  N   UNL     1      -8.408  12.528  67.593  1.00  0.00    -0.159 N  
HETATM   26  C   UNL     1      -8.254  13.895  67.697  1.00  0.00    -0.177 C  
HETATM   27  H   UNL     1      -9.324  12.136  67.809  1.00  0.00     0.000 HD 
HETATM   28  O   UNL     1      -7.184  14.468  67.517  1.00  0.00    -0.176 OA 
BRANCH  26  29
HETATM   29  C   UNL     1      -9.573  14.622  68.044  1.00  0.00    -0.212 C  
HETATM   30  O   UNL     1     -10.171  14.019  69.202  1.00  0.00    -0.408 OA 
HETATM   31  H   UNL     1     -10.981  14.465  69.415  1.00  0.00     0.000 HD 
BRANCH  29  32
HETATM   32  C   UNL     1     -10.561  14.593  66.897  1.00  0.00    -0.281 A  
HETATM   33  C   UNL     1     -10.264  15.261  65.699  1.00  0.00    -0.398 A  
HETATM   34  C   UNL     1     -11.777  13.894  66.990  1.00  0.00    -0.426 A  
HETATM   35  C   UNL     1     -12.680  13.888  65.926  1.00  0.00    -0.466 A  
HETATM   36  C   UNL     1     -12.380  14.572  64.751  1.00  0.00    -0.403 A  
HETATM   37  C   UNL     1     -11.169  15.253  64.636  1.00  0.00    -0.366 A  
ENDBRANCH  29  32
ENDBRANCH  26  29
ENDBRANCH   8  25
TORSDOF 7
ENDMDL
MODEL      109
REMARK 921   NORMALIZED FREE ENERGY PREDICTED BY IDOCK:   -5.92 KCAL/MOL
REMARK 922        TOTAL FREE ENERGY PREDICTED BY IDOCK:   -9.31 KCAL/MOL
REMARK 923 INTER-LIGAND FREE ENERGY PREDICTED BY IDOCK:   -9.07 KCAL/MOL
REMARK 924 INTRA-LIGAND FREE ENERGY PREDICTED BY IDOCK:   -0.24 KCAL/MOL
REMARK 927      BINDING AFFINITY PREDICTED BY RF-SCORE:    0.00 PKD
ROOT
HETATM    1  C   UNL     1      -9.764   8.055  69.937  1.00  0.00    -0.180 C  
HETATM    2  S   UNL     1      -9.646   8.713  68.260  1.00  0.00    -0.150 SA 
HETATM    3  C   UNL     1     -10.043  10.410  68.742  1.00  0.00    -0.187 C  
HETATM    4  C   UNL     1     -11.207  10.562  69.716  1.00  0.00    -0.361 C  
HETATM    5  C   UNL     1     -11.377   7.031  70.780  1.00  0.00    -0.298 C  
HETATM    6  CA  UNL     1     -11.702   9.542  70.480  1.00  0.00    -0.222 C  
HETATM    7  C   UNL     1     -12.933   9.775  71.336  1.00  0.00    -0.395 C  
HETATM    8  CA  UNL     1     -10.088   6.524  70.041  1.00  0.00    -0.174 C  
HETATM    9  N   UNL     1     -11.096   8.308  70.445  1.00  0.00    -0.249 N  
HETATM   10  O   UNL     1     -13.640   8.696  71.716  1.00  0.00    -0.367 OA 
HETATM   11  OXT UNL     1     -13.310  10.887  71.682  1.00  0.00    -0.363 OA 
HETATM   12  O   UNL     1     -12.356   6.569  71.320  1.00  0.00    -0.317 OA 
ENDROOT
BRANCH   4  13
HETATM   13  C   UNL     1     -11.855  11.946  69.575  1.00  0.00    -0.331 C  
BRANCH  13  14
HETATM   14  S   UNL     1     -10.736  13.217  68.884  1.00  0.00    -0.113 SA 
BRANCH  14  15
HETATM   15  C   UNL     1     -11.442  13.391  67.310  1.00  0.00    -0.340 A  
HETATM   16  N   UNL     1     -11.986  12.417  66.613  1.00  0.00    -0.596 NA 
HETATM   17  N   UNL     1     -12.454  12.985  65.456  1.00  0.00    -0.511 NA 
HETATM   18  N   UNL     1     -11.558  14.550  66.590  1.00  0.00    -0.371 NA 
HETATM   19  N   UNL     1     -12.211  14.286  65.435  1.00  0.00    -0.406 NA 
BRANCH  18  20
HETATM   20  C   UNL     1     -11.265  15.918  66.906  1.00  0.00     0.007 C  
HETATM   21  O   UNL     1     -10.528  18.226  65.893  1.00  0.00    -0.532 OA 
HETATM   22  O   UNL     1     -11.264  16.464  64.375  1.00  0.00    -0.807 OA 
HETATM   23  O   UNL     1      -9.053  16.217  65.478  1.00  0.00    -0.344 OA 
HETATM   24  S   UNL     1     -10.357  16.809  65.667  1.00  0.00    -0.186 S  
ENDBRANCH  18  20
ENDBRANCH  14  15
ENDBRANCH  13  14
ENDBRANCH   4  13
BRANCH   8  25
HETATM   25  N   UNL     1     -10.335   5.821  68.757  1.00  0.00    -0.202 N  
HETATM   26  C   UNL     1      -9.554   4.796  68.264  1.00  0.00    -0.149 C  
HETATM   27  H   UNL     1     -11.137   6.117  68.201  1.00  0.00     0.000 HD 
HETATM   28  O   UNL     1      -8.536   4.398  68.820  1.00  0.00    -0.083 OA 
BRANCH  26  29
HETATM   29  C   UNL     1     -10.112   4.195  66.954  1.00  0.00     0.030 C  
HETATM   30  O   UNL     1      -9.973   2.767  66.975  1.00  0.00    -0.176 OA 
HETATM   31  H   UNL     1     -10.315   2.397  66.170  1.00  0.00     0.000 HD 
BRANCH  29  32
HETATM   32  C   UNL     1      -9.416   4.750  65.729  1.00  0.00    -0.173 A  
HETATM   33  C   UNL     1      -9.727   4.245  64.457  1.00  0.00    -0.137 A  
HETATM   34  C   UNL     1      -8.467   5.781  65.827  1.00  0.00    -0.143 A  
HETATM   35  C   UNL     1      -7.827   6.273  64.688  1.00  0.00    -0.111 A  
HETATM   36  C   UNL     1      -8.131   5.748  63.435  1.00  0.00    -0.104 A  
HETATM   37  C   UNL     1      -9.085   4.739  63.319  1.00  0.00    -0.033 A  
ENDBRANCH  29  32
ENDBRANCH  26  29
ENDBRANCH   8  25
TORSDOF 7
ENDMDL
MODEL      110
REMARK 921   NORMALIZED FREE ENERGY PREDICTED BY IDOCK:   -5.91 KCAL/MOL
REMARK 922        TOTAL FREE ENERGY PREDICTED BY IDOCK:   -9.30 KCAL/MOL
REMARK 923 INTER-LIGAND FREE ENERGY PREDICTED BY IDOCK:   -8.36 KCAL/MOL
REMARK 924 INTRA-LIGAND FREE ENERGY PREDICTED BY IDOCK:   -0.94 KCAL/MOL
REMARK 927      BINDING AFFINITY PREDICTED BY RF-SCORE:    0.00 PKD
ROOT
HETATM    1  C   UNL     1      -8.554  12.312  68.443  1.00  0.00    -0.136 C  
HETATM    2  S   UNL     1      -7.507  13.415  67.470  1.00  0.00    -0.136 SA 
HETATM    3  C   UNL     1      -7.736  14.835  68.566  1.00  0.00    -0.120 C  
HETATM    4  C   UNL     1      -9.168  15.087  69.027  1.00  0.00    -0.205 C  
HETATM    5  C   UNL     1     -10.542  11.799  68.062  1.00  0.00    -0.206 C  
HETATM    6  CA  UNL     1     -10.166  14.154  68.963  1.00  0.00    -0.121 C  
HETATM    7  C   UNL     1     -11.582  14.543  69.347  1.00  0.00    -0.303 C  
HETATM    8  CA  UNL     1      -9.190  11.114  67.654  1.00  0.00    -0.151 C  
HETATM    9  N   UNL     1      -9.883  12.882  68.525  1.00  0.00    -0.188 N  
HETATM   10  O   UNL     1     -12.585  13.783  68.875  1.00  0.00     0.008 OA 
HETATM   11  OXT UNL     1     -11.845  15.510  70.050  1.00  0.00    -0.311 OA 
HETATM   12  O   UNL     1     -11.731  11.613  67.933  1.00  0.00    -0.459 OA 
ENDROOT
BRANCH   4  13
HETATM   13  C   UNL     1      -9.371  16.565  69.385  1.00  0.00    -0.040 C  
BRANCH  13  14
HETATM   14  S   UNL     1      -8.124  17.680  68.645  1.00  0.00    -0.238 SA 
BRANCH  14  15
HETATM   15  C   UNL     1      -9.171  18.702  67.715  1.00  0.00    -0.285 A  
HETATM   16  N   UNL     1      -8.947  19.970  67.447  1.00  0.00    -0.336 NA 
HETATM   17  N   UNL     1      -9.990  20.388  66.660  1.00  0.00    -0.418 NA 
HETATM   18  N   UNL     1     -10.347  18.338  67.115  1.00  0.00    -0.368 NA 
HETATM   19  N   UNL     1     -10.843  19.401  66.441  1.00  0.00    -0.381 NA 
BRANCH  18  20
HETATM   20  C   UNL     1     -11.005  17.072  66.966  1.00  0.00     0.077 C  
HETATM   21  O   UNL     1     -10.992  14.812  65.630  1.00  0.00    -0.319 OA 
HETATM   22  O   UNL     1      -9.042  16.270  65.480  1.00  0.00    -0.374 OA 
HETATM   23  O   UNL     1     -11.125  16.969  64.321  1.00  0.00    -1.092 OA 
HETATM   24  S   UNL     1     -10.657  16.206  65.455  1.00  0.00    -0.324 S  
ENDBRANCH  18  20
ENDBRANCH  14  15
ENDBRANCH  13  14
ENDBRANCH   4  13
BRANCH   8  25
HETATM   25  N   UNL     1      -8.919  11.077  66.195  1.00  0.00    -0.186 N  
HETATM   26  C   UNL     1      -9.391  10.106  65.337  1.00  0.00    -0.216 C  
HETATM   27  H   UNL     1      -8.344  11.821  65.800  1.00  0.00     0.000 HD 
HETATM   28  O   UNL     1     -10.042   9.136  65.710  1.00  0.00    -0.229 OA 
BRANCH  26  29
HETATM   29  C   UNL     1      -9.027  10.383  63.861  1.00  0.00    -0.227 C  
HETATM   30  O   UNL     1     -10.133  10.038  63.013  1.00  0.00    -0.445 OA 
HETATM   31  H   UNL     1      -9.910  10.208  62.106  1.00  0.00     0.000 HD 
BRANCH  29  32
HETATM   32  C   UNL     1      -7.798   9.615  63.421  1.00  0.00    -0.138 A  
HETATM   33  C   UNL     1      -7.838   8.214  63.342  1.00  0.00    -0.149 A  
HETATM   34  C   UNL     1      -6.607  10.272  63.068  1.00  0.00    -0.127 A  
HETATM   35  C   UNL     1      -5.481   9.547  62.675  1.00  0.00    -0.084 A  
HETATM   36  C   UNL     1      -5.530   8.157  62.621  1.00  0.00    -0.069 A  
HETATM   37  C   UNL     1      -6.710   7.491  62.949  1.00  0.00    -0.066 A  
ENDBRANCH  29  32
ENDBRANCH  26  29
ENDBRANCH   8  25
TORSDOF 7
ENDMDL
MODEL      111
REMARK 921   NORMALIZED FREE ENERGY PREDICTED BY IDOCK:   -5.91 KCAL/MOL
REMARK 922        TOTAL FREE ENERGY PREDICTED BY IDOCK:   -9.29 KCAL/MOL
REMARK 923 INTER-LIGAND FREE ENERGY PREDICTED BY IDOCK:   -8.65 KCAL/MOL
REMARK 924 INTRA-LIGAND FREE ENERGY PREDICTED BY IDOCK:   -0.64 KCAL/MOL
REMARK 927      BINDING AFFINITY PREDICTED BY RF-SCORE:    0.00 PKD
ROOT
HETATM    1  C   UNL     1     -10.751  12.919  67.303  1.00  0.00    -0.245 C  
HETATM    2  S   UNL     1      -8.947  12.884  67.249  1.00  0.00    -0.215 SA 
HETATM    3  C   UNL     1      -8.773  14.673  67.053  1.00  0.00    -0.235 C  
HETATM    4  C   UNL     1      -9.716  15.319  66.044  1.00  0.00    -0.367 C  
HETATM    5  C   UNL     1     -12.069  12.491  65.742  1.00  0.00    -0.378 C  
HETATM    6  CA  UNL     1     -10.857  14.728  65.576  1.00  0.00    -0.351 C  
HETATM    7  C   UNL     1     -11.667  15.412  64.491  1.00  0.00    -0.277 C  
HETATM    8  CA  UNL     1     -11.467  11.590  66.877  1.00  0.00    -0.184 C  
HETATM    9  N   UNL     1     -11.244  13.506  66.074  1.00  0.00    -0.294 N  
HETATM   10  O   UNL     1     -12.497  14.649  63.759  1.00  0.00    -0.799 OA 
HETATM   11  OXT UNL     1     -11.591  16.611  64.252  1.00  0.00    -0.989 OA 
HETATM   12  O   UNL     1     -12.833  12.388  64.809  1.00  0.00    -0.728 OA 
ENDROOT
BRANCH   4  13
HETATM   13  C   UNL     1      -9.114  16.619  65.493  1.00  0.00     0.535 C  
BRANCH  13  14
HETATM   14  S   UNL     1      -7.772  17.306  66.528  1.00  0.00    -0.317 SA 
BRANCH  14  15
HETATM   15  C   UNL     1      -8.721  18.238  67.641  1.00  0.00    -0.256 A  
HETATM   16  N   UNL     1      -9.066  19.496  67.471  1.00  0.00    -0.298 NA 
HETATM   17  N   UNL     1      -9.838  19.834  68.553  1.00  0.00    -0.406 NA 
HETATM   18  N   UNL     1      -9.259  17.802  68.822  1.00  0.00    -0.255 NA 
HETATM   19  N   UNL     1      -9.974  18.808  69.377  1.00  0.00    -0.098 NA 
BRANCH  18  20
HETATM   20  C   UNL     1      -9.317  16.508  69.439  1.00  0.00    -0.040 C  
HETATM   21  O   UNL     1     -10.906  14.510  70.049  1.00  0.00    -0.135 OA 
HETATM   22  O   UNL     1     -11.697  16.193  68.470  1.00  0.00    -0.348 OA 
HETATM   23  O   UNL     1     -11.525  16.818  70.868  1.00  0.00    -0.071 OA 
HETATM   24  S   UNL     1     -10.942  15.944  69.878  1.00  0.00    -0.371 S  
ENDBRANCH  18  20
ENDBRANCH  14  15
ENDBRANCH  13  14
ENDBRANCH   4  13
BRANCH   8  25
HETATM   25  N   UNL     1     -10.581  10.495  66.408  1.00  0.00    -0.190 N  
HETATM   26  C   UNL     1     -10.408   9.294  67.064  1.00  0.00    -0.255 C  
HETATM   27  H   UNL     1     -10.066  10.640  65.541  1.00  0.00     0.000 HD 
HETATM   28  O   UNL     1     -10.933   9.034  68.142  1.00  0.00    -0.087 OA 
BRANCH  26  29
HETATM   29  C   UNL     1      -9.502   8.312  66.288  1.00  0.00    -0.203 C  
HETATM   30  O   UNL     1      -9.139   7.211  67.135  1.00  0.00    -0.124 OA 
HETATM   31  H   UNL     1      -8.582   6.607  66.658  1.00  0.00     0.000 HD 
BRANCH  29  32
HETATM   32  C   UNL     1      -8.246   8.982  65.770  1.00  0.00    -0.120 A  
HETATM   33  C   UNL     1      -7.426   9.709  66.646  1.00  0.00    -0.094 A  
HETATM   34  C   UNL     1      -7.863   8.882  64.421  1.00  0.00    -0.128 A  
HETATM   35  C   UNL     1      -6.708   9.514  63.959  1.00  0.00    -0.102 A  
HETATM   36  C   UNL     1      -5.915  10.248  64.836  1.00  0.00    -0.133 A  
HETATM   37  C   UNL     1      -6.271  10.341  66.181  1.00  0.00    -0.089 A  
ENDBRANCH  29  32
ENDBRANCH  26  29
ENDBRANCH   8  25
TORSDOF 7
ENDMDL
MODEL      112
REMARK 921   NORMALIZED FREE ENERGY PREDICTED BY IDOCK:   -5.90 KCAL/MOL
REMARK 922        TOTAL FREE ENERGY PREDICTED BY IDOCK:   -9.29 KCAL/MOL
REMARK 923 INTER-LIGAND FREE ENERGY PREDICTED BY IDOCK:   -7.97 KCAL/MOL
REMARK 924 INTRA-LIGAND FREE ENERGY PREDICTED BY IDOCK:   -1.31 KCAL/MOL
REMARK 927      BINDING AFFINITY PREDICTED BY RF-SCORE:    0.00 PKD
ROOT
HETATM    1  C   UNL     1     -11.553  13.322  66.979  1.00  0.00    -0.359 C  
HETATM    2  S   UNL     1     -11.815  13.575  65.211  1.00  0.00    -0.374 SA 
HETATM    3  C   UNL     1     -11.502  11.850  64.770  1.00  0.00    -0.260 C  
HETATM    4  C   UNL     1     -10.294  11.207  65.444  1.00  0.00    -0.331 C  
HETATM    5  C   UNL     1      -9.829  13.755  68.073  1.00  0.00    -0.239 C  
HETATM    6  CA  UNL     1      -9.688  11.707  66.563  1.00  0.00    -0.206 C  
HETATM    7  C   UNL     1      -8.425  11.050  67.089  1.00  0.00    -0.137 C  
HETATM    8  CA  UNL     1     -11.123  14.596  67.788  1.00  0.00    -0.298 C  
HETATM    9  N   UNL     1     -10.212  12.815  67.184  1.00  0.00    -0.232 N  
HETATM   10  O   UNL     1      -7.627  11.783  67.884  1.00  0.00    -0.107 OA 
HETATM   11  OXT UNL     1      -8.102   9.901  66.816  1.00  0.00    -0.115 OA 
HETATM   12  O   UNL     1      -8.790  13.866  68.685  1.00  0.00    -0.161 OA 
ENDROOT
BRANCH   4  13
HETATM   13  C   UNL     1      -9.748  10.053  64.592  1.00  0.00    -0.269 C  
BRANCH  13  14
HETATM   14  S   UNL     1      -8.911  10.599  63.060  1.00  0.00    -0.282 SA 
BRANCH  14  15
HETATM   15  C   UNL     1      -7.334   9.940  63.347  1.00  0.00    -0.134 A  
HETATM   16  N   UNL     1      -6.333  10.589  63.902  1.00  0.00    -0.033 NA 
HETATM   17  N   UNL     1      -5.291   9.700  63.978  1.00  0.00    -0.062 NA 
HETATM   18  N   UNL     1      -6.916   8.666  63.069  1.00  0.00    -0.090 NA 
HETATM   19  N   UNL     1      -5.638   8.521  63.486  1.00  0.00    -0.066 NA 
BRANCH  18  20
HETATM   20  C   UNL     1      -7.610   7.505  62.591  1.00  0.00    -0.112 C  
HETATM   21  O   UNL     1      -8.713   5.235  63.315  1.00  0.00    -0.097 OA 
HETATM   22  O   UNL     1      -8.161   6.871  65.040  1.00  0.00    -0.134 OA 
HETATM   23  O   UNL     1      -6.300   5.643  63.946  1.00  0.00    -0.024 OA 
HETATM   24  S   UNL     1      -7.641   6.122  63.704  1.00  0.00    -0.087 S  
ENDBRANCH  18  20
ENDBRANCH  14  15
ENDBRANCH  13  14
ENDBRANCH   4  13
BRANCH   8  25
HETATM   25  N   UNL     1     -10.909  15.831  66.993  1.00  0.00    -0.305 N  
HETATM   26  C   UNL     1     -10.652  17.074  67.533  1.00  0.00    -0.310 C  
HETATM   27  H   UNL     1     -10.955  15.755  65.977  1.00  0.00     0.000 HD 
HETATM   28  O   UNL     1     -10.631  17.292  68.740  1.00  0.00    -0.338 OA 
BRANCH  26  29
HETATM   29  C   UNL     1     -10.377  18.149  66.458  1.00  0.00    -0.386 C  
HETATM   30  O   UNL     1     -10.677  17.624  65.156  1.00  0.00    -0.658 OA 
HETATM   31  H   UNL     1     -10.508  18.285  64.495  1.00  0.00     0.000 HD 
BRANCH  29  32
HETATM   32  C   UNL     1      -8.942  18.633  66.487  1.00  0.00    -0.308 A  
HETATM   33  C   UNL     1      -7.894  17.733  66.241  1.00  0.00    -0.299 A  
HETATM   34  C   UNL     1      -8.625  19.978  66.739  1.00  0.00    -0.396 A  
HETATM   35  C   UNL     1      -7.296  20.404  66.772  1.00  0.00    -0.328 A  
HETATM   36  C   UNL     1      -6.266  19.495  66.547  1.00  0.00    -0.172 A  
HETATM   37  C   UNL     1      -6.566  18.161  66.276  1.00  0.00    -0.261 A  
ENDBRANCH  29  32
ENDBRANCH  26  29
ENDBRANCH   8  25
TORSDOF 7
ENDMDL
MODEL      113
REMARK 921   NORMALIZED FREE ENERGY PREDICTED BY IDOCK:   -5.87 KCAL/MOL
REMARK 922        TOTAL FREE ENERGY PREDICTED BY IDOCK:   -9.25 KCAL/MOL
REMARK 923 INTER-LIGAND FREE ENERGY PREDICTED BY IDOCK:   -8.69 KCAL/MOL
REMARK 924 INTRA-LIGAND FREE ENERGY PREDICTED BY IDOCK:   -0.56 KCAL/MOL
REMARK 927      BINDING AFFINITY PREDICTED BY RF-SCORE:    0.00 PKD
ROOT
HETATM    1  C   UNL     1     -11.199  14.347  68.294  1.00  0.00    -0.275 C  
HETATM    2  S   UNL     1      -9.468  14.588  68.747  1.00  0.00    -0.145 SA 
HETATM    3  C   UNL     1      -9.329  16.197  67.934  1.00  0.00    -0.212 C  
HETATM    4  C   UNL     1      -9.942  16.285  66.540  1.00  0.00    -0.290 C  
HETATM    5  C   UNL     1     -11.943  13.189  66.724  1.00  0.00    -0.373 C  
HETATM    6  CA  UNL     1     -10.850  15.390  66.046  1.00  0.00    -0.314 C  
HETATM    7  C   UNL     1     -11.314  15.508  64.607  1.00  0.00    -0.357 C  
HETATM    8  CA  UNL     1     -11.681  12.856  68.236  1.00  0.00    -0.350 C  
HETATM    9  N   UNL     1     -11.312  14.375  66.851  1.00  0.00    -0.335 N  
HETATM   10  O   UNL     1     -11.837  14.413  64.029  1.00  0.00    -0.326 OA 
HETATM   11  OXT UNL     1     -11.226  16.542  63.956  1.00  0.00    -0.967 OA 
HETATM   12  O   UNL     1     -12.373  12.642  65.734  1.00  0.00    -0.594 OA 
ENDROOT
BRANCH   4  13
HETATM   13  C   UNL     1      -9.261  17.387  65.717  1.00  0.00     0.209 C  
BRANCH  13  14
HETATM   14  S   UNL     1      -9.089  18.974  66.610  1.00  0.00    -0.338 SA 
BRANCH  14  15
HETATM   15  C   UNL     1      -7.525  19.454  66.038  1.00  0.00    -0.289 A  
HETATM   16  N   UNL     1      -7.048  19.201  64.839  1.00  0.00    -0.179 NA 
HETATM   17  N   UNL     1      -5.808  19.785  64.785  1.00  0.00    -0.211 NA 
HETATM   18  N   UNL     1      -6.587  20.175  66.729  1.00  0.00    -0.208 NA 
HETATM   19  N   UNL     1      -5.521  20.392  65.926  1.00  0.00    -0.174 NA 
BRANCH  18  20
HETATM   20  C   UNL     1      -6.615  20.822  68.009  1.00  0.00    -0.294 C  
HETATM   21  O   UNL     1      -6.115  20.504  70.566  1.00  0.00    -0.517 OA 
HETATM   22  O   UNL     1      -5.241  18.860  68.990  1.00  0.00    -0.188 OA 
HETATM   23  O   UNL     1      -7.682  18.869  69.446  1.00  0.00    -0.097 OA 
HETATM   24  S   UNL     1      -6.530  19.739  69.413  1.00  0.00    -0.353 S  
ENDBRANCH  18  20
ENDBRANCH  14  15
ENDBRANCH  13  14
ENDBRANCH   4  13
BRANCH   8  25
HETATM   25  N   UNL     1     -10.642  11.825  68.482  1.00  0.00    -0.210 N  
HETATM   26  C   UNL     1     -10.573  10.612  67.828  1.00  0.00    -0.236 C  
HETATM   27  H   UNL     1      -9.930  12.027  69.183  1.00  0.00     0.000 HD 
HETATM   28  O   UNL     1     -11.408  10.241  67.009  1.00  0.00    -0.177 OA 
BRANCH  26  29
HETATM   29  C   UNL     1      -9.328   9.788  68.224  1.00  0.00    -0.129 C  
HETATM   30  O   UNL     1      -9.493   9.262  69.549  1.00  0.00    -0.160 OA 
HETATM   31  H   UNL     1      -8.728   8.755  69.793  1.00  0.00     0.000 HD 
BRANCH  29  32
HETATM   32  C   UNL     1      -8.056  10.608  68.164  1.00  0.00    -0.114 A  
HETATM   33  C   UNL     1      -7.193  10.645  69.269  1.00  0.00    -0.113 A  
HETATM   34  C   UNL     1      -7.701  11.330  67.012  1.00  0.00    -0.147 A  
HETATM   35  C   UNL     1      -6.530  12.089  66.977  1.00  0.00    -0.114 A  
HETATM   36  C   UNL     1      -5.694  12.132  68.089  1.00  0.00    -0.053 A  
HETATM   37  C   UNL     1      -6.022  11.406  69.233  1.00  0.00    -0.059 A  
ENDBRANCH  29  32
ENDBRANCH  26  29
ENDBRANCH   8  25
TORSDOF 7
ENDMDL
MODEL      114
REMARK 921   NORMALIZED FREE ENERGY PREDICTED BY IDOCK:   -5.85 KCAL/MOL
REMARK 922        TOTAL FREE ENERGY PREDICTED BY IDOCK:   -9.20 KCAL/MOL
REMARK 923 INTER-LIGAND FREE ENERGY PREDICTED BY IDOCK:   -8.35 KCAL/MOL
REMARK 924 INTRA-LIGAND FREE ENERGY PREDICTED BY IDOCK:   -0.85 KCAL/MOL
REMARK 927      BINDING AFFINITY PREDICTED BY RF-SCORE:    0.00 PKD
ROOT
HETATM    1  C   UNL     1      -7.480   8.809  65.842  1.00  0.00    -0.089 C  
HETATM    2  S   UNL     1      -9.174   9.113  65.294  1.00  0.00    -0.125 SA 
HETATM    3  C   UNL     1      -9.039  10.913  65.400  1.00  0.00    -0.198 C  
HETATM    4  C   UNL     1      -8.363  11.449  66.658  1.00  0.00    -0.172 C  
HETATM    5  C   UNL     1      -6.853   8.266  67.757  1.00  0.00    -0.070 C  
HETATM    6  CA  UNL     1      -7.578  10.694  67.485  1.00  0.00    -0.093 C  
HETATM    7  C   UNL     1      -7.042  11.298  68.770  1.00  0.00    -0.096 C  
HETATM    8  CA  UNL     1      -7.223   7.407  66.496  1.00  0.00    -0.079 C  
HETATM    9  N   UNL     1      -7.305   9.387  67.158  1.00  0.00    -0.087 N  
HETATM   10  O   UNL     1      -6.665  10.454  69.745  1.00  0.00    -0.083 OA 
HETATM   11  OXT UNL     1      -6.950  12.505  68.957  1.00  0.00    -0.102 OA 
HETATM   12  O   UNL     1      -6.468   8.095  68.892  1.00  0.00    -0.046 OA 
ENDROOT
BRANCH   4  13
HETATM   13  C   UNL     1      -8.838  12.877  66.963  1.00  0.00    -0.208 C  
BRANCH  13  14
HETATM   14  S   UNL     1     -10.359  12.947  67.977  1.00  0.00    -0.232 SA 
BRANCH  14  15
HETATM   15  C   UNL     1     -11.526  13.199  66.721  1.00  0.00    -0.343 A  
HETATM   16  N   UNL     1     -12.157  12.245  66.071  1.00  0.00    -0.630 NA 
HETATM   17  N   UNL     1     -13.012  12.870  65.199  1.00  0.00    -0.769 NA 
HETATM   18  N   UNL     1     -11.974  14.405  66.249  1.00  0.00    -0.396 NA 
HETATM   19  N   UNL     1     -12.919  14.186  65.307  1.00  0.00    -0.735 NA 
BRANCH  18  20
HETATM   20  C   UNL     1     -11.737  15.755  66.671  1.00  0.00     0.522 C  
HETATM   21  O   UNL     1     -10.695  18.057  65.957  1.00  0.00    -0.319 OA 
HETATM   22  O   UNL     1     -11.052  16.354  64.247  1.00  0.00    -0.845 OA 
HETATM   23  O   UNL     1      -9.219  16.007  65.887  1.00  0.00    -0.336 OA 
HETATM   24  S   UNL     1     -10.509  16.640  65.743  1.00  0.00    -0.242 S  
ENDBRANCH  18  20
ENDBRANCH  14  15
ENDBRANCH  13  14
ENDBRANCH   4  13
BRANCH   8  25
HETATM   25  N   UNL     1      -8.413   6.535  66.657  1.00  0.00    -0.113 N  
HETATM   26  C   UNL     1      -8.721   5.472  65.833  1.00  0.00    -0.145 C  
HETATM   27  H   UNL     1      -9.047   6.735  67.431  1.00  0.00     0.000 HD 
HETATM   28  O   UNL     1      -8.062   5.177  64.841  1.00  0.00    -0.106 OA 
BRANCH  26  29
HETATM   29  C   UNL     1      -9.967   4.690  66.304  1.00  0.00    -0.247 C  
HETATM   30  O   UNL     1     -11.103   5.566  66.351  1.00  0.00    -0.681 OA 
HETATM   31  H   UNL     1     -11.870   5.086  66.641  1.00  0.00     0.000 HD 
BRANCH  29  32
HETATM   32  C   UNL     1      -9.765   4.057  67.665  1.00  0.00    -0.164 A  
HETATM   33  C   UNL     1      -9.354   2.719  67.762  1.00  0.00    -0.239 A  
HETATM   34  C   UNL     1      -9.962   4.784  68.851  1.00  0.00    -0.197 A  
HETATM   35  C   UNL     1      -9.781   4.182  70.097  1.00  0.00    -0.278 A  
HETATM   36  C   UNL     1      -9.392   2.847  70.176  1.00  0.00    -0.212 A  
HETATM   37  C   UNL     1      -9.174   2.118  69.009  1.00  0.00    -0.201 A  
ENDBRANCH  29  32
ENDBRANCH  26  29
ENDBRANCH   8  25
TORSDOF 7
ENDMDL
MODEL      115
REMARK 921   NORMALIZED FREE ENERGY PREDICTED BY IDOCK:   -5.83 KCAL/MOL
REMARK 922        TOTAL FREE ENERGY PREDICTED BY IDOCK:   -9.19 KCAL/MOL
REMARK 923 INTER-LIGAND FREE ENERGY PREDICTED BY IDOCK:   -7.91 KCAL/MOL
REMARK 924 INTRA-LIGAND FREE ENERGY PREDICTED BY IDOCK:   -1.28 KCAL/MOL
REMARK 927      BINDING AFFINITY PREDICTED BY RF-SCORE:    0.00 PKD
ROOT
HETATM    1  C   UNL     1      -6.237   8.127  69.467  1.00  0.00    -0.033 C  
HETATM    2  S   UNL     1      -7.708   7.239  68.912  1.00  0.00    -0.118 SA 
HETATM    3  C   UNL     1      -7.647   7.897  67.229  1.00  0.00    -0.101 C  
HETATM    4  C   UNL     1      -7.373   9.393  67.117  1.00  0.00    -0.087 C  
HETATM    5  C   UNL     1      -6.174   9.898  70.572  1.00  0.00    -0.101 C  
HETATM    6  CA  UNL     1      -6.842  10.151  68.125  1.00  0.00    -0.066 C  
HETATM    7  C   UNL     1      -6.711  11.652  67.946  1.00  0.00    -0.066 C  
HETATM    8  CA  UNL     1      -6.149   8.391  71.011  1.00  0.00    -0.035 C  
HETATM    9  N   UNL     1      -6.459   9.549  69.300  1.00  0.00    -0.044 N  
HETATM   10  O   UNL     1      -6.611  12.404  69.056  1.00  0.00    -0.089 OA 
HETATM   11  OXT UNL     1      -6.701  12.199  66.851  1.00  0.00    -0.110 OA 
HETATM   12  O   UNL     1      -6.128  10.994  71.082  1.00  0.00    -0.357 OA 
ENDROOT
BRANCH   4  13
HETATM   13  C   UNL     1      -7.945   9.954  65.808  1.00  0.00    -0.120 C  
BRANCH  13  14
HETATM   14  S   UNL     1      -9.728   9.618  65.579  1.00  0.00    -0.262 SA 
BRANCH  14  15
HETATM   15  C   UNL     1     -10.182  11.057  64.726  1.00  0.00    -0.319 A  
HETATM   16  N   UNL     1     -10.584  11.099  63.475  1.00  0.00    -0.368 NA 
HETATM   17  N   UNL     1     -10.879  12.411  63.207  1.00  0.00    -0.369 NA 
HETATM   18  N   UNL     1     -10.212  12.331  65.229  1.00  0.00    -0.275 NA 
HETATM   19  N   UNL     1     -10.669  13.170  64.271  1.00  0.00    -0.406 NA 
BRANCH  18  20
HETATM   20  C   UNL     1     -10.007  12.854  66.549  1.00  0.00    -0.259 C  
HETATM   21  O   UNL     1     -11.101  13.141  68.918  1.00  0.00    -0.255 OA 
HETATM   22  O   UNL     1     -12.121  11.585  67.340  1.00  0.00    -0.593 OA 
HETATM   23  O   UNL     1     -12.359  14.019  66.911  1.00  0.00    -0.418 OA 
HETATM   24  S   UNL     1     -11.476  13.056  67.526  1.00  0.00    -0.349 S  
ENDBRANCH  18  20
ENDBRANCH  14  15
ENDBRANCH  13  14
ENDBRANCH   4  13
BRANCH   8  25
HETATM   25  N   UNL     1      -7.316   7.950  71.815  1.00  0.00    -0.068 N  
HETATM   26  C   UNL     1      -7.528   8.287  73.136  1.00  0.00    -0.105 C  
HETATM   27  H   UNL     1      -8.010   7.357  71.359  1.00  0.00     0.000 HD 
HETATM   28  O   UNL     1      -6.733   8.946  73.798  1.00  0.00    -0.330 OA 
BRANCH  26  29
HETATM   29  C   UNL     1      -8.876   7.762  73.679  1.00  0.00    -0.266 C  
HETATM   30  O   UNL     1      -8.647   6.653  74.560  1.00  0.00    -0.141 OA 
HETATM   31  H   UNL     1      -9.476   6.330  74.894  1.00  0.00     0.000 HD 
BRANCH  29  32
HETATM   32  C   UNL     1      -9.814   7.337  72.569  1.00  0.00    -0.195 A  
HETATM   33  C   UNL     1     -10.713   8.263  72.017  1.00  0.00    -0.366 A  
HETATM   34  C   UNL     1      -9.799   6.030  72.054  1.00  0.00    -0.177 A  
HETATM   35  C   UNL     1     -10.678   5.652  71.038  1.00  0.00    -0.304 A  
HETATM   36  C   UNL     1     -11.578   6.576  70.515  1.00  0.00    -0.455 A  
HETATM   37  C   UNL     1     -11.592   7.883  71.001  1.00  0.00    -0.299 A  
ENDBRANCH  29  32
ENDBRANCH  26  29
ENDBRANCH   8  25
TORSDOF 7
ENDMDL
MODEL      116
REMARK 921   NORMALIZED FREE ENERGY PREDICTED BY IDOCK:   -5.82 KCAL/MOL
REMARK 922        TOTAL FREE ENERGY PREDICTED BY IDOCK:   -9.17 KCAL/MOL
REMARK 923 INTER-LIGAND FREE ENERGY PREDICTED BY IDOCK:   -8.42 KCAL/MOL
REMARK 924 INTRA-LIGAND FREE ENERGY PREDICTED BY IDOCK:   -0.75 KCAL/MOL
REMARK 927      BINDING AFFINITY PREDICTED BY RF-SCORE:    0.00 PKD
ROOT
HETATM    1  C   UNL     1     -10.775  11.185  68.576  1.00  0.00    -0.201 C  
HETATM    2  S   UNL     1      -9.074  10.653  68.864  1.00  0.00    -0.162 SA 
HETATM    3  C   UNL     1      -9.538   9.034  69.520  1.00  0.00    -0.165 C  
HETATM    4  C   UNL     1     -10.690   9.034  70.520  1.00  0.00    -0.285 C  
HETATM    5  C   UNL     1     -11.929  12.434  69.788  1.00  0.00    -0.289 C  
HETATM    6  CA  UNL     1     -11.574  10.067  70.667  1.00  0.00    -0.340 C  
HETATM    7  C   UNL     1     -12.617  10.012  71.767  1.00  0.00    -0.409 C  
HETATM    8  CA  UNL     1     -11.003  12.737  68.557  1.00  0.00    -0.258 C  
HETATM    9  N   UNL     1     -11.492  11.158  69.834  1.00  0.00    -0.296 N  
HETATM   10  O   UNL     1     -13.162  11.173  72.167  1.00  0.00    -0.481 OA 
HETATM   11  OXT UNL     1     -12.971   8.970  72.305  1.00  0.00    -0.388 OA 
HETATM   12  O   UNL     1     -12.650  13.033  70.553  1.00  0.00    -0.248 OA 
ENDROOT
BRANCH   4  13
HETATM   13  C   UNL     1     -10.598   7.820  71.454  1.00  0.00    -0.213 C  
BRANCH  13  14
HETATM   14  S   UNL     1      -9.559   8.102  72.932  1.00  0.00    -0.254 SA 
BRANCH  14  15
HETATM   15  C   UNL     1      -8.133   7.244  72.445  1.00  0.00    -0.100 A  
HETATM   16  N   UNL     1      -6.988   7.804  72.118  1.00  0.00    -0.065 NA 
HETATM   17  N   UNL     1      -6.122   6.778  71.839  1.00  0.00    -0.038 NA 
HETATM   18  N   UNL     1      -7.986   5.886  72.357  1.00  0.00    -0.102 NA 
HETATM   19  N   UNL     1      -6.714   5.604  71.993  1.00  0.00    -0.061 NA 
BRANCH  18  20
HETATM   20  C   UNL     1      -8.847   4.795  72.714  1.00  0.00    -0.117 C  
HETATM   21  O   UNL     1      -9.950   2.580  71.838  1.00  0.00    -0.160 OA 
HETATM   22  O   UNL     1      -8.133   3.571  70.547  1.00  0.00    -0.052 OA 
HETATM   23  O   UNL     1     -10.342   4.706  70.529  1.00  0.00    -0.185 OA 
HETATM   24  S   UNL     1      -9.504   3.865  71.352  1.00  0.00    -0.163 S  
ENDBRANCH  18  20
ENDBRANCH  14  15
ENDBRANCH  13  14
ENDBRANCH   4  13
BRANCH   8  25
HETATM   25  N   UNL     1      -9.815  13.575  68.854  1.00  0.00    -0.426 N  
HETATM   26  C   UNL     1      -9.136  14.329  67.920  1.00  0.00    -0.190 C  
HETATM   27  H   UNL     1      -9.477  13.595  69.817  1.00  0.00     0.000 HD 
HETATM   28  O   UNL     1      -9.418  14.336  66.727  1.00  0.00    -0.253 OA 
BRANCH  26  29
HETATM   29  C   UNL     1      -7.999  15.172  68.542  1.00  0.00    -0.142 C  
HETATM   30  O   UNL     1      -7.739  14.725  69.881  1.00  0.00    -0.402 OA 
HETATM   31  H   UNL     1      -7.040  15.243  70.264  1.00  0.00     0.000 HD 
BRANCH  29  32
HETATM   32  C   UNL     1      -8.329  16.650  68.561  1.00  0.00    -0.228 A  
HETATM   33  C   UNL     1      -7.295  17.599  68.567  1.00  0.00    -0.256 A  
HETATM   34  C   UNL     1      -9.658  17.107  68.556  1.00  0.00    -0.288 A  
HETATM   35  C   UNL     1      -9.943  18.473  68.584  1.00  0.00    -0.419 A  
HETATM   36  C   UNL     1      -8.906  19.402  68.610  1.00  0.00    -0.417 A  
HETATM   37  C   UNL     1      -7.583  18.965  68.596  1.00  0.00    -0.366 A  
ENDBRANCH  29  32
ENDBRANCH  26  29
ENDBRANCH   8  25
TORSDOF 7
ENDMDL
MODEL      117
REMARK 921   NORMALIZED FREE ENERGY PREDICTED BY IDOCK:   -5.81 KCAL/MOL
REMARK 922        TOTAL FREE ENERGY PREDICTED BY IDOCK:   -9.16 KCAL/MOL
REMARK 923 INTER-LIGAND FREE ENERGY PREDICTED BY IDOCK:   -8.06 KCAL/MOL
REMARK 924 INTRA-LIGAND FREE ENERGY PREDICTED BY IDOCK:   -1.10 KCAL/MOL
REMARK 927      BINDING AFFINITY PREDICTED BY RF-SCORE:    0.00 PKD
ROOT
HETATM    1  C   UNL     1     -11.620   7.606  70.641  1.00  0.00    -0.232 C  
HETATM    2  S   UNL     1     -10.796   8.852  71.656  1.00  0.00    -0.371 SA 
HETATM    3  C   UNL     1     -11.029  10.189  70.461  1.00  0.00    -0.310 C  
HETATM    4  C   UNL     1     -10.728   9.833  69.008  1.00  0.00    -0.238 C  
HETATM    5  C   UNL     1     -10.715   6.166  69.430  1.00  0.00    -0.320 C  
HETATM    6  CA  UNL     1     -10.651   8.552  68.536  1.00  0.00    -0.111 C  
HETATM    7  C   UNL     1     -10.238   8.307  67.096  1.00  0.00    -0.295 C  
HETATM    8  CA  UNL     1     -11.202   6.121  70.922  1.00  0.00    -0.299 C  
HETATM    9  N   UNL     1     -10.921   7.498  69.376  1.00  0.00    -0.146 N  
HETATM   10  O   UNL     1      -9.755   7.091  66.786  1.00  0.00    -0.172 OA 
HETATM   11  OXT UNL     1     -10.318   9.159  66.221  1.00  0.00    -0.244 OA 
HETATM   12  O   UNL     1     -10.205   5.427  68.618  1.00  0.00    -0.178 OA 
ENDROOT
BRANCH   4  13
HETATM   13  C   UNL     1     -10.341  11.086  68.212  1.00  0.00    -0.178 C  
BRANCH  13  14
HETATM   14  S   UNL     1     -11.334  12.563  68.632  1.00  0.00    -0.312 SA 
BRANCH  14  15
HETATM   15  C   UNL     1     -11.907  12.980  67.050  1.00  0.00    -0.377 A  
HETATM   16  N   UNL     1     -12.332  12.120  66.149  1.00  0.00    -0.370 NA 
HETATM   17  N   UNL     1     -12.727  12.861  65.064  1.00  0.00    -0.724 NA 
HETATM   18  N   UNL     1     -12.023  14.240  66.527  1.00  0.00    -0.425 NA 
HETATM   19  N   UNL     1     -12.555  14.155  65.287  1.00  0.00    -0.576 NA 
BRANCH  18  20
HETATM   20  C   UNL     1     -11.834  15.543  67.097  1.00  0.00     0.273 C  
HETATM   21  O   UNL     1     -10.263  17.646  67.126  1.00  0.00    -0.318 OA 
HETATM   22  O   UNL     1      -9.975  15.996  65.353  1.00  0.00    -0.445 OA 
HETATM   23  O   UNL     1      -9.248  15.393  67.649  1.00  0.00    -0.185 OA 
HETATM   24  S   UNL     1     -10.198  16.216  66.939  1.00  0.00    -0.287 S  
ENDBRANCH  18  20
ENDBRANCH  14  15
ENDBRANCH  13  14
ENDBRANCH   4  13
BRANCH   8  25
HETATM   25  N   UNL     1     -10.129   5.925  71.929  1.00  0.00    -0.182 N  
HETATM   26  C   UNL     1     -10.303   5.298  73.145  1.00  0.00    -0.197 C  
HETATM   27  H   UNL     1      -9.199   6.278  71.705  1.00  0.00     0.000 HD 
HETATM   28  O   UNL     1     -11.388   4.887  73.541  1.00  0.00    -0.329 OA 
BRANCH  26  29
HETATM   29  C   UNL     1      -8.985   5.157  73.940  1.00  0.00    -0.116 C  
HETATM   30  O   UNL     1      -8.240   6.382  73.870  1.00  0.00    -0.108 OA 
HETATM   31  H   UNL     1      -7.430   6.295  74.358  1.00  0.00     0.000 HD 
BRANCH  29  32
HETATM   32  C   UNL     1      -8.128   4.018  73.428  1.00  0.00    -0.089 A  
HETATM   33  C   UNL     1      -6.737   4.176  73.330  1.00  0.00    -0.052 A  
HETATM   34  C   UNL     1      -8.689   2.784  73.057  1.00  0.00    -0.082 A  
HETATM   35  C   UNL     1      -7.886   1.749  72.577  1.00  0.00    -0.045 A  
HETATM   36  C   UNL     1      -6.509   1.928  72.467  1.00  0.00    -0.014 A  
HETATM   37  C   UNL     1      -5.935   3.140  72.849  1.00  0.00    -0.008 A  
ENDBRANCH  29  32
ENDBRANCH  26  29
ENDBRANCH   8  25
TORSDOF 7
ENDMDL
MODEL      118
REMARK 921   NORMALIZED FREE ENERGY PREDICTED BY IDOCK:   -5.81 KCAL/MOL
REMARK 922        TOTAL FREE ENERGY PREDICTED BY IDOCK:   -9.15 KCAL/MOL
REMARK 923 INTER-LIGAND FREE ENERGY PREDICTED BY IDOCK:   -8.14 KCAL/MOL
REMARK 924 INTRA-LIGAND FREE ENERGY PREDICTED BY IDOCK:   -1.02 KCAL/MOL
REMARK 927      BINDING AFFINITY PREDICTED BY RF-SCORE:    0.00 PKD
ROOT
HETATM    1  C   UNL     1      -8.606  10.435  69.056  1.00  0.00    -0.157 C  
HETATM    2  S   UNL     1      -9.902   9.711  70.083  1.00  0.00    -0.265 SA 
HETATM    3  C   UNL     1      -9.418   8.002  69.745  1.00  0.00    -0.159 C  
HETATM    4  C   UNL     1      -9.107   7.683  68.286  1.00  0.00    -0.136 C  
HETATM    5  C   UNL     1      -8.800  11.169  67.112  1.00  0.00    -0.143 C  
HETATM    6  CA  UNL     1      -8.836   8.630  67.337  1.00  0.00    -0.134 C  
HETATM    7  C   UNL     1      -8.647   8.212  65.891  1.00  0.00    -0.151 C  
HETATM    8  CA  UNL     1      -8.902  11.875  68.510  1.00  0.00    -0.108 C  
HETATM    9  N   UNL     1      -8.764   9.955  67.699  1.00  0.00    -0.122 N  
HETATM   10  O   UNL     1      -8.818   9.151  64.944  1.00  0.00    -0.190 OA 
HETATM   11  OXT UNL     1      -8.359   7.071  65.554  1.00  0.00    -0.135 OA 
HETATM   12  O   UNL     1      -8.870  11.461  65.939  1.00  0.00    -0.200 OA 
ENDROOT
BRANCH   4  13
HETATM   13  C   UNL     1      -9.330   6.193  67.997  1.00  0.00    -0.114 C  
BRANCH  13  14
HETATM   14  S   UNL     1      -8.012   5.109  68.657  1.00  0.00    -0.086 SA 
BRANCH  14  15
HETATM   15  C   UNL     1      -8.668   3.565  68.221  1.00  0.00    -0.105 A  
HETATM   16  N   UNL     1      -9.339   2.773  69.030  1.00  0.00    -0.154 NA 
HETATM   17  N   UNL     1      -9.708   1.683  68.284  1.00  0.00    -0.114 NA 
HETATM   18  N   UNL     1      -8.608   2.969  66.990  1.00  0.00    -0.104 NA 
HETATM   19  N   UNL     1      -9.280   1.795  67.037  1.00  0.00    -0.072 NA 
BRANCH  18  20
HETATM   20  C   UNL     1      -8.124   3.423  65.719  1.00  0.00    -0.093 C  
HETATM   21  O   UNL     1      -8.846   4.409  63.395  1.00  0.00    -0.122 OA 
HETATM   22  O   UNL     1     -10.469   4.399  65.216  1.00  0.00    -0.255 OA 
HETATM   23  O   UNL     1      -9.892   2.234  64.144  1.00  0.00    -0.141 OA 
HETATM   24  S   UNL     1      -9.345   3.539  64.434  1.00  0.00    -0.151 S  
ENDBRANCH  18  20
ENDBRANCH  14  15
ENDBRANCH  13  14
ENDBRANCH   4  13
BRANCH   8  25
HETATM   25  N   UNL     1     -10.237  12.435  68.837  1.00  0.00    -0.423 N  
HETATM   26  C   UNL     1     -10.528  13.782  68.892  1.00  0.00    -0.169 C  
HETATM   27  H   UNL     1     -10.991  11.778  69.034  1.00  0.00     0.000 HD 
HETATM   28  O   UNL     1      -9.687  14.660  68.728  1.00  0.00    -0.215 OA 
BRANCH  26  29
HETATM   29  C   UNL     1     -12.024  14.061  69.161  1.00  0.00    -0.360 C  
HETATM   30  O   UNL     1     -12.486  15.111  68.299  1.00  0.00    -0.451 OA 
HETATM   31  H   UNL     1     -13.406  15.283  68.464  1.00  0.00     0.000 HD 
BRANCH  29  32
HETATM   32  C   UNL     1     -12.284  14.444  70.603  1.00  0.00    -0.414 A  
HETATM   33  C   UNL     1     -12.998  13.574  71.442  1.00  0.00    -0.421 A  
HETATM   34  C   UNL     1     -11.811  15.653  71.139  1.00  0.00    -0.454 A  
HETATM   35  C   UNL     1     -12.069  15.995  72.467  1.00  0.00    -0.635 A  
HETATM   36  C   UNL     1     -12.795  15.131  73.282  1.00  0.00    -0.640 A  
HETATM   37  C   UNL     1     -13.255  13.918  72.770  1.00  0.00    -0.543 A  
ENDBRANCH  29  32
ENDBRANCH  26  29
ENDBRANCH   8  25
TORSDOF 7
ENDMDL
MODEL      119
REMARK 921   NORMALIZED FREE ENERGY PREDICTED BY IDOCK:   -5.80 KCAL/MOL
REMARK 922        TOTAL FREE ENERGY PREDICTED BY IDOCK:   -9.15 KCAL/MOL
REMARK 923 INTER-LIGAND FREE ENERGY PREDICTED BY IDOCK:   -7.54 KCAL/MOL
REMARK 924 INTRA-LIGAND FREE ENERGY PREDICTED BY IDOCK:   -1.60 KCAL/MOL
REMARK 927      BINDING AFFINITY PREDICTED BY RF-SCORE:    0.00 PKD
ROOT
HETATM    1  C   UNL     1      -7.794  14.494  67.534  1.00  0.00    -0.193 C  
HETATM    2  S   UNL     1      -7.379  14.611  69.288  1.00  0.00    -0.126 SA 
HETATM    3  C   UNL     1      -6.076  13.360  69.212  1.00  0.00    -0.098 C  
HETATM    4  C   UNL     1      -6.419  12.099  68.424  1.00  0.00    -0.056 C  
HETATM    5  C   UNL     1      -9.383  13.443  66.681  1.00  0.00    -0.241 C  
HETATM    6  CA  UNL     1      -7.446  12.016  67.525  1.00  0.00    -0.140 C  
HETATM    7  C   UNL     1      -7.770  10.683  66.876  1.00  0.00    -0.122 C  
HETATM    8  CA  UNL     1      -9.251  14.934  67.154  1.00  0.00    -0.220 C  
HETATM    9  N   UNL     1      -8.194  13.134  67.239  1.00  0.00    -0.184 N  
HETATM   10  O   UNL     1      -9.001  10.523  66.362  1.00  0.00    -0.153 OA 
HETATM   11  OXT UNL     1      -6.971   9.757  66.810  1.00  0.00    -0.083 OA 
HETATM   12  O   UNL     1     -10.209  12.722  66.169  1.00  0.00    -0.263 OA 
ENDROOT
BRANCH   4  13
HETATM   13  C   UNL     1      -5.587  10.908  68.917  1.00  0.00    -0.040 C  
BRANCH  13  14
HETATM   14  S   UNL     1      -6.148  10.230  70.520  1.00  0.00    -0.109 SA 
BRANCH  14  15
HETATM   15  C   UNL     1      -6.522   8.610  70.030  1.00  0.00    -0.038 A  
HETATM   16  N   UNL     1      -5.722   7.826  69.340  1.00  0.00    -0.026 NA 
HETATM   17  N   UNL     1      -6.378   6.630  69.202  1.00  0.00    -0.034 NA 
HETATM   18  N   UNL     1      -7.669   7.915  70.306  1.00  0.00    -0.086 NA 
HETATM   19  N   UNL     1      -7.560   6.667  69.796  1.00  0.00    -0.102 NA 
BRANCH  18  20
HETATM   20  C   UNL     1      -8.811   8.219  71.119  1.00  0.00    -0.151 C  
HETATM   21  O   UNL     1     -11.334   8.941  71.062  1.00  0.00    -0.264 OA 
HETATM   22  O   UNL     1     -10.291   8.168  68.996  1.00  0.00    -0.214 OA 
HETATM   23  O   UNL     1      -9.649  10.401  69.873  1.00  0.00    -0.128 OA 
HETATM   24  S   UNL     1     -10.116   9.104  70.303  1.00  0.00    -0.223 S  
ENDBRANCH  18  20
ENDBRANCH  14  15
ENDBRANCH  13  14
ENDBRANCH   4  13
BRANCH   8  25
HETATM   25  N   UNL     1     -10.133  15.316  68.285  1.00  0.00    -0.223 N  
HETATM   26  C   UNL     1     -11.511  15.297  68.242  1.00  0.00    -0.347 C  
HETATM   27  H   UNL     1      -9.688  15.614  69.153  1.00  0.00     0.000 HD 
HETATM   28  O   UNL     1     -12.150  15.012  67.235  1.00  0.00    -0.171 OA 
BRANCH  26  29
HETATM   29  C   UNL     1     -12.157  15.654  69.600  1.00  0.00    -0.308 C  
HETATM   30  O   UNL     1     -11.252  16.454  70.375  1.00  0.00    -0.432 OA 
HETATM   31  H   UNL     1     -11.648  16.673  71.210  1.00  0.00     0.000 HD 
BRANCH  29  32
HETATM   32  C   UNL     1     -12.542  14.422  70.392  1.00  0.00    -0.405 A  
HETATM   33  C   UNL     1     -12.072  13.160  69.998  1.00  0.00    -0.375 A  
HETATM   34  C   UNL     1     -13.354  14.506  71.536  1.00  0.00    -0.435 A  
HETATM   35  C   UNL     1     -13.707  13.359  72.248  1.00  0.00    -0.705 A  
HETATM   36  C   UNL     1     -13.249  12.112  71.832  1.00  0.00    -0.474 A  
HETATM   37  C   UNL     1     -12.427  12.013  70.710  1.00  0.00    -0.372 A  
ENDBRANCH  29  32
ENDBRANCH  26  29
ENDBRANCH   8  25
TORSDOF 7
ENDMDL
MODEL      120
REMARK 921   NORMALIZED FREE ENERGY PREDICTED BY IDOCK:   -5.80 KCAL/MOL
REMARK 922        TOTAL FREE ENERGY PREDICTED BY IDOCK:   -9.14 KCAL/MOL
REMARK 923 INTER-LIGAND FREE ENERGY PREDICTED BY IDOCK:   -8.14 KCAL/MOL
REMARK 924 INTRA-LIGAND FREE ENERGY PREDICTED BY IDOCK:   -1.00 KCAL/MOL
REMARK 927      BINDING AFFINITY PREDICTED BY RF-SCORE:    0.00 PKD
ROOT
HETATM    1  C   UNL     1     -11.144  10.082  68.647  1.00  0.00    -0.174 C  
HETATM    2  S   UNL     1      -9.657  10.885  68.011  1.00  0.00    -0.167 SA 
HETATM    3  C   UNL     1      -8.721   9.346  67.849  1.00  0.00    -0.120 C  
HETATM    4  C   UNL     1      -8.821   8.387  69.031  1.00  0.00    -0.146 C  
HETATM    5  C   UNL     1     -11.752   9.950  70.640  1.00  0.00    -0.323 C  
HETATM    6  CA  UNL     1      -9.799   8.449  69.985  1.00  0.00    -0.182 C  
HETATM    7  C   UNL     1      -9.744   7.514  71.178  1.00  0.00    -0.162 C  
HETATM    8  CA  UNL     1     -12.085  10.991  69.513  1.00  0.00    -0.329 C  
HETATM    9  N   UNL     1     -10.808   9.376  69.866  1.00  0.00    -0.231 N  
HETATM   10  O   UNL     1     -10.427   7.870  72.280  1.00  0.00    -0.223 OA 
HETATM   11  OXT UNL     1      -9.106   6.469  71.184  1.00  0.00    -0.151 OA 
HETATM   12  O   UNL     1     -12.036   9.743  71.798  1.00  0.00    -0.390 OA 
ENDROOT
BRANCH   4  13
HETATM   13  C   UNL     1      -7.583   7.484  69.104  1.00  0.00    -0.100 C  
BRANCH  13  14
HETATM   14  S   UNL     1      -7.746   5.931  68.151  1.00  0.00    -0.101 SA 
BRANCH  14  15
HETATM   15  C   UNL     1      -6.738   6.321  66.796  1.00  0.00    -0.061 A  
HETATM   16  N   UNL     1      -5.904   7.337  66.741  1.00  0.00    -0.033 NA 
HETATM   17  N   UNL     1      -5.281   7.260  65.522  1.00  0.00    -0.027 NA 
HETATM   18  N   UNL     1      -6.645   5.627  65.619  1.00  0.00    -0.040 NA 
HETATM   19  N   UNL     1      -5.714   6.216  64.834  1.00  0.00    -0.021 NA 
BRANCH  18  20
HETATM   20  C   UNL     1      -7.214   4.385  65.182  1.00  0.00    -0.067 C  
HETATM   21  O   UNL     1      -8.959   3.302  63.546  1.00  0.00    -0.092 OA 
HETATM   22  O   UNL     1      -8.326   5.633  63.204  1.00  0.00    -0.114 OA 
HETATM   23  O   UNL     1      -9.770   5.080  65.147  1.00  0.00    -0.056 OA 
HETATM   24  S   UNL     1      -8.747   4.518  64.296  1.00  0.00    -0.148 S  
ENDBRANCH  18  20
ENDBRANCH  14  15
ENDBRANCH  13  14
ENDBRANCH   4  13
BRANCH   8  25
HETATM   25  N   UNL     1     -11.604  12.371  69.769  1.00  0.00    -0.469 N  
HETATM   26  C   UNL     1     -11.890  13.460  68.972  1.00  0.00    -0.335 C  
HETATM   27  H   UNL     1     -11.020  12.525  70.591  1.00  0.00     0.000 HD 
HETATM   28  O   UNL     1     -12.533  13.381  67.930  1.00  0.00    -0.053 OA 
BRANCH  26  29
HETATM   29  C   UNL     1     -11.332  14.783  69.542  1.00  0.00    -0.283 C  
HETATM   30  O   UNL     1      -9.925  14.650  69.792  1.00  0.00    -0.431 OA 
HETATM   31  H   UNL     1      -9.581  15.463  70.143  1.00  0.00     0.000 HD 
BRANCH  29  32
HETATM   32  C   UNL     1     -12.032  15.197  70.819  1.00  0.00    -0.376 A  
HETATM   33  C   UNL     1     -11.297  15.767  71.869  1.00  0.00    -0.369 A  
HETATM   34  C   UNL     1     -13.420  15.040  70.980  1.00  0.00    -0.461 A  
HETATM   35  C   UNL     1     -14.048  15.417  72.168  1.00  0.00    -0.651 A  
HETATM   36  C   UNL     1     -13.301  15.962  73.209  1.00  0.00    -0.660 A  
HETATM   37  C   UNL     1     -11.927  16.142  73.058  1.00  0.00    -0.593 A  
ENDBRANCH  29  32
ENDBRANCH  26  29
ENDBRANCH   8  25
TORSDOF 7
ENDMDL
MODEL      121
REMARK 921   NORMALIZED FREE ENERGY PREDICTED BY IDOCK:   -5.77 KCAL/MOL
REMARK 922        TOTAL FREE ENERGY PREDICTED BY IDOCK:   -9.10 KCAL/MOL
REMARK 923 INTER-LIGAND FREE ENERGY PREDICTED BY IDOCK:   -7.53 KCAL/MOL
REMARK 924 INTRA-LIGAND FREE ENERGY PREDICTED BY IDOCK:   -1.57 KCAL/MOL
REMARK 927      BINDING AFFINITY PREDICTED BY RF-SCORE:    0.00 PKD
ROOT
HETATM    1  C   UNL     1     -10.118   6.277  69.507  1.00  0.00    -0.176 C  
HETATM    2  S   UNL     1     -11.011   6.423  67.944  1.00  0.00    -0.279 SA 
HETATM    3  C   UNL     1      -9.721   5.619  66.965  1.00  0.00    -0.143 C  
HETATM    4  C   UNL     1      -8.293   6.068  67.262  1.00  0.00    -0.105 C  
HETATM    5  C   UNL     1      -9.002   7.757  70.466  1.00  0.00    -0.150 C  
HETATM    6  CA  UNL     1      -7.921   6.730  68.398  1.00  0.00    -0.115 C  
HETATM    7  C   UNL     1      -6.495   7.228  68.545  1.00  0.00    -0.040 C  
HETATM    8  CA  UNL     1     -10.505   7.326  70.607  1.00  0.00    -0.214 C  
HETATM    9  N   UNL     1      -8.849   6.963  69.386  1.00  0.00    -0.136 N  
HETATM   10  O   UNL     1      -6.269   8.219  69.424  1.00  0.00    -0.036 OA 
HETATM   11  OXT UNL     1      -5.557   6.778  67.898  1.00  0.00    -0.014 OA 
HETATM   12  O   UNL     1      -8.237   8.559  70.953  1.00  0.00    -0.109 OA 
ENDROOT
BRANCH   4  13
HETATM   13  C   UNL     1      -7.391   5.847  66.041  1.00  0.00    -0.077 C  
BRANCH  13  14
HETATM   14  S   UNL     1      -7.999   6.658  64.518  1.00  0.00    -0.075 SA 
BRANCH  14  15
HETATM   15  C   UNL     1      -6.961   8.047  64.502  1.00  0.00    -0.071 A  
HETATM   16  N   UNL     1      -5.664   8.024  64.718  1.00  0.00    -0.044 NA 
HETATM   17  N   UNL     1      -5.226   9.316  64.575  1.00  0.00    -0.049 NA 
HETATM   18  N   UNL     1      -7.329   9.340  64.241  1.00  0.00    -0.103 NA 
HETATM   19  N   UNL     1      -6.228  10.125  64.272  1.00  0.00    -0.132 NA 
BRANCH  18  20
HETATM   20  C   UNL     1      -8.568   9.926  63.817  1.00  0.00    -0.199 C  
HETATM   21  O   UNL     1     -10.652  11.308  64.616  1.00  0.00    -0.311 OA 
HETATM   22  O   UNL     1      -8.698  11.193  66.071  1.00  0.00    -0.186 OA 
HETATM   23  O   UNL     1     -10.107   9.163  65.834  1.00  0.00    -0.273 OA 
HETATM   24  S   UNL     1      -9.697  10.350  65.121  1.00  0.00    -0.315 S  
ENDBRANCH  18  20
ENDBRANCH  14  15
ENDBRANCH  13  14
ENDBRANCH   4  13
BRANCH   8  25
HETATM   25  N   UNL     1     -11.495   8.356  70.206  1.00  0.00    -0.454 N  
HETATM   26  C   UNL     1     -11.813   9.469  70.956  1.00  0.00    -0.330 C  
HETATM   27  H   UNL     1     -11.974   8.232  69.314  1.00  0.00     0.000 HD 
HETATM   28  O   UNL     1     -11.343   9.688  72.068  1.00  0.00    -0.144 OA 
BRANCH  26  29
HETATM   29  C   UNL     1     -12.807  10.411  70.239  1.00  0.00    -0.105 C  
HETATM   30  O   UNL     1     -12.496  10.470  68.838  1.00  0.00    -0.776 OA 
HETATM   31  H   UNL     1     -13.106  11.049  68.397  1.00  0.00     0.000 HD 
BRANCH  29  32
HETATM   32  C   UNL     1     -12.786  11.810  70.817  1.00  0.00    -0.164 A  
HETATM   33  C   UNL     1     -12.022  12.813  70.202  1.00  0.00    -0.371 A  
HETATM   34  C   UNL     1     -13.535  12.145  71.959  1.00  0.00    -0.388 A  
HETATM   35  C   UNL     1     -13.496  13.437  72.485  1.00  0.00    -0.640 A  
HETATM   36  C   UNL     1     -12.716  14.416  71.874  1.00  0.00    -0.426 A  
HETATM   37  C   UNL     1     -11.984  14.105  70.730  1.00  0.00    -0.377 A  
ENDBRANCH  29  32
ENDBRANCH  26  29
ENDBRANCH   8  25
TORSDOF 7
ENDMDL
MODEL      122
REMARK 921   NORMALIZED FREE ENERGY PREDICTED BY IDOCK:   -5.77 KCAL/MOL
REMARK 922        TOTAL FREE ENERGY PREDICTED BY IDOCK:   -9.10 KCAL/MOL
REMARK 923 INTER-LIGAND FREE ENERGY PREDICTED BY IDOCK:   -8.75 KCAL/MOL
REMARK 924 INTRA-LIGAND FREE ENERGY PREDICTED BY IDOCK:   -0.35 KCAL/MOL
REMARK 927      BINDING AFFINITY PREDICTED BY RF-SCORE:    0.00 PKD
ROOT
HETATM    1  C   UNL     1     -10.653  12.852  67.325  1.00  0.00    -0.234 C  
HETATM    2  S   UNL     1      -8.850  12.944  67.301  1.00  0.00    -0.214 SA 
HETATM    3  C   UNL     1      -8.800  14.731  67.028  1.00  0.00    -0.237 C  
HETATM    4  C   UNL     1      -9.768  15.263  65.975  1.00  0.00    -0.367 C  
HETATM    5  C   UNL     1     -11.907  12.262  65.763  1.00  0.00    -0.352 C  
HETATM    6  CA  UNL     1     -10.854  14.571  65.516  1.00  0.00    -0.336 C  
HETATM    7  C   UNL     1     -11.690  15.147  64.389  1.00  0.00    -0.295 C  
HETATM    8  CA  UNL     1     -11.263  11.457  66.948  1.00  0.00    -0.264 C  
HETATM    9  N   UNL     1     -11.162  13.347  66.062  1.00  0.00    -0.294 N  
HETATM   10  O   UNL     1     -12.449  14.295  63.679  1.00  0.00    -0.816 OA 
HETATM   11  OXT UNL     1     -11.695  16.336  64.097  1.00  0.00    -0.837 OA 
HETATM   12  O   UNL     1     -12.644  12.063  64.824  1.00  0.00    -0.412 OA 
ENDROOT
BRANCH   4  13
HETATM   13  C   UNL     1      -9.249  16.577  65.376  1.00  0.00     0.705 C  
BRANCH  13  14
HETATM   14  S   UNL     1      -7.976  17.401  66.398  1.00  0.00    -0.289 SA 
BRANCH  14  15
HETATM   15  C   UNL     1      -9.006  18.265  67.493  1.00  0.00    -0.253 A  
HETATM   16  N   UNL     1      -9.450  19.489  67.307  1.00  0.00    -0.318 NA 
HETATM   17  N   UNL     1     -10.256  19.775  68.379  1.00  0.00    -0.452 NA 
HETATM   18  N   UNL     1      -9.518  17.799  68.675  1.00  0.00    -0.291 NA 
HETATM   19  N   UNL     1     -10.316  18.749  69.213  1.00  0.00     0.038 NA 
BRANCH  18  20
HETATM   20  C   UNL     1      -9.477  16.510  69.304  1.00  0.00    -0.152 C  
HETATM   21  O   UNL     1     -10.925  14.433  69.998  1.00  0.00    -0.141 OA 
HETATM   22  O   UNL     1     -11.874  16.052  68.439  1.00  0.00    -0.304 OA 
HETATM   23  O   UNL     1     -11.640  16.712  70.821  1.00  0.00    -0.124 OA 
HETATM   24  S   UNL     1     -11.048  15.860  69.816  1.00  0.00    -0.353 S  
ENDBRANCH  18  20
ENDBRANCH  14  15
ENDBRANCH  13  14
ENDBRANCH   4  13
BRANCH   8  25
HETATM   25  N   UNL     1     -10.294  10.409  66.543  1.00  0.00    -0.237 N  
HETATM   26  C   UNL     1      -9.945   9.324  67.320  1.00  0.00    -0.207 C  
HETATM   27  H   UNL     1      -9.854  10.498  65.627  1.00  0.00     0.000 HD 
HETATM   28  O   UNL     1     -10.367   9.148  68.458  1.00  0.00    -0.197 OA 
BRANCH  26  29
HETATM   29  C   UNL     1      -8.987   8.352  66.595  1.00  0.00    -0.151 C  
HETATM   30  O   UNL     1      -9.278   8.337  65.190  1.00  0.00    -0.397 OA 
HETATM   31  H   UNL     1      -8.689   7.740  64.745  1.00  0.00     0.000 HD 
BRANCH  29  32
HETATM   32  C   UNL     1      -9.080   6.943  67.143  1.00  0.00    -0.137 A  
HETATM   33  C   UNL     1      -9.966   6.022  66.562  1.00  0.00    -0.189 A  
HETATM   34  C   UNL     1      -8.283   6.518  68.219  1.00  0.00    -0.114 A  
HETATM   35  C   UNL     1      -8.390   5.219  68.718  1.00  0.00    -0.092 A  
HETATM   36  C   UNL     1      -9.288   4.323  68.144  1.00  0.00    -0.204 A  
HETATM   37  C   UNL     1     -10.072   4.723  67.063  1.00  0.00    -0.228 A  
ENDBRANCH  29  32
ENDBRANCH  26  29
ENDBRANCH   8  25
TORSDOF 7
ENDMDL
MODEL      123
REMARK 921   NORMALIZED FREE ENERGY PREDICTED BY IDOCK:   -5.75 KCAL/MOL
REMARK 922        TOTAL FREE ENERGY PREDICTED BY IDOCK:   -9.06 KCAL/MOL
REMARK 923 INTER-LIGAND FREE ENERGY PREDICTED BY IDOCK:   -8.02 KCAL/MOL
REMARK 924 INTRA-LIGAND FREE ENERGY PREDICTED BY IDOCK:   -1.05 KCAL/MOL
REMARK 927      BINDING AFFINITY PREDICTED BY RF-SCORE:    0.00 PKD
ROOT
HETATM    1  C   UNL     1      -7.609  11.693  67.518  1.00  0.00    -0.128 C  
HETATM    2  S   UNL     1      -7.097  10.946  69.080  1.00  0.00    -0.105 SA 
HETATM    3  C   UNL     1      -5.842   9.884  68.327  1.00  0.00    -0.042 C  
HETATM    4  C   UNL     1      -6.268   9.163  67.052  1.00  0.00    -0.058 C  
HETATM    5  C   UNL     1      -9.275  11.191  66.365  1.00  0.00    -0.183 C  
HETATM    6  CA  UNL     1      -7.344   9.528  66.292  1.00  0.00    -0.093 C  
HETATM    7  C   UNL     1      -7.746   8.676  65.102  1.00  0.00    -0.101 C  
HETATM    8  CA  UNL     1      -9.068  12.267  67.489  1.00  0.00    -0.182 C  
HETATM    9  N   UNL     1      -8.069  10.647  66.628  1.00  0.00    -0.130 N  
HETATM   10  O   UNL     1      -9.008   8.789  64.653  1.00  0.00    -0.090 OA 
HETATM   11  OXT UNL     1      -6.983   7.896  64.547  1.00  0.00    -0.067 OA 
HETATM   12  O   UNL     1     -10.151  10.810  65.622  1.00  0.00    -0.244 OA 
ENDROOT
BRANCH   4  13
HETATM   13  C   UNL     1      -5.451   7.879  66.855  1.00  0.00    -0.032 C  
BRANCH  13  14
HETATM   14  S   UNL     1      -5.562   6.712  68.259  1.00  0.00    -0.017 SA 
BRANCH  14  15
HETATM   15  C   UNL     1      -7.028   5.892  67.832  1.00  0.00    -0.065 A  
HETATM   16  N   UNL     1      -7.177   5.104  66.789  1.00  0.00    -0.076 NA 
HETATM   17  N   UNL     1      -8.464   4.633  66.842  1.00  0.00    -0.106 NA 
HETATM   18  N   UNL     1      -8.212   5.922  68.519  1.00  0.00    -0.108 NA 
HETATM   19  N   UNL     1      -9.102   5.114  67.897  1.00  0.00    -0.110 NA 
BRANCH  18  20
HETATM   20  C   UNL     1      -8.585   6.500  69.778  1.00  0.00    -0.136 C  
HETATM   21  O   UNL     1     -10.555   7.615  71.108  1.00  0.00    -0.220 OA 
HETATM   22  O   UNL     1     -11.062   6.451  69.025  1.00  0.00    -0.327 OA 
HETATM   23  O   UNL     1      -9.884   8.634  68.895  1.00  0.00    -0.170 OA 
HETATM   24  S   UNL     1     -10.060   7.488  69.757  1.00  0.00    -0.199 S  
ENDBRANCH  18  20
ENDBRANCH  14  15
ENDBRANCH  13  14
ENDBRANCH   4  13
BRANCH   8  25
HETATM   25  N   UNL     1      -9.875  12.057  68.717  1.00  0.00    -0.401 N  
HETATM   26  C   UNL     1     -11.251  11.969  68.743  1.00  0.00    -0.263 C  
HETATM   27  H   UNL     1      -9.377  11.972  69.603  1.00  0.00     0.000 HD 
HETATM   28  O   UNL     1     -11.954  12.113  67.748  1.00  0.00    -0.506 OA 
BRANCH  26  29
HETATM   29  C   UNL     1     -11.805  11.652  70.151  1.00  0.00    -0.344 C  
HETATM   30  O   UNL     1     -12.741  10.567  70.073  1.00  0.00    -0.520 OA 
HETATM   31  H   UNL     1     -13.082  10.372  70.938  1.00  0.00     0.000 HD 
BRANCH  29  32
HETATM   32  C   UNL     1     -12.479  12.852  70.784  1.00  0.00    -0.370 A  
HETATM   33  C   UNL     1     -13.251  12.691  71.944  1.00  0.00    -0.504 A  
HETATM   34  C   UNL     1     -12.337  14.142  70.247  1.00  0.00    -0.421 A  
HETATM   35  C   UNL     1     -12.974  15.235  70.837  1.00  0.00    -0.522 A  
HETATM   36  C   UNL     1     -13.754  15.056  71.976  1.00  0.00    -0.550 A  
HETATM   37  C   UNL     1     -13.888  13.785  72.532  1.00  0.00    -0.626 A  
ENDBRANCH  29  32
ENDBRANCH  26  29
ENDBRANCH   8  25
TORSDOF 7
ENDMDL
MODEL      124
REMARK 921   NORMALIZED FREE ENERGY PREDICTED BY IDOCK:   -5.73 KCAL/MOL
REMARK 922        TOTAL FREE ENERGY PREDICTED BY IDOCK:   -9.04 KCAL/MOL
REMARK 923 INTER-LIGAND FREE ENERGY PREDICTED BY IDOCK:   -7.70 KCAL/MOL
REMARK 924 INTRA-LIGAND FREE ENERGY PREDICTED BY IDOCK:   -1.34 KCAL/MOL
REMARK 927      BINDING AFFINITY PREDICTED BY RF-SCORE:    0.00 PKD
ROOT
HETATM    1  C   UNL     1      -7.078  12.444  67.586  1.00  0.00    -0.133 C  
HETATM    2  S   UNL     1      -8.456  11.296  67.379  1.00  0.00    -0.141 SA 
HETATM    3  C   UNL     1      -9.320  12.325  66.169  1.00  0.00    -0.176 C  
HETATM    4  C   UNL     1      -9.396  13.811  66.504  1.00  0.00    -0.249 C  
HETATM    5  C   UNL     1      -6.804  13.820  69.132  1.00  0.00    -0.102 C  
HETATM    6  CA  UNL     1      -8.590  14.431  67.419  1.00  0.00    -0.202 C  
HETATM    7  C   UNL     1      -8.822  15.892  67.756  1.00  0.00    -0.175 C  
HETATM    8  CA  UNL     1      -6.312  12.340  68.951  1.00  0.00    -0.084 C  
HETATM    9  N   UNL     1      -7.595  13.717  68.044  1.00  0.00    -0.123 N  
HETATM   10  O   UNL     1      -8.338  16.345  68.925  1.00  0.00    -0.218 OA 
HETATM   11  OXT UNL     1      -9.431  16.661  67.023  1.00  0.00    -0.222 OA 
HETATM   12  O   UNL     1      -6.711  14.716  69.940  1.00  0.00    -0.163 OA 
ENDROOT
BRANCH   4  13
HETATM   13  C   UNL     1     -10.610  14.459  65.825  1.00  0.00    -0.318 C  
BRANCH  13  14
HETATM   14  S   UNL     1     -12.008  14.775  66.961  1.00  0.00    -0.078 SA 
BRANCH  14  15
HETATM   15  C   UNL     1     -11.954  13.314  67.892  1.00  0.00    -0.309 A  
HETATM   16  N   UNL     1     -12.250  12.116  67.437  1.00  0.00    -0.384 NA 
HETATM   17  N   UNL     1     -12.040  11.245  68.476  1.00  0.00    -0.591 NA 
HETATM   18  N   UNL     1     -11.577  13.193  69.203  1.00  0.00    -0.297 NA 
HETATM   19  N   UNL     1     -11.618  11.887  69.554  1.00  0.00    -0.312 NA 
BRANCH  18  20
HETATM   20  C   UNL     1     -11.037  14.131  70.144  1.00  0.00     0.096 C  
HETATM   21  O   UNL     1     -11.501  15.391  72.400  1.00  0.00    -0.446 OA 
HETATM   22  O   UNL     1     -12.926  13.504  71.799  1.00  0.00    -0.351 OA 
HETATM   23  O   UNL     1     -13.189  15.625  70.535  1.00  0.00    -0.434 OA 
HETATM   24  S   UNL     1     -12.211  14.852  71.264  1.00  0.00    -0.352 S  
ENDBRANCH  18  20
ENDBRANCH  14  15
ENDBRANCH  13  14
ENDBRANCH   4  13
BRANCH   8  25
HETATM   25  N   UNL     1      -6.858  11.371  69.934  1.00  0.00    -0.335 N  
HETATM   26  C   UNL     1      -6.440  10.063  70.057  1.00  0.00    -0.092 C  
HETATM   27  H   UNL     1      -7.594  11.695  70.561  1.00  0.00     0.000 HD 
HETATM   28  O   UNL     1      -5.604   9.551  69.319  1.00  0.00    -0.035 OA 
BRANCH  26  29
HETATM   29  C   UNL     1      -7.122   9.323  71.230  1.00  0.00     0.008 C  
HETATM   30  O   UNL     1      -6.350   8.169  71.593  1.00  0.00    -0.039 OA 
HETATM   31  H   UNL     1      -6.769   7.714  72.314  1.00  0.00     0.000 HD 
BRANCH  29  32
HETATM   32  C   UNL     1      -8.535   8.897  70.893  1.00  0.00    -0.226 A  
HETATM   33  C   UNL     1      -8.837   8.424  69.607  1.00  0.00    -0.141 A  
HETATM   34  C   UNL     1      -9.565   8.944  71.847  1.00  0.00    -0.326 A  
HETATM   35  C   UNL     1     -10.865   8.557  71.516  1.00  0.00    -0.332 A  
HETATM   36  C   UNL     1     -11.152   8.109  70.230  1.00  0.00    -0.221 A  
HETATM   37  C   UNL     1     -10.137   8.037  69.277  1.00  0.00    -0.198 A  
ENDBRANCH  29  32
ENDBRANCH  26  29
ENDBRANCH   8  25
TORSDOF 7
ENDMDL
MODEL      125
REMARK 921   NORMALIZED FREE ENERGY PREDICTED BY IDOCK:   -5.72 KCAL/MOL
REMARK 922        TOTAL FREE ENERGY PREDICTED BY IDOCK:   -9.03 KCAL/MOL
REMARK 923 INTER-LIGAND FREE ENERGY PREDICTED BY IDOCK:   -7.02 KCAL/MOL
REMARK 924 INTRA-LIGAND FREE ENERGY PREDICTED BY IDOCK:   -2.01 KCAL/MOL
REMARK 927      BINDING AFFINITY PREDICTED BY RF-SCORE:    0.00 PKD
ROOT
HETATM    1  C   UNL     1     -10.444   9.190  67.222  1.00  0.00    -0.265 C  
HETATM    2  S   UNL     1      -8.868   9.362  66.357  1.00  0.00    -0.150 SA 
HETATM    3  C   UNL     1      -8.116   7.914  67.135  1.00  0.00    -0.117 C  
HETATM    4  C   UNL     1      -8.337   7.786  68.639  1.00  0.00    -0.129 C  
HETATM    5  C   UNL     1     -11.079  10.243  68.908  1.00  0.00    -0.231 C  
HETATM    6  CA  UNL     1      -9.309   8.457  69.329  1.00  0.00    -0.154 C  
HETATM    7  C   UNL     1      -9.373   8.342  70.840  1.00  0.00    -0.166 C  
HETATM    8  CA  UNL     1     -11.279  10.508  67.374  1.00  0.00    -0.173 C  
HETATM    9  N   UNL     1     -10.202   9.251  68.648  1.00  0.00    -0.193 N  
HETATM   10  O   UNL     1     -10.019   9.311  71.512  1.00  0.00    -0.307 OA 
HETATM   11  OXT UNL     1      -8.861   7.422  71.466  1.00  0.00    -0.124 OA 
HETATM   12  O   UNL     1     -11.395  10.741  69.965  1.00  0.00    -0.282 OA 
ENDROOT
BRANCH   4  13
HETATM   13  C   UNL     1      -7.213   6.965  69.285  1.00  0.00    -0.090 C  
BRANCH  13  14
HETATM   14  S   UNL     1      -5.551   7.701  69.078  1.00  0.00    -0.023 SA 
BRANCH  14  15
HETATM   15  C   UNL     1      -5.687   9.026  70.187  1.00  0.00    -0.030 A  
HETATM   16  N   UNL     1      -5.701   8.917  71.498  1.00  0.00    -0.048 NA 
HETATM   17  N   UNL     1      -5.780  10.194  71.992  1.00  0.00    -0.292 NA 
HETATM   18  N   UNL     1      -5.770  10.355  69.868  1.00  0.00    -0.045 NA 
HETATM   19  N   UNL     1      -5.810  11.080  71.009  1.00  0.00    -0.353 NA 
BRANCH  18  20
HETATM   20  C   UNL     1      -5.668  11.057  68.621  1.00  0.00    -0.043 C  
HETATM   21  O   UNL     1      -6.236  13.307  67.393  1.00  0.00    -0.277 OA 
HETATM   22  O   UNL     1      -6.406  13.227  69.826  1.00  0.00    -0.122 OA 
HETATM   23  O   UNL     1      -8.126  12.037  68.487  1.00  0.00    -0.151 OA 
HETATM   24  S   UNL     1      -6.745  12.458  68.445  1.00  0.00    -0.076 S  
ENDBRANCH  18  20
ENDBRANCH  14  15
ENDBRANCH  13  14
ENDBRANCH   4  13
BRANCH   8  25
HETATM   25  N   UNL     1     -10.642  11.747  66.861  1.00  0.00    -0.226 N  
HETATM   26  C   UNL     1     -11.319  12.913  66.573  1.00  0.00    -0.318 C  
HETATM   27  H   UNL     1      -9.633  11.734  66.712  1.00  0.00     0.000 HD 
HETATM   28  O   UNL     1     -12.538  13.023  66.660  1.00  0.00    -0.260 OA 
BRANCH  26  29
HETATM   29  C   UNL     1     -10.378  14.063  66.148  1.00  0.00    -0.297 C  
HETATM   30  O   UNL     1      -9.029  13.581  66.060  1.00  0.00    -0.444 OA 
HETATM   31  H   UNL     1      -8.451  14.287  65.799  1.00  0.00     0.000 HD 
BRANCH  29  32
HETATM   32  C   UNL     1     -10.432  15.231  67.110  1.00  0.00    -0.280 A  
HETATM   33  C   UNL     1     -10.371  15.003  68.494  1.00  0.00    -0.230 A  
HETATM   34  C   UNL     1     -10.527  16.557  66.653  1.00  0.00    -0.266 A  
HETATM   35  C   UNL     1     -10.587  17.620  67.555  1.00  0.00    -0.345 A  
HETATM   36  C   UNL     1     -10.544  17.377  68.925  1.00  0.00    -0.243 A  
HETATM   37  C   UNL     1     -10.431  16.069  69.394  1.00  0.00    -0.271 A  
ENDBRANCH  29  32
ENDBRANCH  26  29
ENDBRANCH   8  25
TORSDOF 7
ENDMDL
MODEL      126
REMARK 921   NORMALIZED FREE ENERGY PREDICTED BY IDOCK:   -5.70 KCAL/MOL
REMARK 922        TOTAL FREE ENERGY PREDICTED BY IDOCK:   -9.00 KCAL/MOL
REMARK 923 INTER-LIGAND FREE ENERGY PREDICTED BY IDOCK:   -7.96 KCAL/MOL
REMARK 924 INTRA-LIGAND FREE ENERGY PREDICTED BY IDOCK:   -1.03 KCAL/MOL
REMARK 927      BINDING AFFINITY PREDICTED BY RF-SCORE:    0.00 PKD
ROOT
HETATM    1  C   UNL     1     -10.429  12.243  67.747  1.00  0.00    -0.209 C  
HETATM    2  S   UNL     1      -8.660  12.083  68.073  1.00  0.00    -0.176 SA 
HETATM    3  C   UNL     1      -8.342  13.862  68.024  1.00  0.00    -0.166 C  
HETATM    4  C   UNL     1      -9.007  14.618  66.878  1.00  0.00    -0.275 C  
HETATM    5  C   UNL     1     -11.403  11.979  65.920  1.00  0.00    -0.337 C  
HETATM    6  CA  UNL     1     -10.053  14.130  66.146  1.00  0.00    -0.313 C  
HETATM    7  C   UNL     1     -10.570  14.918  64.957  1.00  0.00    -0.422 C  
HETATM    8  CA  UNL     1     -11.114  10.988  67.103  1.00  0.00    -0.267 C  
HETATM    9  N   UNL     1     -10.610  12.917  66.478  1.00  0.00    -0.257 N  
HETATM   10  O   UNL     1     -11.267  14.249  64.022  1.00  0.00    -0.091 OA 
HETATM   11  OXT UNL     1     -10.373  16.117  64.809  1.00  0.00    -0.524 OA 
HETATM   12  O   UNL     1     -11.955  11.972  64.843  1.00  0.00    -0.316 OA 
ENDROOT
BRANCH   4  13
HETATM   13  C   UNL     1      -8.224  15.895  66.544  1.00  0.00    -0.272 C  
BRANCH  13  14
HETATM   14  S   UNL     1      -7.355  16.623  67.979  1.00  0.00    -0.160 SA 
BRANCH  14  15
HETATM   15  C   UNL     1      -8.369  18.002  68.256  1.00  0.00    -0.290 A  
HETATM   16  N   UNL     1      -9.513  17.980  68.904  1.00  0.00    -0.247 NA 
HETATM   17  N   UNL     1      -9.966  19.274  68.931  1.00  0.00    -0.437 NA 
HETATM   18  N   UNL     1      -8.118  19.292  67.872  1.00  0.00    -0.282 NA 
HETATM   19  N   UNL     1      -9.119  20.085  68.317  1.00  0.00    -0.230 NA 
BRANCH  18  20
HETATM   20  C   UNL     1      -6.979  19.915  67.262  1.00  0.00    -0.224 C  
HETATM   21  O   UNL     1      -6.005  20.817  64.997  1.00  0.00    -0.229 OA 
HETATM   22  O   UNL     1      -8.390  20.323  65.130  1.00  0.00     0.163 OA 
HETATM   23  O   UNL     1      -6.796  18.419  65.083  1.00  0.00    -0.512 OA 
HETATM   24  S   UNL     1      -6.904  19.800  65.492  1.00  0.00    -0.293 S  
ENDBRANCH  18  20
ENDBRANCH  14  15
ENDBRANCH  13  14
ENDBRANCH   4  13
BRANCH   8  25
HETATM   25  N   UNL     1     -10.215   9.855  66.768  1.00  0.00    -0.233 N  
HETATM   26  C   UNL     1     -10.174   8.660  67.456  1.00  0.00    -0.245 C  
HETATM   27  H   UNL     1      -9.585   9.968  65.974  1.00  0.00     0.000 HD 
HETATM   28  O   UNL     1     -10.845   8.437  68.458  1.00  0.00    -0.078 OA 
BRANCH  26  29
HETATM   29  C   UNL     1      -9.210   7.635  66.818  1.00  0.00    -0.160 C  
HETATM   30  O   UNL     1      -9.957   6.662  66.072  1.00  0.00    -0.404 OA 
HETATM   31  H   UNL     1      -9.365   6.032  65.680  1.00  0.00     0.000 HD 
BRANCH  29  32
HETATM   32  C   UNL     1      -8.359   6.929  67.853  1.00  0.00    -0.121 A  
HETATM   33  C   UNL     1      -7.318   7.619  68.493  1.00  0.00    -0.095 A  
HETATM   34  C   UNL     1      -8.594   5.590  68.209  1.00  0.00    -0.096 A  
HETATM   35  C   UNL     1      -7.793   4.952  69.158  1.00  0.00    -0.072 A  
HETATM   36  C   UNL     1      -6.751   5.644  69.770  1.00  0.00    -0.052 A  
HETATM   37  C   UNL     1      -6.517   6.978  69.441  1.00  0.00    -0.043 A  
ENDBRANCH  29  32
ENDBRANCH  26  29
ENDBRANCH   8  25
TORSDOF 7
ENDMDL
MODEL      127
REMARK 921   NORMALIZED FREE ENERGY PREDICTED BY IDOCK:   -5.69 KCAL/MOL
REMARK 922        TOTAL FREE ENERGY PREDICTED BY IDOCK:   -8.98 KCAL/MOL
REMARK 923 INTER-LIGAND FREE ENERGY PREDICTED BY IDOCK:   -8.03 KCAL/MOL
REMARK 924 INTRA-LIGAND FREE ENERGY PREDICTED BY IDOCK:   -0.95 KCAL/MOL
REMARK 927      BINDING AFFINITY PREDICTED BY RF-SCORE:    0.00 PKD
ROOT
HETATM    1  C   UNL     1      -9.890  11.754  68.462  1.00  0.00    -0.189 C  
HETATM    2  S   UNL     1      -8.086  11.738  68.525  1.00  0.00    -0.111 SA 
HETATM    3  C   UNL     1      -7.932  13.533  68.685  1.00  0.00    -0.073 C  
HETATM    4  C   UNL     1      -8.817  14.355  67.754  1.00  0.00    -0.186 C  
HETATM    5  C   UNL     1     -11.094  11.624  66.760  1.00  0.00    -0.309 C  
HETATM    6  CA  UNL     1      -9.914  13.858  67.106  1.00  0.00    -0.239 C  
HETATM    7  C   UNL     1     -10.662  14.732  66.118  1.00  0.00    -0.314 C  
HETATM    8  CA  UNL     1     -10.552  10.527  67.743  1.00  0.00    -0.243 C  
HETATM    9  N   UNL     1     -10.311  12.561  67.335  1.00  0.00    -0.215 N  
HETATM   10  O   UNL     1     -11.428  14.118  65.199  1.00  0.00    -0.314 OA 
HETATM   11  OXT UNL     1     -10.592  15.955  66.116  1.00  0.00    -0.307 OA 
HETATM   12  O   UNL     1     -11.793  11.697  65.775  1.00  0.00    -0.307 OA 
ENDROOT
BRANCH   4  13
HETATM   13  C   UNL     1      -8.203  15.739  67.503  1.00  0.00    -0.162 C  
BRANCH  13  14
HETATM   14  S   UNL     1      -8.363  16.885  68.919  1.00  0.00    -0.157 SA 
BRANCH  14  15
HETATM   15  C   UNL     1      -7.351  18.175  68.356  1.00  0.00    -0.270 A  
HETATM   16  N   UNL     1      -6.236  18.568  68.934  1.00  0.00    -0.217 NA 
HETATM   17  N   UNL     1      -5.732  19.577  68.154  1.00  0.00    -0.201 NA 
HETATM   18  N   UNL     1      -7.546  18.940  67.238  1.00  0.00    -0.229 NA 
HETATM   19  N   UNL     1      -6.514  19.805  67.111  1.00  0.00    -0.192 NA 
BRANCH  18  20
HETATM   20  C   UNL     1      -8.509  18.871  66.176  1.00  0.00    -0.183 C  
HETATM   21  O   UNL     1     -10.786  19.842  65.301  1.00  0.00    -0.362 OA 
HETATM   22  O   UNL     1      -9.633  21.009  67.107  1.00  0.00    -0.360 OA 
HETATM   23  O   UNL     1     -10.729  18.841  67.621  1.00  0.00    -0.429 OA 
HETATM   24  S   UNL     1     -10.100  19.568  66.543  1.00  0.00    -0.481 S  
ENDBRANCH  18  20
ENDBRANCH  14  15
ENDBRANCH  13  14
ENDBRANCH   4  13
BRANCH   8  25
HETATM   25  N   UNL     1      -9.618   9.545  67.137  1.00  0.00    -0.154 N  
HETATM   26  C   UNL     1      -9.944   8.239  66.835  1.00  0.00    -0.273 C  
HETATM   27  H   UNL     1      -8.670   9.858  66.929  1.00  0.00     0.000 HD 
HETATM   28  O   UNL     1     -11.034   7.741  67.093  1.00  0.00    -0.245 OA 
BRANCH  26  29
HETATM   29  C   UNL     1      -8.798   7.485  66.123  1.00  0.00    -0.159 C  
HETATM   30  O   UNL     1      -8.904   7.665  64.703  1.00  0.00    -0.348 OA 
HETATM   31  H   UNL     1      -8.200   7.202  64.266  1.00  0.00     0.000 HD 
BRANCH  29  32
HETATM   32  C   UNL     1      -8.801   6.005  66.444  1.00  0.00    -0.137 A  
HETATM   33  C   UNL     1      -8.500   5.568  67.742  1.00  0.00    -0.098 A  
HETATM   34  C   UNL     1      -9.119   5.043  65.470  1.00  0.00    -0.159 A  
HETATM   35  C   UNL     1      -9.107   3.682  65.780  1.00  0.00    -0.152 A  
HETATM   36  C   UNL     1      -8.786   3.263  67.068  1.00  0.00    -0.152 A  
HETATM   37  C   UNL     1      -8.488   4.206  68.051  1.00  0.00    -0.103 A  
ENDBRANCH  29  32
ENDBRANCH  26  29
ENDBRANCH   8  25
TORSDOF 7
ENDMDL
MODEL      128
REMARK 921   NORMALIZED FREE ENERGY PREDICTED BY IDOCK:   -5.69 KCAL/MOL
REMARK 922        TOTAL FREE ENERGY PREDICTED BY IDOCK:   -8.98 KCAL/MOL
REMARK 923 INTER-LIGAND FREE ENERGY PREDICTED BY IDOCK:   -8.34 KCAL/MOL
REMARK 924 INTRA-LIGAND FREE ENERGY PREDICTED BY IDOCK:   -0.64 KCAL/MOL
REMARK 927      BINDING AFFINITY PREDICTED BY RF-SCORE:    0.00 PKD
ROOT
HETATM    1  C   UNL     1      -8.480   9.117  70.802  1.00  0.00    -0.212 C  
HETATM    2  S   UNL     1      -7.836   8.241  69.361  1.00  0.00    -0.106 SA 
HETATM    3  C   UNL     1      -8.403   9.481  68.173  1.00  0.00    -0.118 C  
HETATM    4  C   UNL     1      -9.823   9.994  68.385  1.00  0.00    -0.169 C  
HETATM    5  C   UNL     1     -10.258   8.727  71.825  1.00  0.00    -0.338 C  
HETATM    6  CA  UNL     1     -10.520   9.856  69.554  1.00  0.00    -0.241 C  
HETATM    7  C   UNL     1     -11.967  10.306  69.623  1.00  0.00    -0.060 C  
HETATM    8  CA  UNL     1      -8.789   8.224  72.054  1.00  0.00    -0.193 C  
HETATM    9  N   UNL     1      -9.911   9.284  70.646  1.00  0.00    -0.249 N  
HETATM   10  O   UNL     1     -12.737   9.779  70.591  1.00  0.00    -0.210 OA 
HETATM   11  OXT UNL     1     -12.458  11.109  68.841  1.00  0.00    -0.460 OA 
HETATM   12  O   UNL     1     -11.351   8.603  72.331  1.00  0.00    -0.359 OA 
ENDROOT
BRANCH   4  13
HETATM   13  C   UNL     1     -10.418  10.505  67.066  1.00  0.00    -0.249 C  
BRANCH  13  14
HETATM   14  S   UNL     1      -9.322  11.656  66.160  1.00  0.00    -0.221 SA 
BRANCH  14  15
HETATM   15  C   UNL     1     -10.183  13.137  66.425  1.00  0.00    -0.286 A  
HETATM   16  N   UNL     1      -9.664  14.232  66.937  1.00  0.00    -0.255 NA 
HETATM   17  N   UNL     1     -10.664  15.171  66.937  1.00  0.00    -0.303 NA 
HETATM   18  N   UNL     1     -11.495  13.386  66.123  1.00  0.00    -0.318 NA 
HETATM   19  N   UNL     1     -11.781  14.672  66.432  1.00  0.00    -0.355 NA 
BRANCH  18  20
HETATM   20  C   UNL     1     -12.492  12.615  65.438  1.00  0.00    -0.355 C  
HETATM   21  O   UNL     1     -13.185  11.618  63.111  1.00  0.00    -0.471 OA 
HETATM   22  O   UNL     1     -10.910  12.449  63.396  1.00  0.00    -0.451 OA 
HETATM   23  O   UNL     1     -12.757  14.103  63.262  1.00  0.00    -0.714 OA 
HETATM   24  S   UNL     1     -12.476  12.746  63.668  1.00  0.00    -0.329 S  
ENDBRANCH  18  20
ENDBRANCH  14  15
ENDBRANCH  13  14
ENDBRANCH   4  13
BRANCH   8  25
HETATM   25  N   UNL     1      -8.590   6.763  71.877  1.00  0.00    -0.120 N  
HETATM   26  C   UNL     1      -8.452   5.862  72.912  1.00  0.00    -0.121 C  
HETATM   27  H   UNL     1      -8.552   6.401  70.925  1.00  0.00     0.000 HD 
HETATM   28  O   UNL     1      -8.425   6.192  74.093  1.00  0.00    -0.112 OA 
BRANCH  26  29
HETATM   29  C   UNL     1      -8.355   4.399  72.424  1.00  0.00    -0.109 C  
HETATM   30  O   UNL     1      -8.138   4.373  71.005  1.00  0.00    -0.077 OA 
HETATM   31  H   UNL     1      -8.079   3.474  70.705  1.00  0.00     0.000 HD 
BRANCH  29  32
HETATM   32  C   UNL     1      -9.599   3.602  72.757  1.00  0.00    -0.180 A  
HETATM   33  C   UNL     1      -9.650   2.229  72.471  1.00  0.00    -0.165 A  
HETATM   34  C   UNL     1     -10.714   4.200  73.368  1.00  0.00    -0.303 A  
HETATM   35  C   UNL     1     -11.856   3.452  73.658  1.00  0.00     0.246 A  
HETATM   36  C   UNL     1     -11.899   2.095  73.350  1.00  0.00    -0.142 A  
HETATM   37  C   UNL     1     -10.793   1.483  72.761  1.00  0.00    -0.236 A  
ENDBRANCH  29  32
ENDBRANCH  26  29
ENDBRANCH   8  25
TORSDOF 7
ENDMDL
MODEL      129
REMARK 921   NORMALIZED FREE ENERGY PREDICTED BY IDOCK:   -5.67 KCAL/MOL
REMARK 922        TOTAL FREE ENERGY PREDICTED BY IDOCK:   -8.95 KCAL/MOL
REMARK 923 INTER-LIGAND FREE ENERGY PREDICTED BY IDOCK:   -7.69 KCAL/MOL
REMARK 924 INTRA-LIGAND FREE ENERGY PREDICTED BY IDOCK:   -1.26 KCAL/MOL
REMARK 927      BINDING AFFINITY PREDICTED BY RF-SCORE:    0.00 PKD
ROOT
HETATM    1  C   UNL     1     -11.285   7.406  69.805  1.00  0.00    -0.091 C  
HETATM    2  S   UNL     1     -10.525   8.542  70.985  1.00  0.00    -0.225 SA 
HETATM    3  C   UNL     1     -10.682   9.990  69.913  1.00  0.00    -0.286 C  
HETATM    4  C   UNL     1     -10.292   9.774  68.455  1.00  0.00    -0.230 C  
HETATM    5  C   UNL     1     -10.308   6.083  68.520  1.00  0.00    -0.207 C  
HETATM    6  CA  UNL     1     -10.187   8.544  67.866  1.00  0.00    -0.218 C  
HETATM    7  C   UNL     1      -9.687   8.436  66.438  1.00  0.00    -0.242 C  
HETATM    8  CA  UNL     1     -10.887   5.898  69.967  1.00  0.00    -0.351 C  
HETATM    9  N   UNL     1     -10.509   7.416  68.582  1.00  0.00    -0.198 N  
HETATM   10  O   UNL     1      -9.186   7.254  66.041  1.00  0.00    -0.133 OA 
HETATM   11  OXT UNL     1      -9.711   9.370  65.645  1.00  0.00    -0.278 OA 
HETATM   12  O   UNL     1      -9.750   5.423  67.673  1.00  0.00    -0.122 OA 
ENDROOT
BRANCH   4  13
HETATM   13  C   UNL     1      -9.856  11.095  67.808  1.00  0.00    -0.171 C  
BRANCH  13  14
HETATM   14  S   UNL     1     -11.193  12.338  67.695  1.00  0.00    -0.312 SA 
BRANCH  14  15
HETATM   15  C   UNL     1     -10.363  13.710  68.353  1.00  0.00    -0.248 A  
HETATM   16  N   UNL     1      -9.082  13.965  68.198  1.00  0.00    -0.188 NA 
HETATM   17  N   UNL     1      -8.844  15.154  68.838  1.00  0.00    -0.194 NA 
HETATM   18  N   UNL     1     -10.914  14.722  69.093  1.00  0.00    -0.257 NA 
HETATM   19  N   UNL     1      -9.955  15.632  69.377  1.00  0.00    -0.261 NA 
BRANCH  18  20
HETATM   20  C   UNL     1     -12.269  15.030  69.452  1.00  0.00    -0.199 C  
HETATM   21  O   UNL     1     -13.975  15.117  71.445  1.00  0.00    -0.459 OA 
HETATM   22  O   UNL     1     -11.598  14.896  71.949  1.00  0.00    -0.373 OA 
HETATM   23  O   UNL     1     -12.784  12.936  70.991  1.00  0.00    -0.333 OA 
HETATM   24  S   UNL     1     -12.811  14.380  71.013  1.00  0.00    -0.365 S  
ENDBRANCH  18  20
ENDBRANCH  14  15
ENDBRANCH  13  14
ENDBRANCH   4  13
BRANCH   8  25
HETATM   25  N   UNL     1      -9.878   5.598  71.014  1.00  0.00    -0.172 N  
HETATM   26  C   UNL     1     -10.179   5.188  72.296  1.00  0.00    -0.202 C  
HETATM   27  H   UNL     1      -8.894   5.704  70.768  1.00  0.00     0.000 HD 
HETATM   28  O   UNL     1     -11.327   5.083  72.717  1.00  0.00    -0.247 OA 
BRANCH  26  29
HETATM   29  C   UNL     1      -8.921   4.859  73.131  1.00  0.00    -0.111 C  
HETATM   30  O   UNL     1      -9.306   4.241  74.368  1.00  0.00    -0.105 OA 
HETATM   31  H   UNL     1      -8.534   4.039  74.882  1.00  0.00     0.000 HD 
BRANCH  29  32
HETATM   32  C   UNL     1      -8.091   6.091  73.423  1.00  0.00    -0.111 A  
HETATM   33  C   UNL     1      -8.631   7.137  74.187  1.00  0.00    -0.224 A  
HETATM   34  C   UNL     1      -6.770   6.214  72.958  1.00  0.00    -0.074 A  
HETATM   35  C   UNL     1      -6.022   7.361  73.227  1.00  0.00    -0.055 A  
HETATM   36  C   UNL     1      -6.579   8.399  73.970  1.00  0.00    -0.151 A  
HETATM   37  C   UNL     1      -7.881   8.284  74.454  1.00  0.00    -0.301 A  
ENDBRANCH  29  32
ENDBRANCH  26  29
ENDBRANCH   8  25
TORSDOF 7
ENDMDL
MODEL      130
REMARK 921   NORMALIZED FREE ENERGY PREDICTED BY IDOCK:   -5.66 KCAL/MOL
REMARK 922        TOTAL FREE ENERGY PREDICTED BY IDOCK:   -8.94 KCAL/MOL
REMARK 923 INTER-LIGAND FREE ENERGY PREDICTED BY IDOCK:   -9.50 KCAL/MOL
REMARK 924 INTRA-LIGAND FREE ENERGY PREDICTED BY IDOCK:    0.56 KCAL/MOL
REMARK 927      BINDING AFFINITY PREDICTED BY RF-SCORE:    0.00 PKD
ROOT
HETATM    1  C   UNL     1      -8.567   9.125  70.778  1.00  0.00    -0.219 C  
HETATM    2  S   UNL     1      -8.015   8.160  69.356  1.00  0.00    -0.116 SA 
HETATM    3  C   UNL     1      -8.481   9.414  68.140  1.00  0.00    -0.120 C  
HETATM    4  C   UNL     1      -9.849  10.056  68.348  1.00  0.00    -0.169 C  
HETATM    5  C   UNL     1     -10.363   8.919  71.822  1.00  0.00    -0.356 C  
HETATM    6  CA  UNL     1     -10.545  10.009  69.525  1.00  0.00    -0.244 C  
HETATM    7  C   UNL     1     -11.946  10.587  69.592  1.00  0.00    -0.208 C  
HETATM    8  CA  UNL     1      -8.942   8.294  72.055  1.00  0.00    -0.196 C  
HETATM    9  N   UNL     1      -9.978   9.413  70.627  1.00  0.00    -0.268 N  
HETATM   10  O   UNL     1     -12.750  10.155  70.579  1.00  0.00    -0.280 OA 
HETATM   11  OXT UNL     1     -12.372  11.410  68.793  1.00  0.00    -0.480 OA 
HETATM   12  O   UNL     1     -11.458   8.905  72.339  1.00  0.00    -0.313 OA 
ENDROOT
BRANCH   4  13
HETATM   13  C   UNL     1     -10.409  10.584  67.021  1.00  0.00    -0.237 C  
BRANCH  13  14
HETATM   14  S   UNL     1      -9.239  11.644  66.097  1.00  0.00    -0.201 SA 
BRANCH  14  15
HETATM   15  C   UNL     1      -9.961  13.192  66.394  1.00  0.00    -0.282 A  
HETATM   16  N   UNL     1      -9.341  14.228  66.916  1.00  0.00    -0.246 NA 
HETATM   17  N   UNL     1     -10.254  15.252  66.941  1.00  0.00    -0.263 NA 
HETATM   18  N   UNL     1     -11.249  13.561  66.110  1.00  0.00    -0.293 NA 
HETATM   19  N   UNL     1     -11.416  14.862  66.442  1.00  0.00    -0.321 NA 
BRANCH  18  20
HETATM   20  C   UNL     1     -12.318  12.892  65.426  1.00  0.00    -0.485 C  
HETATM   21  O   UNL     1     -13.128  12.013  63.089  1.00  0.00    -0.624 OA 
HETATM   22  O   UNL     1     -10.787  12.645  63.353  1.00  0.00    -0.410 OA 
HETATM   23  O   UNL     1     -12.492  14.449  63.290  1.00  0.00    -0.633 OA 
HETATM   24  S   UNL     1     -12.318  13.064  63.659  1.00  0.00    -0.360 S  
ENDBRANCH  18  20
ENDBRANCH  14  15
ENDBRANCH  13  14
ENDBRANCH   4  13
BRANCH   8  25
HETATM   25  N   UNL     1      -8.874   6.818  71.915  1.00  0.00    -0.135 N  
HETATM   26  C   UNL     1      -9.932   6.018  71.536  1.00  0.00    -0.177 C  
HETATM   27  H   UNL     1      -7.982   6.363  72.112  1.00  0.00     0.000 HD 
HETATM   28  O   UNL     1     -11.061   6.450  71.330  1.00  0.00    -0.258 OA 
BRANCH  26  29
HETATM   29  C   UNL     1      -9.535   4.532  71.383  1.00  0.00    -0.156 C  
HETATM   30  O   UNL     1      -8.232   4.316  71.944  1.00  0.00    -0.093 OA 
HETATM   31  H   UNL     1      -7.988   3.403  71.851  1.00  0.00     0.000 HD 
BRANCH  29  32
HETATM   32  C   UNL     1      -9.540   4.085  69.937  1.00  0.00    -0.281 A  
HETATM   33  C   UNL     1      -9.259   2.748  69.615  1.00  0.00    -0.206 A  
HETATM   34  C   UNL     1      -9.839   4.976  68.892  1.00  0.00    -0.245 A  
HETATM   35  C   UNL     1      -9.829   4.549  67.564  1.00  0.00    -0.191 A  
HETATM   36  C   UNL     1      -9.528   3.225  67.259  1.00  0.00    -0.189 A  
HETATM   37  C   UNL     1      -9.248   2.323  68.285  1.00  0.00    -0.243 A  
ENDBRANCH  29  32
ENDBRANCH  26  29
ENDBRANCH   8  25
TORSDOF 7
ENDMDL
MODEL      131
REMARK 921   NORMALIZED FREE ENERGY PREDICTED BY IDOCK:   -5.63 KCAL/MOL
REMARK 922        TOTAL FREE ENERGY PREDICTED BY IDOCK:   -8.91 KCAL/MOL
REMARK 923 INTER-LIGAND FREE ENERGY PREDICTED BY IDOCK:   -8.21 KCAL/MOL
REMARK 924 INTRA-LIGAND FREE ENERGY PREDICTED BY IDOCK:   -0.70 KCAL/MOL
REMARK 927      BINDING AFFINITY PREDICTED BY RF-SCORE:    0.00 PKD
ROOT
HETATM    1  C   UNL     1     -10.655   9.084  68.538  1.00  0.00    -0.155 C  
HETATM    2  S   UNL     1     -11.445   9.903  69.940  1.00  0.00    -0.132 SA 
HETATM    3  C   UNL     1     -11.479  11.532  69.156  1.00  0.00    -0.297 C  
HETATM    4  C   UNL     1     -10.195  11.947  68.445  1.00  0.00    -0.205 C  
HETATM    5  C   UNL     1      -8.634   8.604  68.332  1.00  0.00    -0.135 C  
HETATM    6  CA  UNL     1      -9.210  11.074  68.075  1.00  0.00    -0.159 C  
HETATM    7  C   UNL     1      -7.924  11.606  67.470  1.00  0.00    -0.141 C  
HETATM    8  CA  UNL     1      -9.853   7.781  68.880  1.00  0.00    -0.166 C  
HETATM    9  N   UNL     1      -9.383   9.725  68.279  1.00  0.00    -0.129 N  
HETATM   10  O   UNL     1      -6.838  10.815  67.523  1.00  0.00    -0.075 OA 
HETATM   11  OXT UNL     1      -7.833  12.712  66.952  1.00  0.00    -0.083 OA 
HETATM   12  O   UNL     1      -7.448   8.454  68.141  1.00  0.00    -0.093 OA 
ENDROOT
BRANCH   4  13
HETATM   13  C   UNL     1     -10.081  13.476  68.380  1.00  0.00    -0.240 C  
BRANCH  13  14
HETATM   14  S   UNL     1     -11.651  14.315  67.959  1.00  0.00    -0.350 SA 
BRANCH  14  15
HETATM   15  C   UNL     1     -11.142  15.178  66.545  1.00  0.00    -0.305 A  
HETATM   16  N   UNL     1     -11.206  14.717  65.314  1.00  0.00    -0.350 NA 
HETATM   17  N   UNL     1     -10.745  15.721  64.501  1.00  0.00    -0.386 NA 
HETATM   18  N   UNL     1     -10.635  16.449  66.500  1.00  0.00    -0.276 NA 
HETATM   19  N   UNL     1     -10.406  16.786  65.210  1.00  0.00    -0.643 NA 
BRANCH  18  20
HETATM   20  C   UNL     1     -10.469  17.459  67.505  1.00  0.00    -0.354 C  
HETATM   21  O   UNL     1      -8.702  18.921  68.783  1.00  0.00    -0.340 OA 
HETATM   22  O   UNL     1      -8.002  17.734  66.770  1.00  0.00    -0.215 OA 
HETATM   23  O   UNL     1      -8.428  16.409  68.827  1.00  0.00    -0.225 OA 
HETATM   24  S   UNL     1      -8.826  17.625  68.157  1.00  0.00    -0.275 S  
ENDBRANCH  18  20
ENDBRANCH  14  15
ENDBRANCH  13  14
ENDBRANCH   4  13
BRANCH   8  25
HETATM   25  N   UNL     1      -9.774   7.423  70.318  1.00  0.00    -0.172 N  
HETATM   26  C   UNL     1     -10.668   6.599  70.969  1.00  0.00    -0.236 C  
HETATM   27  H   UNL     1      -9.005   7.813  70.863  1.00  0.00     0.000 HD 
HETATM   28  O   UNL     1     -11.660   6.121  70.428  1.00  0.00    -0.343 OA 
BRANCH  26  29
HETATM   29  C   UNL     1     -10.275   6.331  72.440  1.00  0.00    -0.187 C  
HETATM   30  O   UNL     1      -8.966   6.860  72.698  1.00  0.00    -0.129 OA 
HETATM   31  H   UNL     1      -8.724   6.696  73.602  1.00  0.00     0.000 HD 
BRANCH  29  32
HETATM   32  C   UNL     1     -10.296   4.855  72.778  1.00  0.00    -0.240 A  
HETATM   33  C   UNL     1     -10.724   4.432  74.045  1.00  0.00    -0.334 A  
HETATM   34  C   UNL     1      -9.910   3.881  71.841  1.00  0.00    -0.248 A  
HETATM   35  C   UNL     1      -9.925   2.525  72.174  1.00  0.00    -0.232 A  
HETATM   36  C   UNL     1     -10.333   2.123  73.442  1.00  0.00    -0.203 A  
HETATM   37  C   UNL     1     -10.738   3.075  74.376  1.00  0.00    -0.156 A  
ENDBRANCH  29  32
ENDBRANCH  26  29
ENDBRANCH   8  25
TORSDOF 7
ENDMDL
MODEL      132
REMARK 921   NORMALIZED FREE ENERGY PREDICTED BY IDOCK:   -5.63 KCAL/MOL
REMARK 922        TOTAL FREE ENERGY PREDICTED BY IDOCK:   -8.90 KCAL/MOL
REMARK 923 INTER-LIGAND FREE ENERGY PREDICTED BY IDOCK:   -7.93 KCAL/MOL
REMARK 924 INTRA-LIGAND FREE ENERGY PREDICTED BY IDOCK:   -0.96 KCAL/MOL
REMARK 927      BINDING AFFINITY PREDICTED BY RF-SCORE:    0.00 PKD
ROOT
HETATM    1  C   UNL     1      -9.468   8.535  70.990  1.00  0.00    -0.186 C  
HETATM    2  S   UNL     1      -9.352   8.543  69.189  1.00  0.00    -0.154 SA 
HETATM    3  C   UNL     1      -9.777  10.293  69.024  1.00  0.00    -0.205 C  
HETATM    4  C   UNL     1     -10.948  10.769  69.878  1.00  0.00    -0.304 C  
HETATM    5  C   UNL     1     -11.069   7.861  72.149  1.00  0.00    -0.294 C  
HETATM    6  CA  UNL     1     -11.431  10.087  70.961  1.00  0.00    -0.383 C  
HETATM    7  C   UNL     1     -12.669  10.594  71.675  1.00  0.00    -0.426 C  
HETATM    8  CA  UNL     1      -9.769   7.141  71.642  1.00  0.00    -0.159 C  
HETATM    9  N   UNL     1     -10.807   8.934  71.374  1.00  0.00    -0.280 N  
HETATM   10  O   UNL     1     -13.361   9.716  72.421  1.00  0.00    -0.433 OA 
HETATM   11  OXT UNL     1     -13.064  11.751  71.596  1.00  0.00    -0.441 OA 
HETATM   12  O   UNL     1     -12.043   7.610  72.821  1.00  0.00    -0.167 OA 
ENDROOT
BRANCH   4  13
HETATM   13  C   UNL     1     -11.616  11.997  69.246  1.00  0.00    -0.321 C  
BRANCH  13  14
HETATM   14  S   UNL     1     -10.790  12.584  67.724  1.00  0.00    -0.234 SA 
BRANCH  14  15
HETATM   15  C   UNL     1     -10.930  14.295  67.966  1.00  0.00    -0.249 A  
HETATM   16  N   UNL     1     -11.885  14.886  68.651  1.00  0.00    -0.320 NA 
HETATM   17  N   UNL     1     -11.603  16.228  68.629  1.00  0.00    -0.304 NA 
HETATM   18  N   UNL     1     -10.070  15.259  67.511  1.00  0.00    -0.231 NA 
HETATM   19  N   UNL     1     -10.493  16.467  67.948  1.00  0.00    -0.297 NA 
BRANCH  18  20
HETATM   20  C   UNL     1      -8.808  15.186  66.834  1.00  0.00    -0.256 C  
HETATM   21  O   UNL     1      -6.207  15.094  67.184  1.00  0.00    -0.279 OA 
HETATM   22  O   UNL     1      -7.660  14.705  69.105  1.00  0.00    -0.133 OA 
HETATM   23  O   UNL     1      -7.482  17.017  68.215  1.00  0.00    -0.190 OA 
HETATM   24  S   UNL     1      -7.393  15.634  67.809  1.00  0.00    -0.167 S  
ENDBRANCH  18  20
ENDBRANCH  14  15
ENDBRANCH  13  14
ENDBRANCH   4  13
BRANCH   8  25
HETATM   25  N   UNL     1      -9.999   6.017  70.701  1.00  0.00    -0.180 N  
HETATM   26  C   UNL     1      -9.233   4.871  70.648  1.00  0.00    -0.136 C  
HETATM   27  H   UNL     1     -10.778   6.098  70.047  1.00  0.00     0.000 HD 
HETATM   28  O   UNL     1      -8.241   4.692  71.346  1.00  0.00    -0.097 OA 
BRANCH  26  29
HETATM   29  C   UNL     1      -9.771   3.837  69.633  1.00  0.00    -0.107 C  
HETATM   30  O   UNL     1      -9.347   2.518  70.011  1.00  0.00    -0.125 OA 
HETATM   31  H   UNL     1      -9.677   1.882  69.388  1.00  0.00     0.000 HD 
BRANCH  29  32
HETATM   32  C   UNL     1      -9.308   4.128  68.221  1.00  0.00    -0.214 A  
HETATM   33  C   UNL     1      -8.117   3.562  67.743  1.00  0.00    -0.081 A  
HETATM   34  C   UNL     1     -10.056   4.946  67.357  1.00  0.00    -0.196 A  
HETATM   35  C   UNL     1      -9.609   5.212  66.061  1.00  0.00    -0.176 A  
HETATM   36  C   UNL     1      -8.414   4.659  65.608  1.00  0.00    -0.118 A  
HETATM   37  C   UNL     1      -7.671   3.830  66.447  1.00  0.00    -0.089 A  
ENDBRANCH  29  32
ENDBRANCH  26  29
ENDBRANCH   8  25
TORSDOF 7
ENDMDL
MODEL      133
REMARK 921   NORMALIZED FREE ENERGY PREDICTED BY IDOCK:   -5.62 KCAL/MOL
REMARK 922        TOTAL FREE ENERGY PREDICTED BY IDOCK:   -8.89 KCAL/MOL
REMARK 923 INTER-LIGAND FREE ENERGY PREDICTED BY IDOCK:   -9.30 KCAL/MOL
REMARK 924 INTRA-LIGAND FREE ENERGY PREDICTED BY IDOCK:    0.41 KCAL/MOL
REMARK 927      BINDING AFFINITY PREDICTED BY RF-SCORE:    0.00 PKD
ROOT
HETATM    1  C   UNL     1      -8.297  11.994  66.870  1.00  0.00    -0.159 C  
HETATM    2  S   UNL     1      -8.145  10.492  67.861  1.00  0.00    -0.108 SA 
HETATM    3  C   UNL     1      -7.563   9.471  66.487  1.00  0.00    -0.094 C  
HETATM    4  C   UNL     1      -8.321   9.641  65.174  1.00  0.00    -0.142 C  
HETATM    5  C   UNL     1     -10.042  12.789  66.043  1.00  0.00    -0.268 C  
HETATM    6  CA  UNL     1      -9.123  10.710  64.887  1.00  0.00    -0.204 C  
HETATM    7  C   UNL     1      -9.918  10.728  63.595  1.00  0.00    -0.345 C  
HETATM    8  CA  UNL     1      -9.315  13.059  67.408  1.00  0.00    -0.209 C  
HETATM    9  N   UNL     1      -9.225  11.746  65.786  1.00  0.00    -0.186 N  
HETATM   10  O   UNL     1     -10.993  11.532  63.536  1.00  0.00    -0.399 OA 
HETATM   11  OXT UNL     1      -9.630  10.043  62.621  1.00  0.00    -0.271 OA 
HETATM   12  O   UNL     1     -11.018  13.175  65.441  1.00  0.00    -0.275 OA 
ENDROOT
BRANCH   4  13
HETATM   13  C   UNL     1      -8.210   8.373  64.316  1.00  0.00    -0.127 C  
BRANCH  13  14
HETATM   14  S   UNL     1      -7.375   6.982  65.160  1.00  0.00    -0.087 SA 
BRANCH  14  15
HETATM   15  C   UNL     1      -8.766   6.103  65.704  1.00  0.00    -0.126 A  
HETATM   16  N   UNL     1      -9.645   6.544  66.578  1.00  0.00    -0.160 NA 
HETATM   17  N   UNL     1     -10.598   5.565  66.696  1.00  0.00    -0.300 NA 
HETATM   18  N   UNL     1      -9.159   4.858  65.293  1.00  0.00    -0.155 NA 
HETATM   19  N   UNL     1     -10.320   4.537  65.909  1.00  0.00    -0.276 NA 
BRANCH  18  20
HETATM   20  C   UNL     1      -8.664   3.974  64.277  1.00  0.00    -0.118 C  
HETATM   21  O   UNL     1      -7.361   1.735  63.853  1.00  0.00    -0.052 OA 
HETATM   22  O   UNL     1      -8.179   2.204  66.103  1.00  0.00    -0.082 OA 
HETATM   23  O   UNL     1      -6.247   3.515  65.258  1.00  0.00    -0.023 OA 
HETATM   24  S   UNL     1      -7.428   2.816  64.808  1.00  0.00    -0.072 S  
ENDBRANCH  18  20
ENDBRANCH  14  15
ENDBRANCH  13  14
ENDBRANCH   4  13
BRANCH   8  25
HETATM   25  N   UNL     1     -10.085  12.672  68.617  1.00  0.00    -0.379 N  
HETATM   26  C   UNL     1     -11.325  12.069  68.595  1.00  0.00    -0.277 C  
HETATM   27  H   UNL     1      -9.667  12.865  69.527  1.00  0.00     0.000 HD 
HETATM   28  O   UNL     1     -11.945  11.843  67.561  1.00  0.00    -0.586 OA 
BRANCH  26  29
HETATM   29  C   UNL     1     -11.836  11.697  70.006  1.00  0.00    -0.355 C  
HETATM   30  O   UNL     1     -12.796  10.634  69.911  1.00  0.00    -0.461 OA 
HETATM   31  H   UNL     1     -13.110  10.405  70.777  1.00  0.00     0.000 HD 
BRANCH  29  32
HETATM   32  C   UNL     1     -12.462  12.878  70.717  1.00  0.00    -0.370 A  
HETATM   33  C   UNL     1     -13.184  12.680  71.904  1.00  0.00    -0.504 A  
HETATM   34  C   UNL     1     -12.327  14.188  70.227  1.00  0.00    -0.421 A  
HETATM   35  C   UNL     1     -12.920  15.264  70.890  1.00  0.00    -0.522 A  
HETATM   36  C   UNL     1     -13.650  15.048  72.056  1.00  0.00    -0.522 A  
HETATM   37  C   UNL     1     -13.776  13.757  72.566  1.00  0.00    -0.667 A  
ENDBRANCH  29  32
ENDBRANCH  26  29
ENDBRANCH   8  25
TORSDOF 7
ENDMDL
MODEL      134
REMARK 921   NORMALIZED FREE ENERGY PREDICTED BY IDOCK:   -5.62 KCAL/MOL
REMARK 922        TOTAL FREE ENERGY PREDICTED BY IDOCK:   -8.89 KCAL/MOL
REMARK 923 INTER-LIGAND FREE ENERGY PREDICTED BY IDOCK:   -8.00 KCAL/MOL
REMARK 924 INTRA-LIGAND FREE ENERGY PREDICTED BY IDOCK:   -0.89 KCAL/MOL
REMARK 927      BINDING AFFINITY PREDICTED BY RF-SCORE:    0.00 PKD
ROOT
HETATM    1  C   UNL     1     -11.237  10.786  68.543  1.00  0.00    -0.279 C  
HETATM    2  S   UNL     1      -9.446  10.581  68.434  1.00  0.00    -0.164 SA 
HETATM    3  C   UNL     1      -9.470   8.840  68.920  1.00  0.00    -0.145 C  
HETATM    4  C   UNL     1     -10.370   8.499  70.103  1.00  0.00    -0.214 C  
HETATM    5  C   UNL     1     -12.317  11.635  70.114  1.00  0.00    -0.219 C  
HETATM    6  CA  UNL     1     -11.374   9.309  70.558  1.00  0.00    -0.258 C  
HETATM    7  C   UNL     1     -12.139   8.924  71.811  1.00  0.00    -0.362 C  
HETATM    8  CA  UNL     1     -11.736  12.251  68.793  1.00  0.00    -0.340 C  
HETATM    9  N   UNL     1     -11.661  10.477  69.893  1.00  0.00    -0.280 N  
HETATM   10  O   UNL     1     -12.787   9.901  72.469  1.00  0.00    -0.232 OA 
HETATM   11  OXT UNL     1     -12.183   7.780  72.246  1.00  0.00    -0.302 OA 
HETATM   12  O   UNL     1     -12.958  11.990  71.077  1.00  0.00    -0.232 OA 
ENDROOT
BRANCH   4  13
HETATM   13  C   UNL     1      -9.873   7.234  70.816  1.00  0.00    -0.178 C  
BRANCH  13  14
HETATM   14  S   UNL     1     -10.527   5.681  70.104  1.00  0.00    -0.307 SA 
BRANCH  14  15
HETATM   15  C   UNL     1      -9.727   4.538  71.132  1.00  0.00    -0.186 A  
HETATM   16  N   UNL     1      -9.532   4.689  72.424  1.00  0.00    -0.132 NA 
HETATM   17  N   UNL     1      -8.906   3.549  72.857  1.00  0.00    -0.092 NA 
HETATM   18  N   UNL     1      -9.215   3.323  70.762  1.00  0.00    -0.123 NA 
HETATM   19  N   UNL     1      -8.718   2.703  71.856  1.00  0.00    -0.071 NA 
BRANCH  18  20
HETATM   20  C   UNL     1      -9.260   2.590  69.529  1.00  0.00    -0.123 C  
HETATM   21  O   UNL     1      -7.885   1.938  67.390  1.00  0.00    -0.060 OA 
HETATM   22  O   UNL     1      -6.702   2.910  69.289  1.00  0.00    -0.033 OA 
HETATM   23  O   UNL     1      -8.159   4.391  67.928  1.00  0.00    -0.093 OA 
HETATM   24  S   UNL     1      -8.009   3.016  68.343  1.00  0.00    -0.057 S  
ENDBRANCH  18  20
ENDBRANCH  14  15
ENDBRANCH  13  14
ENDBRANCH   4  13
BRANCH   8  25
HETATM   25  N   UNL     1     -10.680  13.275  68.987  1.00  0.00    -0.407 N  
HETATM   26  C   UNL     1     -10.292  14.191  68.031  1.00  0.00    -0.231 C  
HETATM   27  H   UNL     1     -10.207  13.304  69.891  1.00  0.00     0.000 HD 
HETATM   28  O   UNL     1     -10.750  14.211  66.894  1.00  0.00    -0.282 OA 
BRANCH  26  29
HETATM   29  C   UNL     1      -9.238  15.193  68.554  1.00  0.00    -0.192 C  
HETATM   30  O   UNL     1      -9.332  15.298  69.982  1.00  0.00    -0.435 OA 
HETATM   31  H   UNL     1      -8.684  15.914  70.304  1.00  0.00     0.000 HD 
BRANCH  29  32
HETATM   32  C   UNL     1      -9.399  16.567  67.937  1.00  0.00    -0.216 A  
HETATM   33  C   UNL     1      -8.421  17.062  67.062  1.00  0.00    -0.234 A  
HETATM   34  C   UNL     1     -10.524  17.365  68.205  1.00  0.00    -0.385 A  
HETATM   35  C   UNL     1     -10.652  18.633  67.636  1.00  0.00    -0.458 A  
HETATM   36  C   UNL     1      -9.663  19.119  66.786  1.00  0.00    -0.396 A  
HETATM   37  C   UNL     1      -8.550  18.331  66.495  1.00  0.00    -0.283 A  
ENDBRANCH  29  32
ENDBRANCH  26  29
ENDBRANCH   8  25
TORSDOF 7
ENDMDL
MODEL      135
REMARK 921   NORMALIZED FREE ENERGY PREDICTED BY IDOCK:   -5.62 KCAL/MOL
REMARK 922        TOTAL FREE ENERGY PREDICTED BY IDOCK:   -8.89 KCAL/MOL
REMARK 923 INTER-LIGAND FREE ENERGY PREDICTED BY IDOCK:   -7.47 KCAL/MOL
REMARK 924 INTRA-LIGAND FREE ENERGY PREDICTED BY IDOCK:   -1.42 KCAL/MOL
REMARK 927      BINDING AFFINITY PREDICTED BY RF-SCORE:    0.00 PKD
ROOT
HETATM    1  C   UNL     1      -9.155  10.175  68.395  1.00  0.00    -0.133 C  
HETATM    2  S   UNL     1      -8.704   8.431  68.277  1.00  0.00    -0.143 SA 
HETATM    3  C   UNL     1      -7.746   8.631  66.756  1.00  0.00    -0.093 C  
HETATM    4  C   UNL     1      -8.395   9.494  65.679  1.00  0.00    -0.131 C  
HETATM    5  C   UNL     1     -10.962  11.052  67.826  1.00  0.00    -0.269 C  
HETATM    6  CA  UNL     1      -9.422  10.366  65.914  1.00  0.00    -0.189 C  
HETATM    7  C   UNL     1     -10.068  11.096  64.751  1.00  0.00    -0.295 C  
HETATM    8  CA  UNL     1     -10.464  10.482  69.201  1.00  0.00    -0.228 C  
HETATM    9  N   UNL     1      -9.878  10.552  67.198  1.00  0.00    -0.171 N  
HETATM   10  O   UNL     1     -11.307  11.584  64.933  1.00  0.00    -0.230 OA 
HETATM   11  OXT UNL     1      -9.520  11.249  63.667  1.00  0.00    -0.233 OA 
HETATM   12  O   UNL     1     -11.945  11.589  67.367  1.00  0.00    -0.623 OA 
ENDROOT
BRANCH   4  13
HETATM   13  C   UNL     1      -7.874   9.109  64.288  1.00  0.00    -0.127 C  
BRANCH  13  14
HETATM   14  S   UNL     1      -6.653   7.747  64.310  1.00  0.00    -0.057 SA 
BRANCH  14  15
HETATM   15  C   UNL     1      -7.648   6.464  63.703  1.00  0.00    -0.091 A  
HETATM   16  N   UNL     1      -7.804   6.165  62.431  1.00  0.00    -0.084 NA 
HETATM   17  N   UNL     1      -8.631   5.072  62.389  1.00  0.00    -0.111 NA 
HETATM   18  N   UNL     1      -8.381   5.575  64.444  1.00  0.00    -0.133 NA 
HETATM   19  N   UNL     1      -8.980   4.695  63.610  1.00  0.00    -0.132 NA 
BRANCH  18  20
HETATM   20  C   UNL     1      -8.481   5.347  65.857  1.00  0.00    -0.127 C  
HETATM   21  O   UNL     1      -7.345   4.166  67.908  1.00  0.00    -0.066 OA 
HETATM   22  O   UNL     1      -6.079   4.382  65.833  1.00  0.00    -0.026 OA 
HETATM   23  O   UNL     1      -7.951   2.752  65.904  1.00  0.00    -0.081 OA 
HETATM   24  S   UNL     1      -7.509   3.999  66.482  1.00  0.00    -0.085 S  
ENDBRANCH  18  20
ENDBRANCH  14  15
ENDBRANCH  13  14
ENDBRANCH   4  13
BRANCH   8  25
HETATM   25  N   UNL     1     -11.214   9.302  69.701  1.00  0.00    -0.425 N  
HETATM   26  C   UNL     1     -11.096   8.782  70.973  1.00  0.00    -0.270 C  
HETATM   27  H   UNL     1     -11.860   8.844  69.059  1.00  0.00     0.000 HD 
HETATM   28  O   UNL     1     -10.309   9.216  71.808  1.00  0.00    -0.344 OA 
BRANCH  26  29
HETATM   29  C   UNL     1     -12.072   7.612  71.235  1.00  0.00    -0.314 C  
HETATM   30  O   UNL     1     -12.875   7.898  72.390  1.00  0.00    -0.520 OA 
HETATM   31  H   UNL     1     -13.475   7.179  72.551  1.00  0.00     0.000 HD 
BRANCH  29  32
HETATM   32  C   UNL     1     -11.347   6.298  71.439  1.00  0.00    -0.353 A  
HETATM   33  C   UNL     1     -10.780   5.632  70.342  1.00  0.00    -0.352 A  
HETATM   34  C   UNL     1     -11.209   5.725  72.715  1.00  0.00    -0.336 A  
HETATM   35  C   UNL     1     -10.547   4.508  72.883  1.00  0.00    -0.275 A  
HETATM   36  C   UNL     1     -10.007   3.849  71.782  1.00  0.00    -0.234 A  
HETATM   37  C   UNL     1     -10.119   4.414  70.512  1.00  0.00    -0.190 A  
ENDBRANCH  29  32
ENDBRANCH  26  29
ENDBRANCH   8  25
TORSDOF 7
ENDMDL
MODEL      136
REMARK 921   NORMALIZED FREE ENERGY PREDICTED BY IDOCK:   -5.62 KCAL/MOL
REMARK 922        TOTAL FREE ENERGY PREDICTED BY IDOCK:   -8.89 KCAL/MOL
REMARK 923 INTER-LIGAND FREE ENERGY PREDICTED BY IDOCK:   -8.64 KCAL/MOL
REMARK 924 INTRA-LIGAND FREE ENERGY PREDICTED BY IDOCK:   -0.25 KCAL/MOL
REMARK 927      BINDING AFFINITY PREDICTED BY RF-SCORE:    0.00 PKD
ROOT
HETATM    1  C   UNL     1      -8.592  13.286  66.962  1.00  0.00    -0.161 C  
HETATM    2  S   UNL     1      -8.708  12.767  68.687  1.00  0.00     0.151 SA 
HETATM    3  C   UNL     1      -7.752  11.251  68.446  1.00  0.00    -0.125 C  
HETATM    4  C   UNL     1      -8.112  10.436  67.208  1.00  0.00    -0.114 C  
HETATM    5  C   UNL     1     -10.042  13.064  65.477  1.00  0.00    -0.259 C  
HETATM    6  CA  UNL     1      -8.814  10.931  66.144  1.00  0.00    -0.186 C  
HETATM    7  C   UNL     1      -9.213  10.005  65.011  1.00  0.00    -0.225 C  
HETATM    8  CA  UNL     1      -9.732  14.243  66.466  1.00  0.00    -0.291 C  
HETATM    9  N   UNL     1      -9.175  12.258  66.125  1.00  0.00    -0.181 N  
HETATM   10  O   UNL     1     -10.237  10.386  64.228  1.00  0.00    -0.323 OA 
HETATM   11  OXT UNL     1      -8.657   8.937  64.789  1.00  0.00    -0.175 OA 
HETATM   12  O   UNL     1     -10.814  12.809  64.581  1.00  0.00    -0.302 OA 
ENDROOT
BRANCH   4  13
HETATM   13  C   UNL     1      -7.752   8.958  67.408  1.00  0.00    -0.096 C  
BRANCH  13  14
HETATM   14  S   UNL     1      -9.043   7.994  68.273  1.00  0.00    -0.134 SA 
BRANCH  14  15
HETATM   15  C   UNL     1      -8.617   8.356  69.914  1.00  0.00    -0.131 A  
HETATM   16  N   UNL     1      -7.403   8.644  70.334  1.00  0.00    -0.055 NA 
HETATM   17  N   UNL     1      -7.510   8.901  71.677  1.00  0.00    -0.289 NA 
HETATM   18  N   UNL     1      -9.467   8.420  70.986  1.00  0.00    -0.160 NA 
HETATM   19  N   UNL     1      -8.764   8.780  72.084  1.00  0.00    -0.391 NA 
BRANCH  18  20
HETATM   20  C   UNL     1     -10.894   8.330  71.093  1.00  0.00    -0.233 C  
HETATM   21  O   UNL     1     -12.876   6.805  71.892  1.00  0.00    -0.338 OA 
HETATM   22  O   UNL     1     -10.612   6.250  72.609  1.00  0.00    -0.200 OA 
HETATM   23  O   UNL     1     -11.226   5.845  70.237  1.00  0.00    -0.332 OA 
HETATM   24  S   UNL     1     -11.537   6.696  71.361  1.00  0.00    -0.329 S  
ENDBRANCH  18  20
ENDBRANCH  14  15
ENDBRANCH  13  14
ENDBRANCH   4  13
BRANCH   8  25
HETATM   25  N   UNL     1     -10.806  14.540  67.447  1.00  0.00    -0.285 N  
HETATM   26  C   UNL     1     -10.667  15.390  68.524  1.00  0.00    -0.256 C  
HETATM   27  H   UNL     1     -11.709  14.085  67.315  1.00  0.00     0.000 HD 
HETATM   28  O   UNL     1      -9.613  15.946  68.812  1.00  0.00    -0.199 OA 
BRANCH  26  29
HETATM   29  C   UNL     1     -11.984  15.578  69.312  1.00  0.00    -0.316 C  
HETATM   30  O   UNL     1     -11.851  16.676  70.228  1.00  0.00    -0.222 OA 
HETATM   31  H   UNL     1     -12.659  16.791  70.712  1.00  0.00     0.000 HD 
BRANCH  29  32
HETATM   32  C   UNL     1     -12.375  14.331  70.077  1.00  0.00    -0.403 A  
HETATM   33  C   UNL     1     -13.148  14.437  71.243  1.00  0.00    -0.421 A  
HETATM   34  C   UNL     1     -11.996  13.050  69.639  1.00  0.00    -0.367 A  
HETATM   35  C   UNL     1     -12.356  11.912  70.362  1.00  0.00    -0.334 A  
HETATM   36  C   UNL     1     -13.107  12.035  71.528  1.00  0.00    -0.362 A  
HETATM   37  C   UNL     1     -13.507  13.297  71.965  1.00  0.00    -0.596 A  
ENDBRANCH  29  32
ENDBRANCH  26  29
ENDBRANCH   8  25
TORSDOF 7
ENDMDL
MODEL      137
REMARK 921   NORMALIZED FREE ENERGY PREDICTED BY IDOCK:   -5.61 KCAL/MOL
REMARK 922        TOTAL FREE ENERGY PREDICTED BY IDOCK:   -8.88 KCAL/MOL
REMARK 923 INTER-LIGAND FREE ENERGY PREDICTED BY IDOCK:   -8.10 KCAL/MOL
REMARK 924 INTRA-LIGAND FREE ENERGY PREDICTED BY IDOCK:   -0.78 KCAL/MOL
REMARK 927      BINDING AFFINITY PREDICTED BY RF-SCORE:    0.00 PKD
ROOT
HETATM    1  C   UNL     1     -10.246   8.509  69.143  1.00  0.00    -0.211 C  
HETATM    2  S   UNL     1     -10.578   9.209  67.513  1.00  0.00    -0.192 SA 
HETATM    3  C   UNL     1      -9.652   7.940  66.618  1.00  0.00    -0.226 C  
HETATM    4  C   UNL     1      -8.293   7.577  67.210  1.00  0.00    -0.118 C  
HETATM    5  C   UNL     1      -8.804   9.138  70.516  1.00  0.00    -0.224 C  
HETATM    6  CA  UNL     1      -7.916   7.868  68.492  1.00  0.00    -0.121 C  
HETATM    7  C   UNL     1      -6.502   7.559  68.946  1.00  0.00    -0.044 C  
HETATM    8  CA  UNL     1     -10.317   9.520  70.340  1.00  0.00    -0.276 C  
HETATM    9  N   UNL     1      -8.813   8.462  69.348  1.00  0.00    -0.141 N  
HETATM   10  O   UNL     1      -6.032   8.226  70.014  1.00  0.00    -0.025 OA 
HETATM   11  OXT UNL     1      -5.778   6.747  68.384  1.00  0.00    -0.016 OA 
HETATM   12  O   UNL     1      -7.881   9.399  71.253  1.00  0.00    -0.335 OA 
ENDROOT
BRANCH   4  13
HETATM   13  C   UNL     1      -7.359   7.024  66.126  1.00  0.00    -0.075 C  
BRANCH  13  14
HETATM   14  S   UNL     1      -8.230   6.464  64.618  1.00  0.00    -0.012 SA 
BRANCH  14  15
HETATM   15  C   UNL     1      -8.126   4.749  64.849  1.00  0.00    -0.105 A  
HETATM   16  N   UNL     1      -7.319   3.946  64.191  1.00  0.00    -0.058 NA 
HETATM   17  N   UNL     1      -7.523   2.690  64.702  1.00  0.00    -0.069 NA 
HETATM   18  N   UNL     1      -8.835   4.001  65.750  1.00  0.00    -0.119 NA 
HETATM   19  N   UNL     1      -8.435   2.711  65.661  1.00  0.00    -0.098 NA 
BRANCH  18  20
HETATM   20  C   UNL     1      -9.745   4.358  66.799  1.00  0.00    -0.215 C  
HETATM   21  O   UNL     1     -10.032   4.525  69.403  1.00  0.00    -0.204 OA 
HETATM   22  O   UNL     1      -7.789   4.228  68.490  1.00  0.00    -0.073 OA 
HETATM   23  O   UNL     1      -9.352   2.299  68.419  1.00  0.00    -0.180 OA 
HETATM   24  S   UNL     1      -9.330   3.743  68.412  1.00  0.00    -0.154 S  
ENDBRANCH  18  20
ENDBRANCH  14  15
ENDBRANCH  13  14
ENDBRANCH   4  13
BRANCH   8  25
HETATM   25  N   UNL     1     -10.570  10.938  69.982  1.00  0.00    -0.439 N  
HETATM   26  C   UNL     1     -11.822  11.501  69.855  1.00  0.00    -0.355 C  
HETATM   27  H   UNL     1      -9.761  11.537  69.818  1.00  0.00     0.000 HD 
HETATM   28  O   UNL     1     -12.863  10.862  69.974  1.00  0.00    -0.213 OA 
BRANCH  26  29
HETATM   29  C   UNL     1     -11.770  13.019  69.569  1.00  0.00    -0.317 C  
HETATM   30  O   UNL     1     -10.448  13.391  69.154  1.00  0.00    -0.422 OA 
HETATM   31  H   UNL     1     -10.415  14.324  68.978  1.00  0.00     0.000 HD 
BRANCH  29  32
HETATM   32  C   UNL     1     -12.169  13.843  70.775  1.00  0.00    -0.441 A  
HETATM   33  C   UNL     1     -13.226  13.419  71.595  1.00  0.00    -0.449 A  
HETATM   34  C   UNL     1     -11.492  15.027  71.113  1.00  0.00    -0.355 A  
HETATM   35  C   UNL     1     -11.879  15.779  72.223  1.00  0.00    -0.598 A  
HETATM   36  C   UNL     1     -12.943  15.356  73.015  1.00  0.00    -0.598 A  
HETATM   37  C   UNL     1     -13.612  14.174  72.705  1.00  0.00    -0.618 A  
ENDBRANCH  29  32
ENDBRANCH  26  29
ENDBRANCH   8  25
TORSDOF 7
ENDMDL
MODEL      138
REMARK 921   NORMALIZED FREE ENERGY PREDICTED BY IDOCK:   -5.59 KCAL/MOL
REMARK 922        TOTAL FREE ENERGY PREDICTED BY IDOCK:   -8.85 KCAL/MOL
REMARK 923 INTER-LIGAND FREE ENERGY PREDICTED BY IDOCK:   -8.60 KCAL/MOL
REMARK 924 INTRA-LIGAND FREE ENERGY PREDICTED BY IDOCK:   -0.25 KCAL/MOL
REMARK 927      BINDING AFFINITY PREDICTED BY RF-SCORE:    0.00 PKD
ROOT
HETATM    1  C   UNL     1      -9.086   8.492  71.618  1.00  0.00    -0.229 C  
HETATM    2  S   UNL     1      -8.445   8.561  69.932  1.00  0.00    -0.128 SA 
HETATM    3  C   UNL     1      -9.110  10.208  69.593  1.00  0.00    -0.174 C  
HETATM    4  C   UNL     1     -10.547  10.444  70.047  1.00  0.00    -0.282 C  
HETATM    5  C   UNL     1     -10.809   7.512  72.274  1.00  0.00    -0.258 C  
HETATM    6  CA  UNL     1     -11.198   9.662  70.961  1.00  0.00    -0.375 C  
HETATM    7  C   UNL     1     -12.662   9.919  71.261  1.00  0.00    -0.383 C  
HETATM    8  CA  UNL     1      -9.310   7.051  72.197  1.00  0.00    -0.134 C  
HETATM    9  N   UNL     1     -10.527   8.632  71.577  1.00  0.00    -0.248 N  
HETATM   10  O   UNL     1     -13.374   8.913  71.798  1.00  0.00    -0.344 OA 
HETATM   11  OXT UNL     1     -13.217  10.986  71.031  1.00  0.00    -0.237 OA 
HETATM   12  O   UNL     1     -11.877   7.073  72.636  1.00  0.00    -0.171 OA 
ENDROOT
BRANCH   4  13
HETATM   13  C   UNL     1     -11.208  11.545  69.207  1.00  0.00    -0.272 C  
BRANCH  13  14
HETATM   14  S   UNL     1     -10.040  12.454  68.132  1.00  0.00    -0.227 SA 
BRANCH  14  15
HETATM   15  C   UNL     1     -10.065  11.416  66.744  1.00  0.00    -0.216 A  
HETATM   16  N   UNL     1      -9.311  10.350  66.583  1.00  0.00    -0.156 NA 
HETATM   17  N   UNL     1      -9.671   9.801  65.379  1.00  0.00    -0.304 NA 
HETATM   18  N   UNL     1     -10.875  11.537  65.647  1.00  0.00    -0.272 NA 
HETATM   19  N   UNL     1     -10.631  10.507  64.804  1.00  0.00    -0.153 NA 
BRANCH  18  20
HETATM   20  C   UNL     1     -11.965  12.419  65.343  1.00  0.00    -0.398 C  
HETATM   21  O   UNL     1     -12.726  14.415  63.816  1.00  0.00    -0.785 OA 
HETATM   22  O   UNL     1     -10.695  13.200  63.226  1.00  0.00     0.113 OA 
HETATM   23  O   UNL     1     -10.633  14.704  65.201  1.00  0.00    -0.363 OA 
HETATM   24  S   UNL     1     -11.533  13.879  64.430  1.00  0.00    -0.332 S  
ENDBRANCH  18  20
ENDBRANCH  14  15
ENDBRANCH  13  14
ENDBRANCH   4  13
BRANCH   8  25
HETATM   25  N   UNL     1      -9.045   5.926  71.266  1.00  0.00    -0.140 N  
HETATM   26  C   UNL     1      -9.542   4.649  71.421  1.00  0.00    -0.166 C  
HETATM   27  H   UNL     1      -8.454   6.110  70.456  1.00  0.00     0.000 HD 
HETATM   28  O   UNL     1     -10.215   4.301  72.386  1.00  0.00    -0.176 OA 
BRANCH  26  29
HETATM   29  C   UNL     1      -9.176   3.716  70.244  1.00  0.00    -0.152 C  
HETATM   30  O   UNL     1      -7.757   3.507  70.212  1.00  0.00    -0.047 OA 
HETATM   31  H   UNL     1      -7.532   2.934  69.488  1.00  0.00     0.000 HD 
BRANCH  29  32
HETATM   32  C   UNL     1      -9.633   4.272  68.912  1.00  0.00    -0.227 A  
HETATM   33  C   UNL     1      -9.225   3.657  67.718  1.00  0.00    -0.228 A  
HETATM   34  C   UNL     1     -10.479   5.391  68.832  1.00  0.00    -0.238 A  
HETATM   35  C   UNL     1     -10.881   5.897  67.595  1.00  0.00    -0.331 A  
HETATM   36  C   UNL     1     -10.451   5.287  66.420  1.00  0.00    -0.347 A  
HETATM   37  C   UNL     1      -9.628   4.164  66.481  1.00  0.00    -0.220 A  
ENDBRANCH  29  32
ENDBRANCH  26  29
ENDBRANCH   8  25
TORSDOF 7
ENDMDL
MODEL      139
REMARK 921   NORMALIZED FREE ENERGY PREDICTED BY IDOCK:   -5.57 KCAL/MOL
REMARK 922        TOTAL FREE ENERGY PREDICTED BY IDOCK:   -8.81 KCAL/MOL
REMARK 923 INTER-LIGAND FREE ENERGY PREDICTED BY IDOCK:   -7.30 KCAL/MOL
REMARK 924 INTRA-LIGAND FREE ENERGY PREDICTED BY IDOCK:   -1.51 KCAL/MOL
REMARK 927      BINDING AFFINITY PREDICTED BY RF-SCORE:    0.00 PKD
ROOT
HETATM    1  C   UNL     1     -11.254   7.947  70.578  1.00  0.00    -0.253 C  
HETATM    2  S   UNL     1     -11.091   7.697  68.798  1.00  0.00     0.370 SA 
HETATM    3  C   UNL     1     -10.899   5.903  68.921  1.00  0.00    -0.303 C  
HETATM    4  C   UNL     1      -9.953   5.416  70.014  1.00  0.00    -0.303 C  
HETATM    5  C   UNL     1      -9.771   8.582  71.904  1.00  0.00    -0.287 C  
HETATM    6  CA  UNL     1      -9.550   6.182  71.073  1.00  0.00    -0.175 C  
HETATM    7  C   UNL     1      -8.521   5.636  72.046  1.00  0.00    -0.126 C  
HETATM    8  CA  UNL     1     -10.862   9.374  71.099  1.00  0.00    -0.357 C  
HETATM    9  N   UNL     1     -10.061   7.449  71.231  1.00  0.00    -0.189 N  
HETATM   10  O   UNL     1      -7.835   6.523  72.787  1.00  0.00    -0.101 OA 
HETATM   11  OXT UNL     1      -8.287   4.442  72.175  1.00  0.00    -0.104 OA 
HETATM   12  O   UNL     1      -8.886   8.807  72.698  1.00  0.00    -0.394 OA 
ENDROOT
BRANCH   4  13
HETATM   13  C   UNL     1      -9.377   4.039  69.659  1.00  0.00    -0.173 C  
BRANCH  13  14
HETATM   14  S   UNL     1      -8.374   4.032  68.130  1.00  0.00    -0.093 SA 
BRANCH  14  15
HETATM   15  C   UNL     1      -7.107   5.110  68.615  1.00  0.00    -0.058 A  
HETATM   16  N   UNL     1      -6.079   4.780  69.367  1.00  0.00    -0.025 NA 
HETATM   17  N   UNL     1      -5.302   5.905  69.477  1.00  0.00    -0.004 NA 
HETATM   18  N   UNL     1      -6.979   6.430  68.273  1.00  0.00    -0.078 NA 
HETATM   19  N   UNL     1      -5.834   6.914  68.805  1.00  0.00    -0.018 NA 
BRANCH  18  20
HETATM   20  C   UNL     1      -7.722   7.273  67.381  1.00  0.00    -0.110 C  
HETATM   21  O   UNL     1      -8.156   7.841  64.855  1.00  0.00    -0.136 OA 
HETATM   22  O   UNL     1      -6.974   5.778  65.404  1.00  0.00    -0.060 OA 
HETATM   23  O   UNL     1      -5.779   7.934  65.707  1.00  0.00    -0.036 OA 
HETATM   24  S   UNL     1      -7.103   7.359  65.719  1.00  0.00    -0.066 S  
ENDBRANCH  18  20
ENDBRANCH  14  15
ENDBRANCH  13  14
ENDBRANCH   4  13
BRANCH   8  25
HETATM   25  N   UNL     1     -10.332  10.316  70.082  1.00  0.00    -0.426 N  
HETATM   26  C   UNL     1     -11.114  11.064  69.226  1.00  0.00    -0.254 C  
HETATM   27  H   UNL     1      -9.320  10.418  70.011  1.00  0.00     0.000 HD 
HETATM   28  O   UNL     1     -12.337  10.979  69.184  1.00  0.00    -0.451 OA 
BRANCH  26  29
HETATM   29  C   UNL     1     -10.286  12.026  68.345  1.00  0.00    -0.209 C  
HETATM   30  O   UNL     1     -10.030  13.243  69.062  1.00  0.00    -0.424 OA 
HETATM   31  H   UNL     1      -9.521  13.835  68.520  1.00  0.00     0.000 HD 
BRANCH  29  32
HETATM   32  C   UNL     1     -10.983  12.349  67.040  1.00  0.00    -0.303 A  
HETATM   33  C   UNL     1     -10.736  11.567  65.901  1.00  0.00    -0.325 A  
HETATM   34  C   UNL     1     -11.895  13.413  66.937  1.00  0.00    -0.453 A  
HETATM   35  C   UNL     1     -12.520  13.703  65.723  1.00  0.00    -0.524 A  
HETATM   36  C   UNL     1     -12.250  12.930  64.597  1.00  0.00    -0.494 A  
HETATM   37  C   UNL     1     -11.362  11.859  64.688  1.00  0.00    -0.355 A  
ENDBRANCH  29  32
ENDBRANCH  26  29
ENDBRANCH   8  25
TORSDOF 7
ENDMDL
MODEL      140
REMARK 921   NORMALIZED FREE ENERGY PREDICTED BY IDOCK:   -5.56 KCAL/MOL
REMARK 922        TOTAL FREE ENERGY PREDICTED BY IDOCK:   -8.80 KCAL/MOL
REMARK 923 INTER-LIGAND FREE ENERGY PREDICTED BY IDOCK:   -7.85 KCAL/MOL
REMARK 924 INTRA-LIGAND FREE ENERGY PREDICTED BY IDOCK:   -0.95 KCAL/MOL
REMARK 927      BINDING AFFINITY PREDICTED BY RF-SCORE:    0.00 PKD
ROOT
HETATM    1  C   UNL     1      -9.733  11.707  68.258  1.00  0.00    -0.197 C  
HETATM    2  S   UNL     1      -7.933  11.842  68.237  1.00  0.00    -0.153 SA 
HETATM    3  C   UNL     1      -7.920  13.638  68.447  1.00  0.00    -0.147 C  
HETATM    4  C   UNL     1      -8.916  14.409  67.586  1.00  0.00    -0.192 C  
HETATM    5  C   UNL     1     -11.003  11.524  66.611  1.00  0.00    -0.296 C  
HETATM    6  CA  UNL     1      -9.998  13.839  66.973  1.00  0.00    -0.251 C  
HETATM    7  C   UNL     1     -10.864  14.674  66.049  1.00  0.00    -0.318 C  
HETATM    8  CA  UNL     1     -10.325  10.449  67.532  1.00  0.00    -0.224 C  
HETATM    9  N   UNL     1     -10.274  12.507  67.178  1.00  0.00    -0.217 N  
HETATM   10  O   UNL     1     -11.620  14.024  65.148  1.00  0.00    -0.320 OA 
HETATM   11  OXT UNL     1     -10.896  15.898  66.084  1.00  0.00    -0.296 OA 
HETATM   12  O   UNL     1     -11.753  11.565  65.662  1.00  0.00    -0.204 OA 
ENDROOT
BRANCH   4  13
HETATM   13  C   UNL     1      -8.432  15.846  67.350  1.00  0.00    -0.175 C  
BRANCH  13  14
HETATM   14  S   UNL     1      -8.419  16.876  68.862  1.00  0.00    -0.150 SA 
BRANCH  14  15
HETATM   15  C   UNL     1      -7.453  18.199  68.296  1.00  0.00    -0.274 A  
HETATM   16  N   UNL     1      -6.350  18.629  68.870  1.00  0.00    -0.229 NA 
HETATM   17  N   UNL     1      -5.882  19.654  68.089  1.00  0.00    -0.214 NA 
HETATM   18  N   UNL     1      -7.676  18.956  67.177  1.00  0.00    -0.233 NA 
HETATM   19  N   UNL     1      -6.674  19.855  67.047  1.00  0.00    -0.205 NA 
BRANCH  18  20
HETATM   20  C   UNL     1      -8.638  18.854  66.118  1.00  0.00    -0.172 C  
HETATM   21  O   UNL     1     -10.964  19.723  65.264  1.00  0.00    -0.410 OA 
HETATM   22  O   UNL     1      -9.863  20.921  67.081  1.00  0.00    -0.416 OA 
HETATM   23  O   UNL     1     -10.849  18.695  67.569  1.00  0.00    -0.435 OA 
HETATM   24  S   UNL     1     -10.261  19.466  66.499  1.00  0.00    -0.491 S  
ENDBRANCH  18  20
ENDBRANCH  14  15
ENDBRANCH  13  14
ENDBRANCH   4  13
BRANCH   8  25
HETATM   25  N   UNL     1      -9.343   9.567  66.851  1.00  0.00    -0.142 N  
HETATM   26  C   UNL     1      -9.593   8.265  66.473  1.00  0.00    -0.244 C  
HETATM   27  H   UNL     1      -8.420   9.952  66.650  1.00  0.00     0.000 HD 
HETATM   28  O   UNL     1     -10.645   7.683  66.715  1.00  0.00    -0.325 OA 
BRANCH  26  29
HETATM   29  C   UNL     1      -8.415   7.630  65.699  1.00  0.00    -0.142 C  
HETATM   30  O   UNL     1      -7.373   7.261  66.614  1.00  0.00    -0.077 OA 
HETATM   31  H   UNL     1      -6.649   6.871  66.139  1.00  0.00     0.000 HD 
BRANCH  29  32
HETATM   32  C   UNL     1      -7.853   8.563  64.647  1.00  0.00    -0.131 A  
HETATM   33  C   UNL     1      -8.668   9.004  63.593  1.00  0.00    -0.101 A  
HETATM   34  C   UNL     1      -6.525   9.020  64.704  1.00  0.00    -0.070 A  
HETATM   35  C   UNL     1      -6.020   9.872  63.720  1.00  0.00    -0.121 A  
HETATM   36  C   UNL     1      -6.836  10.285  62.670  1.00  0.00    -0.139 A  
HETATM   37  C   UNL     1      -8.160   9.856  62.610  1.00  0.00    -0.137 A  
ENDBRANCH  29  32
ENDBRANCH  26  29
ENDBRANCH   8  25
TORSDOF 7
ENDMDL
MODEL      141
REMARK 921   NORMALIZED FREE ENERGY PREDICTED BY IDOCK:   -5.55 KCAL/MOL
REMARK 922        TOTAL FREE ENERGY PREDICTED BY IDOCK:   -8.79 KCAL/MOL
REMARK 923 INTER-LIGAND FREE ENERGY PREDICTED BY IDOCK:   -7.66 KCAL/MOL
REMARK 924 INTRA-LIGAND FREE ENERGY PREDICTED BY IDOCK:   -1.13 KCAL/MOL
REMARK 927      BINDING AFFINITY PREDICTED BY RF-SCORE:    0.00 PKD
ROOT
HETATM    1  C   UNL     1      -7.919  10.472  67.232  1.00  0.00    -0.114 C  
HETATM    2  S   UNL     1      -9.606  11.105  67.130  1.00  0.00    -0.174 SA 
HETATM    3  C   UNL     1      -9.107  12.844  67.123  1.00  0.00    -0.220 C  
HETATM    4  C   UNL     1      -8.036  13.225  68.140  1.00  0.00    -0.150 C  
HETATM    5  C   UNL     1      -6.926   9.796  68.941  1.00  0.00    -0.062 C  
HETATM    6  CA  UNL     1      -7.221  12.323  68.765  1.00  0.00    -0.098 C  
HETATM    7  C   UNL     1      -6.262  12.797  69.841  1.00  0.00    -0.084 C  
HETATM    8  CA  UNL     1      -7.771   9.040  67.855  1.00  0.00    -0.097 C  
HETATM    9  N   UNL     1      -7.297  10.990  68.434  1.00  0.00    -0.090 N  
HETATM   10  O   UNL     1      -5.810  11.885  70.719  1.00  0.00    -0.304 OA 
HETATM   11  OXT UNL     1      -5.895  13.961  69.947  1.00  0.00    -0.108 OA 
HETATM   12  O   UNL     1      -6.298   9.542  69.943  1.00  0.00    -0.044 OA 
ENDROOT
BRANCH   4  13
HETATM   13  C   UNL     1      -8.132  14.714  68.497  1.00  0.00    -0.146 C  
BRANCH  13  14
HETATM   14  S   UNL     1      -7.471  15.827  67.205  1.00  0.00    -0.229 SA 
BRANCH  14  15
HETATM   15  C   UNL     1      -6.983  17.160  68.200  1.00  0.00    -0.178 A  
HETATM   16  N   UNL     1      -5.780  17.325  68.706  1.00  0.00    -0.154 NA 
HETATM   17  N   UNL     1      -5.808  18.514  69.389  1.00  0.00    -0.235 NA 
HETATM   18  N   UNL     1      -7.756  18.226  68.576  1.00  0.00    -0.298 NA 
HETATM   19  N   UNL     1      -7.003  19.079  69.307  1.00  0.00    -0.298 NA 
BRANCH  18  20
HETATM   20  C   UNL     1      -9.084  18.632  68.215  1.00  0.00    -0.322 C  
HETATM   21  O   UNL     1     -10.528  19.759  66.334  1.00  0.00    -0.457 OA 
HETATM   22  O   UNL     1      -8.264  19.030  65.792  1.00  0.00    -0.449 OA 
HETATM   23  O   UNL     1      -8.540  21.032  67.235  1.00  0.00    -0.177 OA 
HETATM   24  S   UNL     1      -9.189  19.793  66.876  1.00  0.00    -0.383 S  
ENDBRANCH  18  20
ENDBRANCH  14  15
ENDBRANCH  13  14
ENDBRANCH   4  13
BRANCH   8  25
HETATM   25  N   UNL     1      -9.021   8.414  68.355  1.00  0.00    -0.136 N  
HETATM   26  C   UNL     1      -9.077   7.223  69.048  1.00  0.00    -0.133 C  
HETATM   27  H   UNL     1      -9.900   8.899  68.173  1.00  0.00     0.000 HD 
HETATM   28  O   UNL     1      -8.091   6.528  69.273  1.00  0.00    -0.109 OA 
BRANCH  26  29
HETATM   29  C   UNL     1     -10.505   6.872  69.522  1.00  0.00    -0.223 C  
HETATM   30  O   UNL     1     -11.393   7.966  69.244  1.00  0.00    -0.418 OA 
HETATM   31  H   UNL     1     -12.271   7.750  69.536  1.00  0.00     0.000 HD 
BRANCH  29  32
HETATM   32  C   UNL     1     -10.553   6.549  71.001  1.00  0.00    -0.275 A  
HETATM   33  C   UNL     1     -10.461   5.217  71.431  1.00  0.00    -0.273 A  
HETATM   34  C   UNL     1     -10.673   7.560  71.971  1.00  0.00    -0.264 A  
HETATM   35  C   UNL     1     -10.726   7.243  73.329  1.00  0.00    -0.428 A  
HETATM   36  C   UNL     1     -10.654   5.915  73.739  1.00  0.00    -0.275 A  
HETATM   37  C   UNL     1     -10.515   4.903  72.791  1.00  0.00    -0.257 A  
ENDBRANCH  29  32
ENDBRANCH  26  29
ENDBRANCH   8  25
TORSDOF 7
ENDMDL
MODEL      142
REMARK 921   NORMALIZED FREE ENERGY PREDICTED BY IDOCK:   -5.54 KCAL/MOL
REMARK 922        TOTAL FREE ENERGY PREDICTED BY IDOCK:   -8.78 KCAL/MOL
REMARK 923 INTER-LIGAND FREE ENERGY PREDICTED BY IDOCK:   -8.70 KCAL/MOL
REMARK 924 INTRA-LIGAND FREE ENERGY PREDICTED BY IDOCK:   -0.08 KCAL/MOL
REMARK 927      BINDING AFFINITY PREDICTED BY RF-SCORE:    0.00 PKD
ROOT
HETATM    1  C   UNL     1     -10.595   8.685  67.143  1.00  0.00    -0.234 C  
HETATM    2  S   UNL     1     -10.581   9.917  68.462  1.00  0.00    -0.221 SA 
HETATM    3  C   UNL     1     -11.355  11.209  67.461  1.00  0.00    -0.278 C  
HETATM    4  C   UNL     1     -10.807  11.362  66.045  1.00  0.00    -0.306 C  
HETATM    5  C   UNL     1      -9.004   8.144  65.904  1.00  0.00    -0.151 C  
HETATM    6  CA  UNL     1     -10.067  10.406  65.405  1.00  0.00    -0.284 C  
HETATM    7  C   UNL     1      -9.479  10.704  64.038  1.00  0.00    -0.285 C  
HETATM    8  CA  UNL     1      -9.518   7.552  67.264  1.00  0.00    -0.151 C  
HETATM    9  N   UNL     1      -9.841   9.196  66.017  1.00  0.00    -0.289 N  
HETATM   10  O   UNL     1      -8.433   9.961  63.636  1.00  0.00    -0.151 OA 
HETATM   11  OXT UNL     1      -9.904  11.584  63.301  1.00  0.00    -0.352 OA 
HETATM   12  O   UNL     1      -8.135   7.929  65.090  1.00  0.00    -0.131 OA 
ENDROOT
BRANCH   4  13
HETATM   13  C   UNL     1     -11.034  12.788  65.526  1.00  0.00    -0.280 C  
BRANCH  13  14
HETATM   14  S   UNL     1     -10.043  14.055  66.396  1.00  0.00    -0.302 SA 
BRANCH  14  15
HETATM   15  C   UNL     1     -10.585  15.469  65.552  1.00  0.00    -0.396 A  
HETATM   16  N   UNL     1     -11.326  15.463  64.465  1.00  0.00    -0.363 NA 
HETATM   17  N   UNL     1     -11.559  16.777  64.149  1.00  0.00    -1.057 NA 
HETATM   18  N   UNL     1     -10.348  16.772  65.902  1.00  0.00    -0.428 NA 
HETATM   19  N   UNL     1     -10.979  17.584  65.024  1.00  0.00    -0.749 NA 
BRANCH  18  20
HETATM   20  C   UNL     1      -9.721  17.366  67.047  1.00  0.00    -0.276 C  
HETATM   21  O   UNL     1      -7.518  18.495  67.922  1.00  0.00    -0.230 OA 
HETATM   22  O   UNL     1      -7.813  18.215  65.516  1.00  0.00    -0.448 OA 
HETATM   23  O   UNL     1      -7.350  16.196  66.886  1.00  0.00    -0.213 OA 
HETATM   24  S   UNL     1      -7.953  17.506  66.962  1.00  0.00    -0.227 S  
ENDBRANCH  18  20
ENDBRANCH  14  15
ENDBRANCH  13  14
ENDBRANCH   4  13
BRANCH   8  25
HETATM   25  N   UNL     1      -8.570   7.673  68.400  1.00  0.00    -0.125 N  
HETATM   26  C   UNL     1      -8.466   6.764  69.433  1.00  0.00    -0.132 C  
HETATM   27  H   UNL     1      -7.952   8.484  68.418  1.00  0.00     0.000 HD 
HETATM   28  O   UNL     1      -9.196   5.784  69.543  1.00  0.00    -0.128 OA 
BRANCH  26  29
HETATM   29  C   UNL     1      -7.326   7.105  70.419  1.00  0.00    -0.079 C  
HETATM   30  O   UNL     1      -7.832   7.120  71.762  1.00  0.00    -0.092 OA 
HETATM   31  H   UNL     1      -7.131   7.329  72.368  1.00  0.00     0.000 HD 
BRANCH  29  32
HETATM   32  C   UNL     1      -6.682   8.440  70.109  1.00  0.00    -0.039 A  
HETATM   33  C   UNL     1      -6.384   8.784  68.782  1.00  0.00    -0.049 A  
HETATM   34  C   UNL     1      -6.386   9.366  71.124  1.00  0.00    -0.074 A  
HETATM   35  C   UNL     1      -5.783  10.588  70.822  1.00  0.00    -0.100 A  
HETATM   36  C   UNL     1      -5.474  10.906  69.502  1.00  0.00    -0.038 A  
HETATM   37  C   UNL     1      -5.780  10.007  68.482  1.00  0.00    -0.041 A  
ENDBRANCH  29  32
ENDBRANCH  26  29
ENDBRANCH   8  25
TORSDOF 7
ENDMDL
MODEL      143
REMARK 921   NORMALIZED FREE ENERGY PREDICTED BY IDOCK:   -5.54 KCAL/MOL
REMARK 922        TOTAL FREE ENERGY PREDICTED BY IDOCK:   -8.78 KCAL/MOL
REMARK 923 INTER-LIGAND FREE ENERGY PREDICTED BY IDOCK:   -7.85 KCAL/MOL
REMARK 924 INTRA-LIGAND FREE ENERGY PREDICTED BY IDOCK:   -0.92 KCAL/MOL
REMARK 927      BINDING AFFINITY PREDICTED BY RF-SCORE:    0.00 PKD
ROOT
HETATM    1  C   UNL     1     -10.697   8.602  69.270  1.00  0.00    -0.136 C  
HETATM    2  S   UNL     1     -11.409   9.710  70.505  1.00  0.00    -0.313 SA 
HETATM    3  C   UNL     1     -11.418  11.153  69.417  1.00  0.00    -0.298 C  
HETATM    4  C   UNL     1     -10.147  11.371  68.602  1.00  0.00    -0.217 C  
HETATM    5  C   UNL     1      -8.701   8.012  69.106  1.00  0.00    -0.137 C  
HETATM    6  CA  UNL     1      -9.204  10.404  68.383  1.00  0.00    -0.147 C  
HETATM    7  C   UNL     1      -7.924  10.756  67.650  1.00  0.00    -0.110 C  
HETATM    8  CA  UNL     1      -9.927   7.360  69.840  1.00  0.00    -0.188 C  
HETATM    9  N   UNL     1      -9.414   9.129  68.854  1.00  0.00    -0.150 N  
HETATM   10  O   UNL     1      -6.863   9.949  67.827  1.00  0.00    -0.078 OA 
HETATM   11  OXT UNL     1      -7.814  11.735  66.922  1.00  0.00    -0.160 OA 
HETATM   12  O   UNL     1      -7.529   7.781  68.916  1.00  0.00    -0.090 OA 
ENDROOT
BRANCH   4  13
HETATM   13  C   UNL     1      -9.985  12.851  68.234  1.00  0.00    -0.234 C  
BRANCH  13  14
HETATM   14  S   UNL     1     -11.547  13.800  68.289  1.00  0.00    -0.359 SA 
BRANCH  14  15
HETATM   15  C   UNL     1     -11.952  13.780  66.604  1.00  0.00    -0.431 A  
HETATM   16  N   UNL     1     -13.025  13.216  66.090  1.00  0.00     0.060 NA 
HETATM   17  N   UNL     1     -12.983  13.462  64.742  1.00  0.00    -0.701 NA 
HETATM   18  N   UNL     1     -11.244  14.358  65.585  1.00  0.00    -0.316 NA 
HETATM   19  N   UNL     1     -11.909  14.168  64.423  1.00  0.00    -0.429 NA 
BRANCH  18  20
HETATM   20  C   UNL     1     -10.084  15.203  65.572  1.00  0.00    -0.370 C  
HETATM   21  O   UNL     1      -9.180  17.586  66.203  1.00  0.00    -0.441 OA 
HETATM   22  O   UNL     1     -11.331  16.874  67.108  1.00  0.00     0.187 OA 
HETATM   23  O   UNL     1     -11.201  17.439  64.693  1.00  0.00    -0.992 OA 
HETATM   24  S   UNL     1     -10.401  16.937  65.786  1.00  0.00    -0.206 S  
ENDBRANCH  18  20
ENDBRANCH  14  15
ENDBRANCH  13  14
ENDBRANCH   4  13
BRANCH   8  25
HETATM   25  N   UNL     1      -9.809   7.288  71.318  1.00  0.00    -0.181 N  
HETATM   26  C   UNL     1      -9.818   6.118  72.047  1.00  0.00    -0.155 C  
HETATM   27  H   UNL     1      -9.714   8.165  71.830  1.00  0.00     0.000 HD 
HETATM   28  O   UNL     1      -9.983   5.012  71.543  1.00  0.00    -0.175 OA 
BRANCH  26  29
HETATM   29  C   UNL     1      -9.581   6.350  73.557  1.00  0.00    -0.153 C  
HETATM   30  O   UNL     1     -10.208   7.575  73.965  1.00  0.00    -0.383 OA 
HETATM   31  H   UNL     1     -10.063   7.718  74.893  1.00  0.00     0.000 HD 
BRANCH  29  32
HETATM   32  C   UNL     1      -8.108   6.400  73.903  1.00  0.00    -0.109 A  
HETATM   33  C   UNL     1      -7.346   5.222  73.902  1.00  0.00    -0.083 A  
HETATM   34  C   UNL     1      -7.466   7.612  74.213  1.00  0.00    -0.168 A  
HETATM   35  C   UNL     1      -6.110   7.638  74.541  1.00  0.00    -0.088 A  
HETATM   36  C   UNL     1      -5.372   6.457  74.555  1.00  0.00    -0.049 A  
HETATM   37  C   UNL     1      -5.989   5.250  74.230  1.00  0.00    -0.052 A  
ENDBRANCH  29  32
ENDBRANCH  26  29
ENDBRANCH   8  25
TORSDOF 7
ENDMDL
MODEL      144
REMARK 921   NORMALIZED FREE ENERGY PREDICTED BY IDOCK:   -5.53 KCAL/MOL
REMARK 922        TOTAL FREE ENERGY PREDICTED BY IDOCK:   -8.76 KCAL/MOL
REMARK 923 INTER-LIGAND FREE ENERGY PREDICTED BY IDOCK:   -7.61 KCAL/MOL
REMARK 924 INTRA-LIGAND FREE ENERGY PREDICTED BY IDOCK:   -1.15 KCAL/MOL
REMARK 927      BINDING AFFINITY PREDICTED BY RF-SCORE:    0.00 PKD
ROOT
HETATM    1  C   UNL     1     -11.290  12.798  67.398  1.00  0.00    -0.313 C  
HETATM    2  S   UNL     1      -9.718  13.482  67.965  1.00  0.00    -0.233 SA 
HETATM    3  C   UNL     1     -10.164  15.195  67.595  1.00  0.00    -0.241 C  
HETATM    4  C   UNL     1     -10.839  15.422  66.246  1.00  0.00    -0.301 C  
HETATM    5  C   UNL     1     -11.681  11.894  65.557  1.00  0.00    -0.157 C  
HETATM    6  CA  UNL     1     -11.420  14.430  65.505  1.00  0.00    -0.340 C  
HETATM    7  C   UNL     1     -11.968  14.745  64.126  1.00  0.00    -0.259 C  
HETATM    8  CA  UNL     1     -11.248  11.297  66.943  1.00  0.00    -0.230 C  
HETATM    9  N   UNL     1     -11.477  13.150  66.006  1.00  0.00    -0.323 N  
HETATM   10  O   UNL     1     -12.123  13.722  63.268  1.00  0.00    -0.467 OA 
HETATM   11  OXT UNL     1     -12.262  15.877  63.763  1.00  0.00    -0.817 OA 
HETATM   12  O   UNL     1     -11.953  11.504  64.444  1.00  0.00    -0.116 OA 
ENDROOT
BRANCH   4  13
HETATM   13  C   UNL     1     -10.607  16.858  65.758  1.00  0.00    -0.230 C  
BRANCH  13  14
HETATM   14  S   UNL     1     -10.215  18.038  67.099  1.00  0.00    -0.375 SA 
BRANCH  14  15
HETATM   15  C   UNL     1      -8.811  18.789  66.416  1.00  0.00    -0.291 A  
HETATM   16  N   UNL     1      -8.825  19.840  65.624  1.00  0.00    -0.259 NA 
HETATM   17  N   UNL     1      -7.514  20.132  65.347  1.00  0.00    -0.248 NA 
HETATM   18  N   UNL     1      -7.507  18.423  66.618  1.00  0.00    -0.219 NA 
HETATM   19  N   UNL     1      -6.700  19.283  65.956  1.00  0.00    -0.219 NA 
BRANCH  18  20
HETATM   20  C   UNL     1      -6.899  17.448  67.478  1.00  0.00    -0.155 C  
HETATM   21  O   UNL     1      -6.090  16.985  69.932  1.00  0.00    -0.227 OA 
HETATM   22  O   UNL     1      -7.530  18.910  69.520  1.00  0.00    -0.075 OA 
HETATM   23  O   UNL     1      -5.175  19.015  68.739  1.00  0.00    -0.190 OA 
HETATM   24  S   UNL     1      -6.243  18.079  69.002  1.00  0.00    -0.238 S  
ENDBRANCH  18  20
ENDBRANCH  14  15
ENDBRANCH  13  14
ENDBRANCH   4  13
BRANCH   8  25
HETATM   25  N   UNL     1      -9.914  10.647  66.959  1.00  0.00    -0.195 N  
HETATM   26  C   UNL     1      -9.560   9.608  67.793  1.00  0.00    -0.139 C  
HETATM   27  H   UNL     1      -9.210  10.994  66.307  1.00  0.00     0.000 HD 
HETATM   28  O   UNL     1     -10.306   9.151  68.653  1.00  0.00    -0.200 OA 
BRANCH  26  29
HETATM   29  C   UNL     1      -8.137   9.074  67.515  1.00  0.00    -0.108 C  
HETATM   30  O   UNL     1      -8.167   7.643  67.402  1.00  0.00    -0.114 OA 
HETATM   31  H   UNL     1      -7.292   7.314  67.231  1.00  0.00     0.000 HD 
BRANCH  29  32
HETATM   32  C   UNL     1      -7.155   9.472  68.597  1.00  0.00    -0.069 A  
HETATM   33  C   UNL     1      -6.688   8.512  69.508  1.00  0.00    -0.041 A  
HETATM   34  C   UNL     1      -6.678  10.789  68.709  1.00  0.00    -0.060 A  
HETATM   35  C   UNL     1      -5.782  11.140  69.719  1.00  0.00    -0.073 A  
HETATM   36  C   UNL     1      -5.343  10.181  70.627  1.00  0.00    -0.059 A  
HETATM   37  C   UNL     1      -5.791   8.865  70.518  1.00  0.00    -0.032 A  
ENDBRANCH  29  32
ENDBRANCH  26  29
ENDBRANCH   8  25
TORSDOF 7
ENDMDL
MODEL      145
REMARK 921   NORMALIZED FREE ENERGY PREDICTED BY IDOCK:   -5.51 KCAL/MOL
REMARK 922        TOTAL FREE ENERGY PREDICTED BY IDOCK:   -8.73 KCAL/MOL
REMARK 923 INTER-LIGAND FREE ENERGY PREDICTED BY IDOCK:   -7.60 KCAL/MOL
REMARK 924 INTRA-LIGAND FREE ENERGY PREDICTED BY IDOCK:   -1.14 KCAL/MOL
REMARK 927      BINDING AFFINITY PREDICTED BY RF-SCORE:    0.00 PKD
ROOT
HETATM    1  C   UNL     1      -8.933  11.303  69.161  1.00  0.00     0.136 C  
HETATM    2  S   UNL     1      -7.462  11.757  68.219  1.00  0.00    -0.110 SA 
HETATM    3  C   UNL     1      -7.651  13.533  68.502  1.00  0.00    -0.129 C  
HETATM    4  C   UNL     1      -9.064  14.079  68.330  1.00  0.00    -0.191 C  
HETATM    5  C   UNL     1     -10.821  10.834  68.404  1.00  0.00    -0.232 C  
HETATM    6  CA  UNL     1     -10.190  13.303  68.333  1.00  0.00    -0.249 C  
HETATM    7  C   UNL     1     -11.539  13.935  68.045  1.00  0.00    -0.333 C  
HETATM    8  CA  UNL     1      -9.589   9.933  68.772  1.00  0.00    -0.160 C  
HETATM    9  N   UNL     1     -10.085  11.952  68.570  1.00  0.00    -0.215 N  
HETATM   10  O   UNL     1     -12.529  13.126  67.629  1.00  0.00    -0.050 OA 
HETATM   11  OXT UNL     1     -11.758  15.133  68.166  1.00  0.00    -0.342 OA 
HETATM   12  O   UNL     1     -11.949  10.704  67.986  1.00  0.00    -0.457 OA 
ENDROOT
BRANCH   4  13
HETATM   13  C   UNL     1      -9.029  15.570  67.966  1.00  0.00    -0.174 C  
BRANCH  13  14
HETATM   14  S   UNL     1      -8.536  15.895  66.235  1.00  0.00    -0.150 SA 
BRANCH  14  15
HETATM   15  C   UNL     1      -9.413  17.365  65.960  1.00  0.00    -0.095 A  
HETATM   16  N   UNL     1     -10.630  17.438  65.467  1.00  0.00    -0.598 NA 
HETATM   17  N   UNL     1     -10.961  18.769  65.451  1.00  0.00    -0.381 NA 
HETATM   18  N   UNL     1      -8.985  18.636  66.236  1.00  0.00    -0.445 NA 
HETATM   19  N   UNL     1      -9.972  19.508  65.929  1.00  0.00    -0.442 NA 
BRANCH  18  20
HETATM   20  C   UNL     1      -7.814  19.141  66.894  1.00  0.00    -0.252 C  
HETATM   21  O   UNL     1      -5.445  20.201  66.504  1.00  0.00    -0.170 OA 
HETATM   22  O   UNL     1      -7.007  20.109  64.632  1.00  0.00    -0.274 OA 
HETATM   23  O   UNL     1      -5.958  17.990  65.394  1.00  0.00    -0.183 OA 
HETATM   24  S   UNL     1      -6.370  19.289  65.872  1.00  0.00    -0.226 S  
ENDBRANCH  18  20
ENDBRANCH  14  15
ENDBRANCH  13  14
ENDBRANCH   4  13
BRANCH   8  25
HETATM   25  N   UNL     1      -8.971   9.216  67.629  1.00  0.00    -0.123 N  
HETATM   26  C   UNL     1      -9.611   8.261  66.867  1.00  0.00    -0.207 C  
HETATM   27  H   UNL     1      -8.006   9.445  67.391  1.00  0.00     0.000 HD 
HETATM   28  O   UNL     1     -10.750   7.867  67.098  1.00  0.00    -0.326 OA 
BRANCH  26  29
HETATM   29  C   UNL     1      -8.748   7.759  65.686  1.00  0.00    -0.104 C  
HETATM   30  O   UNL     1      -7.481   7.294  66.173  1.00  0.00    -0.079 OA 
HETATM   31  H   UNL     1      -6.950   6.986  65.448  1.00  0.00     0.000 HD 
BRANCH  29  32
HETATM   32  C   UNL     1      -8.523   8.835  64.645  1.00  0.00    -0.169 A  
HETATM   33  C   UNL     1      -9.496   9.824  64.436  1.00  0.00    -0.233 A  
HETATM   34  C   UNL     1      -7.343   8.885  63.882  1.00  0.00    -0.098 A  
HETATM   35  C   UNL     1      -7.157   9.878  62.919  1.00  0.00    -0.121 A  
HETATM   36  C   UNL     1      -8.141  10.840  62.710  1.00  0.00    -0.109 A  
HETATM   37  C   UNL     1      -9.308  10.817  63.472  1.00  0.00    -0.304 A  
ENDBRANCH  29  32
ENDBRANCH  26  29
ENDBRANCH   8  25
TORSDOF 7
ENDMDL
MODEL      146
REMARK 921   NORMALIZED FREE ENERGY PREDICTED BY IDOCK:   -5.50 KCAL/MOL
REMARK 922        TOTAL FREE ENERGY PREDICTED BY IDOCK:   -8.72 KCAL/MOL
REMARK 923 INTER-LIGAND FREE ENERGY PREDICTED BY IDOCK:   -7.76 KCAL/MOL
REMARK 924 INTRA-LIGAND FREE ENERGY PREDICTED BY IDOCK:   -0.96 KCAL/MOL
REMARK 927      BINDING AFFINITY PREDICTED BY RF-SCORE:    0.00 PKD
ROOT
HETATM    1  C   UNL     1     -11.031   8.669  67.601  1.00  0.00     0.157 C  
HETATM    2  S   UNL     1     -10.828   9.800  68.993  1.00  0.00    -0.166 SA 
HETATM    3  C   UNL     1     -11.197  11.284  68.028  1.00  0.00    -0.287 C  
HETATM    4  C   UNL     1     -10.521  11.367  66.663  1.00  0.00    -0.285 C  
HETATM    5  C   UNL     1      -9.522   7.820  66.434  1.00  0.00    -0.180 C  
HETATM    6  CA  UNL     1      -9.980  10.293  66.012  1.00  0.00    -0.245 C  
HETATM    7  C   UNL     1      -9.235  10.503  64.707  1.00  0.00    -0.227 C  
HETATM    8  CA  UNL     1     -10.263   7.307  67.719  1.00  0.00    -0.195 C  
HETATM    9  N   UNL     1     -10.093   9.036  66.560  1.00  0.00    -0.288 N  
HETATM   10  O   UNL     1      -8.366   9.551  64.327  1.00  0.00    -0.147 OA 
HETATM   11  OXT UNL     1      -9.383  11.492  64.002  1.00  0.00    -0.134 OA 
HETATM   12  O   UNL     1      -8.667   7.442  65.665  1.00  0.00    -0.145 OA 
ENDROOT
BRANCH   4  13
HETATM   13  C   UNL     1     -10.366  12.828  66.222  1.00  0.00    -0.258 C  
BRANCH  13  14
HETATM   14  S   UNL     1     -11.938  13.763  66.200  1.00  0.00    -0.443 SA 
BRANCH  14  15
HETATM   15  C   UNL     1     -11.684  14.780  67.580  1.00  0.00    -0.341 A  
HETATM   16  N   UNL     1     -12.018  14.475  68.816  1.00  0.00    -0.304 NA 
HETATM   17  N   UNL     1     -11.609  15.525  69.597  1.00  0.00    -0.323 NA 
HETATM   18  N   UNL     1     -11.086  16.011  67.590  1.00  0.00    -0.288 NA 
HETATM   19  N   UNL     1     -11.029  16.462  68.864  1.00  0.00    -0.323 NA 
BRANCH  18  20
HETATM   20  C   UNL     1     -10.420  16.771  66.571  1.00  0.00    -0.258 C  
HETATM   21  O   UNL     1      -8.072  17.439  65.607  1.00  0.00    -0.485 OA 
HETATM   22  O   UNL     1      -8.202  15.589  67.191  1.00  0.00    -0.178 OA 
HETATM   23  O   UNL     1      -8.531  17.896  68.049  1.00  0.00    -0.243 OA 
HETATM   24  S   UNL     1      -8.698  17.092  66.861  1.00  0.00    -0.241 S  
ENDBRANCH  18  20
ENDBRANCH  14  15
ENDBRANCH  13  14
ENDBRANCH   4  13
BRANCH   8  25
HETATM   25  N   UNL     1      -9.403   7.145  68.918  1.00  0.00    -0.140 N  
HETATM   26  C   UNL     1      -8.721   5.991  69.242  1.00  0.00    -0.117 C  
HETATM   27  H   UNL     1      -9.310   7.943  69.547  1.00  0.00     0.000 HD 
HETATM   28  O   UNL     1      -8.805   4.954  68.591  1.00  0.00    -0.096 OA 
BRANCH  26  29
HETATM   29  C   UNL     1      -7.832   6.152  70.496  1.00  0.00    -0.106 C  
HETATM   30  O   UNL     1      -7.006   4.989  70.660  1.00  0.00    -0.042 OA 
HETATM   31  H   UNL     1      -6.460   5.087  71.430  1.00  0.00     0.000 HD 
BRANCH  29  32
HETATM   32  C   UNL     1      -8.649   6.369  71.752  1.00  0.00    -0.128 A  
HETATM   33  C   UNL     1      -9.556   5.387  72.178  1.00  0.00    -0.181 A  
HETATM   34  C   UNL     1      -8.512   7.534  72.526  1.00  0.00    -0.146 A  
HETATM   35  C   UNL     1      -9.281   7.723  73.675  1.00  0.00    -0.344 A  
HETATM   36  C   UNL     1     -10.191   6.748  74.073  1.00  0.00    -0.399 A  
HETATM   37  C   UNL     1     -10.325   5.578  73.328  1.00  0.00    -0.233 A  
ENDBRANCH  29  32
ENDBRANCH  26  29
ENDBRANCH   8  25
TORSDOF 7
ENDMDL
MODEL      147
REMARK 921   NORMALIZED FREE ENERGY PREDICTED BY IDOCK:   -5.50 KCAL/MOL
REMARK 922        TOTAL FREE ENERGY PREDICTED BY IDOCK:   -8.72 KCAL/MOL
REMARK 923 INTER-LIGAND FREE ENERGY PREDICTED BY IDOCK:   -8.04 KCAL/MOL
REMARK 924 INTRA-LIGAND FREE ENERGY PREDICTED BY IDOCK:   -0.69 KCAL/MOL
REMARK 927      BINDING AFFINITY PREDICTED BY RF-SCORE:    0.00 PKD
ROOT
HETATM    1  C   UNL     1      -9.350  10.634  69.429  1.00  0.00    -0.059 C  
HETATM    2  S   UNL     1     -10.808  10.310  70.442  1.00  0.00    -0.178 SA 
HETATM    3  C   UNL     1     -10.664   8.511  70.333  1.00  0.00    -0.228 C  
HETATM    4  C   UNL     1     -10.360   7.958  68.944  1.00  0.00    -0.225 C  
HETATM    5  C   UNL     1      -9.307  11.144  67.405  1.00  0.00    -0.164 C  
HETATM    6  CA  UNL     1      -9.863   8.708  67.915  1.00  0.00    -0.173 C  
HETATM    7  C   UNL     1      -9.700   8.085  66.542  1.00  0.00    -0.227 C  
HETATM    8  CA  UNL     1      -9.325  12.025  68.704  1.00  0.00    -0.050 C  
HETATM    9  N   UNL     1      -9.542  10.028  68.128  1.00  0.00    -0.138 N  
HETATM   10  O   UNL     1      -9.637   8.913  65.485  1.00  0.00    -0.184 OA 
HETATM   11  OXT UNL     1      -9.633   6.876  66.357  1.00  0.00    -0.166 OA 
HETATM   12  O   UNL     1      -9.266  11.295  66.205  1.00  0.00    -0.187 OA 
ENDROOT
BRANCH   4  13
HETATM   13  C   UNL     1     -10.865   6.515  68.813  1.00  0.00    -0.299 C  
BRANCH  13  14
HETATM   14  S   UNL     1      -9.677   5.261  69.411  1.00  0.00    -0.192 SA 
BRANCH  14  15
HETATM   15  C   UNL     1     -10.340   4.968  70.986  1.00  0.00    -0.184 A  
HETATM   16  N   UNL     1     -11.299   5.674  71.545  1.00  0.00    -0.125 NA 
HETATM   17  N   UNL     1     -11.551   5.090  72.760  1.00  0.00    -0.179 NA 
HETATM   18  N   UNL     1      -9.989   3.964  71.848  1.00  0.00    -0.179 NA 
HETATM   19  N   UNL     1     -10.768   4.040  72.951  1.00  0.00    -0.160 NA 
BRANCH  18  20
HETATM   20  C   UNL     1      -9.110   2.839  71.714  1.00  0.00    -0.089 C  
HETATM   21  O   UNL     1      -6.741   1.901  72.350  1.00  0.00    -0.017 OA 
HETATM   22  O   UNL     1      -7.572   3.873  73.522  1.00  0.00    -0.068 OA 
HETATM   23  O   UNL     1      -6.862   4.125  71.156  1.00  0.00    -0.033 OA 
HETATM   24  S   UNL     1      -7.402   3.158  72.082  1.00  0.00    -0.052 S  
ENDBRANCH  18  20
ENDBRANCH  14  15
ENDBRANCH  13  14
ENDBRANCH   4  13
BRANCH   8  25
HETATM   25  N   UNL     1     -10.534  12.870  68.875  1.00  0.00    -0.419 N  
HETATM   26  C   UNL     1     -10.512  14.235  69.067  1.00  0.00    -0.204 C  
HETATM   27  H   UNL     1     -11.443  12.408  68.847  1.00  0.00     0.000 HD 
HETATM   28  O   UNL     1      -9.476  14.884  69.174  1.00  0.00    -0.202 OA 
BRANCH  26  29
HETATM   29  C   UNL     1     -11.927  14.856  69.115  1.00  0.00    -0.278 C  
HETATM   30  O   UNL     1     -11.935  16.104  68.406  1.00  0.00    -0.290 OA 
HETATM   31  H   UNL     1     -12.804  16.486  68.435  1.00  0.00     0.000 HD 
BRANCH  29  32
HETATM   32  C   UNL     1     -12.404  15.082  70.534  1.00  0.00    -0.411 A  
HETATM   33  C   UNL     1     -11.701  15.953  71.381  1.00  0.00    -0.530 A  
HETATM   34  C   UNL     1     -13.557  14.449  71.032  1.00  0.00    -0.256 A  
HETATM   35  C   UNL     1     -13.976  14.661  72.346  1.00  0.00    -0.578 A  
HETATM   36  C   UNL     1     -13.257  15.512  73.179  1.00  0.00    -0.657 A  
HETATM   37  C   UNL     1     -12.123  16.162  72.695  1.00  0.00    -0.652 A  
ENDBRANCH  29  32
ENDBRANCH  26  29
ENDBRANCH   8  25
TORSDOF 7
ENDMDL
MODEL      148
REMARK 921   NORMALIZED FREE ENERGY PREDICTED BY IDOCK:   -5.50 KCAL/MOL
REMARK 922        TOTAL FREE ENERGY PREDICTED BY IDOCK:   -8.72 KCAL/MOL
REMARK 923 INTER-LIGAND FREE ENERGY PREDICTED BY IDOCK:   -7.19 KCAL/MOL
REMARK 924 INTRA-LIGAND FREE ENERGY PREDICTED BY IDOCK:   -1.53 KCAL/MOL
REMARK 927      BINDING AFFINITY PREDICTED BY RF-SCORE:    0.00 PKD
ROOT
HETATM    1  C   UNL     1      -7.143   8.740  68.773  1.00  0.00    -0.063 C  
HETATM    2  S   UNL     1      -7.548   9.891  70.104  1.00  0.00    -0.151 SA 
HETATM    3  C   UNL     1      -6.950   8.805  71.420  1.00  0.00    -0.089 C  
HETATM    4  C   UNL     1      -7.363   7.341  71.304  1.00  0.00    -0.077 C  
HETATM    5  C   UNL     1      -8.449   7.451  67.778  1.00  0.00    -0.118 C  
HETATM    6  CA  UNL     1      -7.821   6.765  70.151  1.00  0.00    -0.107 C  
HETATM    7  C   UNL     1      -8.308   5.328  70.172  1.00  0.00    -0.098 C  
HETATM    8  CA  UNL     1      -7.975   8.912  67.454  1.00  0.00    -0.101 C  
HETATM    9  N   UNL     1      -7.861   7.502  68.991  1.00  0.00    -0.117 N  
HETATM   10  O   UNL     1      -9.132   4.936  69.185  1.00  0.00    -0.095 OA 
HETATM   11  OXT UNL     1      -7.994   4.525  71.042  1.00  0.00    -0.074 OA 
HETATM   12  O   UNL     1      -9.165   6.601  67.299  1.00  0.00    -0.122 OA 
ENDROOT
BRANCH   4  13
HETATM   13  C   UNL     1      -7.377   6.670  72.684  1.00  0.00    -0.088 C  
BRANCH  13  14
HETATM   14  S   UNL     1      -8.622   7.365  73.830  1.00  0.00    -0.208 SA 
BRANCH  14  15
HETATM   15  C   UNL     1     -10.003   6.436  73.345  1.00  0.00    -0.191 A  
HETATM   16  N   UNL     1     -10.439   5.354  73.955  1.00  0.00    -0.261 NA 
HETATM   17  N   UNL     1     -11.566   4.959  73.281  1.00  0.00    -0.293 NA 
HETATM   18  N   UNL     1     -10.841   6.703  72.296  1.00  0.00    -0.222 NA 
HETATM   19  N   UNL     1     -11.829   5.778  72.275  1.00  0.00    -0.230 NA 
BRANCH  18  20
HETATM   20  C   UNL     1     -10.926   7.806  71.383  1.00  0.00    -0.235 C  
HETATM   21  O   UNL     1     -12.192  10.047  70.864  1.00  0.00    -0.304 OA 
HETATM   22  O   UNL     1     -12.466   9.032  73.065  1.00  0.00    -0.097 OA 
HETATM   23  O   UNL     1     -13.559   7.937  71.122  1.00  0.00    -0.190 OA 
HETATM   24  S   UNL     1     -12.423   8.757  71.472  1.00  0.00    -0.330 S  
ENDBRANCH  18  20
ENDBRANCH  14  15
ENDBRANCH  13  14
ENDBRANCH   4  13
BRANCH   8  25
HETATM   25  N   UNL     1      -9.043   9.942  67.487  1.00  0.00    -0.134 N  
HETATM   26  C   UNL     1      -8.853  11.276  67.193  1.00  0.00    -0.153 C  
HETATM   27  H   UNL     1      -9.983   9.642  67.745  1.00  0.00     0.000 HD 
HETATM   28  O   UNL     1      -7.756  11.757  66.927  1.00  0.00    -0.156 OA 
BRANCH  26  29
HETATM   29  C   UNL     1     -10.167  12.088  67.218  1.00  0.00    -0.204 C  
HETATM   30  O   UNL     1     -11.033  11.584  68.246  1.00  0.00    -0.196 OA 
HETATM   31  H   UNL     1     -11.840  12.083  68.261  1.00  0.00     0.000 HD 
BRANCH  29  32
HETATM   32  C   UNL     1     -10.890  12.047  65.888  1.00  0.00    -0.329 A  
HETATM   33  C   UNL     1     -12.161  12.628  65.762  1.00  0.00    -0.427 A  
HETATM   34  C   UNL     1     -10.311  11.450  64.754  1.00  0.00    -0.349 A  
HETATM   35  C   UNL     1     -10.996  11.412  63.539  1.00  0.00    -0.406 A  
HETATM   36  C   UNL     1     -12.265  11.975  63.435  1.00  0.00    -0.627 A  
HETATM   37  C   UNL     1     -12.845  12.587  64.545  1.00  0.00    -0.352 A  
ENDBRANCH  29  32
ENDBRANCH  26  29
ENDBRANCH   8  25
TORSDOF 7
ENDMDL
MODEL      149
REMARK 921   NORMALIZED FREE ENERGY PREDICTED BY IDOCK:   -5.48 KCAL/MOL
REMARK 922        TOTAL FREE ENERGY PREDICTED BY IDOCK:   -8.69 KCAL/MOL
REMARK 923 INTER-LIGAND FREE ENERGY PREDICTED BY IDOCK:   -7.64 KCAL/MOL
REMARK 924 INTRA-LIGAND FREE ENERGY PREDICTED BY IDOCK:   -1.06 KCAL/MOL
REMARK 927      BINDING AFFINITY PREDICTED BY RF-SCORE:    0.00 PKD
ROOT
HETATM    1  C   UNL     1     -10.970   7.521  69.148  1.00  0.00    -0.003 C  
HETATM    2  S   UNL     1     -10.125   8.557  70.361  1.00  0.00    -0.194 SA 
HETATM    3  C   UNL     1     -10.055  10.010  69.286  1.00  0.00    -0.213 C  
HETATM    4  C   UNL     1      -9.634   9.742  67.845  1.00  0.00    -0.158 C  
HETATM    5  C   UNL     1     -10.112   6.082  67.903  1.00  0.00    -0.155 C  
HETATM    6  CA  UNL     1      -9.658   8.506  67.259  1.00  0.00    -0.171 C  
HETATM    7  C   UNL     1      -9.115   8.332  65.853  1.00  0.00    -0.149 C  
HETATM    8  CA  UNL     1     -10.770   5.975  69.324  1.00  0.00    -0.332 C  
HETATM    9  N   UNL     1     -10.149   7.429  67.959  1.00  0.00    -0.172 N  
HETATM   10  O   UNL     1      -8.750   7.094  65.476  1.00  0.00    -0.121 OA 
HETATM   11  OXT UNL     1      -8.990   9.258  65.062  1.00  0.00    -0.199 OA 
HETATM   12  O   UNL     1      -9.606   5.354  67.079  1.00  0.00    -0.125 OA 
ENDROOT
BRANCH   4  13
HETATM   13  C   UNL     1      -9.009  10.996  67.220  1.00  0.00    -0.138 C  
BRANCH  13  14
HETATM   14  S   UNL     1      -9.611  12.561  67.950  1.00  0.00    -0.211 SA 
BRANCH  14  15
HETATM   15  C   UNL     1     -10.941  12.879  66.885  1.00  0.00    -0.266 A  
HETATM   16  N   UNL     1     -11.456  12.013  66.039  1.00  0.00    -0.357 NA 
HETATM   17  N   UNL     1     -12.505  12.649  65.426  1.00  0.00    -0.655 NA 
HETATM   18  N   UNL     1     -11.652  14.045  66.789  1.00  0.00    -0.366 NA 
HETATM   19  N   UNL     1     -12.643  13.883  65.883  1.00  0.00    -0.479 NA 
BRANCH  18  20
HETATM   20  C   UNL     1     -11.620  15.262  67.549  1.00  0.00    -0.214 C  
HETATM   21  O   UNL     1     -10.734  17.733  67.572  1.00  0.00    -0.375 OA 
HETATM   22  O   UNL     1     -10.667  16.486  65.476  1.00  0.00    -0.359 OA 
HETATM   23  O   UNL     1      -9.057  15.869  67.264  1.00  0.00    -0.199 OA 
HETATM   24  S   UNL     1     -10.373  16.430  67.065  1.00  0.00    -0.287 S  
ENDBRANCH  18  20
ENDBRANCH  14  15
ENDBRANCH  13  14
ENDBRANCH   4  13
BRANCH   8  25
HETATM   25  N   UNL     1      -9.852   5.556  70.412  1.00  0.00    -0.185 N  
HETATM   26  C   UNL     1     -10.228   5.375  71.727  1.00  0.00    -0.206 C  
HETATM   27  H   UNL     1      -8.875   5.390  70.171  1.00  0.00     0.000 HD 
HETATM   28  O   UNL     1     -11.360   5.600  72.140  1.00  0.00    -0.267 OA 
BRANCH  26  29
HETATM   29  C   UNL     1      -9.077   4.844  72.611  1.00  0.00    -0.131 C  
HETATM   30  O   UNL     1      -9.616   4.115  73.725  1.00  0.00    -0.105 OA 
HETATM   31  H   UNL     1      -8.909   3.788  74.269  1.00  0.00     0.000 HD 
BRANCH  29  32
HETATM   32  C   UNL     1      -8.188   5.957  73.123  1.00  0.00    -0.117 A  
HETATM   33  C   UNL     1      -8.671   6.854  74.088  1.00  0.00    -0.194 A  
HETATM   34  C   UNL     1      -6.868   6.112  72.666  1.00  0.00    -0.074 A  
HETATM   35  C   UNL     1      -6.065   7.151  73.141  1.00  0.00    -0.056 A  
HETATM   36  C   UNL     1      -6.566   8.045  74.083  1.00  0.00    -0.133 A  
HETATM   37  C   UNL     1      -7.867   7.893  74.561  1.00  0.00    -0.270 A  
ENDBRANCH  29  32
ENDBRANCH  26  29
ENDBRANCH   8  25
TORSDOF 7
ENDMDL
MODEL      150
REMARK 921   NORMALIZED FREE ENERGY PREDICTED BY IDOCK:   -5.48 KCAL/MOL
REMARK 922        TOTAL FREE ENERGY PREDICTED BY IDOCK:   -8.69 KCAL/MOL
REMARK 923 INTER-LIGAND FREE ENERGY PREDICTED BY IDOCK:   -8.38 KCAL/MOL
REMARK 924 INTRA-LIGAND FREE ENERGY PREDICTED BY IDOCK:   -0.31 KCAL/MOL
REMARK 927      BINDING AFFINITY PREDICTED BY RF-SCORE:    0.00 PKD
ROOT
HETATM    1  C   UNL     1      -6.580   6.969  69.636  1.00  0.00    -0.045 C  
HETATM    2  S   UNL     1      -7.964   6.168  68.797  1.00  0.00    -0.102 SA 
HETATM    3  C   UNL     1      -7.703   7.032  67.230  1.00  0.00    -0.109 C  
HETATM    4  C   UNL     1      -7.428   8.529  67.341  1.00  0.00    -0.093 C  
HETATM    5  C   UNL     1      -6.668   8.586  70.953  1.00  0.00    -0.046 C  
HETATM    6  CA  UNL     1      -7.032   9.149  68.494  1.00  0.00    -0.067 C  
HETATM    7  C   UNL     1      -6.892  10.660  68.523  1.00  0.00    -0.065 C  
HETATM    8  CA  UNL     1      -6.685   7.036  71.199  1.00  0.00    -0.056 C  
HETATM    9  N   UNL     1      -6.792   8.402  69.622  1.00  0.00    -0.043 N  
HETATM   10  O   UNL     1      -6.936  11.266  69.722  1.00  0.00    -0.106 OA 
HETATM   11  OXT UNL     1      -6.752  11.341  67.515  1.00  0.00    -0.066 OA 
HETATM   12  O   UNL     1      -6.694   9.609  71.599  1.00  0.00    -0.307 OA 
ENDROOT
BRANCH   4  13
HETATM   13  C   UNL     1      -7.840   9.253  66.053  1.00  0.00    -0.102 C  
BRANCH  13  14
HETATM   14  S   UNL     1      -9.649   9.444  65.860  1.00  0.00    -0.278 SA 
BRANCH  14  15
HETATM   15  C   UNL     1      -9.677  10.548  64.523  1.00  0.00    -0.314 A  
HETATM   16  N   UNL     1      -9.011  10.392  63.400  1.00  0.00    -0.206 NA 
HETATM   17  N   UNL     1      -9.341  11.459  62.604  1.00  0.00    -0.317 NA 
HETATM   18  N   UNL     1     -10.404  11.705  64.433  1.00  0.00    -0.290 NA 
HETATM   19  N   UNL     1     -10.199  12.259  63.217  1.00  0.00    -0.373 NA 
BRANCH  18  20
HETATM   20  C   UNL     1     -11.392  12.295  65.290  1.00  0.00    -0.338 C  
HETATM   21  O   UNL     1     -13.223  14.169  65.452  1.00  0.00    -0.741 OA 
HETATM   22  O   UNL     1     -12.321  13.602  63.258  1.00  0.00    -0.743 OA 
HETATM   23  O   UNL     1     -10.869  14.852  64.838  1.00  0.00    -0.390 OA 
HETATM   24  S   UNL     1     -11.959  13.905  64.804  1.00  0.00    -0.430 S  
ENDBRANCH  18  20
ENDBRANCH  14  15
ENDBRANCH  13  14
ENDBRANCH   4  13
BRANCH   8  25
HETATM   25  N   UNL     1      -7.938   6.506  71.792  1.00  0.00    -0.103 N  
HETATM   26  C   UNL     1      -8.342   6.725  73.093  1.00  0.00    -0.114 C  
HETATM   27  H   UNL     1      -8.543   5.941  71.196  1.00  0.00     0.000 HD 
HETATM   28  O   UNL     1      -7.668   7.340  73.912  1.00  0.00    -0.103 OA 
BRANCH  26  29
HETATM   29  C   UNL     1      -9.736   6.131  73.396  1.00  0.00    -0.160 C  
HETATM   30  O   UNL     1      -9.796   4.772  72.936  1.00  0.00    -0.146 OA 
HETATM   31  H   UNL     1     -10.653   4.406  73.122  1.00  0.00     0.000 HD 
BRANCH  29  32
HETATM   32  C   UNL     1     -10.850   6.929  72.752  1.00  0.00    -0.305 A  
HETATM   33  C   UNL     1     -11.979   6.271  72.241  1.00  0.00    -0.296 A  
HETATM   34  C   UNL     1     -10.795   8.330  72.665  1.00  0.00    -0.381 A  
HETATM   35  C   UNL     1     -11.826   9.049  72.059  1.00  0.00    -0.426 A  
HETATM   36  C   UNL     1     -12.931   8.380  71.539  1.00  0.00    -0.319 A  
HETATM   37  C   UNL     1     -13.010   6.992  71.635  1.00  0.00    -0.400 A  
ENDBRANCH  29  32
ENDBRANCH  26  29
ENDBRANCH   8  25
TORSDOF 7
ENDMDL
MODEL      151
REMARK 921   NORMALIZED FREE ENERGY PREDICTED BY IDOCK:   -5.48 KCAL/MOL
REMARK 922        TOTAL FREE ENERGY PREDICTED BY IDOCK:   -8.69 KCAL/MOL
REMARK 923 INTER-LIGAND FREE ENERGY PREDICTED BY IDOCK:   -7.67 KCAL/MOL
REMARK 924 INTRA-LIGAND FREE ENERGY PREDICTED BY IDOCK:   -1.02 KCAL/MOL
REMARK 927      BINDING AFFINITY PREDICTED BY RF-SCORE:    0.00 PKD
ROOT
HETATM    1  C   UNL     1     -10.473  14.960  68.707  1.00  0.00    -0.242 C  
HETATM    2  S   UNL     1     -11.210  14.791  67.068  1.00  0.00    -0.349 SA 
HETATM    3  C   UNL     1     -11.090  12.987  67.041  1.00  0.00    -0.281 C  
HETATM    4  C   UNL     1      -9.764  12.408  67.524  1.00  0.00    -0.191 C  
HETATM    5  C   UNL     1      -8.499  15.467  69.157  1.00  0.00    -0.248 C  
HETATM    6  CA  UNL     1      -8.853  13.104  68.270  1.00  0.00    -0.175 C  
HETATM    7  C   UNL     1      -7.517  12.469  68.606  1.00  0.00    -0.090 C  
HETATM    8  CA  UNL     1      -9.793  16.342  69.003  1.00  0.00    -0.266 C  
HETATM    9  N   UNL     1      -9.146  14.381  68.685  1.00  0.00    -0.194 N  
HETATM   10  O   UNL     1      -6.505  13.288  68.939  1.00  0.00    -0.088 OA 
HETATM   11  OXT UNL     1      -7.321  11.260  68.577  1.00  0.00    -0.092 OA 
HETATM   12  O   UNL     1      -7.328  15.616  69.424  1.00  0.00    -0.194 OA 
ENDROOT
BRANCH   4  13
HETATM   13  C   UNL     1      -9.516  11.027  66.902  1.00  0.00    -0.177 C  
BRANCH  13  14
HETATM   14  S   UNL     1     -10.296   9.653  67.824  1.00  0.00    -0.251 SA 
BRANCH  14  15
HETATM   15  C   UNL     1      -9.702   8.315  66.896  1.00  0.00    -0.225 A  
HETATM   16  N   UNL     1      -8.792   8.396  65.949  1.00  0.00    -0.167 NA 
HETATM   17  N   UNL     1      -8.584   7.116  65.503  1.00  0.00    -0.122 NA 
HETATM   18  N   UNL     1     -10.066   7.002  67.029  1.00  0.00    -0.207 NA 
HETATM   19  N   UNL     1      -9.344   6.256  66.162  1.00  0.00    -0.129 NA 
BRANCH  18  20
HETATM   20  C   UNL     1     -10.905   6.322  67.973  1.00  0.00    -0.326 C  
HETATM   21  O   UNL     1     -10.997   5.299  70.389  1.00  0.00    -0.153 OA 
HETATM   22  O   UNL     1      -9.135   6.765  69.810  1.00  0.00    -0.143 OA 
HETATM   23  O   UNL     1      -9.191   4.488  68.820  1.00  0.00    -0.113 OA 
HETATM   24  S   UNL     1     -10.057   5.531  69.318  1.00  0.00    -0.245 S  
ENDBRANCH  18  20
ENDBRANCH  14  15
ENDBRANCH  13  14
ENDBRANCH   4  13
BRANCH   8  25
HETATM   25  N   UNL     1      -9.767  17.310  67.879  1.00  0.00    -0.265 N  
HETATM   26  C   UNL     1      -9.287  18.600  67.968  1.00  0.00    -0.312 C  
HETATM   27  H   UNL     1     -10.130  17.000  66.977  1.00  0.00     0.000 HD 
HETATM   28  O   UNL     1      -8.881  19.096  69.014  1.00  0.00    -0.315 OA 
BRANCH  26  29
HETATM   29  C   UNL     1      -9.300  19.340  66.611  1.00  0.00    -0.341 C  
HETATM   30  O   UNL     1     -10.156  18.649  65.688  1.00  0.00    -0.495 OA 
HETATM   31  H   UNL     1     -10.164  19.103  64.854  1.00  0.00     0.000 HD 
BRANCH  29  32
HETATM   32  C   UNL     1      -7.914  19.464  66.014  1.00  0.00    -0.280 A  
HETATM   33  C   UNL     1      -7.107  18.325  65.873  1.00  0.00    -0.291 A  
HETATM   34  C   UNL     1      -7.410  20.700  65.576  1.00  0.00     0.058 A  
HETATM   35  C   UNL     1      -6.126  20.798  65.038  1.00  0.00    -0.308 A  
HETATM   36  C   UNL     1      -5.330  19.662  64.923  1.00  0.00    -0.201 A  
HETATM   37  C   UNL     1      -5.822  18.425  65.335  1.00  0.00    -0.250 A  
ENDBRANCH  29  32
ENDBRANCH  26  29
ENDBRANCH   8  25
TORSDOF 7
ENDMDL
MODEL      152
REMARK 921   NORMALIZED FREE ENERGY PREDICTED BY IDOCK:   -5.48 KCAL/MOL
REMARK 922        TOTAL FREE ENERGY PREDICTED BY IDOCK:   -8.69 KCAL/MOL
REMARK 923 INTER-LIGAND FREE ENERGY PREDICTED BY IDOCK:   -7.54 KCAL/MOL
REMARK 924 INTRA-LIGAND FREE ENERGY PREDICTED BY IDOCK:   -1.15 KCAL/MOL
REMARK 927      BINDING AFFINITY PREDICTED BY RF-SCORE:    0.00 PKD
ROOT
HETATM    1  C   UNL     1     -10.484   6.847  67.969  1.00  0.00    -0.211 C  
HETATM    2  S   UNL     1     -10.848   7.079  69.722  1.00  0.00    -0.246 SA 
HETATM    3  C   UNL     1     -11.137   8.858  69.576  1.00  0.00    -0.001 C  
HETATM    4  C   UNL     1     -10.121   9.623  68.732  1.00  0.00    -0.193 C  
HETATM    5  C   UNL     1      -8.601   6.692  67.081  1.00  0.00    -0.112 C  
HETATM    6  CA  UNL     1      -9.270   9.032  67.840  1.00  0.00    -0.141 C  
HETATM    7  C   UNL     1      -8.223   9.872  67.132  1.00  0.00    -0.121 C  
HETATM    8  CA  UNL     1      -9.594   5.603  67.622  1.00  0.00    -0.118 C  
HETATM    9  N   UNL     1      -9.352   7.678  67.613  1.00  0.00    -0.141 N  
HETATM   10  O   UNL     1      -7.155   9.236  66.622  1.00  0.00    -0.080 OA 
HETATM   11  OXT UNL     1      -8.305  11.088  67.015  1.00  0.00    -0.129 OA 
HETATM   12  O   UNL     1      -7.518   6.747  66.543  1.00  0.00    -0.076 OA 
ENDROOT
BRANCH   4  13
HETATM   13  C   UNL     1     -10.057  11.095  69.161  1.00  0.00    -0.112 C  
BRANCH  13  14
HETATM   14  S   UNL     1     -11.635  11.994  68.945  1.00  0.00    -0.343 SA 
BRANCH  14  15
HETATM   15  C   UNL     1     -11.034  13.454  68.230  1.00  0.00    -0.259 A  
HETATM   16  N   UNL     1      -9.973  14.116  68.639  1.00  0.00    -0.234 NA 
HETATM   17  N   UNL     1      -9.826  15.178  67.784  1.00  0.00    -0.222 NA 
HETATM   18  N   UNL     1     -11.550  14.105  67.141  1.00  0.00    -0.356 NA 
HETATM   19  N   UNL     1     -10.773  15.175  66.859  1.00  0.00    -0.303 NA 
BRANCH  18  20
HETATM   20  C   UNL     1     -12.605  13.772  66.226  1.00  0.00    -0.321 C  
HETATM   21  O   UNL     1     -13.281  12.194  64.240  1.00  0.00    -0.768 OA 
HETATM   22  O   UNL     1     -11.292  11.648  65.543  1.00  0.00    -0.265 OA 
HETATM   23  O   UNL     1     -11.187  13.587  63.996  1.00  0.00    -0.353 OA 
HETATM   24  S   UNL     1     -12.112  12.829  64.805  1.00  0.00    -0.458 S  
ENDBRANCH  18  20
ENDBRANCH  14  15
ENDBRANCH  13  14
ENDBRANCH   4  13
BRANCH   8  25
HETATM   25  N   UNL     1      -9.096   4.816  68.778  1.00  0.00    -0.107 N  
HETATM   26  C   UNL     1      -9.193   3.445  68.890  1.00  0.00    -0.165 C  
HETATM   27  H   UNL     1      -8.650   5.324  69.541  1.00  0.00     0.000 HD 
HETATM   28  O   UNL     1      -9.759   2.740  68.061  1.00  0.00    -0.132 OA 
BRANCH  26  29
HETATM   29  C   UNL     1      -8.500   2.897  70.158  1.00  0.00    -0.053 C  
HETATM   30  O   UNL     1      -7.994   1.577  69.904  1.00  0.00    -0.042 OA 
HETATM   31  H   UNL     1      -7.568   1.240  70.683  1.00  0.00     0.000 HD 
BRANCH  29  32
HETATM   32  C   UNL     1      -9.435   2.856  71.348  1.00  0.00    -0.216 A  
HETATM   33  C   UNL     1      -9.987   1.635  71.765  1.00  0.00    -0.218 A  
HETATM   34  C   UNL     1      -9.758   4.018  72.070  1.00  0.00    -0.232 A  
HETATM   35  C   UNL     1     -10.630   3.964  73.158  1.00  0.00    -0.267 A  
HETATM   36  C   UNL     1     -11.186   2.748  73.547  1.00  0.00    -0.300 A  
HETATM   37  C   UNL     1     -10.860   1.583  72.854  1.00  0.00    -0.244 A  
ENDBRANCH  29  32
ENDBRANCH  26  29
ENDBRANCH   8  25
TORSDOF 7
ENDMDL
MODEL      153
REMARK 921   NORMALIZED FREE ENERGY PREDICTED BY IDOCK:   -5.45 KCAL/MOL
REMARK 922        TOTAL FREE ENERGY PREDICTED BY IDOCK:   -8.65 KCAL/MOL
REMARK 923 INTER-LIGAND FREE ENERGY PREDICTED BY IDOCK:   -7.28 KCAL/MOL
REMARK 924 INTRA-LIGAND FREE ENERGY PREDICTED BY IDOCK:   -1.37 KCAL/MOL
REMARK 927      BINDING AFFINITY PREDICTED BY RF-SCORE:    0.00 PKD
ROOT
HETATM    1  C   UNL     1      -7.886   7.797  68.705  1.00  0.00    -0.123 C  
HETATM    2  S   UNL     1      -8.264   9.345  67.857  1.00  0.00    -0.115 SA 
HETATM    3  C   UNL     1      -9.051  10.109  69.294  1.00  0.00    -0.198 C  
HETATM    4  C   UNL     1     -10.018   9.217  70.067  1.00  0.00    -0.238 C  
HETATM    5  C   UNL     1      -8.952   6.005  68.594  1.00  0.00    -0.118 C  
HETATM    6  CA  UNL     1     -10.048   7.854  69.963  1.00  0.00    -0.199 C  
HETATM    7  C   UNL     1     -11.123   7.070  70.693  1.00  0.00    -0.272 C  
HETATM    8  CA  UNL     1      -7.722   6.541  67.779  1.00  0.00    -0.107 C  
HETATM    9  N   UNL     1      -9.123   7.209  69.177  1.00  0.00    -0.137 N  
HETATM   10  O   UNL     1     -11.403   5.833  70.247  1.00  0.00    -0.262 OA 
HETATM   11  OXT UNL     1     -11.743   7.513  71.652  1.00  0.00    -0.265 OA 
HETATM   12  O   UNL     1      -9.641   5.012  68.650  1.00  0.00    -0.131 OA 
ENDROOT
BRANCH   4  13
HETATM   13  C   UNL     1     -11.058  10.063  70.813  1.00  0.00    -0.334 C  
BRANCH  13  14
HETATM   14  S   UNL     1     -12.322  10.808  69.720  1.00  0.00    -0.140 SA 
BRANCH  14  15
HETATM   15  C   UNL     1     -12.077  12.481  70.100  1.00  0.00    -0.292 A  
HETATM   16  N   UNL     1     -12.595  13.106  71.136  1.00  0.00    -0.361 NA 
HETATM   17  N   UNL     1     -12.123  14.392  71.088  1.00  0.00    -0.336 NA 
HETATM   18  N   UNL     1     -11.302  13.373  69.407  1.00  0.00    -0.250 NA 
HETATM   19  N   UNL     1     -11.324  14.565  70.046  1.00  0.00    -0.250 NA 
BRANCH  18  20
HETATM   20  C   UNL     1     -10.414  13.217  68.292  1.00  0.00    -0.250 C  
HETATM   21  O   UNL     1     -10.228  13.393  65.679  1.00  0.00    -0.285 OA 
HETATM   22  O   UNL     1     -12.166  14.380  66.782  1.00  0.00    -0.420 OA 
HETATM   23  O   UNL     1     -12.025  11.905  66.649  1.00  0.00    -0.601 OA 
HETATM   24  S   UNL     1     -11.198  13.088  66.704  1.00  0.00    -0.320 S  
ENDBRANCH  18  20
ENDBRANCH  14  15
ENDBRANCH  13  14
ENDBRANCH   4  13
BRANCH   8  25
HETATM   25  N   UNL     1      -7.973   6.761  66.333  1.00  0.00    -0.104 N  
HETATM   26  C   UNL     1      -6.992   7.030  65.401  1.00  0.00    -0.056 C  
HETATM   27  H   UNL     1      -8.937   6.709  66.005  1.00  0.00     0.000 HD 
HETATM   28  O   UNL     1      -5.809   7.172  65.691  1.00  0.00    -0.034 OA 
BRANCH  26  29
HETATM   29  C   UNL     1      -7.543   7.115  63.959  1.00  0.00    -0.113 C  
HETATM   30  O   UNL     1      -6.530   6.709  63.027  1.00  0.00    -0.037 OA 
HETATM   31  H   UNL     1      -6.868   6.762  62.140  1.00  0.00     0.000 HD 
BRANCH  29  32
HETATM   32  C   UNL     1      -8.017   8.510  63.610  1.00  0.00    -0.161 A  
HETATM   33  C   UNL     1      -9.152   9.043  64.240  1.00  0.00     0.123 A  
HETATM   34  C   UNL     1      -7.337   9.305  62.672  1.00  0.00    -0.099 A  
HETATM   35  C   UNL     1      -7.795  10.585  62.354  1.00  0.00    -0.200 A  
HETATM   36  C   UNL     1      -8.934  11.092  62.973  1.00  0.00    -0.248 A  
HETATM   37  C   UNL     1      -9.609  10.323  63.920  1.00  0.00    -0.354 A  
ENDBRANCH  29  32
ENDBRANCH  26  29
ENDBRANCH   8  25
TORSDOF 7
ENDMDL
MODEL      154
REMARK 921   NORMALIZED FREE ENERGY PREDICTED BY IDOCK:   -5.43 KCAL/MOL
REMARK 922        TOTAL FREE ENERGY PREDICTED BY IDOCK:   -8.62 KCAL/MOL
REMARK 923 INTER-LIGAND FREE ENERGY PREDICTED BY IDOCK:   -7.64 KCAL/MOL
REMARK 924 INTRA-LIGAND FREE ENERGY PREDICTED BY IDOCK:   -0.97 KCAL/MOL
REMARK 927      BINDING AFFINITY PREDICTED BY RF-SCORE:    0.00 PKD
ROOT
HETATM    1  C   UNL     1      -8.056  10.549  67.923  1.00  0.00    -0.107 C  
HETATM    2  S   UNL     1      -9.761  10.916  68.389  1.00  0.00    -0.182 SA 
HETATM    3  C   UNL     1     -10.218   9.185  68.639  1.00  0.00    -0.204 C  
HETATM    4  C   UNL     1      -9.742   8.216  67.561  1.00  0.00    -0.207 C  
HETATM    5  C   UNL     1      -7.267  10.461  65.992  1.00  0.00    -0.134 C  
HETATM    6  CA  UNL     1      -8.746   8.497  66.667  1.00  0.00    -0.125 C  
HETATM    7  C   UNL     1      -8.423   7.505  65.566  1.00  0.00    -0.119 C  
HETATM    8  CA  UNL     1      -7.350  11.632  67.034  1.00  0.00    -0.143 C  
HETATM    9  N   UNL     1      -8.065   9.689  66.758  1.00  0.00    -0.112 N  
HETATM   10  O   UNL     1      -7.782   7.967  64.479  1.00  0.00    -0.109 OA 
HETATM   11  OXT UNL     1      -8.726   6.319  65.621  1.00  0.00    -0.154 OA 
HETATM   12  O   UNL     1      -6.836  10.264  64.878  1.00  0.00    -0.132 OA 
ENDROOT
BRANCH   4  13
HETATM   13  C   UNL     1     -10.652   6.982  67.500  1.00  0.00    -0.280 C  
BRANCH  13  14
HETATM   14  S   UNL     1     -10.133   5.628  68.614  1.00  0.00    -0.199 SA 
BRANCH  14  15
HETATM   15  C   UNL     1     -11.069   6.037  70.015  1.00  0.00    -0.381 A  
HETATM   16  N   UNL     1     -12.122   6.827  70.016  1.00  0.00    -0.146 NA 
HETATM   17  N   UNL     1     -12.584   6.852  71.307  1.00  0.00    -0.370 NA 
HETATM   18  N   UNL     1     -10.870   5.587  71.293  1.00  0.00    -0.219 NA 
HETATM   19  N   UNL     1     -11.837   6.091  72.092  1.00  0.00    -0.294 NA 
BRANCH  18  20
HETATM   20  C   UNL     1      -9.968   4.619  71.846  1.00  0.00    -0.189 C  
HETATM   21  O   UNL     1      -7.756   4.316  73.229  1.00  0.00    -0.079 OA 
HETATM   22  O   UNL     1      -8.820   6.511  73.191  1.00  0.00    -0.128 OA 
HETATM   23  O   UNL     1      -7.669   5.727  71.135  1.00  0.00    -0.103 OA 
HETATM   24  S   UNL     1      -8.367   5.239  72.301  1.00  0.00    -0.122 S  
ENDBRANCH  18  20
ENDBRANCH  14  15
ENDBRANCH  13  14
ENDBRANCH   4  13
BRANCH   8  25
HETATM   25  N   UNL     1      -8.190  12.784  66.620  1.00  0.00    -0.406 N  
HETATM   26  C   UNL     1      -8.044  14.069  67.097  1.00  0.00    -0.099 C  
HETATM   27  H   UNL     1      -8.925  12.612  65.935  1.00  0.00     0.000 HD 
HETATM   28  O   UNL     1      -7.232  14.378  67.963  1.00  0.00    -0.110 OA 
BRANCH  26  29
HETATM   29  C   UNL     1      -8.997  15.075  66.412  1.00  0.00    -0.251 C  
HETATM   30  O   UNL     1      -9.274  16.167  67.302  1.00  0.00    -0.205 OA 
HETATM   31  H   UNL     1      -9.860  16.785  66.881  1.00  0.00     0.000 HD 
BRANCH  29  32
HETATM   32  C   UNL     1     -10.300  14.430  65.988  1.00  0.00    -0.319 A  
HETATM   33  C   UNL     1     -11.326  14.240  66.925  1.00  0.00    -0.354 A  
HETATM   34  C   UNL     1     -10.521  14.024  64.661  1.00  0.00    -0.398 A  
HETATM   35  C   UNL     1     -11.724  13.421  64.290  1.00  0.00    -0.455 A  
HETATM   36  C   UNL     1     -12.726  13.222  65.236  1.00  0.00    -0.474 A  
HETATM   37  C   UNL     1     -12.529  13.637  66.552  1.00  0.00    -0.337 A  
ENDBRANCH  29  32
ENDBRANCH  26  29
ENDBRANCH   8  25
TORSDOF 7
ENDMDL
MODEL      155
REMARK 921   NORMALIZED FREE ENERGY PREDICTED BY IDOCK:   -5.42 KCAL/MOL
REMARK 922        TOTAL FREE ENERGY PREDICTED BY IDOCK:   -8.61 KCAL/MOL
REMARK 923 INTER-LIGAND FREE ENERGY PREDICTED BY IDOCK:   -8.03 KCAL/MOL
REMARK 924 INTRA-LIGAND FREE ENERGY PREDICTED BY IDOCK:   -0.58 KCAL/MOL
REMARK 927      BINDING AFFINITY PREDICTED BY RF-SCORE:    0.00 PKD
ROOT
HETATM    1  C   UNL     1      -8.808  10.768  68.129  1.00  0.00    -0.133 C  
HETATM    2  S   UNL     1     -10.510  10.873  68.723  1.00  0.00    -0.211 SA 
HETATM    3  C   UNL     1     -10.668   9.097  69.024  1.00  0.00    -0.153 C  
HETATM    4  C   UNL     1     -10.127   8.192  67.921  1.00  0.00    -0.246 C  
HETATM    5  C   UNL     1      -8.164  10.763  66.143  1.00  0.00    -0.163 C  
HETATM    6  CA  UNL     1      -9.258   8.607  66.950  1.00  0.00    -0.159 C  
HETATM    7  C   UNL     1      -8.867   7.654  65.836  1.00  0.00    -0.130 C  
HETATM    8  CA  UNL     1      -8.352  11.929  67.178  1.00  0.00    -0.174 C  
HETATM    9  N   UNL     1      -8.770   9.892  66.976  1.00  0.00    -0.131 N  
HETATM   10  O   UNL     1      -8.391   8.188  64.698  1.00  0.00    -0.148 OA 
HETATM   11  OXT UNL     1      -8.974   6.437  65.925  1.00  0.00    -0.154 OA 
HETATM   12  O   UNL     1      -7.793  10.613  65.001  1.00  0.00    -0.100 OA 
ENDROOT
BRANCH   4  13
HETATM   13  C   UNL     1     -10.833   6.830  67.942  1.00  0.00    -0.247 C  
BRANCH  13  14
HETATM   14  S   UNL     1     -10.131   5.655  69.156  1.00  0.00    -0.230 SA 
BRANCH  14  15
HETATM   15  C   UNL     1     -10.998   6.157  70.571  1.00  0.00    -0.318 A  
HETATM   16  N   UNL     1     -12.236   6.602  70.581  1.00  0.00    -0.316 NA 
HETATM   17  N   UNL     1     -12.548   6.847  71.894  1.00  0.00    -0.328 NA 
HETATM   18  N   UNL     1     -10.540   6.138  71.861  1.00  0.00    -0.214 NA 
HETATM   19  N   UNL     1     -11.527   6.557  72.685  1.00  0.00    -0.226 NA 
BRANCH  18  20
HETATM   20  C   UNL     1      -9.332   5.636  72.450  1.00  0.00    -0.143 C  
HETATM   21  O   UNL     1      -8.171   3.494  73.428  1.00  0.00    -0.077 OA 
HETATM   22  O   UNL     1     -10.227   3.226  72.142  1.00  0.00    -0.153 OA 
HETATM   23  O   UNL     1     -10.384   4.208  74.418  1.00  0.00    -0.190 OA 
HETATM   24  S   UNL     1      -9.484   4.082  73.295  1.00  0.00    -0.112 S  
ENDBRANCH  18  20
ENDBRANCH  14  15
ENDBRANCH  13  14
ENDBRANCH   4  13
BRANCH   8  25
HETATM   25  N   UNL     1      -9.391  12.926  66.820  1.00  0.00    -0.238 N  
HETATM   26  C   UNL     1      -9.164  14.280  66.688  1.00  0.00    -0.255 C  
HETATM   27  H   UNL     1     -10.340  12.586  66.662  1.00  0.00     0.000 HD 
HETATM   28  O   UNL     1      -8.078  14.805  66.910  1.00  0.00    -0.182 OA 
BRANCH  26  29
HETATM   29  C   UNL     1     -10.415  15.054  66.213  1.00  0.00    -0.304 C  
HETATM   30  O   UNL     1     -10.449  15.091  64.778  1.00  0.00    -0.503 OA 
HETATM   31  H   UNL     1     -11.218  15.566  64.486  1.00  0.00     0.000 HD 
BRANCH  29  32
HETATM   32  C   UNL     1     -10.451  16.468  66.753  1.00  0.00    -0.269 A  
HETATM   33  C   UNL     1     -10.625  17.549  65.876  1.00  0.00    -0.203 A  
HETATM   34  C   UNL     1     -10.331  16.733  68.128  1.00  0.00    -0.318 A  
HETATM   35  C   UNL     1     -10.356  18.043  68.608  1.00  0.00    -0.328 A  
HETATM   36  C   UNL     1     -10.510  19.107  67.723  1.00  0.00    -0.512 A  
HETATM   37  C   UNL     1     -10.649  18.860  66.358  1.00  0.00    -0.460 A  
ENDBRANCH  29  32
ENDBRANCH  26  29
ENDBRANCH   8  25
TORSDOF 7
ENDMDL
MODEL      156
REMARK 921   NORMALIZED FREE ENERGY PREDICTED BY IDOCK:   -5.41 KCAL/MOL
REMARK 922        TOTAL FREE ENERGY PREDICTED BY IDOCK:   -8.60 KCAL/MOL
REMARK 923 INTER-LIGAND FREE ENERGY PREDICTED BY IDOCK:   -7.67 KCAL/MOL
REMARK 924 INTRA-LIGAND FREE ENERGY PREDICTED BY IDOCK:   -0.93 KCAL/MOL
REMARK 927      BINDING AFFINITY PREDICTED BY RF-SCORE:    0.00 PKD
ROOT
HETATM    1  C   UNL     1     -10.032  12.577  67.699  1.00  0.00    -0.201 C  
HETATM    2  S   UNL     1      -9.184  11.137  68.383  1.00  0.00    -0.179 SA 
HETATM    3  C   UNL     1      -7.956  11.051  67.059  1.00  0.00    -0.137 C  
HETATM    4  C   UNL     1      -8.500  11.218  65.644  1.00  0.00     0.022 C  
HETATM    5  C   UNL     1     -11.797  12.589  66.582  1.00  0.00    -0.352 C  
HETATM    6  CA  UNL     1      -9.723  11.757  65.354  1.00  0.00    -0.217 C  
HETATM    7  C   UNL     1     -10.214  11.777  63.919  1.00  0.00    -0.373 C  
HETATM    8  CA  UNL     1     -11.534  12.741  68.122  1.00  0.00    -0.314 C  
HETATM    9  N   UNL     1     -10.508  12.250  66.370  1.00  0.00    -0.232 N  
HETATM   10  O   UNL     1     -11.537  11.894  63.715  1.00  0.00    -0.417 OA 
HETATM   11  OXT UNL     1      -9.467  11.683  62.953  1.00  0.00    -0.377 OA 
HETATM   12  O   UNL     1     -12.733  12.593  65.816  1.00  0.00    -0.481 OA 
ENDROOT
BRANCH   4  13
HETATM   13  C   UNL     1      -7.582  10.530  64.624  1.00  0.00     0.036 C  
BRANCH  13  14
HETATM   14  S   UNL     1      -8.163   8.875  64.108  1.00  0.00    -0.160 SA 
BRANCH  14  15
HETATM   15  C   UNL     1      -8.782   8.304  65.623  1.00  0.00    -0.156 A  
HETATM   16  N   UNL     1     -10.035   8.399  66.013  1.00  0.00    -0.056 NA 
HETATM   17  N   UNL     1     -10.104   7.795  67.242  1.00  0.00    -0.211 NA 
HETATM   18  N   UNL     1      -8.076   7.661  66.605  1.00  0.00    -0.116 NA 
HETATM   19  N   UNL     1      -8.920   7.331  67.609  1.00  0.00    -0.126 NA 
BRANCH  18  20
HETATM   20  C   UNL     1      -6.726   7.179  66.667  1.00  0.00    -0.060 C  
HETATM   21  O   UNL     1      -5.174   5.125  66.153  1.00  0.00    -0.008 OA 
HETATM   22  O   UNL     1      -7.418   5.163  65.197  1.00  0.00    -0.070 OA 
HETATM   23  O   UNL     1      -7.187   4.757  67.636  1.00  0.00    -0.068 OA 
HETATM   24  S   UNL     1      -6.538   5.419  66.529  1.00  0.00    -0.057 S  
ENDBRANCH  18  20
ENDBRANCH  14  15
ENDBRANCH  13  14
ENDBRANCH   4  13
BRANCH   8  25
HETATM   25  N   UNL     1     -12.095  11.658  68.967  1.00  0.00    -0.287 N  
HETATM   26  C   UNL     1     -12.391  11.785  70.308  1.00  0.00    -0.240 C  
HETATM   27  H   UNL     1     -12.275  10.756  68.524  1.00  0.00     0.000 HD 
HETATM   28  O   UNL     1     -12.162  12.802  70.954  1.00  0.00    -0.349 OA 
BRANCH  26  29
HETATM   29  C   UNL     1     -13.053  10.519  70.898  1.00  0.00    -0.306 C  
HETATM   30  O   UNL     1     -13.532  10.793  72.223  1.00  0.00    -0.600 OA 
HETATM   31  H   UNL     1     -13.940  10.016  72.586  1.00  0.00     0.000 HD 
BRANCH  29  32
HETATM   32  C   UNL     1     -12.101   9.343  70.942  1.00  0.00    -0.327 A  
HETATM   33  C   UNL     1     -12.600   8.033  70.874  1.00  0.00     0.020 A  
HETATM   34  C   UNL     1     -10.710   9.525  71.033  1.00  0.00    -0.411 A  
HETATM   35  C   UNL     1      -9.848   8.429  71.082  1.00  0.00    -0.242 A  
HETATM   36  C   UNL     1     -10.360   7.135  71.034  1.00  0.00    -0.208 A  
HETATM   37  C   UNL     1     -11.736   6.938  70.924  1.00  0.00    -0.408 A  
ENDBRANCH  29  32
ENDBRANCH  26  29
ENDBRANCH   8  25
TORSDOF 7
ENDMDL
MODEL      157
REMARK 921   NORMALIZED FREE ENERGY PREDICTED BY IDOCK:   -5.41 KCAL/MOL
REMARK 922        TOTAL FREE ENERGY PREDICTED BY IDOCK:   -8.59 KCAL/MOL
REMARK 923 INTER-LIGAND FREE ENERGY PREDICTED BY IDOCK:   -7.73 KCAL/MOL
REMARK 924 INTRA-LIGAND FREE ENERGY PREDICTED BY IDOCK:   -0.86 KCAL/MOL
REMARK 927      BINDING AFFINITY PREDICTED BY RF-SCORE:    0.00 PKD
ROOT
HETATM    1  C   UNL     1      -8.444  11.259  68.296  1.00  0.00    -0.152 C  
HETATM    2  S   UNL     1      -7.065  11.870  67.303  1.00  0.00    -0.142 SA 
HETATM    3  C   UNL     1      -7.431  13.615  67.607  1.00  0.00    -0.183 C  
HETATM    4  C   UNL     1      -8.900  14.009  67.492  1.00  0.00    -0.199 C  
HETATM    5  C   UNL     1     -10.299  10.594  67.606  1.00  0.00    -0.209 C  
HETATM    6  CA  UNL     1      -9.936  13.117  67.531  1.00  0.00    -0.223 C  
HETATM    7  C   UNL     1     -11.354  13.603  67.298  1.00  0.00    -0.323 C  
HETATM    8  CA  UNL     1      -8.965   9.828  67.921  1.00  0.00    -0.118 C  
HETATM    9  N   UNL     1      -9.679  11.784  67.753  1.00  0.00    -0.179 N  
HETATM   10  O   UNL     1     -12.267  12.695  66.912  1.00  0.00    -0.489 OA 
HETATM   11  OXT UNL     1     -11.695  14.771  67.436  1.00  0.00    -0.373 OA 
HETATM   12  O   UNL     1     -11.422  10.347  67.229  1.00  0.00    -0.315 OA 
ENDROOT
BRANCH   4  13
HETATM   13  C   UNL     1      -9.037  15.496  67.139  1.00  0.00    -0.217 C  
BRANCH  13  14
HETATM   14  S   UNL     1      -8.787  16.617  68.562  1.00  0.00    -0.243 SA 
BRANCH  14  15
HETATM   15  C   UNL     1      -9.498  18.060  67.916  1.00  0.00    -0.273 A  
HETATM   16  N   UNL     1     -10.776  18.217  67.644  1.00  0.00    -0.399 NA 
HETATM   17  N   UNL     1     -10.920  19.504  67.194  1.00  0.00    -0.447 NA 
HETATM   18  N   UNL     1      -8.852  19.231  67.625  1.00  0.00    -0.294 NA 
HETATM   19  N   UNL     1      -9.757  20.137  67.189  1.00  0.00    -0.411 NA 
BRANCH  18  20
HETATM   20  C   UNL     1      -7.503  19.670  67.840  1.00  0.00    -0.286 C  
HETATM   21  O   UNL     1      -5.130  19.875  66.737  1.00  0.00    -0.160 OA 
HETATM   22  O   UNL     1      -7.045  19.385  65.308  1.00  0.00    -0.427 OA 
HETATM   23  O   UNL     1      -6.215  17.594  66.814  1.00  0.00    -0.140 OA 
HETATM   24  S   UNL     1      -6.302  19.031  66.699  1.00  0.00    -0.188 S  
ENDBRANCH  18  20
ENDBRANCH  14  15
ENDBRANCH  13  14
ENDBRANCH   4  13
BRANCH   8  25
HETATM   25  N   UNL     1      -8.318   9.185  66.750  1.00  0.00    -0.121 N  
HETATM   26  C   UNL     1      -8.860   8.139  66.033  1.00  0.00    -0.172 C  
HETATM   27  H   UNL     1      -7.409   9.542  66.455  1.00  0.00     0.000 HD 
HETATM   28  O   UNL     1      -9.918   7.594  66.333  1.00  0.00    -0.182 OA 
BRANCH  26  29
HETATM   29  C   UNL     1      -8.003   7.742  64.810  1.00  0.00    -0.142 C  
HETATM   30  O   UNL     1      -8.660   8.154  63.601  1.00  0.00    -0.399 OA 
HETATM   31  H   UNL     1      -8.134   7.911  62.849  1.00  0.00     0.000 HD 
BRANCH  29  32
HETATM   32  C   UNL     1      -7.738   6.253  64.755  1.00  0.00    -0.101 A  
HETATM   33  C   UNL     1      -6.523   5.738  65.231  1.00  0.00    -0.042 A  
HETATM   34  C   UNL     1      -8.694   5.354  64.250  1.00  0.00     0.012 A  
HETATM   35  C   UNL     1      -8.429   3.985  64.197  1.00  0.00    -0.099 A  
HETATM   36  C   UNL     1      -7.210   3.492  64.655  1.00  0.00    -0.066 A  
HETATM   37  C   UNL     1      -6.260   4.368  65.177  1.00  0.00    -0.034 A  
ENDBRANCH  29  32
ENDBRANCH  26  29
ENDBRANCH   8  25
TORSDOF 7
ENDMDL
MODEL      158
REMARK 921   NORMALIZED FREE ENERGY PREDICTED BY IDOCK:   -5.40 KCAL/MOL
REMARK 922        TOTAL FREE ENERGY PREDICTED BY IDOCK:   -8.58 KCAL/MOL
REMARK 923 INTER-LIGAND FREE ENERGY PREDICTED BY IDOCK:   -7.42 KCAL/MOL
REMARK 924 INTRA-LIGAND FREE ENERGY PREDICTED BY IDOCK:   -1.16 KCAL/MOL
REMARK 927      BINDING AFFINITY PREDICTED BY RF-SCORE:    0.00 PKD
ROOT
HETATM    1  C   UNL     1      -6.602   8.179  67.081  1.00  0.00    -0.058 C  
HETATM    2  S   UNL     1      -8.219   7.988  66.300  1.00  0.00    -0.122 SA 
HETATM    3  C   UNL     1      -8.411   9.748  65.933  1.00  0.00    -0.124 C  
HETATM    4  C   UNL     1      -8.036  10.701  67.064  1.00  0.00    -0.120 C  
HETATM    5  C   UNL     1      -6.191   8.259  69.127  1.00  0.00    -0.039 C  
HETATM    6  CA  UNL     1      -7.270  10.347  68.139  1.00  0.00    -0.087 C  
HETATM    7  C   UNL     1      -7.047  11.342  69.263  1.00  0.00    -0.112 C  
HETATM    8  CA  UNL     1      -6.213   7.062  68.111  1.00  0.00    -0.035 C  
HETATM    9  N   UNL     1      -6.731   9.084  68.205  1.00  0.00    -0.060 N  
HETATM   10  O   UNL     1      -6.684  10.856  70.462  1.00  0.00    -0.292 OA 
HETATM   11  OXT UNL     1      -7.191  12.550  69.128  1.00  0.00    -0.048 OA 
HETATM   12  O   UNL     1      -5.960   8.452  70.299  1.00  0.00    -0.028 OA 
ENDROOT
BRANCH   4  13
HETATM   13  C   UNL     1      -8.788  12.032  66.924  1.00  0.00    -0.197 C  
BRANCH  13  14
HETATM   14  S   UNL     1     -10.467  12.009  67.648  1.00  0.00    -0.210 SA 
BRANCH  14  15
HETATM   15  C   UNL     1     -10.766  13.715  67.726  1.00  0.00    -0.246 A  
HETATM   16  N   UNL     1     -10.131  14.559  68.510  1.00  0.00    -0.236 NA 
HETATM   17  N   UNL     1     -10.640  15.802  68.233  1.00  0.00    -0.261 NA 
HETATM   18  N   UNL     1     -11.670  14.422  66.979  1.00  0.00    -0.385 NA 
HETATM   19  N   UNL     1     -11.570  15.734  67.293  1.00  0.00     0.031 NA 
BRANCH  18  20
HETATM   20  C   UNL     1     -12.527  14.048  65.890  1.00  0.00    -0.481 C  
HETATM   21  O   UNL     1     -12.646  13.734  63.287  1.00  0.00    -0.830 OA 
HETATM   22  O   UNL     1     -10.457  13.968  64.338  1.00  0.00    -0.368 OA 
HETATM   23  O   UNL     1     -11.907  15.978  64.184  1.00  0.00    -0.643 OA 
HETATM   24  S   UNL     1     -11.968  14.538  64.278  1.00  0.00    -0.329 S  
ENDBRANCH  18  20
ENDBRANCH  14  15
ENDBRANCH  13  14
ENDBRANCH   4  13
BRANCH   8  25
HETATM   25  N   UNL     1      -7.247   6.031  68.376  1.00  0.00    -0.081 N  
HETATM   26  C   UNL     1      -7.216   5.146  69.434  1.00  0.00    -0.057 C  
HETATM   27  H   UNL     1      -8.035   5.972  67.731  1.00  0.00     0.000 HD 
HETATM   28  O   UNL     1      -6.290   5.089  70.237  1.00  0.00    -0.024 OA 
BRANCH  26  29
HETATM   29  C   UNL     1      -8.476   4.255  69.507  1.00  0.00    -0.071 C  
HETATM   30  O   UNL     1      -8.899   3.901  68.181  1.00  0.00    -0.098 OA 
HETATM   31  H   UNL     1      -9.674   3.353  68.225  1.00  0.00     0.000 HD 
BRANCH  29  32
HETATM   32  C   UNL     1      -9.617   4.936  70.233  1.00  0.00    -0.265 A  
HETATM   33  C   UNL     1      -9.940   4.556  71.544  1.00  0.00    -0.259 A  
HETATM   34  C   UNL     1     -10.363   5.963  69.630  1.00  0.00    -0.313 A  
HETATM   35  C   UNL     1     -11.419   6.573  70.310  1.00  0.00    -0.474 A  
HETATM   36  C   UNL     1     -11.739   6.171  71.604  1.00  0.00    -0.290 A  
HETATM   37  C   UNL     1     -10.997   5.167  72.223  1.00  0.00    -0.209 A  
ENDBRANCH  29  32
ENDBRANCH  26  29
ENDBRANCH   8  25
TORSDOF 7
ENDMDL
MODEL      159
REMARK 921   NORMALIZED FREE ENERGY PREDICTED BY IDOCK:   -5.40 KCAL/MOL
REMARK 922        TOTAL FREE ENERGY PREDICTED BY IDOCK:   -8.58 KCAL/MOL
REMARK 923 INTER-LIGAND FREE ENERGY PREDICTED BY IDOCK:   -7.01 KCAL/MOL
REMARK 924 INTRA-LIGAND FREE ENERGY PREDICTED BY IDOCK:   -1.57 KCAL/MOL
REMARK 927      BINDING AFFINITY PREDICTED BY RF-SCORE:    0.00 PKD
ROOT
HETATM    1  C   UNL     1     -10.337   7.315  72.654  1.00  0.00    -0.225 C  
HETATM    2  S   UNL     1     -11.476   6.481  71.529  1.00  0.00    -0.314 SA 
HETATM    3  C   UNL     1     -10.833   4.826  71.873  1.00  0.00     0.070 C  
HETATM    4  C   UNL     1      -9.313   4.705  71.908  1.00  0.00    -0.185 C  
HETATM    5  C   UNL     1      -8.573   8.314  72.152  1.00  0.00    -0.188 C  
HETATM    6  CA  UNL     1      -8.465   5.769  72.049  1.00  0.00    -0.126 C  
HETATM    7  C   UNL     1      -6.966   5.550  71.962  1.00  0.00    -0.080 C  
HETATM    8  CA  UNL     1     -10.048   8.822  72.328  1.00  0.00    -0.238 C  
HETATM    9  N   UNL     1      -8.979   7.030  72.239  1.00  0.00    -0.133 N  
HETATM   10  O   UNL     1      -6.198   6.613  71.667  1.00  0.00    -0.040 OA 
HETATM   11  OXT UNL     1      -6.435   4.460  72.137  1.00  0.00    -0.020 OA 
HETATM   12  O   UNL     1      -7.481   8.765  71.890  1.00  0.00    -0.242 OA 
ENDROOT
BRANCH   4  13
HETATM   13  C   UNL     1      -8.875   3.273  71.575  1.00  0.00    -0.084 C  
BRANCH  13  14
HETATM   14  S   UNL     1      -9.310   2.744  69.879  1.00  0.00    -0.099 SA 
BRANCH  14  15
HETATM   15  C   UNL     1      -8.084   3.592  68.994  1.00  0.00    -0.060 A  
HETATM   16  N   UNL     1      -6.935   3.076  68.611  1.00  0.00    -0.048 NA 
HETATM   17  N   UNL     1      -6.285   4.060  67.911  1.00  0.00    -0.035 NA 
HETATM   18  N   UNL     1      -8.142   4.886  68.550  1.00  0.00    -0.085 NA 
HETATM   19  N   UNL     1      -7.014   5.164  67.856  1.00  0.00    -0.060 NA 
BRANCH  18  20
HETATM   20  C   UNL     1      -9.189   5.866  68.563  1.00  0.00    -0.117 C  
HETATM   21  O   UNL     1     -11.310   6.733  67.282  1.00  0.00    -0.300 OA 
HETATM   22  O   UNL     1     -10.393   4.552  66.685  1.00  0.00    -0.218 OA 
HETATM   23  O   UNL     1      -9.130   6.583  66.014  1.00  0.00    -0.151 OA 
HETATM   24  S   UNL     1     -10.041   6.094  67.022  1.00  0.00    -0.200 S  
ENDBRANCH  18  20
ENDBRANCH  14  15
ENDBRANCH  13  14
ENDBRANCH   4  13
BRANCH   8  25
HETATM   25  N   UNL     1     -10.680   9.356  71.096  1.00  0.00    -0.324 N  
HETATM   26  C   UNL     1     -11.907   9.985  71.056  1.00  0.00    -0.386 C  
HETATM   27  H   UNL     1     -10.172   9.250  70.218  1.00  0.00     0.000 HD 
HETATM   28  O   UNL     1     -12.629  10.116  72.040  1.00  0.00    -0.376 OA 
BRANCH  26  29
HETATM   29  C   UNL     1     -12.262  10.519  69.650  1.00  0.00    -0.137 C  
HETATM   30  O   UNL     1     -11.505   9.812  68.656  1.00  0.00    -0.494 OA 
HETATM   31  H   UNL     1     -11.722  10.140  67.791  1.00  0.00     0.000 HD 
BRANCH  29  32
HETATM   32  C   UNL     1     -11.998  12.004  69.519  1.00  0.00    -0.346 A  
HETATM   33  C   UNL     1     -11.596  12.540  68.286  1.00  0.00    -0.376 A  
HETATM   34  C   UNL     1     -12.162  12.879  70.607  1.00  0.00    -0.386 A  
HETATM   35  C   UNL     1     -11.904  14.244  70.472  1.00  0.00    -0.364 A  
HETATM   36  C   UNL     1     -11.487  14.756  69.246  1.00  0.00    -0.322 A  
HETATM   37  C   UNL     1     -11.338  13.905  68.153  1.00  0.00    -0.324 A  
ENDBRANCH  29  32
ENDBRANCH  26  29
ENDBRANCH   8  25
TORSDOF 7
ENDMDL
MODEL      160
REMARK 921   NORMALIZED FREE ENERGY PREDICTED BY IDOCK:   -5.40 KCAL/MOL
REMARK 922        TOTAL FREE ENERGY PREDICTED BY IDOCK:   -8.58 KCAL/MOL
REMARK 923 INTER-LIGAND FREE ENERGY PREDICTED BY IDOCK:   -7.81 KCAL/MOL
REMARK 924 INTRA-LIGAND FREE ENERGY PREDICTED BY IDOCK:   -0.77 KCAL/MOL
REMARK 927      BINDING AFFINITY PREDICTED BY RF-SCORE:    0.00 PKD
ROOT
HETATM    1  C   UNL     1      -8.411  10.612  68.907  1.00  0.00    -0.150 C  
HETATM    2  S   UNL     1      -7.007  11.510  68.210  1.00  0.00    -0.078 SA 
HETATM    3  C   UNL     1      -7.677  13.145  68.593  1.00  0.00    -0.073 C  
HETATM    4  C   UNL     1      -9.154  13.343  68.270  1.00  0.00    -0.181 C  
HETATM    5  C   UNL     1     -10.016   9.777  67.866  1.00  0.00    -0.163 C  
HETATM    6  CA  UNL     1     -10.035  12.318  68.062  1.00  0.00    -0.202 C  
HETATM    7  C   UNL     1     -11.460  12.627  67.639  1.00  0.00    -0.334 C  
HETATM    8  CA  UNL     1      -8.644   9.172  68.332  1.00  0.00    -0.129 C  
HETATM    9  N   UNL     1      -9.615  11.018  68.212  1.00  0.00    -0.165 N  
HETATM   10  O   UNL     1     -12.154  11.648  67.033  1.00  0.00    -0.547 OA 
HETATM   11  OXT UNL     1     -11.992  13.715  67.816  1.00  0.00    -0.363 OA 
HETATM   12  O   UNL     1     -11.017   9.419  67.289  1.00  0.00    -0.183 OA 
ENDROOT
BRANCH   4  13
HETATM   13  C   UNL     1      -9.462  14.826  68.024  1.00  0.00    -0.204 C  
BRANCH  13  14
HETATM   14  S   UNL     1      -8.384  15.604  66.767  1.00  0.00    -0.278 SA 
BRANCH  14  15
HETATM   15  C   UNL     1      -9.593  16.386  65.801  1.00  0.00    -0.192 A  
HETATM   16  N   UNL     1     -10.279  15.811  64.836  1.00  0.00    -0.418 NA 
HETATM   17  N   UNL     1     -11.148  16.760  64.362  1.00  0.00    -1.072 NA 
HETATM   18  N   UNL     1     -10.020  17.682  65.916  1.00  0.00    -0.553 NA 
HETATM   19  N   UNL     1     -11.009  17.900  65.019  1.00  0.00    -0.649 NA 
BRANCH  18  20
HETATM   20  C   UNL     1      -9.723  18.716  66.864  1.00  0.00    -0.314 C  
HETATM   21  O   UNL     1      -8.092  20.699  67.411  1.00  0.00    -0.328 OA 
HETATM   22  O   UNL     1      -8.068  19.750  65.164  1.00  0.00    -0.048 OA 
HETATM   23  O   UNL     1      -7.096  18.411  67.015  1.00  0.00    -0.190 OA 
HETATM   24  S   UNL     1      -8.096  19.417  66.745  1.00  0.00    -0.300 S  
ENDBRANCH  18  20
ENDBRANCH  14  15
ENDBRANCH  13  14
ENDBRANCH   4  13
BRANCH   8  25
HETATM   25  N   UNL     1      -7.736   8.752  67.235  1.00  0.00    -0.096 N  
HETATM   26  C   UNL     1      -6.770   7.775  67.351  1.00  0.00    -0.068 C  
HETATM   27  H   UNL     1      -7.834   9.219  66.334  1.00  0.00     0.000 HD 
HETATM   28  O   UNL     1      -6.527   7.189  68.401  1.00  0.00    -0.038 OA 
BRANCH  26  29
HETATM   29  C   UNL     1      -6.046   7.488  66.016  1.00  0.00    -0.038 C  
HETATM   30  O   UNL     1      -5.967   8.691  65.236  1.00  0.00    -0.048 OA 
HETATM   31  H   UNL     1      -5.522   8.515  64.416  1.00  0.00     0.000 HD 
BRANCH  29  32
HETATM   32  C   UNL     1      -6.739   6.410  65.209  1.00  0.00    -0.047 A  
HETATM   33  C   UNL     1      -6.732   6.470  63.807  1.00  0.00    -0.044 A  
HETATM   34  C   UNL     1      -7.385   5.328  65.830  1.00  0.00    -0.081 A  
HETATM   35  C   UNL     1      -8.028   4.349  65.071  1.00  0.00    -0.097 A  
HETATM   36  C   UNL     1      -8.029   4.433  63.682  1.00  0.00    -0.090 A  
HETATM   37  C   UNL     1      -7.376   5.490  63.050  1.00  0.00    -0.050 A  
ENDBRANCH  29  32
ENDBRANCH  26  29
ENDBRANCH   8  25
TORSDOF 7
ENDMDL
MODEL      161
REMARK 921   NORMALIZED FREE ENERGY PREDICTED BY IDOCK:   -5.38 KCAL/MOL
REMARK 922        TOTAL FREE ENERGY PREDICTED BY IDOCK:   -8.55 KCAL/MOL
REMARK 923 INTER-LIGAND FREE ENERGY PREDICTED BY IDOCK:   -7.49 KCAL/MOL
REMARK 924 INTRA-LIGAND FREE ENERGY PREDICTED BY IDOCK:   -1.05 KCAL/MOL
REMARK 927      BINDING AFFINITY PREDICTED BY RF-SCORE:    0.00 PKD
ROOT
HETATM    1  C   UNL     1      -7.816   8.037  68.061  1.00  0.00    -0.126 C  
HETATM    2  S   UNL     1      -8.100   9.249  66.753  1.00  0.00    -0.112 SA 
HETATM    3  C   UNL     1      -8.788  10.500  67.863  1.00  0.00    -0.133 C  
HETATM    4  C   UNL     1      -9.798   9.989  68.885  1.00  0.00    -0.187 C  
HETATM    5  C   UNL     1      -9.015   6.398  68.544  1.00  0.00    -0.125 C  
HETATM    6  CA  UNL     1      -9.933   8.674  69.234  1.00  0.00    -0.195 C  
HETATM    7  C   UNL     1     -11.043   8.259  70.182  1.00  0.00    -0.189 C  
HETATM    8  CA  UNL     1      -7.771   6.540  67.597  1.00  0.00    -0.106 C  
HETATM    9  N   UNL     1      -9.080   7.736  68.701  1.00  0.00    -0.136 N  
HETATM   10  O   UNL     1     -11.426   6.971  70.165  1.00  0.00    -0.290 OA 
HETATM   11  OXT UNL     1     -11.602   9.038  70.943  1.00  0.00    -0.279 OA 
HETATM   12  O   UNL     1      -9.774   5.536  68.923  1.00  0.00    -0.128 OA 
ENDROOT
BRANCH   4  13
HETATM   13  C   UNL     1     -10.752  11.112  69.314  1.00  0.00    -0.199 C  
BRANCH  13  14
HETATM   14  S   UNL     1     -11.782  11.765  67.951  1.00  0.00    -0.226 SA 
BRANCH  14  15
HETATM   15  C   UNL     1     -11.251  13.415  67.959  1.00  0.00    -0.268 A  
HETATM   16  N   UNL     1     -10.344  13.914  68.771  1.00  0.00    -0.231 NA 
HETATM   17  N   UNL     1     -10.194  15.231  68.420  1.00  0.00    -0.220 NA 
HETATM   18  N   UNL     1     -11.670  14.413  67.120  1.00  0.00    -0.386 NA 
HETATM   19  N   UNL     1     -10.987  15.545  67.407  1.00  0.00    -0.314 NA 
BRANCH  18  20
HETATM   20  C   UNL     1     -12.533  14.414  65.974  1.00  0.00    -0.283 C  
HETATM   21  O   UNL     1     -12.588  14.305  63.352  1.00  0.00    -0.777 OA 
HETATM   22  O   UNL     1     -10.517  13.724  64.503  1.00  0.00    -0.434 OA 
HETATM   23  O   UNL     1     -11.197  16.111  64.441  1.00  0.00    -0.605 OA 
HETATM   24  S   UNL     1     -11.743  14.775  64.425  1.00  0.00    -0.283 S  
ENDBRANCH  18  20
ENDBRANCH  14  15
ENDBRANCH  13  14
ENDBRANCH   4  13
BRANCH   8  25
HETATM   25  N   UNL     1      -8.044   6.295  66.159  1.00  0.00    -0.112 N  
HETATM   26  C   UNL     1      -7.151   5.718  65.280  1.00  0.00    -0.065 C  
HETATM   27  H   UNL     1      -8.955   6.572  65.795  1.00  0.00     0.000 HD 
HETATM   28  O   UNL     1      -6.009   5.399  65.594  1.00  0.00    -0.024 OA 
BRANCH  26  29
HETATM   29  C   UNL     1      -7.749   5.503  63.872  1.00  0.00    -0.089 C  
HETATM   30  O   UNL     1      -8.608   6.603  63.535  1.00  0.00    -0.328 OA 
HETATM   31  H   UNL     1      -8.976   6.471  62.669  1.00  0.00     0.000 HD 
BRANCH  29  32
HETATM   32  C   UNL     1      -8.529   4.208  63.773  1.00  0.00    -0.101 A  
HETATM   33  C   UNL     1      -9.913   4.239  63.545  1.00  0.00    -0.016 A  
HETATM   34  C   UNL     1      -7.897   2.959  63.889  1.00  0.00    -0.080 A  
HETATM   35  C   UNL     1      -8.632   1.776  63.806  1.00  0.00    -0.081 A  
HETATM   36  C   UNL     1     -10.008   1.823  63.600  1.00  0.00    -0.130 A  
HETATM   37  C   UNL     1     -10.647   3.054  63.464  1.00  0.00    -0.237 A  
ENDBRANCH  29  32
ENDBRANCH  26  29
ENDBRANCH   8  25
TORSDOF 7
ENDMDL
MODEL      162
REMARK 921   NORMALIZED FREE ENERGY PREDICTED BY IDOCK:   -5.37 KCAL/MOL
REMARK 922        TOTAL FREE ENERGY PREDICTED BY IDOCK:   -8.54 KCAL/MOL
REMARK 923 INTER-LIGAND FREE ENERGY PREDICTED BY IDOCK:   -8.38 KCAL/MOL
REMARK 924 INTRA-LIGAND FREE ENERGY PREDICTED BY IDOCK:   -0.16 KCAL/MOL
REMARK 927      BINDING AFFINITY PREDICTED BY RF-SCORE:    0.00 PKD
ROOT
HETATM    1  C   UNL     1      -8.491   7.614  68.190  1.00  0.00    -0.124 C  
HETATM    2  S   UNL     1     -10.274   7.616  67.910  1.00  0.00    -0.208 SA 
HETATM    3  C   UNL     1     -10.241   9.027  66.780  1.00  0.00    -0.271 C  
HETATM    4  C   UNL     1      -9.372  10.201  67.219  1.00  0.00    -0.173 C  
HETATM    5  C   UNL     1      -7.470   8.412  69.828  1.00  0.00    -0.072 C  
HETATM    6  CA  UNL     1      -8.394  10.114  68.170  1.00  0.00    -0.117 C  
HETATM    7  C   UNL     1      -7.662  11.368  68.610  1.00  0.00    -0.137 C  
HETATM    8  CA  UNL     1      -8.020   6.969  69.540  1.00  0.00    -0.125 C  
HETATM    9  N   UNL     1      -8.103   8.897  68.739  1.00  0.00    -0.112 N  
HETATM   10  O   UNL     1      -7.048  11.343  69.806  1.00  0.00    -0.051 OA 
HETATM   11  OXT UNL     1      -7.614  12.390  67.937  1.00  0.00    -0.107 OA 
HETATM   12  O   UNL     1      -6.863   8.997  70.696  1.00  0.00    -0.054 OA 
ENDROOT
BRANCH   4  13
HETATM   13  C   UNL     1      -9.872  11.510  66.593  1.00  0.00    -0.202 C  
BRANCH  13  14
HETATM   14  S   UNL     1     -10.367  11.347  64.840  1.00  0.00    -0.310 SA 
BRANCH  14  15
HETATM   15  C   UNL     1     -11.546  12.616  64.757  1.00  0.00    -0.331 A  
HETATM   16  N   UNL     1     -12.849  12.437  64.749  1.00  0.00    -0.761 NA 
HETATM   17  N   UNL     1     -13.410  13.688  64.717  1.00  0.00    -0.105 NA 
HETATM   18  N   UNL     1     -11.298  13.962  64.717  1.00  0.00    -0.348 NA 
HETATM   19  N   UNL     1     -12.477  14.626  64.710  1.00  0.00    -0.500 NA 
BRANCH  18  20
HETATM   20  C   UNL     1     -10.089  14.726  64.833  1.00  0.00    -0.178 C  
HETATM   21  O   UNL     1      -8.990  16.806  65.997  1.00  0.00    -0.437 OA 
HETATM   22  O   UNL     1     -11.115  15.973  66.857  1.00  0.00    -0.200 OA 
HETATM   23  O   UNL     1     -11.115  17.164  64.677  1.00  0.00    -1.036 OA 
HETATM   24  S   UNL     1     -10.277  16.349  65.527  1.00  0.00    -0.193 S  
ENDBRANCH  18  20
ENDBRANCH  14  15
ENDBRANCH  13  14
ENDBRANCH   4  13
BRANCH   8  25
HETATM   25  N   UNL     1      -9.096   6.513  70.455  1.00  0.00    -0.152 N  
HETATM   26  C   UNL     1      -8.942   6.328  71.813  1.00  0.00    -0.140 C  
HETATM   27  H   UNL     1     -10.013   6.322  70.051  1.00  0.00     0.000 HD 
HETATM   28  O   UNL     1      -7.871   6.471  72.395  1.00  0.00    -0.100 OA 
BRANCH  26  29
HETATM   29  C   UNL     1     -10.261   5.941  72.519  1.00  0.00    -0.187 C  
HETATM   30  O   UNL     1     -10.344   6.600  73.791  1.00  0.00    -0.288 OA 
HETATM   31  H   UNL     1     -11.155   6.362  74.225  1.00  0.00     0.000 HD 
BRANCH  29  32
HETATM   32  C   UNL     1     -10.385   4.445  72.719  1.00  0.00    -0.246 A  
HETATM   33  C   UNL     1     -10.033   3.567  71.682  1.00  0.00    -0.190 A  
HETATM   34  C   UNL     1     -10.833   3.900  73.934  1.00  0.00    -0.308 A  
HETATM   35  C   UNL     1     -10.952   2.519  74.097  1.00  0.00    -0.196 A  
HETATM   36  C   UNL     1     -10.618   1.662  73.052  1.00  0.00    -0.223 A  
HETATM   37  C   UNL     1     -10.153   2.186  71.847  1.00  0.00    -0.194 A  
ENDBRANCH  29  32
ENDBRANCH  26  29
ENDBRANCH   8  25
TORSDOF 7
ENDMDL
MODEL      163
REMARK 921   NORMALIZED FREE ENERGY PREDICTED BY IDOCK:   -5.34 KCAL/MOL
REMARK 922        TOTAL FREE ENERGY PREDICTED BY IDOCK:   -8.49 KCAL/MOL
REMARK 923 INTER-LIGAND FREE ENERGY PREDICTED BY IDOCK:   -7.57 KCAL/MOL
REMARK 924 INTRA-LIGAND FREE ENERGY PREDICTED BY IDOCK:   -0.92 KCAL/MOL
REMARK 927      BINDING AFFINITY PREDICTED BY RF-SCORE:    0.00 PKD
ROOT
HETATM    1  C   UNL     1     -11.082   9.014  68.441  1.00  0.00     0.215 C  
HETATM    2  S   UNL     1     -10.340   9.990  69.766  1.00  0.00    -0.265 SA 
HETATM    3  C   UNL     1     -10.555  11.572  68.918  1.00  0.00    -0.204 C  
HETATM    4  C   UNL     1     -10.181  11.583  67.440  1.00  0.00    -0.228 C  
HETATM    5  C   UNL     1     -10.084   7.923  66.967  1.00  0.00    -0.277 C  
HETATM    6  CA  UNL     1     -10.047  10.456  66.677  1.00  0.00    -0.224 C  
HETATM    7  C   UNL     1      -9.564  10.573  65.244  1.00  0.00    -0.249 C  
HETATM    8  CA  UNL     1     -10.636   7.511  68.377  1.00  0.00    -0.134 C  
HETATM    9  N   UNL     1     -10.325   9.226  67.225  1.00  0.00    -0.250 N  
HETATM   10  O   UNL     1      -9.034   9.476  64.674  1.00  0.00    -0.213 OA 
HETATM   11  OXT UNL     1      -9.628  11.610  64.596  1.00  0.00    -0.216 OA 
HETATM   12  O   UNL     1      -9.519   7.411  66.027  1.00  0.00    -0.071 OA 
ENDROOT
BRANCH   4  13
HETATM   13  C   UNL     1      -9.793  12.997  66.989  1.00  0.00    -0.238 C  
BRANCH  13  14
HETATM   14  S   UNL     1     -11.215  14.017  66.457  1.00  0.00    -0.331 SA 
BRANCH  14  15
HETATM   15  C   UNL     1     -11.337  15.072  67.828  1.00  0.00    -0.330 A  
HETATM   16  N   UNL     1     -12.110  14.866  68.873  1.00  0.00    -0.240 NA 
HETATM   17  N   UNL     1     -11.877  15.907  69.735  1.00  0.00    -0.324 NA 
HETATM   18  N   UNL     1     -10.643  16.234  68.030  1.00  0.00    -0.296 NA 
HETATM   19  N   UNL     1     -10.977  16.741  69.239  1.00  0.00    -0.261 NA 
BRANCH  18  20
HETATM   20  C   UNL     1      -9.584  16.867  67.298  1.00  0.00    -0.246 C  
HETATM   21  O   UNL     1      -8.976  18.931  65.793  1.00  0.00    -0.394 OA 
HETATM   22  O   UNL     1     -11.070  18.972  67.044  1.00  0.00    -0.316 OA 
HETATM   23  O   UNL     1     -10.904  17.462  65.079  1.00  0.00    -0.676 OA 
HETATM   24  S   UNL     1     -10.100  18.080  66.107  1.00  0.00    -0.291 S  
ENDBRANCH  18  20
ENDBRANCH  14  15
ENDBRANCH  13  14
ENDBRANCH   4  13
BRANCH   8  25
HETATM   25  N   UNL     1      -9.604   7.095  69.359  1.00  0.00    -0.153 N  
HETATM   26  C   UNL     1      -9.877   6.538  70.591  1.00  0.00    -0.183 C  
HETATM   27  H   UNL     1      -8.626   7.230  69.105  1.00  0.00     0.000 HD 
HETATM   28  O   UNL     1     -11.014   6.382  71.023  1.00  0.00    -0.248 OA 
BRANCH  26  29
HETATM   29  C   UNL     1      -8.600   6.118  71.354  1.00  0.00    -0.128 C  
HETATM   30  O   UNL     1      -7.457   6.236  70.494  1.00  0.00    -0.086 OA 
HETATM   31  H   UNL     1      -6.672   5.978  70.962  1.00  0.00     0.000 HD 
BRANCH  29  32
HETATM   32  C   UNL     1      -8.688   4.700  71.880  1.00  0.00    -0.133 A  
HETATM   33  C   UNL     1      -8.388   4.431  73.224  1.00  0.00    -0.095 A  
HETATM   34  C   UNL     1      -9.084   3.634  71.055  1.00  0.00    -0.177 A  
HETATM   35  C   UNL     1      -9.150   2.332  71.554  1.00  0.00    -0.157 A  
HETATM   36  C   UNL     1      -8.830   2.077  72.884  1.00  0.00    -0.068 A  
HETATM   37  C   UNL     1      -8.454   3.127  73.720  1.00  0.00    -0.074 A  
ENDBRANCH  29  32
ENDBRANCH  26  29
ENDBRANCH   8  25
TORSDOF 7
ENDMDL
MODEL      164
REMARK 921   NORMALIZED FREE ENERGY PREDICTED BY IDOCK:   -5.32 KCAL/MOL
REMARK 922        TOTAL FREE ENERGY PREDICTED BY IDOCK:   -8.47 KCAL/MOL
REMARK 923 INTER-LIGAND FREE ENERGY PREDICTED BY IDOCK:   -7.67 KCAL/MOL
REMARK 924 INTRA-LIGAND FREE ENERGY PREDICTED BY IDOCK:   -0.80 KCAL/MOL
REMARK 927      BINDING AFFINITY PREDICTED BY RF-SCORE:    0.00 PKD
ROOT
HETATM    1  C   UNL     1     -10.295   9.398  67.085  1.00  0.00    -0.258 C  
HETATM    2  S   UNL     1     -11.343  10.616  67.907  1.00  0.00    -0.169 SA 
HETATM    3  C   UNL     1     -10.388  12.040  67.331  1.00  0.00    -0.207 C  
HETATM    4  C   UNL     1      -8.873  11.902  67.436  1.00  0.00    -0.171 C  
HETATM    5  C   UNL     1      -8.782   8.247  67.949  1.00  0.00    -0.135 C  
HETATM    6  CA  UNL     1      -8.223  10.708  67.587  1.00  0.00    -0.107 C  
HETATM    7  C   UNL     1      -6.719  10.693  67.790  1.00  0.00    -0.068 C  
HETATM    8  CA  UNL     1     -10.307   7.961  67.714  1.00  0.00    -0.226 C  
HETATM    9  N   UNL     1      -8.941   9.536  67.581  1.00  0.00    -0.118 N  
HETATM   10  O   UNL     1      -6.179   9.600  68.358  1.00  0.00    -0.047 OA 
HETATM   11  OXT UNL     1      -5.989  11.623  67.473  1.00  0.00    -0.059 OA 
HETATM   12  O   UNL     1      -7.811   7.686  68.405  1.00  0.00    -0.117 OA 
ENDROOT
BRANCH   4  13
HETATM   13  C   UNL     1      -8.208  13.281  67.541  1.00  0.00    -0.184 C  
BRANCH  13  14
HETATM   14  S   UNL     1      -8.865  14.508  66.354  1.00  0.00     0.093 SA 
BRANCH  14  15
HETATM   15  C   UNL     1      -8.417  15.967  67.176  1.00  0.00    -0.196 A  
HETATM   16  N   UNL     1      -7.951  17.051  66.593  1.00  0.00    -0.238 NA 
HETATM   17  N   UNL     1      -7.764  17.975  67.589  1.00  0.00    -0.213 NA 
HETATM   18  N   UNL     1      -8.507  16.209  68.521  1.00  0.00    -0.187 NA 
HETATM   19  N   UNL     1      -8.111  17.479  68.766  1.00  0.00    -0.263 NA 
BRANCH  18  20
HETATM   20  C   UNL     1      -9.058  15.448  69.605  1.00  0.00    -0.170 C  
HETATM   21  O   UNL     1     -11.292  14.572  70.670  1.00  0.00    -0.213 OA 
HETATM   22  O   UNL     1     -11.349  15.458  68.398  1.00  0.00    -0.306 OA 
HETATM   23  O   UNL     1     -11.054  17.056  70.276  1.00  0.00     0.041 OA 
HETATM   24  S   UNL     1     -10.793  15.687  69.899  1.00  0.00    -0.346 S  
ENDBRANCH  18  20
ENDBRANCH  14  15
ENDBRANCH  13  14
ENDBRANCH   4  13
BRANCH   8  25
HETATM   25  N   UNL     1     -11.113   7.798  68.950  1.00  0.00    -0.410 N  
HETATM   26  C   UNL     1     -11.236   6.618  69.653  1.00  0.00    -0.340 C  
HETATM   27  H   UNL     1     -11.611   8.615  69.303  1.00  0.00     0.000 HD 
HETATM   28  O   UNL     1     -10.729   5.561  69.290  1.00  0.00    -0.277 OA 
BRANCH  26  29
HETATM   29  C   UNL     1     -12.061   6.776  70.950  1.00  0.00    -0.367 C  
HETATM   30  O   UNL     1     -12.715   8.054  70.958  1.00  0.00    -0.499 OA 
HETATM   31  H   UNL     1     -13.222   8.152  71.755  1.00  0.00     0.000 HD 
BRANCH  29  32
HETATM   32  C   UNL     1     -11.206   6.642  72.192  1.00  0.00    -0.299 A  
HETATM   33  C   UNL     1     -11.276   5.476  72.970  1.00  0.00    -0.346 A  
HETATM   34  C   UNL     1     -10.317   7.657  72.587  1.00  0.00    -0.332 A  
HETATM   35  C   UNL     1      -9.544   7.521  73.741  1.00  0.00    -0.321 A  
HETATM   36  C   UNL     1      -9.640   6.366  74.513  1.00  0.00    -0.294 A  
HETATM   37  C   UNL     1     -10.502   5.342  74.124  1.00  0.00    -0.319 A  
ENDBRANCH  29  32
ENDBRANCH  26  29
ENDBRANCH   8  25
TORSDOF 7
ENDMDL
MODEL      165
REMARK 921   NORMALIZED FREE ENERGY PREDICTED BY IDOCK:   -5.31 KCAL/MOL
REMARK 922        TOTAL FREE ENERGY PREDICTED BY IDOCK:   -8.45 KCAL/MOL
REMARK 923 INTER-LIGAND FREE ENERGY PREDICTED BY IDOCK:   -7.09 KCAL/MOL
REMARK 924 INTRA-LIGAND FREE ENERGY PREDICTED BY IDOCK:   -1.36 KCAL/MOL
REMARK 927      BINDING AFFINITY PREDICTED BY RF-SCORE:    0.00 PKD
ROOT
HETATM    1  C   UNL     1      -9.200  10.409  69.212  1.00  0.00    -0.184 C  
HETATM    2  S   UNL     1      -7.414  10.248  69.001  1.00  0.00    -0.107 SA 
HETATM    3  C   UNL     1      -7.110  12.030  68.976  1.00  0.00    -0.077 C  
HETATM    4  C   UNL     1      -8.073  12.850  68.124  1.00  0.00    -0.158 C  
HETATM    5  C   UNL     1     -10.665  10.251  67.733  1.00  0.00    -0.275 C  
HETATM    6  CA  UNL     1      -9.291  12.398  67.697  1.00  0.00    -0.188 C  
HETATM    7  C   UNL     1     -10.124  13.255  66.761  1.00  0.00    -0.258 C  
HETATM    8  CA  UNL     1     -10.052   9.190  68.714  1.00  0.00    -0.197 C  
HETATM    9  N   UNL     1      -9.736  11.160  68.096  1.00  0.00    -0.175 N  
HETATM   10  O   UNL     1     -11.067  12.639  66.028  1.00  0.00    -0.271 OA 
HETATM   11  OXT UNL     1      -9.969  14.464  66.642  1.00  0.00    -0.257 OA 
HETATM   12  O   UNL     1     -11.505  10.307  66.864  1.00  0.00    -0.038 OA 
ENDROOT
BRANCH   4  13
HETATM   13  C   UNL     1      -7.411  14.155  67.660  1.00  0.00    -0.176 C  
BRANCH  13  14
HETATM   14  S   UNL     1      -7.069  15.331  69.019  1.00  0.00    -0.156 SA 
BRANCH  14  15
HETATM   15  C   UNL     1      -8.657  15.995  69.226  1.00  0.00    -0.224 A  
HETATM   16  N   UNL     1      -9.633  15.424  69.899  1.00  0.00    -0.204 NA 
HETATM   17  N   UNL     1     -10.694  16.292  69.850  1.00  0.00    -0.332 NA 
HETATM   18  N   UNL     1      -9.110  17.197  68.752  1.00  0.00    -0.266 NA 
HETATM   19  N   UNL     1     -10.385  17.381  69.165  1.00  0.00    -0.328 NA 
BRANCH  18  20
HETATM   20  C   UNL     1      -8.453  18.278  68.076  1.00  0.00    -0.262 C  
HETATM   21  O   UNL     1      -8.120  19.444  65.747  1.00  0.00    -0.436 OA 
HETATM   22  O   UNL     1      -9.930  17.828  65.998  1.00  0.00    -0.482 OA 
HETATM   23  O   UNL     1      -7.597  16.979  65.932  1.00  0.00    -0.354 OA 
HETATM   24  S   UNL     1      -8.374  18.137  66.308  1.00  0.00    -0.144 S  
ENDBRANCH  18  20
ENDBRANCH  14  15
ENDBRANCH  13  14
ENDBRANCH   4  13
BRANCH   8  25
HETATM   25  N   UNL     1      -9.298   8.091  68.061  1.00  0.00    -0.138 N  
HETATM   26  C   UNL     1      -9.868   7.111  67.276  1.00  0.00    -0.167 C  
HETATM   27  H   UNL     1      -8.289   8.059  68.202  1.00  0.00     0.000 HD 
HETATM   28  O   UNL     1     -11.077   7.019  67.085  1.00  0.00    -0.350 OA 
BRANCH  26  29
HETATM   29  C   UNL     1      -8.822   6.158  66.653  1.00  0.00    -0.127 C  
HETATM   30  O   UNL     1      -7.620   6.177  67.436  1.00  0.00    -0.087 OA 
HETATM   31  H   UNL     1      -6.977   5.592  67.053  1.00  0.00     0.000 HD 
BRANCH  29  32
HETATM   32  C   UNL     1      -8.495   6.527  65.221  1.00  0.00    -0.091 A  
HETATM   33  C   UNL     1      -8.406   7.877  64.847  1.00  0.00    -0.087 A  
HETATM   34  C   UNL     1      -8.259   5.545  64.244  1.00  0.00    -0.124 A  
HETATM   35  C   UNL     1      -7.969   5.902  62.927  1.00  0.00    -0.108 A  
HETATM   36  C   UNL     1      -7.903   7.245  62.567  1.00  0.00    -0.127 A  
HETATM   37  C   UNL     1      -8.116   8.232  63.528  1.00  0.00    -0.130 A  
ENDBRANCH  29  32
ENDBRANCH  26  29
ENDBRANCH   8  25
TORSDOF 7
ENDMDL
MODEL      166
REMARK 921   NORMALIZED FREE ENERGY PREDICTED BY IDOCK:   -5.30 KCAL/MOL
REMARK 922        TOTAL FREE ENERGY PREDICTED BY IDOCK:   -8.44 KCAL/MOL
REMARK 923 INTER-LIGAND FREE ENERGY PREDICTED BY IDOCK:   -7.54 KCAL/MOL
REMARK 924 INTRA-LIGAND FREE ENERGY PREDICTED BY IDOCK:   -0.90 KCAL/MOL
REMARK 927      BINDING AFFINITY PREDICTED BY RF-SCORE:    0.00 PKD
ROOT
HETATM    1  C   UNL     1     -10.848   8.008  69.369  1.00  0.00    -0.094 C  
HETATM    2  S   UNL     1     -10.628   8.672  67.704  1.00  0.00    -0.142 SA 
HETATM    3  C   UNL     1      -9.410   7.429  67.213  1.00  0.00    -0.133 C  
HETATM    4  C   UNL     1      -8.323   7.130  68.241  1.00  0.00    -0.124 C  
HETATM    5  C   UNL     1      -9.984   8.714  71.133  1.00  0.00    -0.225 C  
HETATM    6  CA  UNL     1      -8.416   7.454  69.566  1.00  0.00    -0.133 C  
HETATM    7  C   UNL     1      -7.232   7.210  70.483  1.00  0.00    -0.067 C  
HETATM    8  CA  UNL     1     -11.357   9.031  70.443  1.00  0.00    -0.210 C  
HETATM    9  N   UNL     1      -9.570   8.023  70.050  1.00  0.00    -0.171 N  
HETATM   10  O   UNL     1      -7.177   7.910  71.629  1.00  0.00    -0.062 OA 
HETATM   11  OXT UNL     1      -6.333   6.420  70.223  1.00  0.00    -0.037 OA 
HETATM   12  O   UNL     1      -9.376   9.023  72.133  1.00  0.00    -0.356 OA 
ENDROOT
BRANCH   4  13
HETATM   13  C   UNL     1      -7.057   6.601  67.554  1.00  0.00    -0.084 C  
BRANCH  13  14
HETATM   14  S   UNL     1      -6.760   7.323  65.900  1.00  0.00    -0.053 SA 
BRANCH  14  15
HETATM   15  C   UNL     1      -6.299   8.927  66.368  1.00  0.00    -0.065 A  
HETATM   16  N   UNL     1      -5.709   9.244  67.500  1.00  0.00    -0.041 NA 
HETATM   17  N   UNL     1      -5.486  10.597  67.454  1.00  0.00    -0.040 NA 
HETATM   18  N   UNL     1      -6.454  10.071  65.631  1.00  0.00    -0.091 NA 
HETATM   19  N   UNL     1      -5.925  11.110  66.316  1.00  0.00    -0.144 NA 
BRANCH  18  20
HETATM   20  C   UNL     1      -6.908  10.302  64.290  1.00  0.00    -0.057 C  
HETATM   21  O   UNL     1      -8.979  10.998  62.834  1.00  0.00    -0.254 OA 
HETATM   22  O   UNL     1      -9.066  11.368  65.244  1.00  0.00    -0.178 OA 
HETATM   23  O   UNL     1      -9.233   9.036  64.407  1.00  0.00    -0.006 OA 
HETATM   24  S   UNL     1      -8.671  10.324  64.074  1.00  0.00    -0.217 S  
ENDBRANCH  18  20
ENDBRANCH  14  15
ENDBRANCH  13  14
ENDBRANCH   4  13
BRANCH   8  25
HETATM   25  N   UNL     1     -11.521  10.433  69.982  1.00  0.00    -0.285 N  
HETATM   26  C   UNL     1     -12.184  11.415  70.686  1.00  0.00    -0.389 C  
HETATM   27  H   UNL     1     -11.114  10.687  69.082  1.00  0.00     0.000 HD 
HETATM   28  O   UNL     1     -12.760  11.209  71.750  1.00  0.00    -0.377 OA 
BRANCH  26  29
HETATM   29  C   UNL     1     -12.108  12.799  70.002  1.00  0.00    -0.285 C  
HETATM   30  O   UNL     1     -10.777  13.028  69.515  1.00  0.00    -0.435 OA 
HETATM   31  H   UNL     1     -10.730  13.878  69.094  1.00  0.00     0.000 HD 
BRANCH  29  32
HETATM   32  C   UNL     1     -12.501  13.922  70.938  1.00  0.00    -0.447 A  
HETATM   33  C   UNL     1     -13.770  13.924  71.537  1.00  0.00    -0.323 A  
HETATM   34  C   UNL     1     -11.615  14.970  71.242  1.00  0.00    -0.384 A  
HETATM   35  C   UNL     1     -11.998  16.003  72.099  1.00  0.00    -0.629 A  
HETATM   36  C   UNL     1     -13.267  16.001  72.670  1.00  0.00    -0.451 A  
HETATM   37  C   UNL     1     -14.151  14.959  72.394  1.00  0.00    -0.554 A  
ENDBRANCH  29  32
ENDBRANCH  26  29
ENDBRANCH   8  25
TORSDOF 7
ENDMDL
MODEL      167
REMARK 921   NORMALIZED FREE ENERGY PREDICTED BY IDOCK:   -5.30 KCAL/MOL
REMARK 922        TOTAL FREE ENERGY PREDICTED BY IDOCK:   -8.44 KCAL/MOL
REMARK 923 INTER-LIGAND FREE ENERGY PREDICTED BY IDOCK:   -7.44 KCAL/MOL
REMARK 924 INTRA-LIGAND FREE ENERGY PREDICTED BY IDOCK:   -1.00 KCAL/MOL
REMARK 927      BINDING AFFINITY PREDICTED BY RF-SCORE:    0.00 PKD
ROOT
HETATM    1  C   UNL     1      -9.015   8.784  71.764  1.00  0.00    -0.212 C  
HETATM    2  S   UNL     1      -8.237   8.226  70.233  1.00  0.00    -0.125 SA 
HETATM    3  C   UNL     1      -8.501   9.787  69.359  1.00  0.00    -0.159 C  
HETATM    4  C   UNL     1      -9.886  10.406  69.521  1.00  0.00    -0.211 C  
HETATM    5  C   UNL     1     -10.957   8.377  72.413  1.00  0.00    -0.355 C  
HETATM    6  CA  UNL     1     -10.763  10.066  70.513  1.00  0.00    -0.285 C  
HETATM    7  C   UNL     1     -12.158  10.664  70.519  1.00  0.00    -0.355 C  
HETATM    8  CA  UNL     1      -9.592   7.650  72.681  1.00  0.00    -0.181 C  
HETATM    9  N   UNL     1     -10.384   9.165  71.480  1.00  0.00    -0.343 N  
HETATM   10  O   UNL     1     -13.112  10.012  71.207  1.00  0.00    -0.365 OA 
HETATM   11  OXT UNL     1     -12.449  11.695  69.925  1.00  0.00    -0.174 OA 
HETATM   12  O   UNL     1     -12.121   8.269  72.727  1.00  0.00    -0.353 OA 
ENDROOT
BRANCH   4  13
HETATM   13  C   UNL     1     -10.222  11.304  68.324  1.00  0.00    -0.186 C  
BRANCH  13  14
HETATM   14  S   UNL     1      -8.752  12.019  67.503  1.00  0.00    -0.176 SA 
BRANCH  14  15
HETATM   15  C   UNL     1      -9.442  13.500  66.923  1.00  0.00    -0.258 A  
HETATM   16  N   UNL     1     -10.409  13.586  66.035  1.00  0.00    -0.296 NA 
HETATM   17  N   UNL     1     -10.682  14.922  65.890  1.00  0.00    -0.310 NA 
HETATM   18  N   UNL     1      -9.107  14.768  67.316  1.00  0.00    -0.195 NA 
HETATM   19  N   UNL     1      -9.904  15.652  66.673  1.00  0.00    -0.234 NA 
BRANCH  18  20
HETATM   20  C   UNL     1      -8.227  15.263  68.335  1.00  0.00    -0.146 C  
HETATM   21  O   UNL     1      -5.884  16.363  68.773  1.00  0.00    -0.122 OA 
HETATM   22  O   UNL     1      -6.746  16.318  66.491  1.00  0.00    -0.226 OA 
HETATM   23  O   UNL     1      -5.958  14.186  67.493  1.00  0.00    -0.337 OA 
HETATM   24  S   UNL     1      -6.532  15.463  67.847  1.00  0.00    -0.164 S  
ENDBRANCH  18  20
ENDBRANCH  14  15
ENDBRANCH  13  14
ENDBRANCH   4  13
BRANCH   8  25
HETATM   25  N   UNL     1      -9.499   6.269  72.147  1.00  0.00    -0.151 N  
HETATM   26  C   UNL     1     -10.196   5.188  72.647  1.00  0.00    -0.186 C  
HETATM   27  H   UNL     1      -8.878   6.107  71.354  1.00  0.00     0.000 HD 
HETATM   28  O   UNL     1     -10.926   5.255  73.631  1.00  0.00    -0.291 OA 
BRANCH  26  29
HETATM   29  C   UNL     1      -9.970   3.898  71.826  1.00  0.00    -0.163 C  
HETATM   30  O   UNL     1      -9.114   3.003  72.552  1.00  0.00    -0.085 OA 
HETATM   31  H   UNL     1      -8.976   2.210  72.047  1.00  0.00     0.000 HD 
BRANCH  29  32
HETATM   32  C   UNL     1      -9.364   4.183  70.468  1.00  0.00    -0.211 A  
HETATM   33  C   UNL     1      -7.996   3.960  70.250  1.00  0.00    -0.052 A  
HETATM   34  C   UNL     1     -10.144   4.654  69.399  1.00  0.00    -0.194 A  
HETATM   35  C   UNL     1      -9.567   4.922  68.157  1.00  0.00    -0.191 A  
HETATM   36  C   UNL     1      -8.204   4.715  67.962  1.00  0.00    -0.091 A  
HETATM   37  C   UNL     1      -7.420   4.229  69.007  1.00  0.00    -0.055 A  
ENDBRANCH  29  32
ENDBRANCH  26  29
ENDBRANCH   8  25
TORSDOF 7
ENDMDL
MODEL      168
REMARK 921   NORMALIZED FREE ENERGY PREDICTED BY IDOCK:   -5.30 KCAL/MOL
REMARK 922        TOTAL FREE ENERGY PREDICTED BY IDOCK:   -8.43 KCAL/MOL
REMARK 923 INTER-LIGAND FREE ENERGY PREDICTED BY IDOCK:   -7.17 KCAL/MOL
REMARK 924 INTRA-LIGAND FREE ENERGY PREDICTED BY IDOCK:   -1.26 KCAL/MOL
REMARK 927      BINDING AFFINITY PREDICTED BY RF-SCORE:    0.00 PKD
ROOT
HETATM    1  C   UNL     1      -7.924   7.692  69.508  1.00  0.00    -0.125 C  
HETATM    2  S   UNL     1      -8.465   9.003  68.390  1.00  0.00    -0.129 SA 
HETATM    3  C   UNL     1      -9.266   9.977  69.686  1.00  0.00    -0.215 C  
HETATM    4  C   UNL     1     -10.124   9.186  70.668  1.00  0.00    -0.307 C  
HETATM    5  C   UNL     1      -8.833   5.837  69.808  1.00  0.00    -0.126 C  
HETATM    6  CA  UNL     1     -10.039   7.832  70.839  1.00  0.00    -0.187 C  
HETATM    7  C   UNL     1     -11.015   7.130  71.764  1.00  0.00    -0.229 C  
HETATM    8  CA  UNL     1      -7.683   6.293  68.842  1.00  0.00    -0.097 C  
HETATM    9  N   UNL     1      -9.088   7.117  70.150  1.00  0.00    -0.152 N  
HETATM   10  O   UNL     1     -11.201   5.810  71.586  1.00  0.00    -0.259 OA 
HETATM   11  OXT UNL     1     -11.638   7.707  72.646  1.00  0.00    -0.339 OA 
HETATM   12  O   UNL     1      -9.430   4.824  70.096  1.00  0.00    -0.144 OA 
ENDROOT
BRANCH   4  13
HETATM   13  C   UNL     1     -11.208  10.081  71.284  1.00  0.00    -0.200 C  
BRANCH  13  14
HETATM   14  S   UNL     1     -12.459  10.657  70.080  1.00  0.00    -0.198 SA 
BRANCH  14  15
HETATM   15  C   UNL     1     -12.335  12.367  70.338  1.00  0.00    -0.227 A  
HETATM   16  N   UNL     1     -12.986  13.042  71.260  1.00  0.00    -0.293 NA 
HETATM   17  N   UNL     1     -12.574  14.345  71.148  1.00  0.00    -0.329 NA 
HETATM   18  N   UNL     1     -11.537  13.242  69.651  1.00  0.00    -0.281 NA 
HETATM   19  N   UNL     1     -11.682  14.478  70.180  1.00  0.00    -0.283 NA 
BRANCH  18  20
HETATM   20  C   UNL     1     -10.532  13.048  68.645  1.00  0.00    -0.219 C  
HETATM   21  O   UNL     1      -9.982  13.363  66.097  1.00  0.00    -0.284 OA 
HETATM   22  O   UNL     1     -11.923  14.513  67.025  1.00  0.00    -0.404 OA 
HETATM   23  O   UNL     1     -12.051  12.052  66.717  1.00  0.00    -0.613 OA 
HETATM   24  S   UNL     1     -11.109  13.117  66.967  1.00  0.00    -0.288 S  
ENDBRANCH  18  20
ENDBRANCH  14  15
ENDBRANCH  13  14
ENDBRANCH   4  13
BRANCH   8  25
HETATM   25  N   UNL     1      -8.002   6.196  67.395  1.00  0.00    -0.105 N  
HETATM   26  C   UNL     1      -7.070   6.281  66.382  1.00  0.00    -0.068 C  
HETATM   27  H   UNL     1      -8.978   6.057  67.133  1.00  0.00     0.000 HD 
HETATM   28  O   UNL     1      -5.880   6.504  66.578  1.00  0.00    -0.017 OA 
BRANCH  26  29
HETATM   29  C   UNL     1      -7.684   6.047  64.983  1.00  0.00    -0.097 C  
HETATM   30  O   UNL     1      -8.771   6.961  64.769  1.00  0.00    -0.356 OA 
HETATM   31  H   UNL     1      -9.148   6.817  63.909  1.00  0.00     0.000 HD 
BRANCH  29  32
HETATM   32  C   UNL     1      -8.180   4.627  64.805  1.00  0.00    -0.111 A  
HETATM   33  C   UNL     1      -7.283   3.553  64.911  1.00  0.00    -0.067 A  
HETATM   34  C   UNL     1      -9.533   4.347  64.551  1.00  0.00    -0.131 A  
HETATM   35  C   UNL     1      -9.970   3.032  64.380  1.00  0.00    -0.091 A  
HETATM   36  C   UNL     1      -9.064   1.979  64.468  1.00  0.00    -0.123 A  
HETATM   37  C   UNL     1      -7.722   2.239  64.739  1.00  0.00    -0.073 A  
ENDBRANCH  29  32
ENDBRANCH  26  29
ENDBRANCH   8  25
TORSDOF 7
ENDMDL
MODEL      169
REMARK 921   NORMALIZED FREE ENERGY PREDICTED BY IDOCK:   -5.29 KCAL/MOL
REMARK 922        TOTAL FREE ENERGY PREDICTED BY IDOCK:   -8.42 KCAL/MOL
REMARK 923 INTER-LIGAND FREE ENERGY PREDICTED BY IDOCK:   -7.80 KCAL/MOL
REMARK 924 INTRA-LIGAND FREE ENERGY PREDICTED BY IDOCK:   -0.62 KCAL/MOL
REMARK 927      BINDING AFFINITY PREDICTED BY RF-SCORE:    0.00 PKD
ROOT
HETATM    1  C   UNL     1      -7.901  11.399  67.498  1.00  0.00    -0.126 C  
HETATM    2  S   UNL     1      -7.570  11.848  69.216  1.00  0.00     0.332 SA 
HETATM    3  C   UNL     1      -7.072  10.180  69.707  1.00  0.00    -0.127 C  
HETATM    4  C   UNL     1      -7.965   9.051  69.201  1.00  0.00    -0.101 C  
HETATM    5  C   UNL     1      -9.760  11.004  66.634  1.00  0.00    -0.195 C  
HETATM    6  CA  UNL     1      -8.849   9.181  68.166  1.00  0.00    -0.129 C  
HETATM    7  C   UNL     1      -9.767   8.026  67.814  1.00  0.00    -0.156 C  
HETATM    8  CA  UNL     1      -8.918  12.324  66.742  1.00  0.00    -0.209 C  
HETATM    9  N   UNL     1      -8.917  10.367  67.473  1.00  0.00    -0.135 N  
HETATM   10  O   UNL     1     -10.885   8.308  67.123  1.00  0.00    -0.244 OA 
HETATM   11  OXT UNL     1      -9.541   6.866  68.135  1.00  0.00    -0.126 OA 
HETATM   12  O   UNL     1     -10.811  10.632  66.162  1.00  0.00    -0.130 OA 
ENDROOT
BRANCH   4  13
HETATM   13  C   UNL     1      -7.871   7.830  70.125  1.00  0.00    -0.095 C  
BRANCH  13  14
HETATM   14  S   UNL     1      -7.955   8.244  71.905  1.00  0.00    -0.134 SA 
BRANCH  14  15
HETATM   15  C   UNL     1      -9.669   8.452  72.068  1.00  0.00    -0.283 A  
HETATM   16  N   UNL     1     -10.403   9.270  71.344  1.00  0.00    -0.335 NA 
HETATM   17  N   UNL     1     -11.698   9.100  71.763  1.00  0.00    -0.369 NA 
HETATM   18  N   UNL     1     -10.494   7.791  72.937  1.00  0.00    -0.321 NA 
HETATM   19  N   UNL     1     -11.769   8.192  72.724  1.00  0.00    -0.364 NA 
BRANCH  18  20
HETATM   20  C   UNL     1     -10.267   6.711  73.854  1.00  0.00    -0.354 C  
HETATM   21  O   UNL     1     -10.002   4.107  74.051  1.00  0.00    -0.123 OA 
HETATM   22  O   UNL     1      -9.888   5.129  71.839  1.00  0.00    -0.166 OA 
HETATM   23  O   UNL     1     -12.097   5.012  72.968  1.00  0.00    -0.171 OA 
HETATM   24  S   UNL     1     -10.682   5.095  73.247  1.00  0.00    -0.292 S  
ENDBRANCH  18  20
ENDBRANCH  14  15
ENDBRANCH  13  14
ENDBRANCH   4  13
BRANCH   8  25
HETATM   25  N   UNL     1      -9.541  13.403  67.548  1.00  0.00    -0.215 N  
HETATM   26  C   UNL     1      -9.152  14.726  67.518  1.00  0.00    -0.189 C  
HETATM   27  H   UNL     1     -10.311  13.149  68.167  1.00  0.00     0.000 HD 
HETATM   28  O   UNL     1      -8.203  15.134  66.856  1.00  0.00    -0.215 OA 
BRANCH  26  29
HETATM   29  C   UNL     1     -10.048  15.634  68.391  1.00  0.00    -0.214 C  
HETATM   30  O   UNL     1     -11.372  15.085  68.465  1.00  0.00    -0.274 OA 
HETATM   31  H   UNL     1     -11.923  15.643  69.002  1.00  0.00     0.000 HD 
BRANCH  29  32
HETATM   32  C   UNL     1     -10.120  17.049  67.857  1.00  0.00    -0.306 A  
HETATM   33  C   UNL     1     -10.052  17.281  66.475  1.00  0.00    -0.311 A  
HETATM   34  C   UNL     1     -10.272  18.152  68.715  1.00  0.00    -0.353 A  
HETATM   35  C   UNL     1     -10.326  19.450  68.206  1.00  0.00    -0.500 A  
HETATM   36  C   UNL     1     -10.237  19.666  66.833  1.00  0.00    -0.560 A  
HETATM   37  C   UNL     1     -10.105  18.581  65.968  1.00  0.00    -0.309 A  
ENDBRANCH  29  32
ENDBRANCH  26  29
ENDBRANCH   8  25
TORSDOF 7
ENDMDL
MODEL      170
REMARK 921   NORMALIZED FREE ENERGY PREDICTED BY IDOCK:   -5.28 KCAL/MOL
REMARK 922        TOTAL FREE ENERGY PREDICTED BY IDOCK:   -8.42 KCAL/MOL
REMARK 923 INTER-LIGAND FREE ENERGY PREDICTED BY IDOCK:   -7.41 KCAL/MOL
REMARK 924 INTRA-LIGAND FREE ENERGY PREDICTED BY IDOCK:   -1.00 KCAL/MOL
REMARK 927      BINDING AFFINITY PREDICTED BY RF-SCORE:    0.00 PKD
ROOT
HETATM    1  C   UNL     1     -10.037   8.495  68.865  1.00  0.00    -0.203 C  
HETATM    2  S   UNL     1     -10.196   8.905  67.114  1.00  0.00    -0.281 SA 
HETATM    3  C   UNL     1      -9.297   7.445  66.541  1.00  0.00    -0.173 C  
HETATM    4  C   UNL     1      -8.015   7.120  67.302  1.00  0.00    -0.111 C  
HETATM    5  C   UNL     1      -8.661   9.281  70.225  1.00  0.00    -0.219 C  
HETATM    6  CA  UNL     1      -7.715   7.617  68.540  1.00  0.00    -0.119 C  
HETATM    7  C   UNL     1      -6.364   7.318  69.162  1.00  0.00    -0.036 C  
HETATM    8  CA  UNL     1     -10.126   9.709  69.854  1.00  0.00    -0.246 C  
HETATM    9  N   UNL     1      -8.630   8.407  69.197  1.00  0.00    -0.133 N  
HETATM   10  O   UNL     1      -5.930   8.140  70.133  1.00  0.00    -0.026 OA 
HETATM   11  OXT UNL     1      -5.660   6.378  68.817  1.00  0.00    -0.014 OA 
HETATM   12  O   UNL     1      -7.779   9.620  70.980  1.00  0.00    -0.323 OA 
ENDROOT
BRANCH   4  13
HETATM   13  C   UNL     1      -7.044   6.328  66.417  1.00  0.00    -0.068 C  
BRANCH  13  14
HETATM   14  S   UNL     1      -7.832   5.576  64.948  1.00  0.00    -0.111 SA 
BRANCH  14  15
HETATM   15  C   UNL     1      -7.837   3.916  65.446  1.00  0.00    -0.089 A  
HETATM   16  N   UNL     1      -7.012   2.991  65.003  1.00  0.00    -0.051 NA 
HETATM   17  N   UNL     1      -7.328   1.838  65.675  1.00  0.00    -0.056 NA 
HETATM   18  N   UNL     1      -8.665   3.342  66.373  1.00  0.00    -0.120 NA 
HETATM   19  N   UNL     1      -8.324   2.042  66.522  1.00  0.00    -0.089 NA 
BRANCH  18  20
HETATM   20  C   UNL     1      -9.651   3.891  67.258  1.00  0.00    -0.180 C  
HETATM   21  O   UNL     1     -10.139   4.560  69.749  1.00  0.00    -0.229 OA 
HETATM   22  O   UNL     1      -7.835   4.107  69.090  1.00  0.00    -0.057 OA 
HETATM   23  O   UNL     1      -9.403   2.190  69.274  1.00  0.00    -0.126 OA 
HETATM   24  S   UNL     1      -9.368   3.605  68.988  1.00  0.00    -0.160 S  
ENDBRANCH  18  20
ENDBRANCH  14  15
ENDBRANCH  13  14
ENDBRANCH   4  13
BRANCH   8  25
HETATM   25  N   UNL     1     -10.250  11.050  69.231  1.00  0.00    -0.384 N  
HETATM   26  C   UNL     1     -11.448  11.659  68.918  1.00  0.00    -0.287 C  
HETATM   27  H   UNL     1      -9.391  11.557  69.019  1.00  0.00     0.000 HD 
HETATM   28  O   UNL     1     -12.538  11.119  69.075  1.00  0.00    -0.370 OA 
BRANCH  26  29
HETATM   29  C   UNL     1     -11.266  13.092  68.368  1.00  0.00    -0.269 C  
HETATM   30  O   UNL     1     -12.224  13.971  68.976  1.00  0.00    -0.440 OA 
HETATM   31  H   UNL     1     -12.112  14.852  68.639  1.00  0.00     0.000 HD 
BRANCH  29  32
HETATM   32  C   UNL     1     -11.415  13.150  66.862  1.00  0.00    -0.384 A  
HETATM   33  C   UNL     1     -12.022  14.263  66.260  1.00  0.00    -0.428 A  
HETATM   34  C   UNL     1     -10.943  12.116  66.036  1.00  0.00    -0.332 A  
HETATM   35  C   UNL     1     -11.099  12.181  64.651  1.00  0.00    -0.366 A  
HETATM   36  C   UNL     1     -11.721  13.283  64.070  1.00  0.00    -0.483 A  
HETATM   37  C   UNL     1     -12.177  14.326  64.874  1.00  0.00    -0.449 A  
ENDBRANCH  29  32
ENDBRANCH  26  29
ENDBRANCH   8  25
TORSDOF 7
ENDMDL
MODEL      171
REMARK 921   NORMALIZED FREE ENERGY PREDICTED BY IDOCK:   -5.25 KCAL/MOL
REMARK 922        TOTAL FREE ENERGY PREDICTED BY IDOCK:   -8.37 KCAL/MOL
REMARK 923 INTER-LIGAND FREE ENERGY PREDICTED BY IDOCK:   -7.12 KCAL/MOL
REMARK 924 INTRA-LIGAND FREE ENERGY PREDICTED BY IDOCK:   -1.26 KCAL/MOL
REMARK 927      BINDING AFFINITY PREDICTED BY RF-SCORE:    0.00 PKD
ROOT
HETATM    1  C   UNL     1      -9.182  10.608  69.021  1.00  0.00    -0.167 C  
HETATM    2  S   UNL     1      -7.382  10.480  69.077  1.00  0.00    -0.114 SA 
HETATM    3  C   UNL     1      -7.107  12.265  68.993  1.00  0.00    -0.051 C  
HETATM    4  C   UNL     1      -7.950  13.014  67.966  1.00  0.00    -0.155 C  
HETATM    5  C   UNL     1     -10.416  10.334  67.359  1.00  0.00    -0.251 C  
HETATM    6  CA  UNL     1      -9.086  12.509  67.396  1.00  0.00    -0.185 C  
HETATM    7  C   UNL     1      -9.790  13.292  66.303  1.00  0.00    -0.285 C  
HETATM    8  CA  UNL     1      -9.934   9.343  68.478  1.00  0.00    -0.173 C  
HETATM    9  N   UNL     1      -9.564  11.284  67.798  1.00  0.00    -0.171 N  
HETATM   10  O   UNL     1     -10.607  12.614  65.479  1.00  0.00    -0.266 OA 
HETATM   11  OXT UNL     1      -9.639  14.496  66.137  1.00  0.00    -0.298 OA 
HETATM   12  O   UNL     1     -11.123  10.321  66.377  1.00  0.00     0.061 OA 
ENDROOT
BRANCH   4  13
HETATM   13  C   UNL     1      -7.250  14.307  67.527  1.00  0.00    -0.176 C  
BRANCH  13  14
HETATM   14  S   UNL     1      -6.937  15.477  68.898  1.00  0.00    -0.141 SA 
BRANCH  14  15
HETATM   15  C   UNL     1      -8.514  16.181  69.037  1.00  0.00    -0.251 A  
HETATM   16  N   UNL     1      -9.547  15.614  69.621  1.00  0.00    -0.284 NA 
HETATM   17  N   UNL     1     -10.577  16.516  69.547  1.00  0.00    -0.322 NA 
HETATM   18  N   UNL     1      -8.901  17.417  68.591  1.00  0.00    -0.273 NA 
HETATM   19  N   UNL     1     -10.193  17.624  68.932  1.00  0.00    -0.371 NA 
BRANCH  18  20
HETATM   20  C   UNL     1      -8.171  18.506  68.007  1.00  0.00    -0.268 C  
HETATM   21  O   UNL     1      -7.800  19.880  65.801  1.00  0.00    -0.341 OA 
HETATM   22  O   UNL     1      -9.736  18.403  65.948  1.00  0.00    -0.509 OA 
HETATM   23  O   UNL     1      -7.489  17.374  65.711  1.00  0.00    -0.453 OA 
HETATM   24  S   UNL     1      -8.151  18.547  66.232  1.00  0.00    -0.188 S  
ENDBRANCH  18  20
ENDBRANCH  14  15
ENDBRANCH  13  14
ENDBRANCH   4  13
BRANCH   8  25
HETATM   25  N   UNL     1      -9.075   8.229  68.003  1.00  0.00    -0.137 N  
HETATM   26  C   UNL     1      -9.547   7.075  67.414  1.00  0.00    -0.135 C  
HETATM   27  H   UNL     1      -8.067   8.324  68.121  1.00  0.00     0.000 HD 
HETATM   28  O   UNL     1     -10.741   6.830  67.274  1.00  0.00    -0.267 OA 
BRANCH  26  29
HETATM   29  C   UNL     1      -8.413   6.139  66.936  1.00  0.00    -0.105 C  
HETATM   30  O   UNL     1      -8.463   6.004  65.508  1.00  0.00    -0.145 OA 
HETATM   31  H   UNL     1      -7.767   5.429  65.214  1.00  0.00     0.000 HD 
BRANCH  29  32
HETATM   32  C   UNL     1      -8.496   4.769  67.574  1.00  0.00    -0.104 A  
HETATM   33  C   UNL     1      -9.389   3.812  67.067  1.00  0.00    -0.219 A  
HETATM   34  C   UNL     1      -7.683   4.414  68.664  1.00  0.00    -0.071 A  
HETATM   35  C   UNL     1      -7.780   3.150  69.247  1.00  0.00    -0.048 A  
HETATM   36  C   UNL     1      -8.685   2.218  68.745  1.00  0.00    -0.128 A  
HETATM   37  C   UNL     1      -9.485   2.548  67.652  1.00  0.00    -0.128 A  
ENDBRANCH  29  32
ENDBRANCH  26  29
ENDBRANCH   8  25
TORSDOF 7
ENDMDL
MODEL      172
REMARK 921   NORMALIZED FREE ENERGY PREDICTED BY IDOCK:   -5.24 KCAL/MOL
REMARK 922        TOTAL FREE ENERGY PREDICTED BY IDOCK:   -8.35 KCAL/MOL
REMARK 923 INTER-LIGAND FREE ENERGY PREDICTED BY IDOCK:   -8.01 KCAL/MOL
REMARK 924 INTRA-LIGAND FREE ENERGY PREDICTED BY IDOCK:   -0.34 KCAL/MOL
REMARK 927      BINDING AFFINITY PREDICTED BY RF-SCORE:    0.00 PKD
ROOT
HETATM    1  C   UNL     1      -8.434  15.701  69.398  1.00  0.00    -0.244 C  
HETATM    2  S   UNL     1     -10.072  15.962  68.684  1.00  0.00    -0.225 SA 
HETATM    3  C   UNL     1     -10.565  14.228  68.815  1.00  0.00    -0.252 C  
HETATM    4  C   UNL     1      -9.517  13.210  68.378  1.00  0.00    -0.166 C  
HETATM    5  C   UNL     1      -6.627  15.507  68.371  1.00  0.00    -0.117 C  
HETATM    6  CA  UNL     1      -8.185  13.494  68.245  1.00  0.00    -0.157 C  
HETATM    7  C   UNL     1      -7.244  12.437  67.698  1.00  0.00    -0.130 C  
HETATM    8  CA  UNL     1      -7.345  16.756  68.996  1.00  0.00    -0.231 C  
HETATM    9  N   UNL     1      -7.718  14.742  68.583  1.00  0.00    -0.122 N  
HETATM   10  O   UNL     1      -6.077  12.854  67.177  1.00  0.00    -0.304 OA 
HETATM   11  OXT UNL     1      -7.502  11.240  67.703  1.00  0.00    -0.094 OA 
HETATM   12  O   UNL     1      -5.602  15.249  67.782  1.00  0.00    -0.172 OA 
ENDROOT
BRANCH   4  13
HETATM   13  C   UNL     1     -10.183  11.903  67.928  1.00  0.00    -0.193 C  
BRANCH  13  14
HETATM   14  S   UNL     1     -11.727  12.151  66.979  1.00  0.00    -0.233 SA 
BRANCH  14  15
HETATM   15  C   UNL     1     -11.102  11.986  65.371  1.00  0.00    -0.320 A  
HETATM   16  N   UNL     1     -11.198  12.896  64.426  1.00  0.00    -0.331 NA 
HETATM   17  N   UNL     1     -10.544  12.388  63.332  1.00  0.00    -0.411 NA 
HETATM   18  N   UNL     1     -10.408  10.918  64.868  1.00  0.00    -0.308 NA 
HETATM   19  N   UNL     1     -10.047  11.189  63.593  1.00  0.00    -0.343 NA 
BRANCH  18  20
HETATM   20  C   UNL     1      -9.904   9.721  65.476  1.00  0.00    -0.308 C  
HETATM   21  O   UNL     1      -7.791   8.181  65.714  1.00  0.00    -0.088 OA 
HETATM   22  O   UNL     1      -7.511  10.413  64.770  1.00  0.00    -0.130 OA 
HETATM   23  O   UNL     1      -8.641   8.687  63.389  1.00  0.00    -0.131 OA 
HETATM   24  S   UNL     1      -8.413   9.072  64.762  1.00  0.00    -0.174 S  
ENDBRANCH  18  20
ENDBRANCH  14  15
ENDBRANCH  13  14
ENDBRANCH   4  13
BRANCH   8  25
HETATM   25  N   UNL     1      -7.769  17.790  68.019  1.00  0.00    -0.231 N  
HETATM   26  C   UNL     1      -7.333  19.099  68.027  1.00  0.00    -0.256 C  
HETATM   27  H   UNL     1      -8.429  17.515  67.292  1.00  0.00     0.000 HD 
HETATM   28  O   UNL     1      -6.585  19.554  68.887  1.00  0.00    -0.275 OA 
BRANCH  26  29
HETATM   29  C   UNL     1      -7.871  19.917  66.832  1.00  0.00    -0.298 C  
HETATM   30  O   UNL     1      -9.150  19.406  66.428  1.00  0.00    -0.335 OA 
HETATM   31  H   UNL     1      -9.481  19.909  65.694  1.00  0.00     0.000 HD 
BRANCH  29  32
HETATM   32  C   UNL     1      -6.924  19.893  65.650  1.00  0.00    -0.331 A  
HETATM   33  C   UNL     1      -6.107  18.774  65.429  1.00  0.00    -0.298 A  
HETATM   34  C   UNL     1      -6.851  20.965  64.745  1.00  0.00     0.001 A  
HETATM   35  C   UNL     1      -5.965  20.930  63.667  1.00  0.00    -0.341 A  
HETATM   36  C   UNL     1      -5.146  19.822  63.473  1.00  0.00    -0.231 A  
HETATM   37  C   UNL     1      -5.221  18.741  64.350  1.00  0.00    -0.229 A  
ENDBRANCH  29  32
ENDBRANCH  26  29
ENDBRANCH   8  25
TORSDOF 7
ENDMDL
MODEL      173
REMARK 921   NORMALIZED FREE ENERGY PREDICTED BY IDOCK:   -5.23 KCAL/MOL
REMARK 922        TOTAL FREE ENERGY PREDICTED BY IDOCK:   -8.34 KCAL/MOL
REMARK 923 INTER-LIGAND FREE ENERGY PREDICTED BY IDOCK:   -7.31 KCAL/MOL
REMARK 924 INTRA-LIGAND FREE ENERGY PREDICTED BY IDOCK:   -1.03 KCAL/MOL
REMARK 927      BINDING AFFINITY PREDICTED BY RF-SCORE:    0.00 PKD
ROOT
HETATM    1  C   UNL     1      -7.953  10.941  67.861  1.00  0.00    -0.111 C  
HETATM    2  S   UNL     1      -9.755  11.049  67.838  1.00  0.00    -0.176 SA 
HETATM    3  C   UNL     1      -9.808  12.305  66.538  1.00  0.00    -0.229 C  
HETATM    4  C   UNL     1      -8.814  13.452  66.690  1.00  0.00    -0.076 C  
HETATM    5  C   UNL     1      -6.652  11.850  69.218  1.00  0.00    -0.110 C  
HETATM    6  CA  UNL     1      -7.711  13.405  67.497  1.00  0.00    -0.176 C  
HETATM    7  C   UNL     1      -6.847  14.642  67.660  1.00  0.00    -0.183 C  
HETATM    8  CA  UNL     1      -7.324  10.431  69.204  1.00  0.00    -0.102 C  
HETATM    9  N   UNL     1      -7.411  12.247  68.175  1.00  0.00    -0.103 N  
HETATM   10  O   UNL     1      -6.063  14.714  68.749  1.00  0.00    -0.080 OA 
HETATM   11  OXT UNL     1      -6.841  15.566  66.857  1.00  0.00    -0.230 OA 
HETATM   12  O   UNL     1      -5.888  12.487  69.906  1.00  0.00    -0.109 OA 
ENDROOT
BRANCH   4  13
HETATM   13  C   UNL     1      -9.323  14.710  65.974  1.00  0.00    -0.181 C  
BRANCH  13  14
HETATM   14  S   UNL     1     -11.119  14.995  66.173  1.00  0.00    -0.301 SA 
BRANCH  14  15
HETATM   15  C   UNL     1     -11.125  15.671  67.770  1.00  0.00    -0.311 A  
HETATM   16  N   UNL     1     -11.816  15.203  68.786  1.00  0.00    -0.324 NA 
HETATM   17  N   UNL     1     -11.507  15.996  69.861  1.00  0.00    -0.332 NA 
HETATM   18  N   UNL     1     -10.405  16.752  68.203  1.00  0.00    -0.301 NA 
HETATM   19  N   UNL     1     -10.640  16.936  69.522  1.00  0.00    -0.305 NA 
BRANCH  18  20
HETATM   20  C   UNL     1      -9.400  17.559  67.573  1.00  0.00    -0.246 C  
HETATM   21  O   UNL     1      -8.876  19.952  66.629  1.00  0.00    -0.329 OA 
HETATM   22  O   UNL     1     -10.849  19.655  68.033  1.00  0.00    -0.317 OA 
HETATM   23  O   UNL     1     -10.897  18.732  65.728  1.00  0.00    -0.364 OA 
HETATM   24  S   UNL     1      -9.989  19.049  66.806  1.00  0.00    -0.389 S  
ENDBRANCH  18  20
ENDBRANCH  14  15
ENDBRANCH  13  14
ENDBRANCH   4  13
BRANCH   8  25
HETATM   25  N   UNL     1      -8.275  10.175  70.314  1.00  0.00    -0.292 N  
HETATM   26  C   UNL     1      -8.494   8.941  70.888  1.00  0.00    -0.186 C  
HETATM   27  H   UNL     1      -8.804  10.968  70.678  1.00  0.00     0.000 HD 
HETATM   28  O   UNL     1      -7.957   7.911  70.494  1.00  0.00    -0.093 OA 
BRANCH  26  29
HETATM   29  C   UNL     1      -9.469   9.000  72.086  1.00  0.00     0.093 C  
HETATM   30  O   UNL     1      -8.734   8.922  73.317  1.00  0.00    -0.214 OA 
HETATM   31  H   UNL     1      -9.333   8.959  74.053  1.00  0.00     0.000 HD 
BRANCH  29  32
HETATM   32  C   UNL     1     -10.496   7.889  72.043  1.00  0.00    -0.289 A  
HETATM   33  C   UNL     1     -10.376   6.789  72.905  1.00  0.00    -0.245 A  
HETATM   34  C   UNL     1     -11.592   7.934  71.164  1.00  0.00    -0.302 A  
HETATM   35  C   UNL     1     -12.524   6.896  71.131  1.00  0.00    -0.398 A  
HETATM   36  C   UNL     1     -12.380   5.801  71.978  1.00  0.00     0.301 A  
HETATM   37  C   UNL     1     -11.309   5.750  72.869  1.00  0.00    -0.298 A  
ENDBRANCH  29  32
ENDBRANCH  26  29
ENDBRANCH   8  25
TORSDOF 7
ENDMDL
MODEL      174
REMARK 921   NORMALIZED FREE ENERGY PREDICTED BY IDOCK:   -5.23 KCAL/MOL
REMARK 922        TOTAL FREE ENERGY PREDICTED BY IDOCK:   -8.34 KCAL/MOL
REMARK 923 INTER-LIGAND FREE ENERGY PREDICTED BY IDOCK:   -7.29 KCAL/MOL
REMARK 924 INTRA-LIGAND FREE ENERGY PREDICTED BY IDOCK:   -1.05 KCAL/MOL
REMARK 927      BINDING AFFINITY PREDICTED BY RF-SCORE:    0.00 PKD
ROOT
HETATM    1  C   UNL     1      -8.072  10.949  68.468  1.00  0.00    -0.137 C  
HETATM    2  S   UNL     1      -6.750  11.690  67.486  1.00  0.00    -0.108 SA 
HETATM    3  C   UNL     1      -7.055  13.371  68.079  1.00  0.00    -0.125 C  
HETATM    4  C   UNL     1      -8.519  13.796  68.129  1.00  0.00    -0.173 C  
HETATM    5  C   UNL     1      -9.983  10.421  67.815  1.00  0.00    -0.175 C  
HETATM    6  CA  UNL     1      -9.570  12.921  68.103  1.00  0.00    -0.223 C  
HETATM    7  C   UNL     1     -10.989  13.453  68.048  1.00  0.00    -0.244 C  
HETATM    8  CA  UNL     1      -8.649   9.600  67.914  1.00  0.00    -0.122 C  
HETATM    9  N   UNL     1      -9.329  11.567  68.099  1.00  0.00    -0.179 N  
HETATM   10  O   UNL     1     -11.947  12.627  67.592  1.00  0.00    -0.354 OA 
HETATM   11  OXT UNL     1     -11.294  14.590  68.387  1.00  0.00    -0.263 OA 
HETATM   12  O   UNL     1     -11.135  10.249  67.484  1.00  0.00    -0.311 OA 
ENDROOT
BRANCH   4  13
HETATM   13  C   UNL     1      -8.647  15.321  68.019  1.00  0.00    -0.152 C  
BRANCH  13  14
HETATM   14  S   UNL     1      -7.271  16.111  67.109  1.00  0.00    -0.225 SA 
BRANCH  14  15
HETATM   15  C   UNL     1      -7.261  17.657  67.895  1.00  0.00    -0.204 A  
HETATM   16  N   UNL     1      -6.658  17.922  69.033  1.00  0.00    -0.240 NA 
HETATM   17  N   UNL     1      -6.861  19.256  69.276  1.00  0.00    -0.324 NA 
HETATM   18  N   UNL     1      -7.845  18.809  67.441  1.00  0.00    -0.232 NA 
HETATM   19  N   UNL     1      -7.573  19.811  68.308  1.00  0.00    -0.308 NA 
BRANCH  18  20
HETATM   20  C   UNL     1      -8.512  19.136  66.214  1.00  0.00    -0.304 C  
HETATM   21  O   UNL     1     -10.839  19.712  65.143  1.00  0.00    -0.386 OA 
HETATM   22  O   UNL     1     -10.621  19.775  67.572  1.00  0.00    -0.433 OA 
HETATM   23  O   UNL     1     -10.628  17.560  66.449  1.00  0.00    -0.297 OA 
HETATM   24  S   UNL     1     -10.277  18.943  66.229  1.00  0.00    -0.446 S  
ENDBRANCH  18  20
ENDBRANCH  14  15
ENDBRANCH  13  14
ENDBRANCH   4  13
BRANCH   8  25
HETATM   25  N   UNL     1      -8.097   9.138  66.616  1.00  0.00    -0.110 N  
HETATM   26  C   UNL     1      -8.657   8.148  65.836  1.00  0.00    -0.151 C  
HETATM   27  H   UNL     1      -7.244   9.584  66.278  1.00  0.00     0.000 HD 
HETATM   28  O   UNL     1      -9.648   7.507  66.171  1.00  0.00    -0.114 OA 
BRANCH  26  29
HETATM   29  C   UNL     1      -7.915   7.951  64.495  1.00  0.00    -0.140 C  
HETATM   30  O   UNL     1      -8.699   8.492  63.421  1.00  0.00    -0.425 OA 
HETATM   31  H   UNL     1      -8.243   8.371  62.596  1.00  0.00     0.000 HD 
BRANCH  29  32
HETATM   32  C   UNL     1      -7.618   6.493  64.215  1.00  0.00    -0.100 A  
HETATM   33  C   UNL     1      -6.675   5.807  64.995  1.00  0.00    -0.047 A  
HETATM   34  C   UNL     1      -8.280   5.790  63.193  1.00  0.00    -0.084 A  
HETATM   35  C   UNL     1      -7.986   4.449  62.942  1.00  0.00    -0.073 A  
HETATM   36  C   UNL     1      -7.033   3.788  63.712  1.00  0.00    -0.045 A  
HETATM   37  C   UNL     1      -6.382   4.465  64.742  1.00  0.00    -0.034 A  
ENDBRANCH  29  32
ENDBRANCH  26  29
ENDBRANCH   8  25
TORSDOF 7
ENDMDL
MODEL      175
REMARK 921   NORMALIZED FREE ENERGY PREDICTED BY IDOCK:   -5.22 KCAL/MOL
REMARK 922        TOTAL FREE ENERGY PREDICTED BY IDOCK:   -8.32 KCAL/MOL
REMARK 923 INTER-LIGAND FREE ENERGY PREDICTED BY IDOCK:   -7.52 KCAL/MOL
REMARK 924 INTRA-LIGAND FREE ENERGY PREDICTED BY IDOCK:   -0.79 KCAL/MOL
REMARK 927      BINDING AFFINITY PREDICTED BY RF-SCORE:    0.00 PKD
ROOT
HETATM    1  C   UNL     1      -8.378   8.912  66.717  1.00  0.00    -0.111 C  
HETATM    2  S   UNL     1     -10.151   8.940  66.377  1.00  0.00    -0.192 SA 
HETATM    3  C   UNL     1     -10.120  10.563  65.581  1.00  0.00    -0.268 C  
HETATM    4  C   UNL     1      -9.298  11.631  66.296  1.00  0.00    -0.228 C  
HETATM    5  C   UNL     1      -7.433   9.355  68.525  1.00  0.00    -0.080 C  
HETATM    6  CA  UNL     1      -8.349  11.359  67.242  1.00  0.00    -0.149 C  
HETATM    7  C   UNL     1      -7.666  12.501  67.970  1.00  0.00    -0.140 C  
HETATM    8  CA  UNL     1      -7.933   7.999  67.912  1.00  0.00    -0.128 C  
HETATM    9  N   UNL     1      -8.043  10.053  67.544  1.00  0.00    -0.110 N  
HETATM   10  O   UNL     1      -7.090  12.229  69.153  1.00  0.00    -0.086 OA 
HETATM   11  OXT UNL     1      -7.625  13.645  67.535  1.00  0.00    -0.161 OA 
HETATM   12  O   UNL     1      -6.870   9.750  69.521  1.00  0.00    -0.051 OA 
ENDROOT
BRANCH   4  13
HETATM   13  C   UNL     1      -9.814  13.034  65.950  1.00  0.00    -0.237 C  
BRANCH  13  14
HETATM   14  S   UNL     1     -11.636  13.185  66.007  1.00  0.00    -0.372 SA 
BRANCH  14  15
HETATM   15  C   UNL     1     -11.884  12.984  67.711  1.00  0.00    -0.347 A  
HETATM   16  N   UNL     1     -11.934  11.828  68.337  1.00  0.00    -0.490 NA 
HETATM   17  N   UNL     1     -12.104  12.116  69.667  1.00  0.00    -0.256 NA 
HETATM   18  N   UNL     1     -12.035  13.980  68.639  1.00  0.00    -0.362 NA 
HETATM   19  N   UNL     1     -12.154  13.424  69.866  1.00  0.00    -0.332 NA 
BRANCH  18  20
HETATM   20  C   UNL     1     -11.935  15.408  68.548  1.00  0.00    -0.181 C  
HETATM   21  O   UNL     1     -10.466  17.485  69.198  1.00  0.00    -0.347 OA 
HETATM   22  O   UNL     1      -9.498  15.256  69.408  1.00  0.00    -0.235 OA 
HETATM   23  O   UNL     1     -11.233  15.942  71.046  1.00  0.00    -0.349 OA 
HETATM   24  S   UNL     1     -10.803  16.168  69.686  1.00  0.00    -0.359 S  
ENDBRANCH  18  20
ENDBRANCH  14  15
ENDBRANCH  13  14
ENDBRANCH   4  13
BRANCH   8  25
HETATM   25  N   UNL     1      -9.025   7.334  68.665  1.00  0.00    -0.129 N  
HETATM   26  C   UNL     1      -9.192   5.968  68.757  1.00  0.00    -0.123 C  
HETATM   27  H   UNL     1      -9.698   7.928  69.149  1.00  0.00     0.000 HD 
HETATM   28  O   UNL     1      -8.478   5.161  68.170  1.00  0.00    -0.100 OA 
BRANCH  26  29
HETATM   29  C   UNL     1     -10.359   5.568  69.688  1.00  0.00    -0.289 C  
HETATM   30  O   UNL     1     -10.816   6.717  70.417  1.00  0.00    -0.234 OA 
HETATM   31  H   UNL     1     -11.533   6.471  70.990  1.00  0.00     0.000 HD 
BRANCH  29  32
HETATM   32  C   UNL     1      -9.965   4.478  70.663  1.00  0.00    -0.273 A  
HETATM   33  C   UNL     1      -9.803   4.779  72.023  1.00  0.00    -0.234 A  
HETATM   34  C   UNL     1      -9.770   3.151  70.243  1.00  0.00    -0.089 A  
HETATM   35  C   UNL     1      -9.397   2.161  71.153  1.00  0.00    -0.202 A  
HETATM   36  C   UNL     1      -9.220   2.480  72.497  1.00  0.00    -0.128 A  
HETATM   37  C   UNL     1      -9.429   3.788  72.933  1.00  0.00    -0.153 A  
ENDBRANCH  29  32
ENDBRANCH  26  29
ENDBRANCH   8  25
TORSDOF 7
ENDMDL
MODEL      176
REMARK 921   NORMALIZED FREE ENERGY PREDICTED BY IDOCK:   -5.19 KCAL/MOL
REMARK 922        TOTAL FREE ENERGY PREDICTED BY IDOCK:   -8.29 KCAL/MOL
REMARK 923 INTER-LIGAND FREE ENERGY PREDICTED BY IDOCK:   -7.14 KCAL/MOL
REMARK 924 INTRA-LIGAND FREE ENERGY PREDICTED BY IDOCK:   -1.15 KCAL/MOL
REMARK 927      BINDING AFFINITY PREDICTED BY RF-SCORE:    0.00 PKD
ROOT
HETATM    1  C   UNL     1     -10.752   7.548  67.135  1.00  0.00    -0.309 C  
HETATM    2  S   UNL     1     -10.568   8.747  68.472  1.00  0.00    -0.071 SA 
HETATM    3  C   UNL     1     -10.585  10.186  67.379  1.00  0.00    -0.272 C  
HETATM    4  C   UNL     1      -9.733  10.067  66.120  1.00  0.00    -0.286 C  
HETATM    5  C   UNL     1      -9.244   6.410  66.245  1.00  0.00    -0.139 C  
HETATM    6  CA  UNL     1      -9.275   8.880  65.617  1.00  0.00    -0.204 C  
HETATM    7  C   UNL     1      -8.343   8.882  64.419  1.00  0.00    -0.168 C  
HETATM    8  CA  UNL     1     -10.214   6.106  67.442  1.00  0.00    -0.184 C  
HETATM    9  N   UNL     1      -9.642   7.699  66.217  1.00  0.00    -0.136 N  
HETATM   10  O   UNL     1      -7.581   7.793  64.222  1.00  0.00    -0.096 OA 
HETATM   11  OXT UNL     1      -8.250   9.824  63.642  1.00  0.00    -0.136 OA 
HETATM   12  O   UNL     1      -8.362   5.858  65.628  1.00  0.00    -0.130 OA 
ENDROOT
BRANCH   4  13
HETATM   13  C   UNL     1      -9.307  11.453  65.618  1.00  0.00    -0.222 C  
BRANCH  13  14
HETATM   14  S   UNL     1     -10.711  12.551  65.208  1.00  0.00    -0.296 SA 
BRANCH  14  15
HETATM   15  C   UNL     1     -10.086  14.051  65.812  1.00  0.00    -0.327 A  
HETATM   16  N   UNL     1      -9.888  15.133  65.091  1.00  0.00    -0.233 NA 
HETATM   17  N   UNL     1      -9.427  16.094  65.954  1.00  0.00    -0.396 NA 
HETATM   18  N   UNL     1      -9.739  14.330  67.107  1.00  0.00    -0.247 NA 
HETATM   19  N   UNL     1      -9.343  15.621  67.188  1.00  0.00    -0.213 NA 
BRANCH  18  20
HETATM   20  C   UNL     1      -9.868  13.583  68.325  1.00  0.00    -0.233 C  
HETATM   21  O   UNL     1     -11.577  12.716  70.120  1.00  0.00    -0.210 OA 
HETATM   22  O   UNL     1     -12.437  13.573  68.004  1.00  0.00    -0.062 OA 
HETATM   23  O   UNL     1     -11.509  15.195  69.639  1.00  0.00    -0.255 OA 
HETATM   24  S   UNL     1     -11.389  13.822  69.209  1.00  0.00    -0.263 S  
ENDBRANCH  18  20
ENDBRANCH  14  15
ENDBRANCH  13  14
ENDBRANCH   4  13
BRANCH   8  25
HETATM   25  N   UNL     1      -9.552   5.923  68.757  1.00  0.00    -0.125 N  
HETATM   26  C   UNL     1      -9.255   4.699  69.320  1.00  0.00    -0.127 C  
HETATM   27  H   UNL     1      -9.300   6.761  69.282  1.00  0.00     0.000 HD 
HETATM   28  O   UNL     1      -9.564   3.629  68.806  1.00  0.00    -0.163 OA 
BRANCH  26  29
HETATM   29  C   UNL     1      -8.479   4.824  70.651  1.00  0.00    -0.096 C  
HETATM   30  O   UNL     1      -8.245   3.520  71.202  1.00  0.00    -0.065 OA 
HETATM   31  H   UNL     1      -7.768   3.596  72.020  1.00  0.00     0.000 HD 
BRANCH  29  32
HETATM   32  C   UNL     1      -9.217   5.673  71.665  1.00  0.00    -0.157 A  
HETATM   33  C   UNL     1     -10.441   5.233  72.190  1.00  0.00    -0.278 A  
HETATM   34  C   UNL     1      -8.696   6.898  72.116  1.00  0.00    -0.131 A  
HETATM   35  C   UNL     1      -9.395   7.673  73.043  1.00  0.00    -0.265 A  
HETATM   36  C   UNL     1     -10.618   7.232  73.539  1.00  0.00    -0.408 A  
HETATM   37  C   UNL     1     -11.139   6.010  73.117  1.00  0.00    -0.236 A  
ENDBRANCH  29  32
ENDBRANCH  26  29
ENDBRANCH   8  25
TORSDOF 7
ENDMDL
MODEL      177
REMARK 921   NORMALIZED FREE ENERGY PREDICTED BY IDOCK:   -5.18 KCAL/MOL
REMARK 922        TOTAL FREE ENERGY PREDICTED BY IDOCK:   -8.26 KCAL/MOL
REMARK 923 INTER-LIGAND FREE ENERGY PREDICTED BY IDOCK:   -7.35 KCAL/MOL
REMARK 924 INTRA-LIGAND FREE ENERGY PREDICTED BY IDOCK:   -0.91 KCAL/MOL
REMARK 927      BINDING AFFINITY PREDICTED BY RF-SCORE:    0.00 PKD
ROOT
HETATM    1  C   UNL     1     -10.695   8.076  69.659  1.00  0.00    -0.207 C  
HETATM    2  S   UNL     1     -10.346   8.798  68.042  1.00  0.00    -0.205 SA 
HETATM    3  C   UNL     1      -9.034   7.622  67.638  1.00  0.00    -0.127 C  
HETATM    4  C   UNL     1      -8.039   7.337  68.759  1.00  0.00    -0.124 C  
HETATM    5  C   UNL     1     -10.035   8.764  71.516  1.00  0.00    -0.300 C  
HETATM    6  CA  UNL     1      -8.271   7.616  70.077  1.00  0.00    -0.125 C  
HETATM    7  C   UNL     1      -7.171   7.393  71.097  1.00  0.00    -0.071 C  
HETATM    8  CA  UNL     1     -11.349   9.045  70.705  1.00  0.00    -0.277 C  
HETATM    9  N   UNL     1      -9.490   8.123  70.461  1.00  0.00    -0.162 N  
HETATM   10  O   UNL     1      -7.256   8.060  72.261  1.00  0.00    -0.080 OA 
HETATM   11  OXT UNL     1      -6.217   6.649  70.904  1.00  0.00    -0.037 OA 
HETATM   12  O   UNL     1      -9.539   9.067  72.578  1.00  0.00    -0.182 OA 
ENDROOT
BRANCH   4  13
HETATM   13  C   UNL     1      -6.691   6.880  68.184  1.00  0.00    -0.068 C  
BRANCH  13  14
HETATM   14  S   UNL     1      -6.724   5.194  67.478  1.00  0.00    -0.056 SA 
BRANCH  14  15
HETATM   15  C   UNL     1      -6.913   5.591  65.801  1.00  0.00    -0.066 A  
HETATM   16  N   UNL     1      -6.662   6.768  65.270  1.00  0.00    -0.049 NA 
HETATM   17  N   UNL     1      -6.901   6.645  63.925  1.00  0.00    -0.047 NA 
HETATM   18  N   UNL     1      -7.316   4.747  64.801  1.00  0.00    -0.070 NA 
HETATM   19  N   UNL     1      -7.288   5.415  63.625  1.00  0.00    -0.050 NA 
BRANCH  18  20
HETATM   20  C   UNL     1      -7.589   3.339  64.775  1.00  0.00    -0.077 C  
HETATM   21  O   UNL     1      -9.503   1.542  64.786  1.00  0.00    -0.126 OA 
HETATM   22  O   UNL     1     -10.087   3.869  64.345  1.00  0.00    -0.194 OA 
HETATM   23  O   UNL     1      -9.448   3.236  66.660  1.00  0.00    -0.173 OA 
HETATM   24  S   UNL     1      -9.226   2.870  65.280  1.00  0.00    -0.111 S  
ENDBRANCH  18  20
ENDBRANCH  14  15
ENDBRANCH  13  14
ENDBRANCH   4  13
BRANCH   8  25
HETATM   25  N   UNL     1     -11.528  10.452  70.267  1.00  0.00    -0.302 N  
HETATM   26  C   UNL     1     -12.404  11.346  70.847  1.00  0.00    -0.381 C  
HETATM   27  H   UNL     1     -10.964  10.781  69.483  1.00  0.00     0.000 HD 
HETATM   28  O   UNL     1     -13.170  11.045  71.756  1.00  0.00    -0.446 OA 
BRANCH  26  29
HETATM   29  C   UNL     1     -12.301  12.764  70.241  1.00  0.00    -0.204 C  
HETATM   30  O   UNL     1     -10.967  12.994  69.762  1.00  0.00    -0.463 OA 
HETATM   31  H   UNL     1     -10.904  13.865  69.390  1.00  0.00     0.000 HD 
BRANCH  29  32
HETATM   32  C   UNL     1     -12.668  13.841  71.240  1.00  0.00    -0.450 A  
HETATM   33  C   UNL     1     -11.661  14.514  71.948  1.00  0.00    -0.036 A  
HETATM   34  C   UNL     1     -14.006  14.204  71.472  1.00  0.00    -0.366 A  
HETATM   35  C   UNL     1     -14.327  15.191  72.404  1.00  0.00    -0.453 A  
HETATM   36  C   UNL     1     -13.317  15.836  73.113  1.00  0.00    -0.685 A  
HETATM   37  C   UNL     1     -11.984  15.501  72.881  1.00  0.00    -0.575 A  
ENDBRANCH  29  32
ENDBRANCH  26  29
ENDBRANCH   8  25
TORSDOF 7
ENDMDL
MODEL      178
REMARK 921   NORMALIZED FREE ENERGY PREDICTED BY IDOCK:   -5.17 KCAL/MOL
REMARK 922        TOTAL FREE ENERGY PREDICTED BY IDOCK:   -8.26 KCAL/MOL
REMARK 923 INTER-LIGAND FREE ENERGY PREDICTED BY IDOCK:   -8.90 KCAL/MOL
REMARK 924 INTRA-LIGAND FREE ENERGY PREDICTED BY IDOCK:    0.65 KCAL/MOL
REMARK 927      BINDING AFFINITY PREDICTED BY RF-SCORE:    0.00 PKD
ROOT
HETATM    1  C   UNL     1     -10.067   9.964  66.366  1.00  0.00    -0.240 C  
HETATM    2  S   UNL     1     -10.899  10.873  67.685  1.00  0.00    -0.286 SA 
HETATM    3  C   UNL     1     -10.011  12.418  67.378  1.00  0.00    -0.202 C  
HETATM    4  C   UNL     1      -8.508  12.280  67.154  1.00  0.00    -0.184 C  
HETATM    5  C   UNL     1      -8.468   8.637  66.563  1.00  0.00    -0.113 C  
HETATM    6  CA  UNL     1      -7.889  11.105  66.830  1.00  0.00    -0.152 C  
HETATM    7  C   UNL     1      -6.375  11.055  66.737  1.00  0.00    -0.114 C  
HETATM    8  CA  UNL     1     -10.021   8.406  66.544  1.00  0.00    -0.265 C  
HETATM    9  N   UNL     1      -8.641   9.974  66.619  1.00  0.00    -0.125 N  
HETATM   10  O   UNL     1      -5.784   9.854  66.854  1.00  0.00    -0.049 OA 
HETATM   11  OXT UNL     1      -5.680  12.049  66.571  1.00  0.00    -0.272 OA 
HETATM   12  O   UNL     1      -7.453   7.983  66.648  1.00  0.00    -0.086 OA 
ENDROOT
BRANCH   4  13
HETATM   13  C   UNL     1      -7.782  13.579  67.527  1.00  0.00    -0.175 C  
BRANCH  13  14
HETATM   14  S   UNL     1      -8.584  15.086  66.870  1.00  0.00    -0.238 SA 
BRANCH  14  15
HETATM   15  C   UNL     1      -7.815  16.276  67.869  1.00  0.00    -0.145 A  
HETATM   16  N   UNL     1      -6.927  16.018  68.805  1.00  0.00    -0.131 NA 
HETATM   17  N   UNL     1      -6.547  17.231  69.322  1.00  0.00    -0.239 NA 
HETATM   18  N   UNL     1      -7.997  17.632  67.814  1.00  0.00    -0.215 NA 
HETATM   19  N   UNL     1      -7.182  18.223  68.718  1.00  0.00    -0.276 NA 
BRANCH  18  20
HETATM   20  C   UNL     1      -8.734  18.473  66.914  1.00  0.00    -0.286 C  
HETATM   21  O   UNL     1     -10.891  19.948  66.666  1.00  0.00    -0.443 OA 
HETATM   22  O   UNL     1     -10.212  19.236  68.898  1.00  0.00    -0.392 OA 
HETATM   23  O   UNL     1     -11.171  17.535  67.363  1.00  0.00    -0.027 OA 
HETATM   24  S   UNL     1     -10.425  18.772  67.364  1.00  0.00    -0.444 S  
ENDBRANCH  18  20
ENDBRANCH  14  15
ENDBRANCH  13  14
ENDBRANCH   4  13
BRANCH   8  25
HETATM   25  N   UNL     1     -10.593   7.877  67.807  1.00  0.00    -0.398 N  
HETATM   26  C   UNL     1      -9.967   7.935  69.034  1.00  0.00    -0.187 C  
HETATM   27  H   UNL     1     -11.514   7.441  67.764  1.00  0.00     0.000 HD 
HETATM   28  O   UNL     1      -8.837   8.385  69.192  1.00  0.00    -0.140 OA 
BRANCH  26  29
HETATM   29  C   UNL     1     -10.847   7.391  70.182  1.00  0.00    -0.256 C  
HETATM   30  O   UNL     1     -11.692   6.340  69.691  1.00  0.00    -0.522 OA 
HETATM   31  H   UNL     1     -12.233   6.005  70.397  1.00  0.00     0.000 HD 
BRANCH  29  32
HETATM   32  C   UNL     1     -11.702   8.472  70.809  1.00  0.00    -0.228 A  
HETATM   33  C   UNL     1     -11.320   9.818  70.702  1.00  0.00    -0.401 A  
HETATM   34  C   UNL     1     -12.892   8.166  71.490  1.00  0.00    -0.319 A  
HETATM   35  C   UNL     1     -13.663   9.174  72.071  1.00  0.00    -0.508 A  
HETATM   36  C   UNL     1     -13.260  10.503  71.973  1.00  0.00    -0.483 A  
HETATM   37  C   UNL     1     -12.092  10.825  71.284  1.00  0.00    -0.365 A  
ENDBRANCH  29  32
ENDBRANCH  26  29
ENDBRANCH   8  25
TORSDOF 7
ENDMDL
MODEL      179
REMARK 921   NORMALIZED FREE ENERGY PREDICTED BY IDOCK:   -5.16 KCAL/MOL
REMARK 922        TOTAL FREE ENERGY PREDICTED BY IDOCK:   -8.24 KCAL/MOL
REMARK 923 INTER-LIGAND FREE ENERGY PREDICTED BY IDOCK:   -7.99 KCAL/MOL
REMARK 924 INTRA-LIGAND FREE ENERGY PREDICTED BY IDOCK:   -0.25 KCAL/MOL
REMARK 927      BINDING AFFINITY PREDICTED BY RF-SCORE:    0.00 PKD
ROOT
HETATM    1  C   UNL     1      -8.997   7.932  69.348  1.00  0.00    -0.145 C  
HETATM    2  S   UNL     1      -8.727   8.269  67.595  1.00  0.00    -0.133 SA 
HETATM    3  C   UNL     1      -8.764  10.067  67.786  1.00  0.00    -0.125 C  
HETATM    4  C   UNL     1      -9.880  10.611  68.671  1.00  0.00    -0.183 C  
HETATM    5  C   UNL     1     -10.796   7.413  70.270  1.00  0.00    -0.245 C  
HETATM    6  CA  UNL     1     -10.586   9.853  69.564  1.00  0.00    -0.242 C  
HETATM    7  C   UNL     1     -11.750  10.470  70.318  1.00  0.00    -0.332 C  
HETATM    8  CA  UNL     1      -9.635   6.538  69.678  1.00  0.00    -0.147 C  
HETATM    9  N   UNL     1     -10.252   8.533  69.751  1.00  0.00    -0.201 N  
HETATM   10  O   UNL     1     -12.670   9.636  70.832  1.00  0.00    -0.283 OA 
HETATM   11  OXT UNL     1     -11.888  11.677  70.467  1.00  0.00    -0.342 OA 
HETATM   12  O   UNL     1     -11.856   7.256  70.832  1.00  0.00    -0.308 OA 
ENDROOT
BRANCH   4  13
HETATM   13  C   UNL     1     -10.223  12.057  68.286  1.00  0.00    -0.206 C  
BRANCH  13  14
HETATM   14  S   UNL     1     -11.231  12.195  66.766  1.00  0.00    -0.341 SA 
BRANCH  14  15
HETATM   15  C   UNL     1     -10.946  13.862  66.386  1.00  0.00    -0.303 A  
HETATM   16  N   UNL     1     -10.503  14.309  65.231  1.00  0.00    -0.364 NA 
HETATM   17  N   UNL     1     -10.458  15.676  65.337  1.00  0.00    -0.387 NA 
HETATM   18  N   UNL     1     -11.161  14.937  67.207  1.00  0.00    -0.327 NA 
HETATM   19  N   UNL     1     -10.868  16.071  66.531  1.00  0.00    -0.230 NA 
BRANCH  18  20
HETATM   20  C   UNL     1     -11.750  15.055  68.509  1.00  0.00    -0.320 C  
HETATM   21  O   UNL     1     -11.620  16.338  70.796  1.00  0.00    -0.377 OA 
HETATM   22  O   UNL     1     -10.399  17.232  68.883  1.00  0.00    -0.331 OA 
HETATM   23  O   UNL     1      -9.540  15.168  69.965  1.00  0.00    -0.093 OA 
HETATM   24  S   UNL     1     -10.762  15.897  69.720  1.00  0.00    -0.349 S  
ENDBRANCH  18  20
ENDBRANCH  14  15
ENDBRANCH  13  14
ENDBRANCH   4  13
BRANCH   8  25
HETATM   25  N   UNL     1     -10.011   5.701  68.511  1.00  0.00    -0.147 N  
HETATM   26  C   UNL     1      -9.209   4.723  67.960  1.00  0.00    -0.123 C  
HETATM   27  H   UNL     1     -10.925   5.860  68.088  1.00  0.00     0.000 HD 
HETATM   28  O   UNL     1      -8.071   4.486  68.351  1.00  0.00    -0.082 OA 
BRANCH  26  29
HETATM   29  C   UNL     1      -9.906   3.952  66.816  1.00  0.00    -0.079 C  
HETATM   30  O   UNL     1      -9.671   2.544  66.964  1.00  0.00    -0.396 OA 
HETATM   31  H   UNL     1     -10.099   2.069  66.261  1.00  0.00     0.000 HD 
BRANCH  29  32
HETATM   32  C   UNL     1      -9.427   4.399  65.450  1.00  0.00    -0.175 A  
HETATM   33  C   UNL     1      -8.494   5.442  65.341  1.00  0.00    -0.144 A  
HETATM   34  C   UNL     1      -9.883   3.782  64.273  1.00  0.00    -0.186 A  
HETATM   35  C   UNL     1      -9.439   4.215  63.022  1.00  0.00    -0.141 A  
HETATM   36  C   UNL     1      -8.528   5.264  62.930  1.00  0.00    -0.096 A  
HETATM   37  C   UNL     1      -8.052   5.873  64.089  1.00  0.00    -0.110 A  
ENDBRANCH  29  32
ENDBRANCH  26  29
ENDBRANCH   8  25
TORSDOF 7
ENDMDL
MODEL      180
REMARK 921   NORMALIZED FREE ENERGY PREDICTED BY IDOCK:   -5.13 KCAL/MOL
REMARK 922        TOTAL FREE ENERGY PREDICTED BY IDOCK:   -8.20 KCAL/MOL
REMARK 923 INTER-LIGAND FREE ENERGY PREDICTED BY IDOCK:   -7.01 KCAL/MOL
REMARK 924 INTRA-LIGAND FREE ENERGY PREDICTED BY IDOCK:   -1.19 KCAL/MOL
REMARK 927      BINDING AFFINITY PREDICTED BY RF-SCORE:    0.00 PKD
ROOT
HETATM    1  C   UNL     1      -8.719   9.939  68.959  1.00  0.00    -0.151 C  
HETATM    2  S   UNL     1     -10.467   9.782  69.383  1.00  0.00    -0.237 SA 
HETATM    3  C   UNL     1     -10.579   8.046  68.888  1.00  0.00    -0.140 C  
HETATM    4  C   UNL     1      -9.914   7.696  67.561  1.00  0.00    -0.233 C  
HETATM    5  C   UNL     1      -7.912  10.779  67.226  1.00  0.00    -0.117 C  
HETATM    6  CA  UNL     1      -8.985   8.484  66.940  1.00  0.00    -0.143 C  
HETATM    7  C   UNL     1      -8.466   8.095  65.569  1.00  0.00    -0.159 C  
HETATM    8  CA  UNL     1      -8.230  11.394  68.635  1.00  0.00    -0.142 C  
HETATM    9  N   UNL     1      -8.550   9.636  67.553  1.00  0.00    -0.125 N  
HETATM   10  O   UNL     1      -7.918   9.063  64.813  1.00  0.00    -0.115 OA 
HETATM   11  OXT UNL     1      -8.532   6.956  65.124  1.00  0.00    -0.116 OA 
HETATM   12  O   UNL     1      -7.442  11.129  66.167  1.00  0.00    -0.117 OA 
ENDROOT
BRANCH   4  13
HETATM   13  C   UNL     1     -10.565   6.454  66.938  1.00  0.00    -0.309 C  
BRANCH  13  14
HETATM   14  S   UNL     1      -9.814   4.877  67.481  1.00  0.00    -0.155 SA 
BRANCH  14  15
HETATM   15  C   UNL     1      -9.920   3.985  65.999  1.00  0.00    -0.124 A  
HETATM   16  N   UNL     1     -10.746   4.256  65.011  1.00  0.00    -0.200 NA 
HETATM   17  N   UNL     1     -10.479   3.343  64.023  1.00  0.00    -0.228 NA 
HETATM   18  N   UNL     1      -9.157   2.908  65.635  1.00  0.00    -0.146 NA 
HETATM   19  N   UNL     1      -9.505   2.524  64.386  1.00  0.00    -0.141 NA 
BRANCH  18  20
HETATM   20  C   UNL     1      -8.030   2.270  66.252  1.00  0.00    -0.081 C  
HETATM   21  O   UNL     1      -5.445   2.455  66.670  1.00  0.00    -0.015 OA 
HETATM   22  O   UNL     1      -6.640   4.416  65.847  1.00  0.00    -0.042 OA 
HETATM   23  O   UNL     1      -6.274   2.520  64.285  1.00  0.00    -0.017 OA 
HETATM   24  S   UNL     1      -6.439   2.820  65.688  1.00  0.00    -0.028 S  
ENDBRANCH  18  20
ENDBRANCH  14  15
ENDBRANCH  13  14
ENDBRANCH   4  13
BRANCH   8  25
HETATM   25  N   UNL     1      -9.275  12.449  68.639  1.00  0.00    -0.399 N  
HETATM   26  C   UNL     1      -9.036  13.787  68.409  1.00  0.00    -0.175 C  
HETATM   27  H   UNL     1     -10.237  12.163  68.825  1.00  0.00     0.000 HD 
HETATM   28  O   UNL     1      -7.914  14.250  68.232  1.00  0.00    -0.124 OA 
BRANCH  26  29
HETATM   29  C   UNL     1     -10.331  14.631  68.381  1.00  0.00    -0.237 C  
HETATM   30  O   UNL     1     -11.284  14.091  69.309  1.00  0.00    -0.254 OA 
HETATM   31  H   UNL     1     -12.080  14.609  69.292  1.00  0.00     0.000 HD 
BRANCH  29  32
HETATM   32  C   UNL     1     -10.949  14.684  67.000  1.00  0.00    -0.317 A  
HETATM   33  C   UNL     1     -10.454  15.584  66.044  1.00  0.00    -0.335 A  
HETATM   34  C   UNL     1     -12.008  13.836  66.635  1.00  0.00    -0.469 A  
HETATM   35  C   UNL     1     -12.573  13.906  65.361  1.00  0.00    -0.538 A  
HETATM   36  C   UNL     1     -12.084  14.818  64.430  1.00  0.00    -0.457 A  
HETATM   37  C   UNL     1     -11.020  15.653  64.770  1.00  0.00    -0.418 A  
ENDBRANCH  29  32
ENDBRANCH  26  29
ENDBRANCH   8  25
TORSDOF 7
ENDMDL
MODEL      181
REMARK 921   NORMALIZED FREE ENERGY PREDICTED BY IDOCK:   -5.11 KCAL/MOL
REMARK 922        TOTAL FREE ENERGY PREDICTED BY IDOCK:   -8.17 KCAL/MOL
REMARK 923 INTER-LIGAND FREE ENERGY PREDICTED BY IDOCK:   -7.13 KCAL/MOL
REMARK 924 INTRA-LIGAND FREE ENERGY PREDICTED BY IDOCK:   -1.04 KCAL/MOL
REMARK 927      BINDING AFFINITY PREDICTED BY RF-SCORE:    0.00 PKD
ROOT
HETATM    1  C   UNL     1      -8.358  13.596  67.108  1.00  0.00    -0.137 C  
HETATM    2  S   UNL     1      -7.799  12.695  68.569  1.00  0.00    -0.062 SA 
HETATM    3  C   UNL     1      -7.012  11.366  67.627  1.00  0.00    -0.081 C  
HETATM    4  C   UNL     1      -7.824  10.820  66.457  1.00  0.00    -0.145 C  
HETATM    5  C   UNL     1     -10.270  13.578  66.270  1.00  0.00    -0.299 C  
HETATM    6  CA  UNL     1      -8.882  11.474  65.889  1.00  0.00    -0.105 C  
HETATM    7  C   UNL     1      -9.689  10.792  64.800  1.00  0.00    -0.283 C  
HETATM    8  CA  UNL     1      -9.600  14.529  67.324  1.00  0.00    -0.226 C  
HETATM    9  N   UNL     1      -9.221  12.732  66.328  1.00  0.00    -0.150 N  
HETATM   10  O   UNL     1     -10.936  11.242  64.576  1.00  0.00    -0.310 OA 
HETATM   11  OXT UNL     1      -9.263   9.857  64.134  1.00  0.00    -0.250 OA 
HETATM   12  O   UNL     1     -11.329  13.460  65.695  1.00  0.00    -0.296 OA 
ENDROOT
BRANCH   4  13
HETATM   13  C   UNL     1      -7.416   9.374  66.142  1.00  0.00    -0.096 C  
BRANCH  13  14
HETATM   14  S   UNL     1      -6.674   8.492  67.562  1.00  0.00    -0.063 SA 
BRANCH  14  15
HETATM   15  C   UNL     1      -8.081   7.671  68.154  1.00  0.00    -0.124 A  
HETATM   16  N   UNL     1      -9.208   8.256  68.501  1.00  0.00    -0.136 NA 
HETATM   17  N   UNL     1     -10.066   7.253  68.870  1.00  0.00    -0.175 NA 
HETATM   18  N   UNL     1      -8.233   6.320  68.318  1.00  0.00    -0.115 NA 
HETATM   19  N   UNL     1      -9.489   6.068  68.752  1.00  0.00    -0.124 NA 
BRANCH  18  20
HETATM   20  C   UNL     1      -7.394   5.206  67.981  1.00  0.00    -0.075 C  
HETATM   21  O   UNL     1      -5.687   3.459  68.942  1.00  0.00    -0.020 OA 
HETATM   22  O   UNL     1      -7.035   4.760  70.505  1.00  0.00    -0.036 OA 
HETATM   23  O   UNL     1      -5.203   5.915  69.289  1.00  0.00    -0.004 OA 
HETATM   24  S   UNL     1      -6.131   4.815  69.166  1.00  0.00    -0.030 S  
ENDBRANCH  18  20
ENDBRANCH  14  15
ENDBRANCH  13  14
ENDBRANCH   4  13
BRANCH   8  25
HETATM   25  N   UNL     1     -10.211  14.499  68.676  1.00  0.00    -0.238 N  
HETATM   26  C   UNL     1     -11.432  15.056  68.996  1.00  0.00    -0.304 C  
HETATM   27  H   UNL     1      -9.692  14.034  69.421  1.00  0.00     0.000 HD 
HETATM   28  O   UNL     1     -12.114  15.687  68.195  1.00  0.00    -0.088 OA 
BRANCH  26  29
HETATM   29  C   UNL     1     -11.851  14.783  70.458  1.00  0.00    -0.302 C  
HETATM   30  O   UNL     1     -10.793  15.170  71.348  1.00  0.00    -0.538 OA 
HETATM   31  H   UNL     1     -11.050  15.002  72.247  1.00  0.00     0.000 HD 
BRANCH  29  32
HETATM   32  C   UNL     1     -12.196  13.327  70.691  1.00  0.00    -0.417 A  
HETATM   33  C   UNL     1     -12.804  12.934  71.894  1.00  0.00    -0.315 A  
HETATM   34  C   UNL     1     -11.938  12.345  69.720  1.00  0.00    -0.359 A  
HETATM   35  C   UNL     1     -12.253  11.006  69.956  1.00  0.00    -0.418 A  
HETATM   36  C   UNL     1     -12.838  10.629  71.162  1.00  0.00    -0.518 A  
HETATM   37  C   UNL     1     -13.118  11.594  72.128  1.00  0.00    -0.290 A  
ENDBRANCH  29  32
ENDBRANCH  26  29
ENDBRANCH   8  25
TORSDOF 7
ENDMDL
MODEL      182
REMARK 921   NORMALIZED FREE ENERGY PREDICTED BY IDOCK:   -5.09 KCAL/MOL
REMARK 922        TOTAL FREE ENERGY PREDICTED BY IDOCK:   -8.14 KCAL/MOL
REMARK 923 INTER-LIGAND FREE ENERGY PREDICTED BY IDOCK:   -7.15 KCAL/MOL
REMARK 924 INTRA-LIGAND FREE ENERGY PREDICTED BY IDOCK:   -0.99 KCAL/MOL
REMARK 927      BINDING AFFINITY PREDICTED BY RF-SCORE:    0.00 PKD
ROOT
HETATM    1  C   UNL     1     -10.733   7.787  70.185  1.00  0.00    -0.240 C  
HETATM    2  S   UNL     1     -10.415   8.118  68.439  1.00  0.00    -0.115 SA 
HETATM    3  C   UNL     1      -9.661   6.505  68.122  1.00  0.00    -0.126 C  
HETATM    4  C   UNL     1      -8.661   6.029  69.171  1.00  0.00    -0.120 C  
HETATM    5  C   UNL     1      -9.598   8.426  71.817  1.00  0.00    -0.234 C  
HETATM    6  CA  UNL     1      -8.577   6.543  70.435  1.00  0.00    -0.146 C  
HETATM    7  C   UNL     1      -7.474   6.072  71.365  1.00  0.00    -0.093 C  
HETATM    8  CA  UNL     1     -10.847   9.054  71.103  1.00  0.00    -0.294 C  
HETATM    9  N   UNL     1      -9.475   7.500  70.843  1.00  0.00    -0.165 N  
HETATM   10  O   UNL     1      -7.145   6.871  72.395  1.00  0.00    -0.069 OA 
HETATM   11  OXT UNL     1      -6.873   5.016  71.213  1.00  0.00    -0.038 OA 
HETATM   12  O   UNL     1      -8.871   8.666  72.754  1.00  0.00    -0.374 OA 
ENDROOT
BRANCH   4  13
HETATM   13  C   UNL     1      -7.656   5.047  68.556  1.00  0.00    -0.078 C  
BRANCH  13  14
HETATM   14  S   UNL     1      -8.432   3.729  67.552  1.00  0.00    -0.098 SA 
BRANCH  14  15
HETATM   15  C   UNL     1      -7.546   3.937  66.076  1.00  0.00    -0.089 A  
HETATM   16  N   UNL     1      -6.235   3.929  65.974  1.00  0.00    -0.031 NA 
HETATM   17  N   UNL     1      -5.950   4.084  64.641  1.00  0.00    -0.021 NA 
HETATM   18  N   UNL     1      -8.072   4.109  64.823  1.00  0.00    -0.093 NA 
HETATM   19  N   UNL     1      -7.061   4.183  63.928  1.00  0.00    -0.046 NA 
BRANCH  18  20
HETATM   20  C   UNL     1      -9.417   4.068  64.326  1.00  0.00    -0.162 C  
HETATM   21  O   UNL     1     -11.328   2.476  63.486  1.00  0.00    -0.289 OA 
HETATM   22  O   UNL     1      -9.419   1.500  64.649  1.00  0.00    -0.134 OA 
HETATM   23  O   UNL     1      -9.080   2.348  62.339  1.00  0.00    -0.080 OA 
HETATM   24  S   UNL     1      -9.886   2.558  63.519  1.00  0.00    -0.131 S  
ENDBRANCH  18  20
ENDBRANCH  14  15
ENDBRANCH  13  14
ENDBRANCH   4  13
BRANCH   8  25
HETATM   25  N   UNL     1     -10.603  10.361  70.443  1.00  0.00    -0.437 N  
HETATM   26  C   UNL     1     -11.594  11.218  70.014  1.00  0.00    -0.321 C  
HETATM   27  H   UNL     1      -9.634  10.645  70.297  1.00  0.00     0.000 HD 
HETATM   28  O   UNL     1     -12.790  10.954  70.087  1.00  0.00    -0.244 OA 
BRANCH  26  29
HETATM   29  C   UNL     1     -11.037  12.546  69.453  1.00  0.00    -0.079 C  
HETATM   30  O   UNL     1     -11.571  13.651  70.197  1.00  0.00    -0.452 OA 
HETATM   31  H   UNL     1     -11.229  14.468  69.852  1.00  0.00     0.000 HD 
BRANCH  29  32
HETATM   32  C   UNL     1     -11.361  12.727  67.984  1.00  0.00    -0.335 A  
HETATM   33  C   UNL     1     -11.895  13.941  67.528  1.00  0.00    -0.431 A  
HETATM   34  C   UNL     1     -11.123  11.706  67.048  1.00  0.00    -0.359 A  
HETATM   35  C   UNL     1     -11.437  11.885  65.700  1.00  0.00    -0.314 A  
HETATM   36  C   UNL     1     -11.986  13.089  65.266  1.00  0.00    -0.446 A  
HETATM   37  C   UNL     1     -12.209  14.119  66.179  1.00  0.00    -0.465 A  
ENDBRANCH  29  32
ENDBRANCH  26  29
ENDBRANCH   8  25
TORSDOF 7
ENDMDL
MODEL      183
REMARK 921   NORMALIZED FREE ENERGY PREDICTED BY IDOCK:   -5.08 KCAL/MOL
REMARK 922        TOTAL FREE ENERGY PREDICTED BY IDOCK:   -8.13 KCAL/MOL
REMARK 923 INTER-LIGAND FREE ENERGY PREDICTED BY IDOCK:   -7.46 KCAL/MOL
REMARK 924 INTRA-LIGAND FREE ENERGY PREDICTED BY IDOCK:   -0.67 KCAL/MOL
REMARK 927      BINDING AFFINITY PREDICTED BY RF-SCORE:    0.00 PKD
ROOT
HETATM    1  C   UNL     1      -6.545  12.771  68.009  1.00  0.00    -0.101 C  
HETATM    2  S   UNL     1      -8.137  11.990  67.670  1.00  0.00    -0.167 SA 
HETATM    3  C   UNL     1      -8.728  13.323  66.600  1.00  0.00     0.001 C  
HETATM    4  C   UNL     1      -8.482  14.737  67.116  1.00  0.00    -0.247 C  
HETATM    5  C   UNL     1      -6.009  13.855  69.710  1.00  0.00    -0.124 C  
HETATM    6  CA  UNL     1      -7.579  15.048  68.095  1.00  0.00    -0.111 C  
HETATM    7  C   UNL     1      -7.491  16.472  68.610  1.00  0.00    -0.202 C  
HETATM    8  CA  UNL     1      -5.851  12.336  69.346  1.00  0.00    -0.092 C  
HETATM    9  N   UNL     1      -6.780  14.062  68.622  1.00  0.00    -0.089 N  
HETATM   10  O   UNL     1      -6.945  16.663  69.823  1.00  0.00    -0.099 OA 
HETATM   11  OXT UNL     1      -7.899  17.440  67.981  1.00  0.00    -0.196 OA 
HETATM   12  O   UNL     1      -5.738  14.604  70.621  1.00  0.00    -0.143 OA 
ENDROOT
BRANCH   4  13
HETATM   13  C   UNL     1      -9.509  15.715  66.528  1.00  0.00    -0.274 C  
BRANCH  13  14
HETATM   14  S   UNL     1     -10.972  15.975  67.594  1.00  0.00    -0.239 SA 
BRANCH  14  15
HETATM   15  C   UNL     1     -11.366  14.324  67.945  1.00  0.00    -0.297 A  
HETATM   16  N   UNL     1     -11.076  13.699  69.065  1.00  0.00    -0.257 NA 
HETATM   17  N   UNL     1     -11.595  12.435  68.948  1.00  0.00    -0.293 NA 
HETATM   18  N   UNL     1     -12.047  13.455  67.134  1.00  0.00    -0.352 NA 
HETATM   19  N   UNL     1     -12.200  12.278  67.781  1.00  0.00    -0.333 NA 
BRANCH  18  20
HETATM   20  C   UNL     1     -12.709  13.627  65.873  1.00  0.00    -0.372 C  
HETATM   21  O   UNL     1     -12.643  12.985  63.329  1.00  0.00    -0.696 OA 
HETATM   22  O   UNL     1     -11.249  11.730  64.888  1.00  0.00    -0.309 OA 
HETATM   23  O   UNL     1     -10.593  14.061  64.340  1.00  0.00    -0.382 OA 
HETATM   24  S   UNL     1     -11.749  13.201  64.442  1.00  0.00    -0.404 S  
ENDBRANCH  18  20
ENDBRANCH  14  15
ENDBRANCH  13  14
ENDBRANCH   4  13
BRANCH   8  25
HETATM   25  N   UNL     1      -6.618  11.400  70.205  1.00  0.00    -0.286 N  
HETATM   26  C   UNL     1      -6.493  10.027  70.172  1.00  0.00    -0.107 C  
HETATM   27  H   UNL     1      -7.284  11.800  70.866  1.00  0.00     0.000 HD 
HETATM   28  O   UNL     1      -5.767   9.436  69.380  1.00  0.00    -0.035 OA 
BRANCH  26  29
HETATM   29  C   UNL     1      -7.349   9.321  71.248  1.00  0.00     0.033 C  
HETATM   30  O   UNL     1      -6.583   8.282  71.875  1.00  0.00    -0.055 OA 
HETATM   31  H   UNL     1      -7.108   7.848  72.536  1.00  0.00     0.000 HD 
BRANCH  29  32
HETATM   32  C   UNL     1      -8.619   8.731  70.672  1.00  0.00    -0.203 A  
HETATM   33  C   UNL     1      -9.800   9.488  70.658  1.00  0.00    -0.328 A  
HETATM   34  C   UNL     1      -8.647   7.436  70.128  1.00  0.00    -0.139 A  
HETATM   35  C   UNL     1      -9.830   6.904  69.611  1.00  0.00    -0.171 A  
HETATM   36  C   UNL     1     -10.998   7.660  69.622  1.00  0.00    -0.145 A  
HETATM   37  C   UNL     1     -10.982   8.954  70.140  1.00  0.00    -0.245 A  
ENDBRANCH  29  32
ENDBRANCH  26  29
ENDBRANCH   8  25
TORSDOF 7
ENDMDL
MODEL      184
REMARK 921   NORMALIZED FREE ENERGY PREDICTED BY IDOCK:   -5.07 KCAL/MOL
REMARK 922        TOTAL FREE ENERGY PREDICTED BY IDOCK:   -8.11 KCAL/MOL
REMARK 923 INTER-LIGAND FREE ENERGY PREDICTED BY IDOCK:   -7.10 KCAL/MOL
REMARK 924 INTRA-LIGAND FREE ENERGY PREDICTED BY IDOCK:   -1.01 KCAL/MOL
REMARK 927      BINDING AFFINITY PREDICTED BY RF-SCORE:    0.00 PKD
ROOT
HETATM    1  C   UNL     1      -8.396  10.352  69.067  1.00  0.00    -0.150 C  
HETATM    2  S   UNL     1      -9.639   9.861  70.281  1.00  0.00    -0.017 SA 
HETATM    3  C   UNL     1      -9.201   8.107  70.234  1.00  0.00    -0.151 C  
HETATM    4  C   UNL     1      -8.984   7.520  68.843  1.00  0.00    -0.134 C  
HETATM    5  C   UNL     1      -8.696  10.725  67.035  1.00  0.00    -0.136 C  
HETATM    6  CA  UNL     1      -8.756   8.271  67.724  1.00  0.00    -0.134 C  
HETATM    7  C   UNL     1      -8.661   7.592  66.370  1.00  0.00    -0.145 C  
HETATM    8  CA  UNL     1      -8.702  11.676  68.284  1.00  0.00    -0.163 C  
HETATM    9  N   UNL     1      -8.642   9.637  67.832  1.00  0.00    -0.122 N  
HETATM   10  O   UNL     1      -8.875   8.347  65.279  1.00  0.00    -0.160 OA 
HETATM   11  OXT UNL     1      -8.411   6.401  66.233  1.00  0.00    -0.120 OA 
HETATM   12  O   UNL     1      -8.832  10.800  65.835  1.00  0.00    -0.168 OA 
ENDROOT
BRANCH   4  13
HETATM   13  C   UNL     1      -9.246   6.008  68.846  1.00  0.00    -0.124 C  
BRANCH  13  14
HETATM   14  S   UNL     1      -7.773   5.005  69.260  1.00  0.00    -0.076 SA 
BRANCH  14  15
HETATM   15  C   UNL     1      -8.504   3.435  69.315  1.00  0.00    -0.062 A  
HETATM   16  N   UNL     1      -8.992   2.791  68.277  1.00  0.00    -0.129 NA 
HETATM   17  N   UNL     1      -9.434   1.581  68.745  1.00  0.00    -0.160 NA 
HETATM   18  N   UNL     1      -8.652   2.639  70.420  1.00  0.00    -0.053 NA 
HETATM   19  N   UNL     1      -9.221   1.471  70.047  1.00  0.00    -0.091 NA 
BRANCH  18  20
HETATM   20  C   UNL     1      -8.193   2.770  71.773  1.00  0.00    -0.057 C  
HETATM   21  O   UNL     1      -8.928   3.370  74.221  1.00  0.00    -0.086 OA 
HETATM   22  O   UNL     1     -10.656   2.947  72.551  1.00  0.00    -0.112 OA 
HETATM   23  O   UNL     1      -9.365   5.063  72.396  1.00  0.00    -0.135 OA 
HETATM   24  S   UNL     1      -9.256   3.697  72.852  1.00  0.00    -0.100 S  
ENDBRANCH  18  20
ENDBRANCH  14  15
ENDBRANCH  13  14
ENDBRANCH   4  13
BRANCH   8  25
HETATM   25  N   UNL     1     -10.007  12.320  68.577  1.00  0.00    -0.309 N  
HETATM   26  C   UNL     1     -10.240  13.678  68.517  1.00  0.00    -0.234 C  
HETATM   27  H   UNL     1     -10.785  11.716  68.842  1.00  0.00     0.000 HD 
HETATM   28  O   UNL     1      -9.365  14.500  68.267  1.00  0.00    -0.190 OA 
BRANCH  26  29
HETATM   29  C   UNL     1     -11.718  14.045  68.781  1.00  0.00    -0.353 C  
HETATM   30  O   UNL     1     -12.108  15.132  67.929  1.00  0.00    -0.484 OA 
HETATM   31  H   UNL     1     -13.017  15.358  68.091  1.00  0.00     0.000 HD 
BRANCH  29  32
HETATM   32  C   UNL     1     -11.964  14.424  70.226  1.00  0.00    -0.388 A  
HETATM   33  C   UNL     1     -12.717  13.579  71.054  1.00  0.00    -0.399 A  
HETATM   34  C   UNL     1     -11.439  15.607  70.775  1.00  0.00    -0.409 A  
HETATM   35  C   UNL     1     -11.685  15.946  72.106  1.00  0.00    -0.586 A  
HETATM   36  C   UNL     1     -12.451  15.107  72.910  1.00  0.00    -0.507 A  
HETATM   37  C   UNL     1     -12.963  13.921  72.386  1.00  0.00    -0.457 A  
ENDBRANCH  29  32
ENDBRANCH  26  29
ENDBRANCH   8  25
TORSDOF 7
ENDMDL
MODEL      185
REMARK 921   NORMALIZED FREE ENERGY PREDICTED BY IDOCK:   -5.04 KCAL/MOL
REMARK 922        TOTAL FREE ENERGY PREDICTED BY IDOCK:   -8.08 KCAL/MOL
REMARK 923 INTER-LIGAND FREE ENERGY PREDICTED BY IDOCK:   -6.51 KCAL/MOL
REMARK 924 INTRA-LIGAND FREE ENERGY PREDICTED BY IDOCK:   -1.57 KCAL/MOL
REMARK 927      BINDING AFFINITY PREDICTED BY RF-SCORE:    0.00 PKD
ROOT
HETATM    1  C   UNL     1      -7.479   9.249  68.488  1.00  0.00    -0.081 C  
HETATM    2  S   UNL     1      -8.165  10.102  69.924  1.00  0.00    -0.021 SA 
HETATM    3  C   UNL     1      -7.284   9.083  71.131  1.00  0.00    -0.097 C  
HETATM    4  C   UNL     1      -7.290   7.583  70.855  1.00  0.00    -0.068 C  
HETATM    5  C   UNL     1      -8.401   7.769  67.340  1.00  0.00    -0.123 C  
HETATM    6  CA  UNL     1      -7.588   7.030  69.640  1.00  0.00    -0.104 C  
HETATM    7  C   UNL     1      -7.672   5.522  69.502  1.00  0.00    -0.082 C  
HETATM    8  CA  UNL     1      -8.339   9.330  67.179  1.00  0.00    -0.124 C  
HETATM    9  N   UNL     1      -7.836   7.847  68.562  1.00  0.00    -0.117 N  
HETATM   10  O   UNL     1      -8.370   5.030  68.464  1.00  0.00    -0.088 OA 
HETATM   11  OXT UNL     1      -7.145   4.745  70.289  1.00  0.00    -0.047 OA 
HETATM   12  O   UNL     1      -8.867   6.814  66.761  1.00  0.00    -0.116 OA 
ENDROOT
BRANCH   4  13
HETATM   13  C   UNL     1      -7.109   6.791  72.157  1.00  0.00    -0.075 C  
BRANCH  13  14
HETATM   14  S   UNL     1      -8.186   7.360  73.521  1.00  0.00    -0.144 SA 
BRANCH  14  15
HETATM   15  C   UNL     1      -9.408   6.132  73.451  1.00  0.00    -0.134 A  
HETATM   16  N   UNL     1      -9.591   5.195  74.356  1.00  0.00    -0.134 NA 
HETATM   17  N   UNL     1     -10.674   4.464  73.941  1.00  0.00    -0.252 NA 
HETATM   18  N   UNL     1     -10.357   5.977  72.476  1.00  0.00    -0.190 NA 
HETATM   19  N   UNL     1     -11.158   4.937  72.804  1.00  0.00    -0.230 NA 
BRANCH  18  20
HETATM   20  C   UNL     1     -10.710   6.773  71.336  1.00  0.00    -0.224 C  
HETATM   21  O   UNL     1     -12.193   8.779  70.518  1.00  0.00    -0.028 OA 
HETATM   22  O   UNL     1     -11.906   8.440  72.917  1.00  0.00    -0.298 OA 
HETATM   23  O   UNL     1     -13.338   6.841  71.667  1.00  0.00    -0.293 OA 
HETATM   24  S   UNL     1     -12.204   7.720  71.500  1.00  0.00    -0.328 S  
ENDBRANCH  18  20
ENDBRANCH  14  15
ENDBRANCH  13  14
ENDBRANCH   4  13
BRANCH   8  25
HETATM   25  N   UNL     1      -9.644  10.026  67.299  1.00  0.00    -0.153 N  
HETATM   26  C   UNL     1      -9.880  11.321  66.888  1.00  0.00    -0.193 C  
HETATM   27  H   UNL     1     -10.421   9.511  67.714  1.00  0.00     0.000 HD 
HETATM   28  O   UNL     1      -9.008  12.051  66.428  1.00  0.00    -0.203 OA 
BRANCH  26  29
HETATM   29  C   UNL     1     -11.358  11.742  67.051  1.00  0.00    -0.321 C  
HETATM   30  O   UNL     1     -11.774  12.514  65.914  1.00  0.00    -0.385 OA 
HETATM   31  H   UNL     1     -12.682  12.773  66.015  1.00  0.00     0.000 HD 
BRANCH  29  32
HETATM   32  C   UNL     1     -11.588  12.545  68.314  1.00  0.00    -0.376 A  
HETATM   33  C   UNL     1     -12.260  11.967  69.401  1.00  0.00    -0.185 A  
HETATM   34  C   UNL     1     -11.126  13.867  68.440  1.00  0.00    -0.278 A  
HETATM   35  C   UNL     1     -11.356  14.596  69.607  1.00  0.00    -0.317 A  
HETATM   36  C   UNL     1     -12.042  14.014  70.669  1.00  0.00    -0.424 A  
HETATM   37  C   UNL     1     -12.490  12.698  70.568  1.00  0.00    -0.273 A  
ENDBRANCH  29  32
ENDBRANCH  26  29
ENDBRANCH   8  25
TORSDOF 7
ENDMDL
MODEL      186
REMARK 921   NORMALIZED FREE ENERGY PREDICTED BY IDOCK:   -5.00 KCAL/MOL
REMARK 922        TOTAL FREE ENERGY PREDICTED BY IDOCK:   -8.01 KCAL/MOL
REMARK 923 INTER-LIGAND FREE ENERGY PREDICTED BY IDOCK:   -7.28 KCAL/MOL
REMARK 924 INTRA-LIGAND FREE ENERGY PREDICTED BY IDOCK:   -0.73 KCAL/MOL
REMARK 927      BINDING AFFINITY PREDICTED BY RF-SCORE:    0.00 PKD
ROOT
HETATM    1  C   UNL     1     -11.345  11.416  66.754  1.00  0.00    -0.179 C  
HETATM    2  S   UNL     1      -9.836  10.966  65.870  1.00  0.00    -0.249 SA 
HETATM    3  C   UNL     1      -9.980   9.199  66.228  1.00  0.00    -0.282 C  
HETATM    4  C   UNL     1     -10.351   8.847  67.665  1.00  0.00    -0.313 C  
HETATM    5  C   UNL     1     -11.491  12.209  68.680  1.00  0.00    -0.296 C  
HETATM    6  CA  UNL     1     -10.902   9.732  68.551  1.00  0.00    -0.188 C  
HETATM    7  C   UNL     1     -11.132   9.308  69.990  1.00  0.00    -0.205 C  
HETATM    8  CA  UNL     1     -11.411  12.895  67.270  1.00  0.00    -0.310 C  
HETATM    9  N   UNL     1     -11.217  11.004  68.137  1.00  0.00    -0.277 N  
HETATM   10  O   UNL     1     -11.250  10.278  70.913  1.00  0.00    -0.336 OA 
HETATM   11  OXT UNL     1     -11.203   8.138  70.342  1.00  0.00    -0.264 OA 
HETATM   12  O   UNL     1     -11.593  12.529  69.842  1.00  0.00    -0.255 OA 
ENDROOT
BRANCH   4  13
HETATM   13  C   UNL     1      -9.848   7.443  68.027  1.00  0.00    -0.148 C  
BRANCH  13  14
HETATM   14  S   UNL     1      -8.111   7.135  67.544  1.00  0.00    -0.114 SA 
BRANCH  14  15
HETATM   15  C   UNL     1      -8.034   5.428  67.833  1.00  0.00    -0.096 A  
HETATM   16  N   UNL     1      -8.630   4.801  68.825  1.00  0.00    -0.088 NA 
HETATM   17  N   UNL     1      -8.348   3.469  68.665  1.00  0.00    -0.075 NA 
HETATM   18  N   UNL     1      -7.378   4.498  67.072  1.00  0.00    -0.079 NA 
HETATM   19  N   UNL     1      -7.596   3.269  67.594  1.00  0.00    -0.062 NA 
BRANCH  18  20
HETATM   20  C   UNL     1      -6.683   4.590  65.820  1.00  0.00    -0.053 C  
HETATM   21  O   UNL     1      -6.995   4.735  63.218  1.00  0.00    -0.041 OA 
HETATM   22  O   UNL     1      -8.933   5.112  64.651  1.00  0.00    -0.128 OA 
HETATM   23  O   UNL     1      -8.060   2.797  64.440  1.00  0.00    -0.081 OA 
HETATM   24  S   UNL     1      -7.641   4.178  64.384  1.00  0.00    -0.077 S  
ENDBRANCH  18  20
ENDBRANCH  14  15
ENDBRANCH  13  14
ENDBRANCH   4  13
BRANCH   8  25
HETATM   25  N   UNL     1     -10.198  13.720  67.041  1.00  0.00    -0.252 N  
HETATM   26  C   UNL     1      -9.995  14.522  65.937  1.00  0.00    -0.329 C  
HETATM   27  H   UNL     1      -9.464  13.692  67.748  1.00  0.00     0.000 HD 
HETATM   28  O   UNL     1     -10.783  14.589  64.999  1.00  0.00    -0.375 OA 
BRANCH  26  29
HETATM   29  C   UNL     1      -8.684  15.336  66.020  1.00  0.00     0.150 C  
HETATM   30  O   UNL     1      -7.733  14.643  66.843  1.00  0.00    -0.317 OA 
HETATM   31  H   UNL     1      -6.927  15.143  66.894  1.00  0.00     0.000 HD 
BRANCH  29  32
HETATM   32  C   UNL     1      -8.908  16.727  66.574  1.00  0.00    -0.311 A  
HETATM   33  C   UNL     1     -10.160  17.078  67.103  1.00  0.00    -0.292 A  
HETATM   34  C   UNL     1      -7.882  17.687  66.589  1.00  0.00    -0.283 A  
HETATM   35  C   UNL     1      -8.109  18.968  67.094  1.00  0.00    -0.280 A  
HETATM   36  C   UNL     1      -9.362  19.307  67.597  1.00  0.00    -0.371 A  
HETATM   37  C   UNL     1     -10.385  18.360  67.607  1.00  0.00    -0.427 A  
ENDBRANCH  29  32
ENDBRANCH  26  29
ENDBRANCH   8  25
TORSDOF 7
ENDMDL
MODEL      187
REMARK 921   NORMALIZED FREE ENERGY PREDICTED BY IDOCK:   -4.97 KCAL/MOL
REMARK 922        TOTAL FREE ENERGY PREDICTED BY IDOCK:   -7.97 KCAL/MOL
REMARK 923 INTER-LIGAND FREE ENERGY PREDICTED BY IDOCK:   -7.17 KCAL/MOL
REMARK 924 INTRA-LIGAND FREE ENERGY PREDICTED BY IDOCK:   -0.80 KCAL/MOL
REMARK 927      BINDING AFFINITY PREDICTED BY RF-SCORE:    0.00 PKD
ROOT
HETATM    1  C   UNL     1      -8.704  11.677  68.783  1.00  0.00    -0.010 C  
HETATM    2  S   UNL     1      -7.236  11.938  67.766  1.00  0.00    -0.115 SA 
HETATM    3  C   UNL     1      -7.554  13.698  67.501  1.00  0.00    -0.170 C  
HETATM    4  C   UNL     1      -8.995  14.062  67.156  1.00  0.00    -0.241 C  
HETATM    5  C   UNL     1     -10.530  10.864  68.178  1.00  0.00    -0.182 C  
HETATM    6  CA  UNL     1     -10.065  13.240  67.378  1.00  0.00    -0.233 C  
HETATM    7  C   UNL     1     -11.443  13.654  66.898  1.00  0.00    -0.345 C  
HETATM    8  CA  UNL     1      -9.253  10.208  68.814  1.00  0.00    -0.164 C  
HETATM    9  N   UNL     1      -9.877  12.033  68.010  1.00  0.00    -0.193 N  
HETATM   10  O   UNL     1     -12.361  12.687  66.731  1.00  0.00    -0.450 OA 
HETATM   11  OXT UNL     1     -11.747  14.815  66.651  1.00  0.00    -0.358 OA 
HETATM   12  O   UNL     1     -11.632  10.532  67.804  1.00  0.00    -0.462 OA 
ENDROOT
BRANCH   4  13
HETATM   13  C   UNL     1      -9.049  15.375  66.363  1.00  0.00    -0.314 C  
BRANCH  13  14
HETATM   14  S   UNL     1      -9.441  16.839  67.387  1.00  0.00    -0.239 SA 
BRANCH  14  15
HETATM   15  C   UNL     1      -7.879  17.130  68.079  1.00  0.00    -0.195 A  
HETATM   16  N   UNL     1      -7.516  16.791  69.297  1.00  0.00    -0.195 NA 
HETATM   17  N   UNL     1      -6.203  17.163  69.427  1.00  0.00    -0.223 NA 
HETATM   18  N   UNL     1      -6.808  17.719  67.461  1.00  0.00    -0.174 NA 
HETATM   19  N   UNL     1      -5.756  17.718  68.311  1.00  0.00    -0.157 NA 
BRANCH  18  20
HETATM   20  C   UNL     1      -6.591  18.158  66.113  1.00  0.00    -0.246 C  
HETATM   21  O   UNL     1      -6.631  20.246  64.522  1.00  0.00    -0.278 OA 
HETATM   22  O   UNL     1      -6.704  20.611  66.933  1.00  0.00    -0.242 OA 
HETATM   23  O   UNL     1      -8.727  19.697  65.821  1.00  0.00    -0.398 OA 
HETATM   24  S   UNL     1      -7.288  19.739  65.704  1.00  0.00    -0.201 S  
ENDBRANCH  18  20
ENDBRANCH  14  15
ENDBRANCH  13  14
ENDBRANCH   4  13
BRANCH   8  25
HETATM   25  N   UNL     1      -8.549   9.231  67.946  1.00  0.00    -0.121 N  
HETATM   26  C   UNL     1      -8.034   8.028  68.380  1.00  0.00    -0.120 C  
HETATM   27  H   UNL     1      -8.439   9.466  66.959  1.00  0.00     0.000 HD 
HETATM   28  O   UNL     1      -8.058   7.670  69.553  1.00  0.00    -0.122 OA 
BRANCH  26  29
HETATM   29  C   UNL     1      -7.443   7.179  67.232  1.00  0.00    -0.099 C  
HETATM   30  O   UNL     1      -7.487   7.923  66.004  1.00  0.00    -0.075 OA 
HETATM   31  H   UNL     1      -7.124   7.401  65.298  1.00  0.00     0.000 HD 
BRANCH  29  32
HETATM   32  C   UNL     1      -8.179   5.868  67.052  1.00  0.00    -0.105 A  
HETATM   33  C   UNL     1      -9.352   5.822  66.284  1.00  0.00    -0.171 A  
HETATM   34  C   UNL     1      -7.708   4.676  67.626  1.00  0.00    -0.086 A  
HETATM   35  C   UNL     1      -8.405   3.478  67.460  1.00  0.00    -0.095 A  
HETATM   36  C   UNL     1      -9.578   3.453  66.711  1.00  0.00    -0.096 A  
HETATM   37  C   UNL     1     -10.049   4.624  66.119  1.00  0.00    -0.291 A  
ENDBRANCH  29  32
ENDBRANCH  26  29
ENDBRANCH   8  25
TORSDOF 7
ENDMDL
MODEL      188
REMARK 921   NORMALIZED FREE ENERGY PREDICTED BY IDOCK:   -4.96 KCAL/MOL
REMARK 922        TOTAL FREE ENERGY PREDICTED BY IDOCK:   -7.96 KCAL/MOL
REMARK 923 INTER-LIGAND FREE ENERGY PREDICTED BY IDOCK:   -6.77 KCAL/MOL
REMARK 924 INTRA-LIGAND FREE ENERGY PREDICTED BY IDOCK:   -1.19 KCAL/MOL
REMARK 927      BINDING AFFINITY PREDICTED BY RF-SCORE:    0.00 PKD
ROOT
HETATM    1  C   UNL     1      -9.990   7.901  66.712  1.00  0.00    -0.263 C  
HETATM    2  S   UNL     1     -10.255   7.647  68.480  1.00  0.00    -0.200 SA 
HETATM    3  C   UNL     1     -10.690   9.371  68.809  1.00  0.00    -0.171 C  
HETATM    4  C   UNL     1      -9.794  10.414  68.148  1.00  0.00    -0.168 C  
HETATM    5  C   UNL     1      -8.162   8.149  65.733  1.00  0.00    -0.126 C  
HETATM    6  CA  UNL     1      -8.960  10.149  67.098  1.00  0.00    -0.135 C  
HETATM    7  C   UNL     1      -8.030  11.233  66.585  1.00  0.00    -0.159 C  
HETATM    8  CA  UNL     1      -9.031   6.872  66.018  1.00  0.00    -0.105 C  
HETATM    9  N   UNL     1      -8.952   8.895  66.534  1.00  0.00    -0.147 N  
HETATM   10  O   UNL     1      -6.951  10.847  65.883  1.00  0.00    -0.114 OA 
HETATM   11  OXT UNL     1      -8.214  12.427  66.789  1.00  0.00    -0.135 OA 
HETATM   12  O   UNL     1      -7.125   8.437  65.181  1.00  0.00    -0.073 OA 
ENDROOT
BRANCH   4  13
HETATM   13  C   UNL     1      -9.817  11.729  68.939  1.00  0.00    -0.002 C  
BRANCH  13  14
HETATM   14  S   UNL     1     -11.441  12.570  68.924  1.00  0.00    -0.328 SA 
BRANCH  14  15
HETATM   15  C   UNL     1     -11.579  12.893  67.227  1.00  0.00    -0.360 A  
HETATM   16  N   UNL     1     -11.862  11.997  66.307  1.00  0.00    -0.574 NA 
HETATM   17  N   UNL     1     -11.914  12.671  65.113  1.00  0.00    -0.404 NA 
HETATM   18  N   UNL     1     -11.441  14.109  66.612  1.00  0.00    -0.350 NA 
HETATM   19  N   UNL     1     -11.671  13.960  65.287  1.00  0.00    -0.327 NA 
BRANCH  18  20
HETATM   20  C   UNL     1     -11.264  15.437  67.125  1.00  0.00    -0.256 C  
HETATM   21  O   UNL     1      -9.514  17.358  67.499  1.00  0.00    -0.245 OA 
HETATM   22  O   UNL     1      -8.927  15.515  66.013  1.00  0.00    -0.324 OA 
HETATM   23  O   UNL     1      -9.002  15.077  68.456  1.00  0.00    -0.172 OA 
HETATM   24  S   UNL     1      -9.583  15.917  67.435  1.00  0.00    -0.222 S  
ENDBRANCH  18  20
ENDBRANCH  14  15
ENDBRANCH  13  14
ENDBRANCH   4  13
BRANCH   8  25
HETATM   25  N   UNL     1      -8.398   5.867  66.909  1.00  0.00    -0.109 N  
HETATM   26  C   UNL     1      -8.868   4.584  67.098  1.00  0.00    -0.109 C  
HETATM   27  H   UNL     1      -7.558   6.145  67.416  1.00  0.00     0.000 HD 
HETATM   28  O   UNL     1      -9.900   4.162  66.585  1.00  0.00    -0.215 OA 
BRANCH  26  29
HETATM   29  C   UNL     1      -7.949   3.737  68.007  1.00  0.00    -0.076 C  
HETATM   30  O   UNL     1      -7.941   2.374  67.556  1.00  0.00    -0.064 OA 
HETATM   31  H   UNL     1      -7.376   1.853  68.115  1.00  0.00     0.000 HD 
BRANCH  29  32
HETATM   32  C   UNL     1      -8.378   3.785  69.458  1.00  0.00    -0.079 A  
HETATM   33  C   UNL     1      -7.497   3.362  70.464  1.00  0.00    -0.040 A  
HETATM   34  C   UNL     1      -9.645   4.262  69.835  1.00  0.00    -0.279 A  
HETATM   35  C   UNL     1     -10.029   4.288  71.176  1.00  0.00    -0.226 A  
HETATM   36  C   UNL     1      -9.150   3.847  72.162  1.00  0.00    -0.156 A  
HETATM   37  C   UNL     1      -7.882   3.389  71.806  1.00  0.00    -0.058 A  
ENDBRANCH  29  32
ENDBRANCH  26  29
ENDBRANCH   8  25
TORSDOF 7
ENDMDL
MODEL      189
REMARK 921   NORMALIZED FREE ENERGY PREDICTED BY IDOCK:   -4.94 KCAL/MOL
REMARK 922        TOTAL FREE ENERGY PREDICTED BY IDOCK:   -7.93 KCAL/MOL
REMARK 923 INTER-LIGAND FREE ENERGY PREDICTED BY IDOCK:   -6.79 KCAL/MOL
REMARK 924 INTRA-LIGAND FREE ENERGY PREDICTED BY IDOCK:   -1.15 KCAL/MOL
REMARK 927      BINDING AFFINITY PREDICTED BY RF-SCORE:    0.00 PKD
ROOT
HETATM    1  C   UNL     1     -10.669   7.873  70.443  1.00  0.00    -0.233 C  
HETATM    2  S   UNL     1      -9.802   9.236  69.638  1.00  0.00    -0.198 SA 
HETATM    3  C   UNL     1      -8.333   8.258  69.240  1.00  0.00    -0.122 C  
HETATM    4  C   UNL     1      -7.814   7.365  70.362  1.00  0.00    -0.098 C  
HETATM    5  C   UNL     1     -10.825   7.511  72.493  1.00  0.00    -0.299 C  
HETATM    6  CA  UNL     1      -8.552   7.005  71.456  1.00  0.00    -0.117 C  
HETATM    7  C   UNL     1      -7.903   6.201  72.567  1.00  0.00    -0.104 C  
HETATM    8  CA  UNL     1     -11.754   8.290  71.496  1.00  0.00    -0.292 C  
HETATM    9  N   UNL     1      -9.866   7.397  71.550  1.00  0.00    -0.173 N  
HETATM   10  O   UNL     1      -8.482   6.236  73.780  1.00  0.00    -0.122 OA 
HETATM   11  OXT UNL     1      -6.885   5.539  72.411  1.00  0.00    -0.071 OA 
HETATM   12  O   UNL     1     -10.797   7.214  73.666  1.00  0.00    -0.352 OA 
ENDROOT
BRANCH   4  13
HETATM   13  C   UNL     1      -6.314   7.093  70.189  1.00  0.00    -0.031 C  
BRANCH  13  14
HETATM   14  S   UNL     1      -5.941   5.726  69.032  1.00  0.00    -0.025 SA 
BRANCH  14  15
HETATM   15  C   UNL     1      -6.106   6.573  67.529  1.00  0.00    -0.024 A  
HETATM   16  N   UNL     1      -5.482   7.688  67.217  1.00  0.00    -0.030 NA 
HETATM   17  N   UNL     1      -5.859   7.996  65.934  1.00  0.00    -0.037 NA 
HETATM   18  N   UNL     1      -6.874   6.198  66.458  1.00  0.00    -0.060 NA 
HETATM   19  N   UNL     1      -6.697   7.089  65.457  1.00  0.00    -0.051 NA 
BRANCH  18  20
HETATM   20  C   UNL     1      -7.650   5.021  66.191  1.00  0.00    -0.087 C  
HETATM   21  O   UNL     1     -10.081   4.032  66.183  1.00  0.00    -0.172 OA 
HETATM   22  O   UNL     1      -9.803   6.449  66.355  1.00  0.00    -0.148 OA 
HETATM   23  O   UNL     1      -9.218   5.055  68.325  1.00  0.00    -0.112 OA 
HETATM   24  S   UNL     1      -9.284   5.012  66.883  1.00  0.00    -0.125 S  
ENDBRANCH  18  20
ENDBRANCH  14  15
ENDBRANCH  13  14
ENDBRANCH   4  13
BRANCH   8  25
HETATM   25  N   UNL     1     -11.881   9.745  71.760  1.00  0.00    -0.347 N  
HETATM   26  C   UNL     1     -12.997  10.499  71.462  1.00  0.00    -0.460 C  
HETATM   27  H   UNL     1     -11.088  10.220  72.191  1.00  0.00     0.000 HD 
HETATM   28  O   UNL     1     -13.983  10.046  70.891  1.00  0.00     0.017 OA 
BRANCH  26  29
HETATM   29  C   UNL     1     -12.874  11.964  71.939  1.00  0.00    -0.236 C  
HETATM   30  O   UNL     1     -14.127  12.404  72.485  1.00  0.00    -0.426 OA 
HETATM   31  H   UNL     1     -14.052  13.305  72.779  1.00  0.00     0.000 HD 
BRANCH  29  32
HETATM   32  C   UNL     1     -12.458  12.897  70.822  1.00  0.00    -0.370 A  
HETATM   33  C   UNL     1     -12.518  14.286  71.009  1.00  0.00    -0.432 A  
HETATM   34  C   UNL     1     -11.990  12.407  69.590  1.00  0.00    -0.341 A  
HETATM   35  C   UNL     1     -11.621  13.281  68.567  1.00  0.00    -0.368 A  
HETATM   36  C   UNL     1     -11.705  14.657  68.761  1.00  0.00    -0.357 A  
HETATM   37  C   UNL     1     -12.148  15.159  69.984  1.00  0.00    -0.384 A  
ENDBRANCH  29  32
ENDBRANCH  26  29
ENDBRANCH   8  25
TORSDOF 7
ENDMDL
MODEL      190
REMARK 921   NORMALIZED FREE ENERGY PREDICTED BY IDOCK:   -4.93 KCAL/MOL
REMARK 922        TOTAL FREE ENERGY PREDICTED BY IDOCK:   -7.91 KCAL/MOL
REMARK 923 INTER-LIGAND FREE ENERGY PREDICTED BY IDOCK:   -8.63 KCAL/MOL
REMARK 924 INTRA-LIGAND FREE ENERGY PREDICTED BY IDOCK:    0.72 KCAL/MOL
REMARK 927      BINDING AFFINITY PREDICTED BY RF-SCORE:    0.00 PKD
ROOT
HETATM    1  C   UNL     1      -8.657   9.243  70.488  1.00  0.00    -0.233 C  
HETATM    2  S   UNL     1      -8.236   8.084  69.169  1.00  0.00    -0.132 SA 
HETATM    3  C   UNL     1      -8.552   9.263  67.835  1.00  0.00    -0.120 C  
HETATM    4  C   UNL     1      -9.831  10.085  67.972  1.00  0.00    -0.164 C  
HETATM    5  C   UNL     1     -10.458   9.360  71.537  1.00  0.00    -0.229 C  
HETATM    6  CA  UNL     1     -10.519  10.237  69.144  1.00  0.00    -0.224 C  
HETATM    7  C   UNL     1     -11.839  10.985  69.147  1.00  0.00    -0.337 C  
HETATM    8  CA  UNL     1      -9.123   8.591  71.837  1.00  0.00    -0.244 C  
HETATM    9  N   UNL     1     -10.023   9.686  70.302  1.00  0.00    -0.257 N  
HETATM   10  O   UNL     1     -12.684  10.753  70.166  1.00  0.00    -0.301 OA 
HETATM   11  OXT UNL     1     -12.166  11.774  68.269  1.00  0.00    -0.486 OA 
HETATM   12  O   UNL     1     -11.543   9.530  72.046  1.00  0.00    -0.311 OA 
ENDROOT
BRANCH   4  13
HETATM   13  C   UNL     1     -10.329  10.546  66.596  1.00  0.00    -0.237 C  
BRANCH  13  14
HETATM   14  S   UNL     1      -9.168  11.660  65.727  1.00  0.00    -0.120 SA 
BRANCH  14  15
HETATM   15  C   UNL     1     -10.199  13.038  65.518  1.00  0.00    -0.285 A  
HETATM   16  N   UNL     1     -11.085  13.181  64.556  1.00  0.00    -0.338 NA 
HETATM   17  N   UNL     1     -11.707  14.382  64.778  1.00  0.00    -0.395 NA 
HETATM   18  N   UNL     1     -10.259  14.145  66.322  1.00  0.00    -0.287 NA 
HETATM   19  N   UNL     1     -11.222  14.974  65.858  1.00  0.00    -0.336 NA 
BRANCH  18  20
HETATM   20  C   UNL     1      -9.627  14.469  67.568  1.00  0.00    -0.210 C  
HETATM   21  O   UNL     1     -10.025  15.488  69.955  1.00  0.00    -0.281 OA 
HETATM   22  O   UNL     1     -11.964  14.885  68.603  1.00  0.00    -0.302 OA 
HETATM   23  O   UNL     1     -10.647  16.885  67.944  1.00  0.00    -0.339 OA 
HETATM   24  S   UNL     1     -10.517  15.606  68.602  1.00  0.00    -0.240 S  
ENDBRANCH  18  20
ENDBRANCH  14  15
ENDBRANCH  13  14
ENDBRANCH   4  13
BRANCH   8  25
HETATM   25  N   UNL     1      -9.236   7.112  71.841  1.00  0.00    -0.139 N  
HETATM   26  C   UNL     1     -10.375   6.414  71.497  1.00  0.00    -0.207 C  
HETATM   27  H   UNL     1      -8.415   6.574  72.117  1.00  0.00     0.000 HD 
HETATM   28  O   UNL     1     -11.435   6.957  71.205  1.00  0.00    -0.272 OA 
BRANCH  26  29
HETATM   29  C   UNL     1     -10.164   4.882  71.503  1.00  0.00    -0.194 C  
HETATM   30  O   UNL     1      -9.074   4.544  72.373  1.00  0.00    -0.122 OA 
HETATM   31  H   UNL     1      -8.944   3.604  72.377  1.00  0.00     0.000 HD 
BRANCH  29  32
HETATM   32  C   UNL     1      -9.888   4.338  70.117  1.00  0.00    -0.271 A  
HETATM   33  C   UNL     1      -9.337   3.057  69.963  1.00  0.00    -0.223 A  
HETATM   34  C   UNL     1     -10.187   5.081  68.962  1.00  0.00    -0.207 A  
HETATM   35  C   UNL     1      -9.916   4.568  67.693  1.00  0.00    -0.138 A  
HETATM   36  C   UNL     1      -9.350   3.303  67.558  1.00  0.00    -0.250 A  
HETATM   37  C   UNL     1      -9.066   2.546  68.693  1.00  0.00    -0.201 A  
ENDBRANCH  29  32
ENDBRANCH  26  29
ENDBRANCH   8  25
TORSDOF 7
ENDMDL
MODEL      191
REMARK 921   NORMALIZED FREE ENERGY PREDICTED BY IDOCK:   -4.92 KCAL/MOL
REMARK 922        TOTAL FREE ENERGY PREDICTED BY IDOCK:   -7.90 KCAL/MOL
REMARK 923 INTER-LIGAND FREE ENERGY PREDICTED BY IDOCK:   -6.06 KCAL/MOL
REMARK 924 INTRA-LIGAND FREE ENERGY PREDICTED BY IDOCK:   -1.84 KCAL/MOL
REMARK 927      BINDING AFFINITY PREDICTED BY RF-SCORE:    0.00 PKD
ROOT
HETATM    1  C   UNL     1      -8.873   9.893  69.883  1.00  0.00    -0.195 C  
HETATM    2  S   UNL     1      -8.006   8.358  70.271  1.00  0.00    -0.107 SA 
HETATM    3  C   UNL     1      -6.517   8.795  69.343  1.00  0.00    -0.045 C  
HETATM    4  C   UNL     1      -6.755   9.400  67.963  1.00  0.00    -0.063 C  
HETATM    5  C   UNL     1     -10.334  10.182  68.420  1.00  0.00    -0.183 C  
HETATM    6  CA  UNL     1      -7.947   9.935  67.559  1.00  0.00    -0.106 C  
HETATM    7  C   UNL     1      -8.109  10.412  66.128  1.00  0.00    -0.139 C  
HETATM    8  CA  UNL     1     -10.439   9.819  69.943  1.00  0.00    -0.261 C  
HETATM    9  N   UNL     1      -8.996  10.010  68.445  1.00  0.00    -0.119 N  
HETATM   10  O   UNL     1      -9.358  10.516  65.643  1.00  0.00    -0.180 OA 
HETATM   11  OXT UNL     1      -7.163  10.694  65.403  1.00  0.00    -0.110 OA 
HETATM   12  O   UNL     1     -11.070  10.393  67.483  1.00  0.00    -0.313 OA 
ENDROOT
BRANCH   4  13
HETATM   13  C   UNL     1      -5.550   9.153  67.046  1.00  0.00    -0.041 C  
BRANCH  13  14
HETATM   14  S   UNL     1      -5.267   7.387  66.661  1.00  0.00    -0.024 SA 
BRANCH  14  15
HETATM   15  C   UNL     1      -6.073   7.298  65.129  1.00  0.00    -0.038 A  
HETATM   16  N   UNL     1      -5.493   7.459  63.959  1.00  0.00    -0.033 NA 
HETATM   17  N   UNL     1      -6.469   7.270  63.015  1.00  0.00    -0.052 NA 
HETATM   18  N   UNL     1      -7.398   7.026  64.916  1.00  0.00    -0.078 NA 
HETATM   19  N   UNL     1      -7.632   6.994  63.584  1.00  0.00    -0.100 NA 
BRANCH  18  20
HETATM   20  C   UNL     1      -8.461   6.643  65.800  1.00  0.00    -0.148 C  
HETATM   21  O   UNL     1      -9.569   4.614  67.043  1.00  0.00    -0.154 OA 
HETATM   22  O   UNL     1      -7.354   4.318  66.064  1.00  0.00    -0.077 OA 
HETATM   23  O   UNL     1      -9.304   4.475  64.534  1.00  0.00    -0.155 OA 
HETATM   24  S   UNL     1      -8.841   4.909  65.831  1.00  0.00    -0.135 S  
ENDBRANCH  18  20
ENDBRANCH  14  15
ENDBRANCH  13  14
ENDBRANCH   4  13
BRANCH   8  25
HETATM   25  N   UNL     1     -11.017   8.483  70.233  1.00  0.00    -0.243 N  
HETATM   26  C   UNL     1     -11.490   8.086  71.466  1.00  0.00    -0.264 C  
HETATM   27  H   UNL     1     -11.069   7.812  69.466  1.00  0.00     0.000 HD 
HETATM   28  O   UNL     1     -11.426   8.788  72.470  1.00  0.00    -0.306 OA 
BRANCH  26  29
HETATM   29  C   UNL     1     -12.122   6.675  71.440  1.00  0.00    -0.347 C  
HETATM   30  O   UNL     1     -13.320   6.664  72.230  1.00  0.00    -0.540 OA 
HETATM   31  H   UNL     1     -13.709   5.798  72.214  1.00  0.00     0.000 HD 
BRANCH  29  32
HETATM   32  C   UNL     1     -11.172   5.614  71.954  1.00  0.00    -0.246 A  
HETATM   33  C   UNL     1     -11.270   5.168  73.281  1.00  0.00    -0.389 A  
HETATM   34  C   UNL     1     -10.191   5.041  71.126  1.00  0.00    -0.281 A  
HETATM   35  C   UNL     1      -9.317   4.072  71.620  1.00  0.00    -0.199 A  
HETATM   36  C   UNL     1      -9.414   3.654  72.944  1.00  0.00    -0.154 A  
HETATM   37  C   UNL     1     -10.394   4.198  73.773  1.00  0.00    -0.239 A  
ENDBRANCH  29  32
ENDBRANCH  26  29
ENDBRANCH   8  25
TORSDOF 7
ENDMDL
MODEL      192
REMARK 921   NORMALIZED FREE ENERGY PREDICTED BY IDOCK:   -4.92 KCAL/MOL
REMARK 922        TOTAL FREE ENERGY PREDICTED BY IDOCK:   -7.90 KCAL/MOL
REMARK 923 INTER-LIGAND FREE ENERGY PREDICTED BY IDOCK:   -7.00 KCAL/MOL
REMARK 924 INTRA-LIGAND FREE ENERGY PREDICTED BY IDOCK:   -0.90 KCAL/MOL
REMARK 927      BINDING AFFINITY PREDICTED BY RF-SCORE:    0.00 PKD
ROOT
HETATM    1  C   UNL     1     -11.345  11.416  66.754  1.00  0.00    -0.179 C  
HETATM    2  S   UNL     1      -9.836  10.966  65.870  1.00  0.00    -0.249 SA 
HETATM    3  C   UNL     1      -9.980   9.199  66.228  1.00  0.00    -0.282 C  
HETATM    4  C   UNL     1     -10.351   8.847  67.665  1.00  0.00    -0.313 C  
HETATM    5  C   UNL     1     -11.491  12.209  68.680  1.00  0.00    -0.296 C  
HETATM    6  CA  UNL     1     -10.902   9.732  68.551  1.00  0.00    -0.188 C  
HETATM    7  C   UNL     1     -11.132   9.308  69.990  1.00  0.00    -0.205 C  
HETATM    8  CA  UNL     1     -11.411  12.895  67.270  1.00  0.00    -0.310 C  
HETATM    9  N   UNL     1     -11.217  11.004  68.137  1.00  0.00    -0.277 N  
HETATM   10  O   UNL     1     -11.250  10.278  70.913  1.00  0.00    -0.336 OA 
HETATM   11  OXT UNL     1     -11.203   8.138  70.342  1.00  0.00    -0.264 OA 
HETATM   12  O   UNL     1     -11.593  12.529  69.842  1.00  0.00    -0.255 OA 
ENDROOT
BRANCH   4  13
HETATM   13  C   UNL     1      -9.848   7.443  68.027  1.00  0.00    -0.148 C  
BRANCH  13  14
HETATM   14  S   UNL     1      -8.111   7.135  67.544  1.00  0.00    -0.114 SA 
BRANCH  14  15
HETATM   15  C   UNL     1      -7.428   6.841  69.109  1.00  0.00    -0.095 A  
HETATM   16  N   UNL     1      -7.770   7.470  70.214  1.00  0.00    -0.091 NA 
HETATM   17  N   UNL     1      -7.025   6.912  71.222  1.00  0.00    -0.061 NA 
HETATM   18  N   UNL     1      -6.472   5.913  69.424  1.00  0.00    -0.040 NA 
HETATM   19  N   UNL     1      -6.240   5.954  70.756  1.00  0.00    -0.033 NA 
BRANCH  18  20
HETATM   20  C   UNL     1      -5.842   4.876  68.657  1.00  0.00    -0.021 C  
HETATM   21  O   UNL     1      -6.156   2.458  67.685  1.00  0.00    -0.023 OA 
HETATM   22  O   UNL     1      -8.116   3.646  68.521  1.00  0.00    -0.069 OA 
HETATM   23  O   UNL     1      -6.466   2.793  70.170  1.00  0.00    -0.027 OA 
HETATM   24  S   UNL     1      -6.571   3.265  68.809  1.00  0.00    -0.041 S  
ENDBRANCH  18  20
ENDBRANCH  14  15
ENDBRANCH  13  14
ENDBRANCH   4  13
BRANCH   8  25
HETATM   25  N   UNL     1     -10.198  13.720  67.041  1.00  0.00    -0.252 N  
HETATM   26  C   UNL     1      -9.995  14.522  65.937  1.00  0.00    -0.329 C  
HETATM   27  H   UNL     1      -9.464  13.692  67.748  1.00  0.00     0.000 HD 
HETATM   28  O   UNL     1     -10.783  14.589  64.999  1.00  0.00    -0.375 OA 
BRANCH  26  29
HETATM   29  C   UNL     1      -8.684  15.336  66.020  1.00  0.00     0.150 C  
HETATM   30  O   UNL     1      -7.733  14.643  66.843  1.00  0.00    -0.317 OA 
HETATM   31  H   UNL     1      -6.927  15.143  66.894  1.00  0.00     0.000 HD 
BRANCH  29  32
HETATM   32  C   UNL     1      -8.908  16.727  66.574  1.00  0.00    -0.311 A  
HETATM   33  C   UNL     1     -10.160  17.078  67.103  1.00  0.00    -0.292 A  
HETATM   34  C   UNL     1      -7.882  17.687  66.589  1.00  0.00    -0.283 A  
HETATM   35  C   UNL     1      -8.109  18.968  67.094  1.00  0.00    -0.280 A  
HETATM   36  C   UNL     1      -9.362  19.307  67.597  1.00  0.00    -0.371 A  
HETATM   37  C   UNL     1     -10.385  18.360  67.607  1.00  0.00    -0.427 A  
ENDBRANCH  29  32
ENDBRANCH  26  29
ENDBRANCH   8  25
TORSDOF 7
ENDMDL
MODEL      193
REMARK 921   NORMALIZED FREE ENERGY PREDICTED BY IDOCK:   -4.92 KCAL/MOL
REMARK 922        TOTAL FREE ENERGY PREDICTED BY IDOCK:   -7.89 KCAL/MOL
REMARK 923 INTER-LIGAND FREE ENERGY PREDICTED BY IDOCK:   -6.92 KCAL/MOL
REMARK 924 INTRA-LIGAND FREE ENERGY PREDICTED BY IDOCK:   -0.97 KCAL/MOL
REMARK 927      BINDING AFFINITY PREDICTED BY RF-SCORE:    0.00 PKD
ROOT
HETATM    1  C   UNL     1      -8.850  11.789  68.154  1.00  0.00    -0.169 C  
HETATM    2  S   UNL     1     -10.323  11.518  67.147  1.00  0.00    -0.224 SA 
HETATM    3  C   UNL     1      -9.826   9.866  66.604  1.00  0.00    -0.207 C  
HETATM    4  C   UNL     1      -8.370   9.727  66.171  1.00  0.00    -0.122 C  
HETATM    5  C   UNL     1      -7.152  12.889  67.636  1.00  0.00    -0.151 C  
HETATM    6  CA  UNL     1      -7.388  10.624  66.490  1.00  0.00    -0.134 C  
HETATM    7  C   UNL     1      -5.995  10.447  65.916  1.00  0.00    -0.105 C  
HETATM    8  CA  UNL     1      -8.464  13.290  68.398  1.00  0.00    -0.128 C  
HETATM    9  N   UNL     1      -7.680  11.692  67.306  1.00  0.00    -0.146 N  
HETATM   10  O   UNL     1      -5.196  11.528  65.877  1.00  0.00    -0.308 OA 
HETATM   11  OXT UNL     1      -5.576   9.380  65.485  1.00  0.00    -0.047 OA 
HETATM   12  O   UNL     1      -6.110  13.398  67.290  1.00  0.00    -0.330 OA 
ENDROOT
BRANCH   4  13
HETATM   13  C   UNL     1      -8.207   8.564  65.182  1.00  0.00    -0.152 C  
BRANCH  13  14
HETATM   14  S   UNL     1      -8.482   6.918  65.930  1.00  0.00    -0.142 SA 
BRANCH  14  15
HETATM   15  C   UNL     1      -7.415   5.975  64.942  1.00  0.00    -0.082 A  
HETATM   16  N   UNL     1      -6.105   5.942  65.063  1.00  0.00    -0.025 NA 
HETATM   17  N   UNL     1      -5.653   5.050  64.124  1.00  0.00    -0.016 NA 
HETATM   18  N   UNL     1      -7.773   5.124  63.931  1.00  0.00    -0.073 NA 
HETATM   19  N   UNL     1      -6.660   4.535  63.436  1.00  0.00    -0.033 NA 
BRANCH  18  20
HETATM   20  C   UNL     1      -9.049   4.672  63.455  1.00  0.00    -0.075 C  
HETATM   21  O   UNL     1     -11.089   3.110  63.992  1.00  0.00    -0.206 OA 
HETATM   22  O   UNL     1      -9.489   3.597  65.768  1.00  0.00    -0.165 OA 
HETATM   23  O   UNL     1      -8.783   2.080  63.933  1.00  0.00    -0.087 OA 
HETATM   24  S   UNL     1      -9.664   3.189  64.214  1.00  0.00    -0.154 S  
ENDBRANCH  18  20
ENDBRANCH  14  15
ENDBRANCH  13  14
ENDBRANCH   4  13
BRANCH   8  25
HETATM   25  N   UNL     1      -9.308  14.299  67.711  1.00  0.00    -0.193 N  
HETATM   26  C   UNL     1      -9.817  15.432  68.310  1.00  0.00    -0.213 C  
HETATM   27  H   UNL     1      -9.525  14.145  66.727  1.00  0.00     0.000 HD 
HETATM   28  O   UNL     1      -9.667  15.690  69.500  1.00  0.00    -0.262 OA 
BRANCH  26  29
HETATM   29  C   UNL     1     -10.576  16.344  67.320  1.00  0.00    -0.293 C  
HETATM   30  O   UNL     1     -10.621  15.727  66.026  1.00  0.00    -0.310 OA 
HETATM   31  H   UNL     1     -11.088  16.287  65.417  1.00  0.00     0.000 HD 
BRANCH  29  32
HETATM   32  C   UNL     1      -9.941  17.714  67.202  1.00  0.00    -0.316 A  
HETATM   33  C   UNL     1     -10.677  18.860  67.540  1.00  0.00    -0.509 A  
HETATM   34  C   UNL     1      -8.612  17.873  66.774  1.00  0.00    -0.271 A  
HETATM   35  C   UNL     1      -8.046  19.144  66.661  1.00  0.00    -0.290 A  
HETATM   36  C   UNL     1      -8.796  20.273  66.980  1.00  0.00    -0.427 A  
HETATM   37  C   UNL     1     -10.109  20.130  67.425  1.00  0.00    -0.556 A  
ENDBRANCH  29  32
ENDBRANCH  26  29
ENDBRANCH   8  25
TORSDOF 7
ENDMDL
MODEL      194
REMARK 921   NORMALIZED FREE ENERGY PREDICTED BY IDOCK:   -4.90 KCAL/MOL
REMARK 922        TOTAL FREE ENERGY PREDICTED BY IDOCK:   -7.87 KCAL/MOL
REMARK 923 INTER-LIGAND FREE ENERGY PREDICTED BY IDOCK:   -7.98 KCAL/MOL
REMARK 924 INTRA-LIGAND FREE ENERGY PREDICTED BY IDOCK:    0.11 KCAL/MOL
REMARK 927      BINDING AFFINITY PREDICTED BY RF-SCORE:    0.00 PKD
ROOT
HETATM    1  C   UNL     1      -9.060  10.453  69.382  1.00  0.00    -0.152 C  
HETATM    2  S   UNL     1     -10.452   9.990  70.434  1.00  0.00    -0.165 SA 
HETATM    3  C   UNL     1     -10.158   8.212  70.289  1.00  0.00    -0.192 C  
HETATM    4  C   UNL     1      -9.854   7.708  68.882  1.00  0.00    -0.164 C  
HETATM    5  C   UNL     1      -9.127  10.995  67.366  1.00  0.00    -0.141 C  
HETATM    6  CA  UNL     1      -9.456   8.513  67.851  1.00  0.00    -0.139 C  
HETATM    7  C   UNL     1      -9.285   7.926  66.462  1.00  0.00    -0.191 C  
HETATM    8  CA  UNL     1      -9.178  11.851  68.681  1.00  0.00    -0.061 C  
HETATM    9  N   UNL     1      -9.242   9.853  68.076  1.00  0.00    -0.124 N  
HETATM   10  O   UNL     1      -9.328   8.773  65.419  1.00  0.00    -0.159 OA 
HETATM   11  OXT UNL     1      -9.122   6.731  66.254  1.00  0.00    -0.152 OA 
HETATM   12  O   UNL     1      -9.138  11.167  66.169  1.00  0.00    -0.189 OA 
ENDROOT
BRANCH   4  13
HETATM   13  C   UNL     1     -10.238   6.229  68.740  1.00  0.00    -0.178 C  
BRANCH  13  14
HETATM   14  S   UNL     1      -8.857   5.075  69.064  1.00  0.00    -0.094 SA 
BRANCH  14  15
HETATM   15  C   UNL     1      -8.295   5.720  70.571  1.00  0.00    -0.119 A  
HETATM   16  N   UNL     1      -7.435   6.708  70.697  1.00  0.00    -0.082 NA 
HETATM   17  N   UNL     1      -7.295   6.929  72.043  1.00  0.00    -0.086 NA 
HETATM   18  N   UNL     1      -8.675   5.322  71.825  1.00  0.00    -0.133 NA 
HETATM   19  N   UNL     1      -8.055   6.100  72.741  1.00  0.00    -0.106 NA 
BRANCH  18  20
HETATM   20  C   UNL     1      -9.667   4.393  72.284  1.00  0.00    -0.165 C  
HETATM   21  O   UNL     1     -12.112   4.177  73.216  1.00  0.00     0.032 OA 
HETATM   22  O   UNL     1     -11.426   6.291  72.210  1.00  0.00    -0.279 OA 
HETATM   23  O   UNL     1     -10.501   5.694  74.436  1.00  0.00    -0.268 OA 
HETATM   24  S   UNL     1     -11.001   5.101  73.218  1.00  0.00    -0.327 S  
ENDBRANCH  18  20
ENDBRANCH  14  15
ENDBRANCH  13  14
ENDBRANCH   4  13
BRANCH   8  25
HETATM   25  N   UNL     1     -10.448  12.587  68.903  1.00  0.00    -0.406 N  
HETATM   26  C   UNL     1     -10.588  13.955  68.795  1.00  0.00    -0.246 C  
HETATM   27  H   UNL     1     -11.273  12.043  69.154  1.00  0.00     0.000 HD 
HETATM   28  O   UNL     1      -9.652  14.711  68.557  1.00  0.00    -0.209 OA 
BRANCH  26  29
HETATM   29  C   UNL     1     -12.048  14.424  68.989  1.00  0.00    -0.263 C  
HETATM   30  O   UNL     1     -12.263  15.651  68.276  1.00  0.00    -0.424 OA 
HETATM   31  H   UNL     1     -13.160  15.940  68.394  1.00  0.00     0.000 HD 
BRANCH  29  32
HETATM   32  C   UNL     1     -12.396  14.625  70.449  1.00  0.00    -0.399 A  
HETATM   33  C   UNL     1     -12.708  13.518  71.254  1.00  0.00    -0.432 A  
HETATM   34  C   UNL     1     -12.399  15.901  71.036  1.00  0.00    -0.404 A  
HETATM   35  C   UNL     1     -12.732  16.069  72.381  1.00  0.00    -0.496 A  
HETATM   36  C   UNL     1     -13.059  14.963  73.161  1.00  0.00    -0.615 A  
HETATM   37  C   UNL     1     -13.042  13.688  72.599  1.00  0.00    -0.452 A  
ENDBRANCH  29  32
ENDBRANCH  26  29
ENDBRANCH   8  25
TORSDOF 7
ENDMDL
MODEL      195
REMARK 921   NORMALIZED FREE ENERGY PREDICTED BY IDOCK:   -4.90 KCAL/MOL
REMARK 922        TOTAL FREE ENERGY PREDICTED BY IDOCK:   -7.87 KCAL/MOL
REMARK 923 INTER-LIGAND FREE ENERGY PREDICTED BY IDOCK:   -7.19 KCAL/MOL
REMARK 924 INTRA-LIGAND FREE ENERGY PREDICTED BY IDOCK:   -0.68 KCAL/MOL
REMARK 927      BINDING AFFINITY PREDICTED BY RF-SCORE:    0.00 PKD
ROOT
HETATM    1  C   UNL     1      -8.717  11.694  68.184  1.00  0.00    -0.159 C  
HETATM    2  S   UNL     1     -10.258  11.399  67.291  1.00  0.00    -0.205 SA 
HETATM    3  C   UNL     1      -9.823   9.712  66.805  1.00  0.00    -0.211 C  
HETATM    4  C   UNL     1      -8.402   9.524  66.285  1.00  0.00    -0.117 C  
HETATM    5  C   UNL     1      -7.041  12.733  67.499  1.00  0.00    -0.148 C  
HETATM    6  CA  UNL     1      -7.387  10.417  66.492  1.00  0.00    -0.119 C  
HETATM    7  C   UNL     1      -6.038  10.185  65.838  1.00  0.00    -0.087 C  
HETATM    8  CA  UNL     1      -8.294  13.198  68.323  1.00  0.00    -0.152 C  
HETATM    9  N   UNL     1      -7.608  11.531  67.267  1.00  0.00    -0.134 N  
HETATM   10  O   UNL     1      -5.227  11.247  65.690  1.00  0.00    -0.257 OA 
HETATM   11  OXT UNL     1      -5.665   9.090  65.437  1.00  0.00    -0.046 OA 
HETATM   12  O   UNL     1      -6.017  13.205  67.059  1.00  0.00    -0.235 OA 
ENDROOT
BRANCH   4  13
HETATM   13  C   UNL     1      -8.322   8.309  65.351  1.00  0.00    -0.162 C  
BRANCH  13  14
HETATM   14  S   UNL     1      -7.850   6.758  66.198  1.00  0.00    -0.106 SA 
BRANCH  14  15
HETATM   15  C   UNL     1      -9.263   6.526  67.176  1.00  0.00    -0.128 A  
HETATM   16  N   UNL     1     -10.466   6.263  66.716  1.00  0.00    -0.243 NA 
HETATM   17  N   UNL     1     -11.276   6.116  67.813  1.00  0.00    -0.197 NA 
HETATM   18  N   UNL     1      -9.325   6.557  68.544  1.00  0.00    -0.125 NA 
HETATM   19  N   UNL     1     -10.590   6.281  68.933  1.00  0.00    -0.237 NA 
BRANCH  18  20
HETATM   20  C   UNL     1      -8.313   6.669  69.555  1.00  0.00    -0.131 C  
HETATM   21  O   UNL     1      -6.956   5.337  71.365  1.00  0.00    -0.050 OA 
HETATM   22  O   UNL     1      -8.217   4.086  69.693  1.00  0.00    -0.058 OA 
HETATM   23  O   UNL     1      -9.479   5.267  71.476  1.00  0.00    -0.145 OA 
HETATM   24  S   UNL     1      -8.250   5.332  70.722  1.00  0.00    -0.112 S  
ENDBRANCH  18  20
ENDBRANCH  14  15
ENDBRANCH  13  14
ENDBRANCH   4  13
BRANCH   8  25
HETATM   25  N   UNL     1      -9.165  14.186  67.640  1.00  0.00    -0.186 N  
HETATM   26  C   UNL     1      -9.619  15.356  68.212  1.00  0.00    -0.205 C  
HETATM   27  H   UNL     1      -9.448  13.986  66.681  1.00  0.00     0.000 HD 
HETATM   28  O   UNL     1      -9.389  15.670  69.375  1.00  0.00    -0.255 OA 
BRANCH  26  29
HETATM   29  C   UNL     1     -10.428  16.231  67.227  1.00  0.00    -0.300 C  
HETATM   30  O   UNL     1     -10.443  15.616  65.930  1.00  0.00    -0.307 OA 
HETATM   31  H   UNL     1     -10.940  16.153  65.324  1.00  0.00     0.000 HD 
BRANCH  29  32
HETATM   32  C   UNL     1      -9.866  17.632  67.113  1.00  0.00    -0.306 A  
HETATM   33  C   UNL     1      -8.607  17.837  66.529  1.00  0.00    -0.283 A  
HETATM   34  C   UNL     1     -10.585  18.752  67.565  1.00  0.00    -0.497 A  
HETATM   35  C   UNL     1     -10.047  20.035  67.461  1.00  0.00    -0.565 A  
HETATM   36  C   UNL     1      -8.788  20.221  66.897  1.00  0.00    -0.400 A  
HETATM   37  C   UNL     1      -8.070  19.122  66.427  1.00  0.00    -0.319 A  
ENDBRANCH  29  32
ENDBRANCH  26  29
ENDBRANCH   8  25
TORSDOF 7
ENDMDL
MODEL      196
REMARK 921   NORMALIZED FREE ENERGY PREDICTED BY IDOCK:   -4.89 KCAL/MOL
REMARK 922        TOTAL FREE ENERGY PREDICTED BY IDOCK:   -7.86 KCAL/MOL
REMARK 923 INTER-LIGAND FREE ENERGY PREDICTED BY IDOCK:   -7.73 KCAL/MOL
REMARK 924 INTRA-LIGAND FREE ENERGY PREDICTED BY IDOCK:   -0.12 KCAL/MOL
REMARK 927      BINDING AFFINITY PREDICTED BY RF-SCORE:    0.00 PKD
ROOT
HETATM    1  C   UNL     1     -11.284  10.484  68.157  1.00  0.00    -0.293 C  
HETATM    2  S   UNL     1      -9.588  10.588  67.547  1.00  0.00    -0.162 SA 
HETATM    3  C   UNL     1      -9.342   8.798  67.498  1.00  0.00    -0.136 C  
HETATM    4  C   UNL     1      -9.840   8.031  68.719  1.00  0.00    -0.176 C  
HETATM    5  C   UNL     1     -11.934  10.726  70.126  1.00  0.00    -0.349 C  
HETATM    6  CA  UNL     1     -10.731   8.535  69.626  1.00  0.00    -0.197 C  
HETATM    7  C   UNL     1     -11.078   7.730  70.864  1.00  0.00    -0.259 C  
HETATM    8  CA  UNL     1     -11.801  11.743  68.937  1.00  0.00    -0.320 C  
HETATM    9  N   UNL     1     -11.283   9.778  69.421  1.00  0.00    -0.167 N  
HETATM   10  O   UNL     1     -11.583   8.394  71.918  1.00  0.00    -0.287 OA 
HETATM   11  OXT UNL     1     -10.910   6.519  70.947  1.00  0.00    -0.231 OA 
HETATM   12  O   UNL     1     -12.300  10.720  71.280  1.00  0.00    -0.361 OA 
ENDROOT
BRANCH   4  13
HETATM   13  C   UNL     1      -9.068   6.716  68.887  1.00  0.00    -0.132 C  
BRANCH  13  14
HETATM   14  S   UNL     1      -9.692   5.355  67.836  1.00  0.00    -0.143 SA 
BRANCH  14  15
HETATM   15  C   UNL     1      -8.418   5.294  66.663  1.00  0.00    -0.107 A  
HETATM   16  N   UNL     1      -7.384   6.107  66.626  1.00  0.00    -0.080 NA 
HETATM   17  N   UNL     1      -6.604   5.692  65.577  1.00  0.00    -0.040 NA 
HETATM   18  N   UNL     1      -8.289   4.391  65.641  1.00  0.00    -0.113 NA 
HETATM   19  N   UNL     1      -7.138   4.640  64.976  1.00  0.00    -0.061 NA 
BRANCH  18  20
HETATM   20  C   UNL     1      -9.038   3.220  65.286  1.00  0.00    -0.147 C  
HETATM   21  O   UNL     1      -9.612   1.575  63.322  1.00  0.00    -0.094 OA 
HETATM   22  O   UNL     1      -7.735   3.110  63.051  1.00  0.00    -0.064 OA 
HETATM   23  O   UNL     1     -10.036   4.041  62.974  1.00  0.00    -0.164 OA 
HETATM   24  S   UNL     1      -9.268   2.960  63.545  1.00  0.00    -0.097 S  
ENDBRANCH  18  20
ENDBRANCH  14  15
ENDBRANCH  13  14
ENDBRANCH   4  13
BRANCH   8  25
HETATM   25  N   UNL     1     -10.812  12.830  69.147  1.00  0.00    -0.427 N  
HETATM   26  C   UNL     1     -10.789  14.013  68.438  1.00  0.00    -0.249 C  
HETATM   27  H   UNL     1     -10.102  12.693  69.866  1.00  0.00     0.000 HD 
HETATM   28  O   UNL     1     -11.558  14.260  67.515  1.00  0.00    -0.324 OA 
BRANCH  26  29
HETATM   29  C   UNL     1      -9.706  14.993  68.944  1.00  0.00    -0.224 C  
HETATM   30  O   UNL     1      -9.962  15.338  70.313  1.00  0.00    -0.488 OA 
HETATM   31  H   UNL     1      -9.297  15.940  70.624  1.00  0.00     0.000 HD 
BRANCH  29  32
HETATM   32  C   UNL     1      -9.644  16.256  68.111  1.00  0.00    -0.219 A  
HETATM   33  C   UNL     1      -8.699  16.371  67.080  1.00  0.00    -0.224 A  
HETATM   34  C   UNL     1     -10.528  17.326  68.331  1.00  0.00    -0.381 A  
HETATM   35  C   UNL     1     -10.450  18.487  67.561  1.00  0.00    -0.453 A  
HETATM   36  C   UNL     1      -9.494  18.594  66.555  1.00  0.00    -0.331 A  
HETATM   37  C   UNL     1      -8.622  17.534  66.311  1.00  0.00    -0.234 A  
ENDBRANCH  29  32
ENDBRANCH  26  29
ENDBRANCH   8  25
TORSDOF 7
ENDMDL
MODEL      197
REMARK 921   NORMALIZED FREE ENERGY PREDICTED BY IDOCK:   -4.87 KCAL/MOL
REMARK 922        TOTAL FREE ENERGY PREDICTED BY IDOCK:   -7.83 KCAL/MOL
REMARK 923 INTER-LIGAND FREE ENERGY PREDICTED BY IDOCK:   -8.35 KCAL/MOL
REMARK 924 INTRA-LIGAND FREE ENERGY PREDICTED BY IDOCK:    0.52 KCAL/MOL
REMARK 927      BINDING AFFINITY PREDICTED BY RF-SCORE:    0.00 PKD
ROOT
HETATM    1  C   UNL     1      -8.887   8.533  67.580  1.00  0.00    -0.135 C  
HETATM    2  S   UNL     1     -10.623   8.952  67.312  1.00  0.00    -0.159 SA 
HETATM    3  C   UNL     1     -10.270  10.295  66.153  1.00  0.00    -0.217 C  
HETATM    4  C   UNL     1      -9.142  11.237  66.562  1.00  0.00    -0.193 C  
HETATM    5  C   UNL     1      -7.688   9.095  69.194  1.00  0.00    -0.081 C  
HETATM    6  CA  UNL     1      -8.202  10.938  67.509  1.00  0.00    -0.116 C  
HETATM    7  C   UNL     1      -7.188  11.990  67.918  1.00  0.00    -0.102 C  
HETATM    8  CA  UNL     1      -8.567   7.819  68.940  1.00  0.00    -0.132 C  
HETATM    9  N   UNL     1      -8.201   9.697  68.100  1.00  0.00    -0.106 N  
HETATM   10  O   UNL     1      -6.584  11.842  69.110  1.00  0.00    -0.086 OA 
HETATM   11  OXT UNL     1      -6.908  12.959  67.224  1.00  0.00    -0.150 OA 
HETATM   12  O   UNL     1      -6.950   9.535  70.045  1.00  0.00    -0.059 OA 
ENDROOT
BRANCH   4  13
HETATM   13  C   UNL     1      -9.326  12.616  65.914  1.00  0.00    -0.004 C  
BRANCH  13  14
HETATM   14  S   UNL     1     -11.053  13.218  65.939  1.00  0.00    -0.287 SA 
BRANCH  14  15
HETATM   15  C   UNL     1     -10.759  14.926  65.887  1.00  0.00    -0.323 A  
HETATM   16  N   UNL     1     -10.310  15.585  64.840  1.00  0.00    -0.402 NA 
HETATM   17  N   UNL     1     -10.260  16.905  65.207  1.00  0.00    -0.603 NA 
HETATM   18  N   UNL     1     -10.973  15.824  66.898  1.00  0.00    -0.263 NA 
HETATM   19  N   UNL     1     -10.672  17.066  66.455  1.00  0.00    -0.152 NA 
BRANCH  18  20
HETATM   20  C   UNL     1     -11.567  15.693  68.198  1.00  0.00    -0.283 C  
HETATM   21  O   UNL     1     -11.339  16.381  70.721  1.00  0.00    -0.373 OA 
HETATM   22  O   UNL     1     -10.006  17.570  69.060  1.00  0.00    -0.307 OA 
HETATM   23  O   UNL     1      -9.378  15.233  69.618  1.00  0.00    -0.238 OA 
HETATM   24  S   UNL     1     -10.516  16.121  69.563  1.00  0.00    -0.302 S  
ENDBRANCH  18  20
ENDBRANCH  14  15
ENDBRANCH  13  14
ENDBRANCH   4  13
BRANCH   8  25
HETATM   25  N   UNL     1      -9.709   7.647  69.871  1.00  0.00    -0.175 N  
HETATM   26  C   UNL     1     -10.245   8.654  70.646  1.00  0.00    -0.198 C  
HETATM   27  H   UNL     1     -10.127   6.719  69.943  1.00  0.00     0.000 HD 
HETATM   28  O   UNL     1      -9.788   9.792  70.682  1.00  0.00    -0.244 OA 
BRANCH  26  29
HETATM   29  C   UNL     1     -11.489   8.199  71.443  1.00  0.00    -0.263 C  
HETATM   30  O   UNL     1     -12.050   9.316  72.149  1.00  0.00    -0.354 OA 
HETATM   31  H   UNL     1     -12.814   9.037  72.639  1.00  0.00     0.000 HD 
BRANCH  29  32
HETATM   32  C   UNL     1     -11.165   7.095  72.427  1.00  0.00    -0.309 A  
HETATM   33  C   UNL     1     -10.338   7.357  73.529  1.00  0.00    -0.405 A  
HETATM   34  C   UNL     1     -11.688   5.799  72.276  1.00  0.00    -0.265 A  
HETATM   35  C   UNL     1     -11.371   4.790  73.186  1.00  0.00    -0.380 A  
HETATM   36  C   UNL     1     -10.532   5.062  74.264  1.00  0.00    -0.328 A  
HETATM   37  C   UNL     1     -10.021   6.346  74.439  1.00  0.00    -0.362 A  
ENDBRANCH  29  32
ENDBRANCH  26  29
ENDBRANCH   8  25
TORSDOF 7
ENDMDL
MODEL      198
REMARK 921   NORMALIZED FREE ENERGY PREDICTED BY IDOCK:   -4.85 KCAL/MOL
REMARK 922        TOTAL FREE ENERGY PREDICTED BY IDOCK:   -7.81 KCAL/MOL
REMARK 923 INTER-LIGAND FREE ENERGY PREDICTED BY IDOCK:   -7.18 KCAL/MOL
REMARK 924 INTRA-LIGAND FREE ENERGY PREDICTED BY IDOCK:   -0.62 KCAL/MOL
REMARK 927      BINDING AFFINITY PREDICTED BY RF-SCORE:    0.00 PKD
ROOT
HETATM    1  C   UNL     1      -7.633  11.694  67.532  1.00  0.00    -0.128 C  
HETATM    2  S   UNL     1      -7.124  10.834  69.036  1.00  0.00    -0.101 SA 
HETATM    3  C   UNL     1      -5.883   9.814  68.205  1.00  0.00    -0.043 C  
HETATM    4  C   UNL     1      -6.322   9.189  66.885  1.00  0.00    -0.063 C  
HETATM    5  C   UNL     1      -9.309  11.292  66.354  1.00  0.00    -0.192 C  
HETATM    6  CA  UNL     1      -7.397   9.617  66.156  1.00  0.00    -0.098 C  
HETATM    7  C   UNL     1      -7.812   8.856  64.911  1.00  0.00    -0.121 C  
HETATM    8  CA  UNL     1      -9.086  12.284  67.550  1.00  0.00    -0.182 C  
HETATM    9  N   UNL     1      -8.108  10.718  66.573  1.00  0.00    -0.140 N  
HETATM   10  O   UNL     1      -9.074   9.013  64.477  1.00  0.00    -0.111 OA 
HETATM   11  OXT UNL     1      -7.059   8.108  64.300  1.00  0.00    -0.074 OA 
HETATM   12  O   UNL     1     -10.191  10.974  65.589  1.00  0.00    -0.243 OA 
ENDROOT
BRANCH   4  13
HETATM   13  C   UNL     1      -5.520   7.913  66.595  1.00  0.00    -0.028 C  
BRANCH  13  14
HETATM   14  S   UNL     1      -5.677   6.633  67.892  1.00  0.00    -0.013 SA 
BRANCH  14  15
HETATM   15  C   UNL     1      -7.366   6.274  67.733  1.00  0.00    -0.084 A  
HETATM   16  N   UNL     1      -8.306   6.678  68.561  1.00  0.00    -0.122 NA 
HETATM   17  N   UNL     1      -9.492   6.213  68.053  1.00  0.00    -0.113 NA 
HETATM   18  N   UNL     1      -7.959   5.555  66.730  1.00  0.00    -0.101 NA 
HETATM   19  N   UNL     1      -9.296   5.538  66.932  1.00  0.00    -0.124 NA 
BRANCH  18  20
HETATM   20  C   UNL     1      -7.449   4.995  65.511  1.00  0.00    -0.077 C  
HETATM   21  O   UNL     1      -7.770   3.069  63.756  1.00  0.00    -0.066 OA 
HETATM   22  O   UNL     1      -9.556   3.497  65.362  1.00  0.00    -0.167 OA 
HETATM   23  O   UNL     1      -7.467   2.433  66.183  1.00  0.00    -0.065 OA 
HETATM   24  S   UNL     1      -7.960   3.330  65.164  1.00  0.00    -0.082 S  
ENDBRANCH  18  20
ENDBRANCH  14  15
ENDBRANCH  13  14
ENDBRANCH   4  13
BRANCH   8  25
HETATM   25  N   UNL     1      -9.891  11.998  68.763  1.00  0.00    -0.401 N  
HETATM   26  C   UNL     1     -11.270  11.967  68.798  1.00  0.00    -0.263 C  
HETATM   27  H   UNL     1      -9.390  11.810  69.632  1.00  0.00     0.000 HD 
HETATM   28  O   UNL     1     -11.974  12.233  67.829  1.00  0.00    -0.474 OA 
BRANCH  26  29
HETATM   29  C   UNL     1     -11.825  11.547  70.178  1.00  0.00    -0.356 C  
HETATM   30  O   UNL     1     -12.844  10.549  70.009  1.00  0.00    -0.517 OA 
HETATM   31  H   UNL     1     -13.185  10.290  70.857  1.00  0.00     0.000 HD 
BRANCH  29  32
HETATM   32  C   UNL     1     -12.394  12.720  70.947  1.00  0.00    -0.356 A  
HETATM   33  C   UNL     1     -11.932  14.019  70.688  1.00  0.00    -0.376 A  
HETATM   34  C   UNL     1     -13.398  12.548  71.916  1.00  0.00    -0.467 A  
HETATM   35  C   UNL     1     -13.903  13.640  72.623  1.00  0.00    -0.494 A  
HETATM   36  C   UNL     1     -13.419  14.920  72.369  1.00  0.00    -0.528 A  
HETATM   37  C   UNL     1     -12.438  15.110  71.397  1.00  0.00    -0.413 A  
ENDBRANCH  29  32
ENDBRANCH  26  29
ENDBRANCH   8  25
TORSDOF 7
ENDMDL
MODEL      199
REMARK 921   NORMALIZED FREE ENERGY PREDICTED BY IDOCK:   -4.84 KCAL/MOL
REMARK 922        TOTAL FREE ENERGY PREDICTED BY IDOCK:   -7.79 KCAL/MOL
REMARK 923 INTER-LIGAND FREE ENERGY PREDICTED BY IDOCK:   -7.17 KCAL/MOL
REMARK 924 INTRA-LIGAND FREE ENERGY PREDICTED BY IDOCK:   -0.62 KCAL/MOL
REMARK 927      BINDING AFFINITY PREDICTED BY RF-SCORE:    0.00 PKD
ROOT
HETATM    1  C   UNL     1      -7.676  12.362  67.404  1.00  0.00    -0.170 C  
HETATM    2  S   UNL     1      -7.535  11.802  69.115  1.00  0.00     0.113 SA 
HETATM    3  C   UNL     1      -6.820  10.198  68.684  1.00  0.00    -0.057 C  
HETATM    4  C   UNL     1      -7.492   9.469  67.524  1.00  0.00    -0.091 C  
HETATM    5  C   UNL     1      -9.388  12.351  66.211  1.00  0.00    -0.189 C  
HETATM    6  CA  UNL     1      -8.314  10.074  66.614  1.00  0.00    -0.125 C  
HETATM    7  C   UNL     1      -9.017   9.236  65.563  1.00  0.00    -0.205 C  
HETATM    8  CA  UNL     1      -8.769  13.455  67.139  1.00  0.00    -0.215 C  
HETATM    9  N   UNL     1      -8.516  11.433  66.677  1.00  0.00    -0.168 N  
HETATM   10  O   UNL     1     -10.116   9.754  64.987  1.00  0.00    -0.225 OA 
HETATM   11  OXT UNL     1      -8.637   8.121  65.229  1.00  0.00    -0.160 OA 
HETATM   12  O   UNL     1     -10.335  12.213  65.469  1.00  0.00    -0.248 OA 
ENDROOT
BRANCH   4  13
HETATM   13  C   UNL     1      -7.274   7.954  67.636  1.00  0.00    -0.088 C  
BRANCH  13  14
HETATM   14  S   UNL     1      -8.653   7.069  68.449  1.00  0.00    -0.125 SA 
BRANCH  14  15
HETATM   15  C   UNL     1      -7.978   5.474  68.498  1.00  0.00    -0.088 A  
HETATM   16  N   UNL     1      -7.696   4.805  69.595  1.00  0.00    -0.058 NA 
HETATM   17  N   UNL     1      -7.222   3.583  69.192  1.00  0.00    -0.049 NA 
HETATM   18  N   UNL     1      -7.670   4.682  67.424  1.00  0.00    -0.089 NA 
HETATM   19  N   UNL     1      -7.213   3.490  67.872  1.00  0.00    -0.051 NA 
BRANCH  18  20
HETATM   20  C   UNL     1      -7.886   4.839  66.014  1.00  0.00    -0.095 C  
HETATM   21  O   UNL     1      -9.678   4.668  64.103  1.00  0.00    -0.012 OA 
HETATM   22  O   UNL     1     -10.436   4.656  66.421  1.00  0.00    -0.268 OA 
HETATM   23  O   UNL     1      -9.282   2.636  65.552  1.00  0.00    -0.149 OA 
HETATM   24  S   UNL     1      -9.352   4.068  65.376  1.00  0.00    -0.174 S  
ENDBRANCH  18  20
ENDBRANCH  14  15
ENDBRANCH  13  14
ENDBRANCH   4  13
BRANCH   8  25
HETATM   25  N   UNL     1      -9.604  13.838  68.304  1.00  0.00    -0.216 N  
HETATM   26  C   UNL     1     -10.879  14.356  68.216  1.00  0.00    -0.242 C  
HETATM   27  H   UNL     1      -9.208  13.709  69.235  1.00  0.00     0.000 HD 
HETATM   28  O   UNL     1     -11.432  14.606  67.150  1.00  0.00    -0.344 OA 
BRANCH  26  29
HETATM   29  C   UNL     1     -11.537  14.568  69.598  1.00  0.00    -0.299 C  
HETATM   30  O   UNL     1     -10.615  15.226  70.480  1.00  0.00    -0.462 OA 
HETATM   31  H   UNL     1     -11.019  15.356  71.330  1.00  0.00     0.000 HD 
BRANCH  29  32
HETATM   32  C   UNL     1     -11.987  13.265  70.223  1.00  0.00    -0.372 A  
HETATM   33  C   UNL     1     -11.674  12.045  69.604  1.00  0.00    -0.405 A  
HETATM   34  C   UNL     1     -12.706  13.237  71.431  1.00  0.00    -0.401 A  
HETATM   35  C   UNL     1     -13.122  12.027  71.987  1.00  0.00    -0.456 A  
HETATM   36  C   UNL     1     -12.821  10.826  71.350  1.00  0.00    -0.557 A  
HETATM   37  C   UNL     1     -12.092  10.835  70.162  1.00  0.00    -0.427 A  
ENDBRANCH  29  32
ENDBRANCH  26  29
ENDBRANCH   8  25
TORSDOF 7
ENDMDL
MODEL      200
REMARK 921   NORMALIZED FREE ENERGY PREDICTED BY IDOCK:   -4.83 KCAL/MOL
REMARK 922        TOTAL FREE ENERGY PREDICTED BY IDOCK:   -7.78 KCAL/MOL
REMARK 923 INTER-LIGAND FREE ENERGY PREDICTED BY IDOCK:   -6.62 KCAL/MOL
REMARK 924 INTRA-LIGAND FREE ENERGY PREDICTED BY IDOCK:   -1.15 KCAL/MOL
REMARK 927      BINDING AFFINITY PREDICTED BY RF-SCORE:    0.00 PKD
ROOT
HETATM    1  C   UNL     1      -9.400   6.375  66.723  1.00  0.00    -0.147 C  
HETATM    2  S   UNL     1     -10.438   7.363  67.821  1.00  0.00    -0.226 SA 
HETATM    3  C   UNL     1     -10.611   8.737  66.659  1.00  0.00    -0.070 C  
HETATM    4  C   UNL     1      -9.328   9.173  65.959  1.00  0.00    -0.300 C  
HETATM    5  C   UNL     1      -7.322   6.186  66.783  1.00  0.00    -0.079 C  
HETATM    6  CA  UNL     1      -8.199   8.405  65.885  1.00  0.00    -0.123 C  
HETATM    7  C   UNL     1      -6.941   8.977  65.259  1.00  0.00    -0.083 C  
HETATM    8  CA  UNL     1      -8.468   5.331  67.431  1.00  0.00    -0.106 C  
HETATM    9  N   UNL     1      -8.207   7.131  66.403  1.00  0.00    -0.115 N  
HETATM   10  O   UNL     1      -5.769   8.403  65.580  1.00  0.00    -0.042 OA 
HETATM   11  OXT UNL     1      -6.948   9.932  64.492  1.00  0.00    -0.120 OA 
HETATM   12  O   UNL     1      -6.113   6.186  66.718  1.00  0.00    -0.024 OA 
ENDROOT
BRANCH   4  13
HETATM   13  C   UNL     1      -9.418  10.643  65.527  1.00  0.00    -0.214 C  
BRANCH  13  14
HETATM   14  S   UNL     1     -10.889  11.513  66.177  1.00  0.00    -0.256 SA 
BRANCH  14  15
HETATM   15  C   UNL     1     -10.393  13.152  65.905  1.00  0.00    -0.290 A  
HETATM   16  N   UNL     1     -10.767  13.897  64.887  1.00  0.00    -0.386 NA 
HETATM   17  N   UNL     1     -10.186  15.125  65.073  1.00  0.00    -0.345 NA 
HETATM   18  N   UNL     1      -9.577  13.904  66.708  1.00  0.00    -0.273 NA 
HETATM   19  N   UNL     1      -9.469  15.146  66.185  1.00  0.00    -0.303 NA 
BRANCH  18  20
HETATM   20  C   UNL     1      -8.994  13.656  67.995  1.00  0.00    -0.188 C  
HETATM   21  O   UNL     1      -6.734  13.581  69.329  1.00  0.00    -0.106 OA 
HETATM   22  O   UNL     1      -6.760  14.638  67.131  1.00  0.00    -0.233 OA 
HETATM   23  O   UNL     1      -6.937  12.164  67.247  1.00  0.00    -0.136 OA 
HETATM   24  S   UNL     1      -7.243  13.360  67.995  1.00  0.00    -0.143 S  
ENDBRANCH  18  20
ENDBRANCH  14  15
ENDBRANCH  13  14
ENDBRANCH   4  13
BRANCH   8  25
HETATM   25  N   UNL     1      -8.493   5.336  68.915  1.00  0.00    -0.092 N  
HETATM   26  C   UNL     1      -9.077   4.356  69.690  1.00  0.00    -0.114 C  
HETATM   27  H   UNL     1      -8.048   6.118  69.394  1.00  0.00     0.000 HD 
HETATM   28  O   UNL     1      -9.688   3.401  69.221  1.00  0.00    -0.128 OA 
BRANCH  26  29
HETATM   29  C   UNL     1      -8.861   4.582  71.204  1.00  0.00    -0.116 C  
HETATM   30  O   UNL     1      -9.188   3.385  71.926  1.00  0.00    -0.104 OA 
HETATM   31  H   UNL     1      -9.056   3.523  72.856  1.00  0.00     0.000 HD 
BRANCH  29  32
HETATM   32  C   UNL     1      -9.691   5.731  71.735  1.00  0.00    -0.185 A  
HETATM   33  C   UNL     1     -11.066   5.790  71.458  1.00  0.00    -0.281 A  
HETATM   34  C   UNL     1      -9.122   6.748  72.521  1.00  0.00    -0.142 A  
HETATM   35  C   UNL     1      -9.901   7.806  72.993  1.00  0.00    -0.344 A  
HETATM   36  C   UNL     1     -11.259   7.860  72.693  1.00  0.00    -0.459 A  
HETATM   37  C   UNL     1     -11.843   6.850  71.931  1.00  0.00    -0.351 A  
ENDBRANCH  29  32
ENDBRANCH  26  29
ENDBRANCH   8  25
TORSDOF 7
ENDMDL
MODEL      201
REMARK 921   NORMALIZED FREE ENERGY PREDICTED BY IDOCK:   -4.79 KCAL/MOL
REMARK 922        TOTAL FREE ENERGY PREDICTED BY IDOCK:   -7.72 KCAL/MOL
REMARK 923 INTER-LIGAND FREE ENERGY PREDICTED BY IDOCK:   -7.44 KCAL/MOL
REMARK 924 INTRA-LIGAND FREE ENERGY PREDICTED BY IDOCK:   -0.29 KCAL/MOL
REMARK 927      BINDING AFFINITY PREDICTED BY RF-SCORE:    0.00 PKD
ROOT
HETATM    1  C   UNL     1      -8.181  10.941  68.935  1.00  0.00    -0.141 C  
HETATM    2  S   UNL     1      -7.493  11.399  67.330  1.00  0.00    -0.142 SA 
HETATM    3  C   UNL     1      -7.956  13.141  67.465  1.00  0.00    -0.179 C  
HETATM    4  C   UNL     1      -9.368  13.409  67.978  1.00  0.00    -0.217 C  
HETATM    5  C   UNL     1     -10.021  10.028  69.306  1.00  0.00    -0.213 C  
HETATM    6  CA  UNL     1     -10.127  12.487  68.643  1.00  0.00    -0.130 C  
HETATM    7  C   UNL     1     -11.560  12.821  69.013  1.00  0.00    -0.316 C  
HETATM    8  CA  UNL     1      -8.583   9.434  69.094  1.00  0.00    -0.140 C  
HETATM    9  N   UNL     1      -9.595  11.256  68.944  1.00  0.00    -0.153 N  
HETATM   10  O   UNL     1     -12.396  11.796  69.255  1.00  0.00    -0.178 OA 
HETATM   11  OXT UNL     1     -11.983  13.968  69.092  1.00  0.00    -0.329 OA 
HETATM   12  O   UNL     1     -11.141   9.634  69.539  1.00  0.00    -0.229 OA 
ENDROOT
BRANCH   4  13
HETATM   13  C   UNL     1      -9.876  14.769  67.480  1.00  0.00    -0.218 C  
BRANCH  13  14
HETATM   14  S   UNL     1      -9.470  15.113  65.730  1.00  0.00    -0.153 SA 
BRANCH  14  15
HETATM   15  C   UNL     1      -9.885  16.795  65.667  1.00  0.00    -0.079 A  
HETATM   16  N   UNL     1     -10.928  17.293  65.039  1.00  0.00    -0.716 NA 
HETATM   17  N   UNL     1     -10.909  18.644  65.271  1.00  0.00    -0.448 NA 
HETATM   18  N   UNL     1      -9.216  17.826  66.271  1.00  0.00    -0.440 NA 
HETATM   19  N   UNL     1      -9.878  18.980  66.030  1.00  0.00    -0.481 NA 
BRANCH  18  20
HETATM   20  C   UNL     1      -8.105  17.857  67.178  1.00  0.00    -0.212 C  
HETATM   21  O   UNL     1      -7.090  19.096  69.257  1.00  0.00    -0.323 OA 
HETATM   22  O   UNL     1      -9.424  19.504  68.679  1.00  0.00    -0.375 OA 
HETATM   23  O   UNL     1      -7.665  20.469  67.216  1.00  0.00    -0.316 OA 
HETATM   24  S   UNL     1      -7.919  19.360  68.105  1.00  0.00    -0.326 S  
ENDBRANCH  18  20
ENDBRANCH  14  15
ENDBRANCH  13  14
ENDBRANCH   4  13
BRANCH   8  25
HETATM   25  N   UNL     1      -8.425   8.586  67.885  1.00  0.00    -0.130 N  
HETATM   26  C   UNL     1      -7.432   7.644  67.716  1.00  0.00    -0.108 C  
HETATM   27  H   UNL     1      -9.097   8.709  67.128  1.00  0.00     0.000 HD 
HETATM   28  O   UNL     1      -6.539   7.452  68.534  1.00  0.00    -0.046 OA 
BRANCH  26  29
HETATM   29  C   UNL     1      -7.579   6.850  66.398  1.00  0.00    -0.089 C  
HETATM   30  O   UNL     1      -6.690   5.723  66.407  1.00  0.00    -0.054 OA 
HETATM   31  H   UNL     1      -6.779   5.235  65.598  1.00  0.00     0.000 HD 
BRANCH  29  32
HETATM   32  C   UNL     1      -7.294   7.704  65.181  1.00  0.00    -0.076 A  
HETATM   33  C   UNL     1      -5.987   7.798  64.679  1.00  0.00    -0.041 A  
HETATM   34  C   UNL     1      -8.317   8.404  64.517  1.00  0.00    -0.125 A  
HETATM   35  C   UNL     1      -8.035   9.195  63.403  1.00  0.00    -0.148 A  
HETATM   36  C   UNL     1      -6.729   9.293  62.930  1.00  0.00    -0.093 A  
HETATM   37  C   UNL     1      -5.706   8.590  63.565  1.00  0.00    -0.071 A  
ENDBRANCH  29  32
ENDBRANCH  26  29
ENDBRANCH   8  25
TORSDOF 7
ENDMDL
MODEL      202
REMARK 921   NORMALIZED FREE ENERGY PREDICTED BY IDOCK:   -4.77 KCAL/MOL
REMARK 922        TOTAL FREE ENERGY PREDICTED BY IDOCK:   -7.69 KCAL/MOL
REMARK 923 INTER-LIGAND FREE ENERGY PREDICTED BY IDOCK:   -6.49 KCAL/MOL
REMARK 924 INTRA-LIGAND FREE ENERGY PREDICTED BY IDOCK:   -1.20 KCAL/MOL
REMARK 927      BINDING AFFINITY PREDICTED BY RF-SCORE:    0.00 PKD
ROOT
HETATM    1  C   UNL     1      -8.697   7.967  68.536  1.00  0.00    -0.131 C  
HETATM    2  S   UNL     1     -10.491   8.163  68.547  1.00  0.00    -0.115 SA 
HETATM    3  C   UNL     1     -10.473   9.705  67.602  1.00  0.00    -0.261 C  
HETATM    4  C   UNL     1      -9.428  10.729  68.033  1.00  0.00    -0.166 C  
HETATM    5  C   UNL     1      -7.366   8.445  70.073  1.00  0.00    -0.059 C  
HETATM    6  CA  UNL     1      -8.335  10.429  68.799  1.00  0.00    -0.134 C  
HETATM    7  C   UNL     1      -7.415  11.543  69.262  1.00  0.00     0.035 C  
HETATM    8  CA  UNL     1      -8.104   7.108  69.708  1.00  0.00    -0.129 C  
HETATM    9  N   UNL     1      -8.096   9.125  69.165  1.00  0.00    -0.102 N  
HETATM   10  O   UNL     1      -6.638  11.304  70.333  1.00  0.00    -0.248 OA 
HETATM   11  OXT UNL     1      -7.358  12.638  68.716  1.00  0.00    -0.107 OA 
HETATM   12  O   UNL     1      -6.578   8.852  70.896  1.00  0.00    -0.047 OA 
ENDROOT
BRANCH   4  13
HETATM   13  C   UNL     1      -9.871  12.148  67.656  1.00  0.00    -0.194 C  
BRANCH  13  14
HETATM   14  S   UNL     1     -11.600  12.528  68.117  1.00  0.00    -0.355 SA 
BRANCH  14  15
HETATM   15  C   UNL     1     -11.449  14.231  68.407  1.00  0.00    -0.301 A  
HETATM   16  N   UNL     1     -11.365  15.152  67.472  1.00  0.00    -0.333 NA 
HETATM   17  N   UNL     1     -11.300  16.358  68.122  1.00  0.00    -0.281 NA 
HETATM   18  N   UNL     1     -11.424  14.854  69.626  1.00  0.00    -0.277 NA 
HETATM   19  N   UNL     1     -11.348  16.191  69.434  1.00  0.00    -0.333 NA 
BRANCH  18  20
HETATM   20  C   UNL     1     -11.611  14.369  70.963  1.00  0.00    -0.107 C  
HETATM   21  O   UNL     1     -13.411  13.748  72.770  1.00  0.00    -0.616 OA 
HETATM   22  O   UNL     1     -14.132  14.064  70.461  1.00  0.00     0.644 OA 
HETATM   23  O   UNL     1     -13.476  16.068  71.771  1.00  0.00    -0.328 OA 
HETATM   24  S   UNL     1     -13.220  14.652  71.659  1.00  0.00    -0.377 S  
ENDBRANCH  18  20
ENDBRANCH  14  15
ENDBRANCH  13  14
ENDBRANCH   4  13
BRANCH   8  25
HETATM   25  N   UNL     1      -9.076   6.629  70.722  1.00  0.00    -0.151 N  
HETATM   26  C   UNL     1      -8.735   6.163  71.974  1.00  0.00    -0.135 C  
HETATM   27  H   UNL     1     -10.066   6.646  70.475  1.00  0.00     0.000 HD 
HETATM   28  O   UNL     1      -7.575   6.046  72.355  1.00  0.00    -0.097 OA 
BRANCH  26  29
HETATM   29  C   UNL     1      -9.966   5.826  72.844  1.00  0.00    -0.176 C  
HETATM   30  O   UNL     1     -10.416   4.494  72.555  1.00  0.00    -0.194 OA 
HETATM   31  H   UNL     1     -11.173   4.286  73.090  1.00  0.00     0.000 HD 
BRANCH  29  32
HETATM   32  C   UNL     1     -11.105   6.799  72.626  1.00  0.00    -0.301 A  
HETATM   33  C   UNL     1     -12.347   6.335  72.166  1.00  0.00    -0.193 A  
HETATM   34  C   UNL     1     -10.960   8.172  72.889  1.00  0.00    -0.307 A  
HETATM   35  C   UNL     1     -12.017   9.057  72.672  1.00  0.00     0.062 A  
HETATM   36  C   UNL     1     -13.236   8.583  72.196  1.00  0.00    -0.384 A  
HETATM   37  C   UNL     1     -13.403   7.222  71.948  1.00  0.00    -0.288 A  
ENDBRANCH  29  32
ENDBRANCH  26  29
ENDBRANCH   8  25
TORSDOF 7
ENDMDL
MODEL      203
REMARK 921   NORMALIZED FREE ENERGY PREDICTED BY IDOCK:   -4.77 KCAL/MOL
REMARK 922        TOTAL FREE ENERGY PREDICTED BY IDOCK:   -7.69 KCAL/MOL
REMARK 923 INTER-LIGAND FREE ENERGY PREDICTED BY IDOCK:   -7.22 KCAL/MOL
REMARK 924 INTRA-LIGAND FREE ENERGY PREDICTED BY IDOCK:   -0.47 KCAL/MOL
REMARK 927      BINDING AFFINITY PREDICTED BY RF-SCORE:    0.00 PKD
ROOT
HETATM    1  C   UNL     1     -11.550   8.352  69.850  1.00  0.00     0.297 C  
HETATM    2  S   UNL     1     -10.986   9.894  70.601  1.00  0.00    -0.339 SA 
HETATM    3  C   UNL     1     -11.064  10.841  69.062  1.00  0.00    -0.253 C  
HETATM    4  C   UNL     1     -10.489  10.146  67.832  1.00  0.00    -0.265 C  
HETATM    5  C   UNL     1     -10.373   6.738  69.245  1.00  0.00    -0.200 C  
HETATM    6  CA  UNL     1     -10.265   8.800  67.750  1.00  0.00    -0.228 C  
HETATM    7  C   UNL     1      -9.588   8.225  66.519  1.00  0.00    -0.244 C  
HETATM    8  CA  UNL     1     -11.119   7.040  70.593  1.00  0.00    -0.272 C  
HETATM    9  N   UNL     1     -10.630   7.983  68.794  1.00  0.00    -0.165 N  
HETATM   10  O   UNL     1      -8.997   7.024  66.638  1.00  0.00    -0.131 OA 
HETATM   11  OXT UNL     1      -9.549   8.806  65.442  1.00  0.00    -0.071 OA 
HETATM   12  O   UNL     1      -9.690   5.864  68.761  1.00  0.00    -0.124 OA 
ENDROOT
BRANCH   4  13
HETATM   13  C   UNL     1     -10.025  11.177  66.794  1.00  0.00    -0.208 C  
BRANCH  13  14
HETATM   14  S   UNL     1      -8.567  12.148  67.319  1.00  0.00    -0.187 SA 
BRANCH  14  15
HETATM   15  C   UNL     1      -9.320  13.694  67.540  1.00  0.00    -0.223 A  
HETATM   16  N   UNL     1      -9.243  14.423  68.632  1.00  0.00    -0.197 NA 
HETATM   17  N   UNL     1      -9.938  15.577  68.376  1.00  0.00    -0.211 NA 
HETATM   18  N   UNL     1     -10.066  14.380  66.619  1.00  0.00    -0.267 NA 
HETATM   19  N   UNL     1     -10.434  15.569  67.149  1.00  0.00    -0.281 NA 
BRANCH  18  20
HETATM   20  C   UNL     1     -10.363  14.131  65.238  1.00  0.00    -0.388 C  
HETATM   21  O   UNL     1     -12.307  13.834  63.499  1.00  0.00    -0.706 OA 
HETATM   22  O   UNL     1     -12.833  14.758  65.694  1.00  0.00    -0.053 OA 
HETATM   23  O   UNL     1     -12.291  12.339  65.536  1.00  0.00    -0.602 OA 
HETATM   24  S   UNL     1     -12.025  13.607  64.897  1.00  0.00    -0.407 S  
ENDBRANCH  18  20
ENDBRANCH  14  15
ENDBRANCH  13  14
ENDBRANCH   4  13
BRANCH   8  25
HETATM   25  N   UNL     1     -10.237   7.220  71.773  1.00  0.00    -0.194 N  
HETATM   26  C   UNL     1      -9.840   6.202  72.615  1.00  0.00    -0.167 C  
HETATM   27  H   UNL     1      -9.901   8.162  71.976  1.00  0.00     0.000 HD 
HETATM   28  O   UNL     1     -10.227   5.044  72.501  1.00  0.00    -0.182 OA 
BRANCH  26  29
HETATM   29  C   UNL     1      -8.845   6.675  73.699  1.00  0.00    -0.127 C  
HETATM   30  O   UNL     1      -9.446   7.708  74.494  1.00  0.00    -0.343 OA 
HETATM   31  H   UNL     1      -8.835   7.999  75.161  1.00  0.00     0.000 HD 
BRANCH  29  32
HETATM   32  C   UNL     1      -7.551   7.188  73.103  1.00  0.00    -0.084 A  
HETATM   33  C   UNL     1      -6.919   8.311  73.659  1.00  0.00    -0.157 A  
HETATM   34  C   UNL     1      -6.945   6.555  72.005  1.00  0.00    -0.073 A  
HETATM   35  C   UNL     1      -5.758   7.048  71.461  1.00  0.00    -0.036 A  
HETATM   36  C   UNL     1      -5.154   8.175  72.012  1.00  0.00    -0.035 A  
HETATM   37  C   UNL     1      -5.732   8.803  73.114  1.00  0.00    -0.094 A  
ENDBRANCH  29  32
ENDBRANCH  26  29
ENDBRANCH   8  25
TORSDOF 7
ENDMDL
MODEL      204
REMARK 921   NORMALIZED FREE ENERGY PREDICTED BY IDOCK:   -4.77 KCAL/MOL
REMARK 922        TOTAL FREE ENERGY PREDICTED BY IDOCK:   -7.68 KCAL/MOL
REMARK 923 INTER-LIGAND FREE ENERGY PREDICTED BY IDOCK:   -6.41 KCAL/MOL
REMARK 924 INTRA-LIGAND FREE ENERGY PREDICTED BY IDOCK:   -1.27 KCAL/MOL
REMARK 927      BINDING AFFINITY PREDICTED BY RF-SCORE:    0.00 PKD
ROOT
HETATM    1  C   UNL     1     -10.788   8.238  69.874  1.00  0.00    -0.213 C  
HETATM    2  S   UNL     1     -10.980   7.109  68.479  1.00  0.00     0.045 SA 
HETATM    3  C   UNL     1     -10.803   5.612  69.478  1.00  0.00    -0.274 C  
HETATM    4  C   UNL     1      -9.673   5.634  70.502  1.00  0.00    -0.233 C  
HETATM    5  C   UNL     1      -9.062   9.274  70.431  1.00  0.00    -0.247 C  
HETATM    6  CA  UNL     1      -9.056   6.775  70.935  1.00  0.00    -0.153 C  
HETATM    7  C   UNL     1      -7.869   6.676  71.874  1.00  0.00    -0.098 C  
HETATM    8  CA  UNL     1     -10.273   9.675  69.515  1.00  0.00    -0.218 C  
HETATM    9  N   UNL     1      -9.500   7.999  70.494  1.00  0.00    -0.165 N  
HETATM   10  O   UNL     1      -7.033   7.727  71.934  1.00  0.00    -0.060 OA 
HETATM   11  OXT UNL     1      -7.638   5.690  72.563  1.00  0.00    -0.095 OA 
HETATM   12  O   UNL     1      -8.035   9.761  70.844  1.00  0.00    -0.279 OA 
ENDROOT
BRANCH   4  13
HETATM   13  C   UNL     1      -9.205   4.208  70.823  1.00  0.00    -0.127 C  
BRANCH  13  14
HETATM   14  S   UNL     1      -7.758   3.669  69.842  1.00  0.00    -0.047 SA 
BRANCH  14  15
HETATM   15  C   UNL     1      -8.430   3.799  68.250  1.00  0.00    -0.092 A  
HETATM   16  N   UNL     1      -9.272   2.942  67.712  1.00  0.00    -0.190 NA 
HETATM   17  N   UNL     1      -9.582   3.434  66.470  1.00  0.00    -0.118 NA 
HETATM   18  N   UNL     1      -8.209   4.805  67.348  1.00  0.00    -0.105 NA 
HETATM   19  N   UNL     1      -8.951   4.575  66.241  1.00  0.00    -0.116 NA 
BRANCH  18  20
HETATM   20  C   UNL     1      -7.497   6.047  67.441  1.00  0.00    -0.081 C  
HETATM   21  O   UNL     1      -5.236   7.253  66.871  1.00  0.00    -0.020 OA 
HETATM   22  O   UNL     1      -5.715   5.106  65.815  1.00  0.00    -0.017 OA 
HETATM   23  O   UNL     1      -5.142   5.126  68.232  1.00  0.00     0.000 OA 
HETATM   24  S   UNL     1      -5.741   5.940  67.200  1.00  0.00    -0.017 S  
ENDBRANCH  18  20
ENDBRANCH  14  15
ENDBRANCH  13  14
ENDBRANCH   4  13
BRANCH   8  25
HETATM   25  N   UNL     1      -9.933   9.908  68.089  1.00  0.00    -0.147 N  
HETATM   26  C   UNL     1      -9.313  11.043  67.608  1.00  0.00    -0.157 C  
HETATM   27  H   UNL     1     -10.174   9.179  67.419  1.00  0.00     0.000 HD 
HETATM   28  O   UNL     1      -9.030  12.006  68.314  1.00  0.00    -0.184 OA 
BRANCH  26  29
HETATM   29  C   UNL     1      -9.000  10.960  66.097  1.00  0.00    -0.183 C  
HETATM   30  O   UNL     1      -7.677  11.457  65.846  1.00  0.00    -0.370 OA 
HETATM   31  H   UNL     1      -7.485  11.407  64.917  1.00  0.00     0.000 HD 
BRANCH  29  32
HETATM   32  C   UNL     1      -9.996  11.739  65.264  1.00  0.00    -0.284 A  
HETATM   33  C   UNL     1     -10.210  13.102  65.518  1.00  0.00    -0.297 A  
HETATM   34  C   UNL     1     -10.711  11.133  64.216  1.00  0.00    -0.403 A  
HETATM   35  C   UNL     1     -11.633  11.864  63.465  1.00  0.00    -0.537 A  
HETATM   36  C   UNL     1     -11.849  13.211  63.743  1.00  0.00    -0.546 A  
HETATM   37  C   UNL     1     -11.133  13.831  64.766  1.00  0.00    -0.380 A  
ENDBRANCH  29  32
ENDBRANCH  26  29
ENDBRANCH   8  25
TORSDOF 7
ENDMDL
MODEL      205
REMARK 921   NORMALIZED FREE ENERGY PREDICTED BY IDOCK:   -4.76 KCAL/MOL
REMARK 922        TOTAL FREE ENERGY PREDICTED BY IDOCK:   -7.67 KCAL/MOL
REMARK 923 INTER-LIGAND FREE ENERGY PREDICTED BY IDOCK:   -8.15 KCAL/MOL
REMARK 924 INTRA-LIGAND FREE ENERGY PREDICTED BY IDOCK:    0.48 KCAL/MOL
REMARK 927      BINDING AFFINITY PREDICTED BY RF-SCORE:    0.00 PKD
ROOT
HETATM    1  C   UNL     1     -10.602   5.897  71.745  1.00  0.00    -0.234 C  
HETATM    2  S   UNL     1     -11.351   6.251  70.141  1.00  0.00    -0.367 SA 
HETATM    3  C   UNL     1      -9.924   5.681  69.187  1.00  0.00    -0.183 C  
HETATM    4  C   UNL     1      -8.564   6.146  69.696  1.00  0.00    -0.128 C  
HETATM    5  C   UNL     1      -9.681   7.256  73.035  1.00  0.00    -0.186 C  
HETATM    6  CA  UNL     1      -8.345   6.633  70.955  1.00  0.00    -0.125 C  
HETATM    7  C   UNL     1      -6.975   7.170  71.324  1.00  0.00    -0.060 C  
HETATM    8  CA  UNL     1     -11.158   6.733  72.950  1.00  0.00    -0.243 C  
HETATM    9  N   UNL     1      -9.375   6.656  71.865  1.00  0.00    -0.148 N  
HETATM   10  O   UNL     1      -6.898   8.016  72.366  1.00  0.00    -0.067 OA 
HETATM   11  OXT UNL     1      -5.953   6.878  70.716  1.00  0.00    -0.027 OA 
HETATM   12  O   UNL     1      -9.020   8.005  73.718  1.00  0.00    -0.272 OA 
ENDROOT
BRANCH   4  13
HETATM   13  C   UNL     1      -7.538   6.172  68.556  1.00  0.00    -0.092 C  
BRANCH  13  14
HETATM   14  S   UNL     1      -7.125   4.516  67.898  1.00  0.00    -0.065 SA 
BRANCH  14  15
HETATM   15  C   UNL     1      -6.787   4.939  66.251  1.00  0.00    -0.065 A  
HETATM   16  N   UNL     1      -5.589   4.966  65.708  1.00  0.00    -0.017 NA 
HETATM   17  N   UNL     1      -5.769   5.309  64.393  1.00  0.00    -0.017 NA 
HETATM   18  N   UNL     1      -7.701   5.275  65.289  1.00  0.00    -0.082 NA 
HETATM   19  N   UNL     1      -7.052   5.488  64.121  1.00  0.00    -0.048 NA 
BRANCH  18  20
HETATM   20  C   UNL     1      -9.135   5.282  65.279  1.00  0.00    -0.089 C  
HETATM   21  O   UNL     1     -11.266   3.877  64.665  1.00  0.00    -0.266 OA 
HETATM   22  O   UNL     1      -9.107   2.745  64.760  1.00  0.00    -0.124 OA 
HETATM   23  O   UNL     1      -9.545   4.282  62.860  1.00  0.00    -0.143 OA 
HETATM   24  S   UNL     1      -9.897   4.057  64.242  1.00  0.00    -0.153 S  
ENDBRANCH  18  20
ENDBRANCH  14  15
ENDBRANCH  13  14
ENDBRANCH   4  13
BRANCH   8  25
HETATM   25  N   UNL     1     -12.172   7.764  72.615  1.00  0.00    -0.581 N  
HETATM   26  C   UNL     1     -11.886   8.984  72.041  1.00  0.00    -0.356 C  
HETATM   27  H   UNL     1     -13.148   7.555  72.824  1.00  0.00     0.000 HD 
HETATM   28  O   UNL     1     -10.744   9.364  71.799  1.00  0.00    -0.334 OA 
BRANCH  26  29
HETATM   29  C   UNL     1     -13.154   9.808  71.720  1.00  0.00    -0.431 C  
HETATM   30  O   UNL     1     -13.943   9.124  70.736  1.00  0.00    -0.560 OA 
HETATM   31  H   UNL     1     -14.722   9.629  70.538  1.00  0.00     0.000 HD 
BRANCH  29  32
HETATM   32  C   UNL     1     -12.821  11.198  71.219  1.00  0.00    -0.515 A  
HETATM   33  C   UNL     1     -13.180  12.322  71.979  1.00  0.00    -0.508 A  
HETATM   34  C   UNL     1     -12.139  11.399  70.007  1.00  0.00    -0.417 A  
HETATM   35  C   UNL     1     -11.850  12.688  69.556  1.00  0.00    -0.376 A  
HETATM   36  C   UNL     1     -12.231  13.793  70.311  1.00  0.00    -0.429 A  
HETATM   37  C   UNL     1     -12.890  13.610  71.525  1.00  0.00    -0.445 A  
ENDBRANCH  29  32
ENDBRANCH  26  29
ENDBRANCH   8  25
TORSDOF 7
ENDMDL
MODEL      206
REMARK 921   NORMALIZED FREE ENERGY PREDICTED BY IDOCK:   -4.76 KCAL/MOL
REMARK 922        TOTAL FREE ENERGY PREDICTED BY IDOCK:   -7.67 KCAL/MOL
REMARK 923 INTER-LIGAND FREE ENERGY PREDICTED BY IDOCK:   -8.01 KCAL/MOL
REMARK 924 INTRA-LIGAND FREE ENERGY PREDICTED BY IDOCK:    0.34 KCAL/MOL
REMARK 927      BINDING AFFINITY PREDICTED BY RF-SCORE:    0.00 PKD
ROOT
HETATM    1  C   UNL     1     -10.556   7.178  67.133  1.00  0.00    -0.347 C  
HETATM    2  S   UNL     1     -10.484   8.043  68.717  1.00  0.00    -0.130 SA 
HETATM    3  C   UNL     1     -10.489   9.694  67.980  1.00  0.00    -0.229 C  
HETATM    4  C   UNL     1      -9.566   9.882  66.780  1.00  0.00    -0.231 C  
HETATM    5  C   UNL     1      -8.967   6.304  66.100  1.00  0.00    -0.153 C  
HETATM    6  CA  UNL     1      -9.044   8.851  66.048  1.00  0.00    -0.214 C  
HETATM    7  C   UNL     1      -8.049   9.145  64.941  1.00  0.00    -0.133 C  
HETATM    8  CA  UNL     1      -9.990   5.716  67.135  1.00  0.00    -0.164 C  
HETATM    9  N   UNL     1      -9.404   7.557  66.341  1.00  0.00    -0.174 N  
HETATM   10  O   UNL     1      -7.243   8.144  64.547  1.00  0.00    -0.078 OA 
HETATM   11  OXT UNL     1      -7.945  10.241  64.405  1.00  0.00    -0.160 OA 
HETATM   12  O   UNL     1      -8.036   5.924  65.427  1.00  0.00    -0.106 OA 
ENDROOT
BRANCH   4  13
HETATM   13  C   UNL     1      -9.159  11.355  66.633  1.00  0.00    -0.181 C  
BRANCH  13  14
HETATM   14  S   UNL     1     -10.161  12.500  67.648  1.00  0.00    -0.221 SA 
BRANCH  14  15
HETATM   15  C   UNL     1      -9.816  13.986  66.824  1.00  0.00    -0.273 A  
HETATM   16  N   UNL     1      -9.274  15.049  67.377  1.00  0.00    -0.191 NA 
HETATM   17  N   UNL     1      -9.139  15.978  66.377  1.00  0.00    -0.289 NA 
HETATM   18  N   UNL     1     -10.028  14.254  65.498  1.00  0.00    -0.331 NA 
HETATM   19  N   UNL     1      -9.583  15.502  65.225  1.00  0.00    -0.238 NA 
BRANCH  18  20
HETATM   20  C   UNL     1     -10.465  13.435  64.404  1.00  0.00    -0.384 C  
HETATM   21  O   UNL     1     -12.496  12.889  62.833  1.00  0.00    -0.367 OA 
HETATM   22  O   UNL     1     -12.577  14.917  64.187  1.00  0.00    -0.785 OA 
HETATM   23  O   UNL     1     -12.845  12.728  65.330  1.00  0.00    -0.674 OA 
HETATM   24  S   UNL     1     -12.224  13.339  64.178  1.00  0.00    -0.383 S  
ENDBRANCH  18  20
ENDBRANCH  14  15
ENDBRANCH  13  14
ENDBRANCH   4  13
BRANCH   8  25
HETATM   25  N   UNL     1      -9.394   5.249  68.412  1.00  0.00    -0.114 N  
HETATM   26  C   UNL     1      -8.049   5.300  68.712  1.00  0.00    -0.090 C  
HETATM   27  H   UNL     1     -10.023   4.865  69.117  1.00  0.00     0.000 HD 
HETATM   28  O   UNL     1      -7.197   5.689  67.920  1.00  0.00    -0.070 OA 
BRANCH  26  29
HETATM   29  C   UNL     1      -7.738   4.833  70.152  1.00  0.00    -0.058 C  
HETATM   30  O   UNL     1      -7.846   3.404  70.235  1.00  0.00    -0.046 OA 
HETATM   31  H   UNL     1      -7.655   3.117  71.120  1.00  0.00     0.000 HD 
BRANCH  29  32
HETATM   32  C   UNL     1      -8.662   5.467  71.171  1.00  0.00    -0.135 A  
HETATM   33  C   UNL     1      -8.406   6.765  71.637  1.00  0.00    -0.111 A  
HETATM   34  C   UNL     1      -9.793   4.791  71.658  1.00  0.00    -0.248 A  
HETATM   35  C   UNL     1     -10.628   5.386  72.605  1.00  0.00    -0.274 A  
HETATM   36  C   UNL     1     -10.350   6.668  73.073  1.00  0.00    -0.244 A  
HETATM   37  C   UNL     1      -9.242   7.359  72.585  1.00  0.00    -0.185 A  
ENDBRANCH  29  32
ENDBRANCH  26  29
ENDBRANCH   8  25
TORSDOF 7
ENDMDL
MODEL      207
REMARK 921   NORMALIZED FREE ENERGY PREDICTED BY IDOCK:   -4.74 KCAL/MOL
REMARK 922        TOTAL FREE ENERGY PREDICTED BY IDOCK:   -7.65 KCAL/MOL
REMARK 923 INTER-LIGAND FREE ENERGY PREDICTED BY IDOCK:   -7.73 KCAL/MOL
REMARK 924 INTRA-LIGAND FREE ENERGY PREDICTED BY IDOCK:    0.08 KCAL/MOL
REMARK 927      BINDING AFFINITY PREDICTED BY RF-SCORE:    0.00 PKD
ROOT
HETATM    1  C   UNL     1     -10.635   6.362  71.803  1.00  0.00    -0.220 C  
HETATM    2  S   UNL     1     -11.690   6.465  70.341  1.00  0.00    -0.200 SA 
HETATM    3  C   UNL     1     -10.571   5.510  69.289  1.00  0.00    -0.255 C  
HETATM    4  C   UNL     1      -9.095   5.880  69.392  1.00  0.00    -0.134 C  
HETATM    5  C   UNL     1      -9.329   7.823  72.521  1.00  0.00    -0.178 C  
HETATM    6  CA  UNL     1      -8.555   6.589  70.429  1.00  0.00    -0.146 C  
HETATM    7  C   UNL     1      -7.095   6.997  70.380  1.00  0.00    -0.067 C  
HETATM    8  CA  UNL     1     -10.829   7.506  72.858  1.00  0.00    -0.373 C  
HETATM    9  N   UNL     1      -9.348   6.951  71.493  1.00  0.00    -0.155 N  
HETATM   10  O   UNL     1      -6.710   8.027  71.153  1.00  0.00    -0.040 OA 
HETATM   11  OXT UNL     1      -6.266   6.442  69.670  1.00  0.00    -0.031 OA 
HETATM   12  O   UNL     1      -8.466   8.602  72.860  1.00  0.00    -0.403 OA 
ENDROOT
BRANCH   4  13
HETATM   13  C   UNL     1      -8.353   5.517  68.099  1.00  0.00    -0.099 C  
BRANCH  13  14
HETATM   14  S   UNL     1      -9.399   5.599  66.601  1.00  0.00    -0.149 SA 
BRANCH  14  15
HETATM   15  C   UNL     1      -8.225   6.177  65.465  1.00  0.00    -0.144 A  
HETATM   16  N   UNL     1      -7.927   5.595  64.323  1.00  0.00    -0.119 NA 
HETATM   17  N   UNL     1      -6.989   6.392  63.717  1.00  0.00    -0.041 NA 
HETATM   18  N   UNL     1      -7.472   7.315  65.575  1.00  0.00    -0.081 NA 
HETATM   19  N   UNL     1      -6.712   7.449  64.463  1.00  0.00    -0.043 NA 
BRANCH  18  20
HETATM   20  C   UNL     1      -7.473   8.387  66.528  1.00  0.00    -0.081 C  
HETATM   21  O   UNL     1      -8.690  10.602  67.239  1.00  0.00    -0.129 OA 
HETATM   22  O   UNL     1      -9.792   9.123  65.642  1.00  0.00    -0.264 OA 
HETATM   23  O   UNL     1      -7.822  10.425  64.873  1.00  0.00    -0.149 OA 
HETATM   24  S   UNL     1      -8.397   9.828  66.055  1.00  0.00    -0.123 S  
ENDBRANCH  18  20
ENDBRANCH  14  15
ENDBRANCH  13  14
ENDBRANCH   4  13
BRANCH   8  25
HETATM   25  N   UNL     1     -11.794   8.572  72.494  1.00  0.00    -0.368 N  
HETATM   26  C   UNL     1     -11.543   9.577  71.583  1.00  0.00    -0.381 C  
HETATM   27  H   UNL     1     -12.707   8.561  72.948  1.00  0.00     0.000 HD 
HETATM   28  O   UNL     1     -10.462   9.721  71.020  1.00  0.00    -0.290 OA 
BRANCH  26  29
HETATM   29  C   UNL     1     -12.770  10.484  71.337  1.00  0.00    -0.442 C  
HETATM   30  O   UNL     1     -13.877   9.692  70.881  1.00  0.00    -0.496 OA 
HETATM   31  H   UNL     1     -14.632  10.249  70.730  1.00  0.00     0.000 HD 
BRANCH  29  32
HETATM   32  C   UNL     1     -12.482  11.574  70.327  1.00  0.00    -0.284 A  
HETATM   33  C   UNL     1     -12.523  12.921  70.717  1.00  0.00    -0.370 A  
HETATM   34  C   UNL     1     -12.154  11.273  68.994  1.00  0.00    -0.325 A  
HETATM   35  C   UNL     1     -11.902  12.291  68.073  1.00  0.00    -0.368 A  
HETATM   36  C   UNL     1     -11.966  13.623  68.471  1.00  0.00    -0.396 A  
HETATM   37  C   UNL     1     -12.272  13.938  69.794  1.00  0.00    -0.388 A  
ENDBRANCH  29  32
ENDBRANCH  26  29
ENDBRANCH   8  25
TORSDOF 7
ENDMDL
MODEL      208
REMARK 921   NORMALIZED FREE ENERGY PREDICTED BY IDOCK:   -4.74 KCAL/MOL
REMARK 922        TOTAL FREE ENERGY PREDICTED BY IDOCK:   -7.65 KCAL/MOL
REMARK 923 INTER-LIGAND FREE ENERGY PREDICTED BY IDOCK:   -6.57 KCAL/MOL
REMARK 924 INTRA-LIGAND FREE ENERGY PREDICTED BY IDOCK:   -1.08 KCAL/MOL
REMARK 927      BINDING AFFINITY PREDICTED BY RF-SCORE:    0.00 PKD
ROOT
HETATM    1  C   UNL     1      -6.969   9.251  68.393  1.00  0.00    -0.067 C  
HETATM    2  S   UNL     1      -8.260   8.859  69.592  1.00  0.00    -0.119 SA 
HETATM    3  C   UNL     1      -7.755   7.134  69.790  1.00  0.00    -0.108 C  
HETATM    4  C   UNL     1      -7.436   6.390  68.498  1.00  0.00    -0.088 C  
HETATM    5  C   UNL     1      -7.165   9.356  66.317  1.00  0.00    -0.092 C  
HETATM    6  CA  UNL     1      -7.172   7.006  67.306  1.00  0.00    -0.089 C  
HETATM    7  C   UNL     1      -6.974   6.169  66.056  1.00  0.00    -0.062 C  
HETATM    8  CA  UNL     1      -7.279  10.453  67.434  1.00  0.00    -0.091 C  
HETATM    9  N   UNL     1      -7.116   8.378  67.246  1.00  0.00    -0.078 N  
HETATM   10  O   UNL     1      -7.152   6.773  64.868  1.00  0.00    -0.056 OA 
HETATM   11  OXT UNL     1      -6.671   4.983  66.083  1.00  0.00    -0.051 OA 
HETATM   12  O   UNL     1      -7.234   9.275  65.111  1.00  0.00    -0.091 OA 
ENDROOT
BRANCH   4  13
HETATM   13  C   UNL     1      -7.640   4.879  68.677  1.00  0.00    -0.077 C  
BRANCH  13  14
HETATM   14  S   UNL     1      -9.393   4.360  68.615  1.00  0.00    -0.156 SA 
BRANCH  14  15
HETATM   15  C   UNL     1      -9.550   3.698  70.210  1.00  0.00    -0.176 A  
HETATM   16  N   UNL     1      -9.486   2.418  70.507  1.00  0.00    -0.135 NA 
HETATM   17  N   UNL     1      -9.617   2.331  71.869  1.00  0.00    -0.119 NA 
HETATM   18  N   UNL     1      -9.733   4.399  71.372  1.00  0.00    -0.168 NA 
HETATM   19  N   UNL     1      -9.756   3.531  72.410  1.00  0.00    -0.144 NA 
BRANCH  18  20
HETATM   20  C   UNL     1      -9.743   5.804  71.662  1.00  0.00    -0.161 C  
HETATM   21  O   UNL     1     -11.293   7.857  72.187  1.00  0.00    -0.272 OA 
HETATM   22  O   UNL     1     -12.243   5.613  72.309  1.00  0.00    -0.111 OA 
HETATM   23  O   UNL     1     -11.724   6.549  70.068  1.00  0.00    -0.416 OA 
HETATM   24  S   UNL     1     -11.309   6.614  71.450  1.00  0.00    -0.305 S  
ENDBRANCH  18  20
ENDBRANCH  14  15
ENDBRANCH  13  14
ENDBRANCH   4  13
BRANCH   8  25
HETATM   25  N   UNL     1      -8.621  11.069  67.575  1.00  0.00    -0.127 N  
HETATM   26  C   UNL     1      -8.895  12.405  67.363  1.00  0.00    -0.188 C  
HETATM   27  H   UNL     1      -9.396  10.463  67.847  1.00  0.00     0.000 HD 
HETATM   28  O   UNL     1      -8.033  13.233  67.090  1.00  0.00    -0.154 OA 
BRANCH  26  29
HETATM   29  C   UNL     1     -10.399  12.736  67.491  1.00  0.00    -0.219 C  
HETATM   30  O   UNL     1     -11.090  11.635  68.101  1.00  0.00    -0.210 OA 
HETATM   31  H   UNL     1     -12.014  11.838  68.180  1.00  0.00     0.000 HD 
BRANCH  29  32
HETATM   32  C   UNL     1     -11.032  13.045  66.150  1.00  0.00    -0.300 A  
HETATM   33  C   UNL     1     -11.332  12.003  65.260  1.00  0.00    -0.366 A  
HETATM   34  C   UNL     1     -11.348  14.361  65.772  1.00  0.00    -0.330 A  
HETATM   35  C   UNL     1     -11.921  14.628  64.528  1.00  0.00    -0.473 A  
HETATM   36  C   UNL     1     -12.195  13.585  63.647  1.00  0.00    -0.438 A  
HETATM   37  C   UNL     1     -11.905  12.273  64.015  1.00  0.00    -0.530 A  
ENDBRANCH  29  32
ENDBRANCH  26  29
ENDBRANCH   8  25
TORSDOF 7
ENDMDL
MODEL      209
REMARK 921   NORMALIZED FREE ENERGY PREDICTED BY IDOCK:   -4.74 KCAL/MOL
REMARK 922        TOTAL FREE ENERGY PREDICTED BY IDOCK:   -7.65 KCAL/MOL
REMARK 923 INTER-LIGAND FREE ENERGY PREDICTED BY IDOCK:   -6.07 KCAL/MOL
REMARK 924 INTRA-LIGAND FREE ENERGY PREDICTED BY IDOCK:   -1.58 KCAL/MOL
REMARK 927      BINDING AFFINITY PREDICTED BY RF-SCORE:    0.00 PKD
ROOT
HETATM    1  C   UNL     1     -10.602   5.815  68.957  1.00  0.00    -0.281 C  
HETATM    2  S   UNL     1      -8.878   6.039  68.469  1.00  0.00    -0.111 SA 
HETATM    3  C   UNL     1      -8.383   4.357  68.913  1.00  0.00    -0.079 C  
HETATM    4  C   UNL     1      -8.906   3.849  70.253  1.00  0.00    -0.141 C  
HETATM    5  C   UNL     1     -11.499   6.432  70.739  1.00  0.00    -0.353 C  
HETATM    6  CA  UNL     1      -9.956   4.411  70.926  1.00  0.00    -0.172 C  
HETATM    7  C   UNL     1     -10.326   3.895  72.304  1.00  0.00    -0.100 C  
HETATM    8  CA  UNL     1     -11.373   7.127  69.337  1.00  0.00     0.031 C  
HETATM    9  N   UNL     1     -10.647   5.456  70.360  1.00  0.00    -0.276 N  
HETATM   10  O   UNL     1     -11.036   4.710  73.104  1.00  0.00    -0.243 OA 
HETATM   11  OXT UNL     1     -10.004   2.788  72.715  1.00  0.00    -0.124 OA 
HETATM   12  O   UNL     1     -11.990   6.654  71.822  1.00  0.00    -0.318 OA 
ENDROOT
BRANCH   4  13
HETATM   13  C   UNL     1      -7.984   2.762  70.819  1.00  0.00    -0.046 C  
BRANCH  13  14
HETATM   14  S   UNL     1      -6.312   3.365  71.252  1.00  0.00    -0.019 SA 
BRANCH  14  15
HETATM   15  C   UNL     1      -6.720   4.411  72.573  1.00  0.00    -0.046 A  
HETATM   16  N   UNL     1      -6.816   4.037  73.831  1.00  0.00    -0.056 NA 
HETATM   17  N   UNL     1      -7.116   5.167  74.548  1.00  0.00    -0.077 NA 
HETATM   18  N   UNL     1      -6.971   5.755  72.506  1.00  0.00    -0.081 NA 
HETATM   19  N   UNL     1      -7.201   6.223  73.754  1.00  0.00    -0.083 NA 
BRANCH  18  20
HETATM   20  C   UNL     1      -6.880   6.702  71.432  1.00  0.00    -0.062 C  
HETATM   21  O   UNL     1      -7.063   9.248  70.819  1.00  0.00    -0.096 OA 
HETATM   22  O   UNL     1      -6.909   8.620  73.172  1.00  0.00    -0.263 OA 
HETATM   23  O   UNL     1      -9.030   8.154  71.967  1.00  0.00    -0.141 OA 
HETATM   24  S   UNL     1      -7.608   8.290  71.752  1.00  0.00    -0.105 S  
ENDBRANCH  18  20
ENDBRANCH  14  15
ENDBRANCH  13  14
ENDBRANCH   4  13
BRANCH   8  25
HETATM   25  N   UNL     1     -10.575   8.378  69.325  1.00  0.00    -0.303 N  
HETATM   26  C   UNL     1     -10.515   9.257  68.263  1.00  0.00    -0.215 C  
HETATM   27  H   UNL     1     -10.034   8.604  70.159  1.00  0.00     0.000 HD 
HETATM   28  O   UNL     1     -11.077   9.058  67.192  1.00  0.00     0.016 OA 
BRANCH  26  29
HETATM   29  C   UNL     1      -9.680  10.519  68.577  1.00  0.00    -0.165 C  
HETATM   30  O   UNL     1      -9.328  10.536  69.969  1.00  0.00    -0.360 OA 
HETATM   31  H   UNL     1      -8.815  11.312  70.162  1.00  0.00     0.000 HD 
BRANCH  29  32
HETATM   32  C   UNL     1     -10.420  11.794  68.231  1.00  0.00    -0.224 A  
HETATM   33  C   UNL     1     -11.420  12.280  69.088  1.00  0.00    -0.352 A  
HETATM   34  C   UNL     1     -10.121  12.526  67.069  1.00  0.00    -0.222 A  
HETATM   35  C   UNL     1     -10.821  13.693  66.759  1.00  0.00    -0.291 A  
HETATM   36  C   UNL     1     -11.823  14.151  67.610  1.00  0.00    -0.427 A  
HETATM   37  C   UNL     1     -12.119  13.448  68.776  1.00  0.00    -0.281 A  
ENDBRANCH  29  32
ENDBRANCH  26  29
ENDBRANCH   8  25
TORSDOF 7
ENDMDL
MODEL      210
REMARK 921   NORMALIZED FREE ENERGY PREDICTED BY IDOCK:   -4.74 KCAL/MOL
REMARK 922        TOTAL FREE ENERGY PREDICTED BY IDOCK:   -7.64 KCAL/MOL
REMARK 923 INTER-LIGAND FREE ENERGY PREDICTED BY IDOCK:   -6.71 KCAL/MOL
REMARK 924 INTRA-LIGAND FREE ENERGY PREDICTED BY IDOCK:   -0.93 KCAL/MOL
REMARK 927      BINDING AFFINITY PREDICTED BY RF-SCORE:    0.00 PKD
ROOT
HETATM    1  C   UNL     1      -9.966   8.004  66.746  1.00  0.00    -0.274 C  
HETATM    2  S   UNL     1     -10.506   7.869  68.464  1.00  0.00    -0.122 SA 
HETATM    3  C   UNL     1     -10.956   9.615  68.610  1.00  0.00    -0.111 C  
HETATM    4  C   UNL     1      -9.950  10.604  68.031  1.00  0.00    -0.180 C  
HETATM    5  C   UNL     1      -8.005   8.172  66.050  1.00  0.00    -0.100 C  
HETATM    6  CA  UNL     1      -8.968  10.264  67.142  1.00  0.00    -0.135 C  
HETATM    7  C   UNL     1      -7.951  11.305  66.712  1.00  0.00    -0.159 C  
HETATM    8  CA  UNL     1      -8.929   6.924  66.277  1.00  0.00    -0.151 C  
HETATM    9  N   UNL     1      -8.895   8.976  66.668  1.00  0.00    -0.129 N  
HETATM   10  O   UNL     1      -6.784  10.865  66.212  1.00  0.00    -0.126 OA 
HETATM   11  OXT UNL     1      -8.143  12.511  66.808  1.00  0.00    -0.089 OA 
HETATM   12  O   UNL     1      -6.890   8.415  65.648  1.00  0.00    -0.065 OA 
ENDROOT
BRANCH   4  13
HETATM   13  C   UNL     1     -10.071  11.969  68.723  1.00  0.00    -0.099 C  
BRANCH  13  14
HETATM   14  S   UNL     1     -11.422  13.011  68.064  1.00  0.00    -0.332 SA 
BRANCH  14  15
HETATM   15  C   UNL     1     -10.840  14.571  68.548  1.00  0.00    -0.249 A  
HETATM   16  N   UNL     1      -9.704  15.108  68.159  1.00  0.00    -0.214 NA 
HETATM   17  N   UNL     1      -9.648  16.351  68.736  1.00  0.00    -0.239 NA 
HETATM   18  N   UNL     1     -11.478  15.463  69.368  1.00  0.00    -0.300 NA 
HETATM   19  N   UNL     1     -10.727  16.585  69.464  1.00  0.00    -0.317 NA 
BRANCH  18  20
HETATM   20  C   UNL     1     -12.782  15.466  69.966  1.00  0.00    -0.154 C  
HETATM   21  O   UNL     1     -14.101  15.044  72.196  1.00  0.00    -0.442 OA 
HETATM   22  O   UNL     1     -11.673  15.254  72.296  1.00  0.00    -0.402 OA 
HETATM   23  O   UNL     1     -12.634  13.188  71.310  1.00  0.00    -0.357 OA 
HETATM   24  S   UNL     1     -12.917  14.590  71.505  1.00  0.00    -0.359 S  
ENDBRANCH  18  20
ENDBRANCH  14  15
ENDBRANCH  13  14
ENDBRANCH   4  13
BRANCH   8  25
HETATM   25  N   UNL     1      -8.461   5.975  67.318  1.00  0.00    -0.105 N  
HETATM   26  C   UNL     1      -8.988   4.717  67.525  1.00  0.00    -0.110 C  
HETATM   27  H   UNL     1      -7.695   6.274  67.923  1.00  0.00     0.000 HD 
HETATM   28  O   UNL     1      -9.945   4.277  66.896  1.00  0.00    -0.216 OA 
BRANCH  26  29
HETATM   29  C   UNL     1      -8.233   3.923  68.614  1.00  0.00    -0.074 C  
HETATM   30  O   UNL     1      -8.336   2.516  68.350  1.00  0.00    -0.062 OA 
HETATM   31  H   UNL     1      -7.872   2.027  69.020  1.00  0.00     0.000 HD 
BRANCH  29  32
HETATM   32  C   UNL     1      -8.762   4.213  70.003  1.00  0.00    -0.114 A  
HETATM   33  C   UNL     1      -8.012   3.845  71.131  1.00  0.00    -0.063 A  
HETATM   34  C   UNL     1      -9.991   4.864  70.201  1.00  0.00    -0.325 A  
HETATM   35  C   UNL     1     -10.469   5.114  71.488  1.00  0.00    -0.256 A  
HETATM   36  C   UNL     1      -9.722   4.725  72.597  1.00  0.00    -0.179 A  
HETATM   37  C   UNL     1      -8.491   4.095  72.418  1.00  0.00    -0.105 A  
ENDBRANCH  29  32
ENDBRANCH  26  29
ENDBRANCH   8  25
TORSDOF 7
ENDMDL
MODEL      211
REMARK 921   NORMALIZED FREE ENERGY PREDICTED BY IDOCK:   -4.72 KCAL/MOL
REMARK 922        TOTAL FREE ENERGY PREDICTED BY IDOCK:   -7.62 KCAL/MOL
REMARK 923 INTER-LIGAND FREE ENERGY PREDICTED BY IDOCK:   -6.59 KCAL/MOL
REMARK 924 INTRA-LIGAND FREE ENERGY PREDICTED BY IDOCK:   -1.03 KCAL/MOL
REMARK 927      BINDING AFFINITY PREDICTED BY RF-SCORE:    0.00 PKD
ROOT
HETATM    1  C   UNL     1     -10.131   8.346  67.997  1.00  0.00    -0.199 C  
HETATM    2  S   UNL     1      -9.102   8.805  66.587  1.00  0.00    -0.169 SA 
HETATM    3  C   UNL     1      -7.771   7.651  66.996  1.00  0.00    -0.108 C  
HETATM    4  C   UNL     1      -7.363   7.612  68.466  1.00  0.00    -0.095 C  
HETATM    5  C   UNL     1     -10.320   9.369  69.807  1.00  0.00    -0.223 C  
HETATM    6  CA  UNL     1      -8.135   8.095  69.486  1.00  0.00    -0.119 C  
HETATM    7  C   UNL     1      -7.587   8.106  70.901  1.00  0.00    -0.076 C  
HETATM    8  CA  UNL     1     -11.148   9.439  68.476  1.00  0.00     0.068 C  
HETATM    9  N   UNL     1      -9.388   8.592  69.216  1.00  0.00    -0.153 N  
HETATM   10  O   UNL     1      -8.150   8.953  71.780  1.00  0.00    -0.313 OA 
HETATM   11  OXT UNL     1      -6.662   7.393  71.268  1.00  0.00    -0.049 OA 
HETATM   12  O   UNL     1     -10.323   9.873  70.907  1.00  0.00    -0.253 OA 
ENDROOT
BRANCH   4  13
HETATM   13  C   UNL     1      -5.911   7.140  68.613  1.00  0.00    -0.022 C  
BRANCH  13  14
HETATM   14  S   UNL     1      -5.745   5.341  68.901  1.00  0.00    -0.016 SA 
BRANCH  14  15
HETATM   15  C   UNL     1      -5.831   4.782  67.263  1.00  0.00    -0.022 A  
HETATM   16  N   UNL     1      -5.182   5.312  66.248  1.00  0.00    -0.008 NA 
HETATM   17  N   UNL     1      -5.495   4.552  65.150  1.00  0.00    -0.013 NA 
HETATM   18  N   UNL     1      -6.550   3.713  66.800  1.00  0.00    -0.041 NA 
HETATM   19  N   UNL     1      -6.318   3.567  65.475  1.00  0.00    -0.031 NA 
BRANCH  18  20
HETATM   20  C   UNL     1      -7.323   2.706  67.468  1.00  0.00    -0.057 C  
HETATM   21  O   UNL     1      -9.762   1.952  68.078  1.00  0.00    -0.147 OA 
HETATM   22  O   UNL     1      -9.463   3.684  66.388  1.00  0.00    -0.183 OA 
HETATM   23  O   UNL     1      -9.026   4.270  68.761  1.00  0.00    -0.099 OA 
HETATM   24  S   UNL     1      -8.999   3.155  67.843  1.00  0.00    -0.171 S  
ENDBRANCH  18  20
ENDBRANCH  14  15
ENDBRANCH  13  14
ENDBRANCH   4  13
BRANCH   8  25
HETATM   25  N   UNL     1     -11.088  10.741  67.765  1.00  0.00    -0.299 N  
HETATM   26  C   UNL     1     -11.685  11.902  68.210  1.00  0.00    -0.321 C  
HETATM   27  H   UNL     1     -10.570  10.779  66.888  1.00  0.00     0.000 HD 
HETATM   28  O   UNL     1     -12.378  11.959  69.220  1.00  0.00    -0.158 OA 
BRANCH  26  29
HETATM   29  C   UNL     1     -11.369  13.120  67.311  1.00  0.00    -0.306 C  
HETATM   30  O   UNL     1     -12.353  14.145  67.517  1.00  0.00    -0.571 OA 
HETATM   31  H   UNL     1     -12.159  14.893  66.965  1.00  0.00     0.000 HD 
BRANCH  29  32
HETATM   32  C   UNL     1     -11.328  12.751  65.843  1.00  0.00    -0.363 A  
HETATM   33  C   UNL     1     -10.098  12.501  65.216  1.00  0.00    -0.275 A  
HETATM   34  C   UNL     1     -12.503  12.633  65.081  1.00  0.00    -0.531 A  
HETATM   35  C   UNL     1     -12.446  12.303  63.726  1.00  0.00    -0.619 A  
HETATM   36  C   UNL     1     -11.216  12.078  63.114  1.00  0.00    -0.261 A  
HETATM   37  C   UNL     1     -10.043  12.171  63.861  1.00  0.00    -0.387 A  
ENDBRANCH  29  32
ENDBRANCH  26  29
ENDBRANCH   8  25
TORSDOF 7
ENDMDL
MODEL      212
REMARK 921   NORMALIZED FREE ENERGY PREDICTED BY IDOCK:   -4.68 KCAL/MOL
REMARK 922        TOTAL FREE ENERGY PREDICTED BY IDOCK:   -7.57 KCAL/MOL
REMARK 923 INTER-LIGAND FREE ENERGY PREDICTED BY IDOCK:   -6.45 KCAL/MOL
REMARK 924 INTRA-LIGAND FREE ENERGY PREDICTED BY IDOCK:   -1.11 KCAL/MOL
REMARK 927      BINDING AFFINITY PREDICTED BY RF-SCORE:    0.00 PKD
ROOT
HETATM    1  C   UNL     1     -10.906   8.738  68.646  1.00  0.00     0.028 C  
HETATM    2  S   UNL     1     -11.189  10.113  69.782  1.00  0.00    -0.272 SA 
HETATM    3  C   UNL     1     -11.082  11.384  68.500  1.00  0.00    -0.235 C  
HETATM    4  C   UNL     1      -9.934  11.224  67.508  1.00  0.00    -0.203 C  
HETATM    5  C   UNL     1      -9.114   7.717  68.321  1.00  0.00    -0.130 C  
HETATM    6  CA  UNL     1      -9.244  10.058  67.320  1.00  0.00    -0.141 C  
HETATM    7  C   UNL     1      -8.048  10.037  66.387  1.00  0.00    -0.120 C  
HETATM    8  CA  UNL     1     -10.315   7.437  69.292  1.00  0.00    -0.204 C  
HETATM    9  N   UNL     1      -9.624   8.924  67.998  1.00  0.00    -0.146 N  
HETATM   10  O   UNL     1      -7.151   9.048  66.547  1.00  0.00    -0.079 OA 
HETATM   11  OXT UNL     1      -7.862  10.875  65.513  1.00  0.00    -0.094 OA 
HETATM   12  O   UNL     1      -8.053   7.220  68.021  1.00  0.00    -0.117 OA 
ENDROOT
BRANCH   4  13
HETATM   13  C   UNL     1      -9.544  12.580  66.906  1.00  0.00    -0.229 C  
BRANCH  13  14
HETATM   14  S   UNL     1      -8.560  13.632  68.035  1.00  0.00    -0.185 SA 
BRANCH  14  15
HETATM   15  C   UNL     1      -9.782  14.770  68.500  1.00  0.00    -0.218 A  
HETATM   16  N   UNL     1     -10.471  14.724  69.620  1.00  0.00    -0.164 NA 
HETATM   17  N   UNL     1     -11.294  15.821  69.612  1.00  0.00    -0.307 NA 
HETATM   18  N   UNL     1     -10.182  15.875  67.796  1.00  0.00    -0.255 NA 
HETATM   19  N   UNL     1     -11.119  16.537  68.513  1.00  0.00    -0.354 NA 
BRANCH  18  20
HETATM   20  C   UNL     1      -9.693  16.483  66.593  1.00  0.00    -0.260 C  
HETATM   21  O   UNL     1      -7.807  18.012  65.594  1.00  0.00    -0.531 OA 
HETATM   22  O   UNL     1      -7.503  17.091  67.832  1.00  0.00    -0.162 OA 
HETATM   23  O   UNL     1      -9.169  18.906  67.525  1.00  0.00    -0.287 OA 
HETATM   24  S   UNL     1      -8.539  17.813  66.823  1.00  0.00    -0.261 S  
ENDBRANCH  18  20
ENDBRANCH  14  15
ENDBRANCH  13  14
ENDBRANCH   4  13
BRANCH   8  25
HETATM   25  N   UNL     1      -9.988   7.519  70.738  1.00  0.00    -0.182 N  
HETATM   26  C   UNL     1     -10.260   6.529  71.659  1.00  0.00    -0.193 C  
HETATM   27  H   UNL     1      -9.529   8.366  71.073  1.00  0.00     0.000 HD 
HETATM   28  O   UNL     1     -10.858   5.495  71.378  1.00  0.00    -0.243 OA 
BRANCH  26  29
HETATM   29  C   UNL     1      -9.717   6.855  73.068  1.00  0.00    -0.166 C  
HETATM   30  O   UNL     1      -9.425   8.257  73.165  1.00  0.00    -0.257 OA 
HETATM   31  H   UNL     1      -9.091   8.458  74.031  1.00  0.00     0.000 HD 
BRANCH  29  32
HETATM   32  C   UNL     1      -8.472   6.059  73.400  1.00  0.00    -0.116 A  
HETATM   33  C   UNL     1      -8.568   4.904  74.191  1.00  0.00    -0.111 A  
HETATM   34  C   UNL     1      -7.207   6.438  72.918  1.00  0.00    -0.082 A  
HETATM   35  C   UNL     1      -6.069   5.698  73.242  1.00  0.00    -0.055 A  
HETATM   36  C   UNL     1      -6.178   4.566  74.045  1.00  0.00    -0.046 A  
HETATM   37  C   UNL     1      -7.428   4.166  74.514  1.00  0.00    -0.075 A  
ENDBRANCH  29  32
ENDBRANCH  26  29
ENDBRANCH   8  25
TORSDOF 7
ENDMDL
MODEL      213
REMARK 921   NORMALIZED FREE ENERGY PREDICTED BY IDOCK:   -4.67 KCAL/MOL
REMARK 922        TOTAL FREE ENERGY PREDICTED BY IDOCK:   -7.55 KCAL/MOL
REMARK 923 INTER-LIGAND FREE ENERGY PREDICTED BY IDOCK:   -7.96 KCAL/MOL
REMARK 924 INTRA-LIGAND FREE ENERGY PREDICTED BY IDOCK:    0.41 KCAL/MOL
REMARK 927      BINDING AFFINITY PREDICTED BY RF-SCORE:    0.00 PKD
ROOT
HETATM    1  C   UNL     1     -11.027   6.519  71.746  1.00  0.00    -0.247 C  
HETATM    2  S   UNL     1     -11.650   6.481  70.052  1.00  0.00    -0.299 SA 
HETATM    3  C   UNL     1     -10.344   5.390  69.441  1.00  0.00    -0.269 C  
HETATM    4  C   UNL     1      -8.931   5.734  69.900  1.00  0.00    -0.139 C  
HETATM    5  C   UNL     1      -9.884   8.021  72.637  1.00  0.00    -0.279 C  
HETATM    6  CA  UNL     1      -8.649   6.543  70.966  1.00  0.00    -0.134 C  
HETATM    7  C   UNL     1      -7.209   6.909  71.271  1.00  0.00    -0.076 C  
HETATM    8  CA  UNL     1     -11.434   7.778  72.588  1.00  0.00    -0.375 C  
HETATM    9  N   UNL     1      -9.676   7.039  71.735  1.00  0.00    -0.159 N  
HETATM   10  O   UNL     1      -6.989   8.010  72.011  1.00  0.00    -0.063 OA 
HETATM   11  OXT UNL     1      -6.252   6.259  70.871  1.00  0.00    -0.037 OA 
HETATM   12  O   UNL     1      -9.103   8.812  73.115  1.00  0.00    -0.239 OA 
ENDROOT
BRANCH   4  13
HETATM   13  C   UNL     1      -7.893   5.212  68.898  1.00  0.00    -0.082 C  
BRANCH  13  14
HETATM   14  S   UNL     1      -7.471   3.447  69.127  1.00  0.00    -0.048 SA 
BRANCH  14  15
HETATM   15  C   UNL     1      -7.977   2.832  67.587  1.00  0.00    -0.068 A  
HETATM   16  N   UNL     1      -8.925   1.937  67.405  1.00  0.00    -0.132 NA 
HETATM   17  N   UNL     1      -9.035   1.762  66.050  1.00  0.00    -0.118 NA 
HETATM   18  N   UNL     1      -7.494   3.200  66.360  1.00  0.00    -0.075 NA 
HETATM   19  N   UNL     1      -8.178   2.534  65.401  1.00  0.00    -0.087 NA 
BRANCH  18  20
HETATM   20  C   UNL     1      -6.564   4.212  65.951  1.00  0.00    -0.041 C  
HETATM   21  O   UNL     1      -6.352   6.599  64.878  1.00  0.00    -0.037 OA 
HETATM   22  O   UNL     1      -8.542   5.857  65.656  1.00  0.00    -0.148 OA 
HETATM   23  O   UNL     1      -7.614   4.824  63.597  1.00  0.00    -0.061 OA 
HETATM   24  S   UNL     1      -7.210   5.438  64.840  1.00  0.00    -0.067 S  
ENDBRANCH  18  20
ENDBRANCH  14  15
ENDBRANCH  13  14
ENDBRANCH   4  13
BRANCH   8  25
HETATM   25  N   UNL     1     -12.212   8.819  71.870  1.00  0.00    -0.335 N  
HETATM   26  C   UNL     1     -11.665   9.753  71.016  1.00  0.00    -0.370 C  
HETATM   27  H   UNL     1     -13.220   8.844  72.019  1.00  0.00     0.000 HD 
HETATM   28  O   UNL     1     -10.460   9.851  70.807  1.00  0.00    -0.290 OA 
BRANCH  26  29
HETATM   29  C   UNL     1     -12.732  10.645  70.341  1.00  0.00    -0.265 C  
HETATM   30  O   UNL     1     -12.520  10.668  68.922  1.00  0.00    -0.791 OA 
HETATM   31  H   UNL     1     -13.175  11.216  68.507  1.00  0.00     0.000 HD 
BRANCH  29  32
HETATM   32  C   UNL     1     -12.714  12.062  70.875  1.00  0.00    -0.291 A  
HETATM   33  C   UNL     1     -12.077  13.078  70.147  1.00  0.00    -0.377 A  
HETATM   34  C   UNL     1     -13.340  12.398  72.088  1.00  0.00    -0.508 A  
HETATM   35  C   UNL     1     -13.304  13.707  72.571  1.00  0.00    -0.638 A  
HETATM   36  C   UNL     1     -12.651  14.700  71.846  1.00  0.00    -0.409 A  
HETATM   37  C   UNL     1     -12.042  14.387  70.632  1.00  0.00    -0.404 A  
ENDBRANCH  29  32
ENDBRANCH  26  29
ENDBRANCH   8  25
TORSDOF 7
ENDMDL
MODEL      214
REMARK 921   NORMALIZED FREE ENERGY PREDICTED BY IDOCK:   -4.66 KCAL/MOL
REMARK 922        TOTAL FREE ENERGY PREDICTED BY IDOCK:   -7.53 KCAL/MOL
REMARK 923 INTER-LIGAND FREE ENERGY PREDICTED BY IDOCK:   -6.68 KCAL/MOL
REMARK 924 INTRA-LIGAND FREE ENERGY PREDICTED BY IDOCK:   -0.85 KCAL/MOL
REMARK 927      BINDING AFFINITY PREDICTED BY RF-SCORE:    0.00 PKD
ROOT
HETATM    1  C   UNL     1      -7.648   8.290  66.694  1.00  0.00    -0.090 C  
HETATM    2  S   UNL     1      -9.367   8.205  66.147  1.00  0.00    -0.125 SA 
HETATM    3  C   UNL     1      -9.333   9.809  65.313  1.00  0.00    -0.255 C  
HETATM    4  C   UNL     1      -8.665  10.939  66.089  1.00  0.00    -0.189 C  
HETATM    5  C   UNL     1      -6.952   8.829  68.587  1.00  0.00    -0.064 C  
HETATM    6  CA  UNL     1      -7.821  10.746  67.148  1.00  0.00    -0.124 C  
HETATM    7  C   UNL     1      -7.296  11.942  67.918  1.00  0.00    -0.104 C  
HETATM    8  CA  UNL     1      -7.298   7.432  67.959  1.00  0.00    -0.096 C  
HETATM    9  N   UNL     1      -7.480   9.467  67.522  1.00  0.00    -0.091 N  
HETATM   10  O   UNL     1      -6.851  11.731  69.169  1.00  0.00    -0.100 OA 
HETATM   11  OXT UNL     1      -7.268  13.077  67.458  1.00  0.00    -0.141 OA 
HETATM   12  O   UNL     1      -6.536   9.278  69.631  1.00  0.00    -0.038 OA 
ENDROOT
BRANCH   4  13
HETATM   13  C   UNL     1      -9.214  12.302  65.644  1.00  0.00     0.100 C  
BRANCH  13  14
HETATM   14  S   UNL     1     -10.931  12.618  66.191  1.00  0.00    -0.293 SA 
BRANCH  14  15
HETATM   15  C   UNL     1     -10.618  13.727  67.485  1.00  0.00    -0.244 A  
HETATM   16  N   UNL     1      -9.807  14.761  67.415  1.00  0.00    -0.221 NA 
HETATM   17  N   UNL     1      -9.879  15.391  68.632  1.00  0.00    -0.202 NA 
HETATM   18  N   UNL     1     -11.177  13.705  68.735  1.00  0.00    -0.265 NA 
HETATM   19  N   UNL     1     -10.719  14.765  69.440  1.00  0.00    -0.247 NA 
BRANCH  18  20
HETATM   20  C   UNL     1     -12.209  12.897  69.318  1.00  0.00    -0.065 C  
HETATM   21  O   UNL     1     -12.780  10.498  70.218  1.00  0.00    -0.310 OA 
HETATM   22  O   UNL     1     -10.442  11.075  69.827  1.00  0.00    -0.115 OA 
HETATM   23  O   UNL     1     -11.907  10.708  67.856  1.00  0.00    -0.485 OA 
HETATM   24  S   UNL     1     -11.944  11.143  69.233  1.00  0.00    -0.315 S  
ENDBRANCH  18  20
ENDBRANCH  14  15
ENDBRANCH  13  14
ENDBRANCH   4  13
BRANCH   8  25
HETATM   25  N   UNL     1      -8.432   6.719  68.598  1.00  0.00    -0.123 N  
HETATM   26  C   UNL     1      -8.306   5.819  69.635  1.00  0.00    -0.112 C  
HETATM   27  H   UNL     1      -9.370   6.908  68.245  1.00  0.00     0.000 HD 
HETATM   28  O   UNL     1      -7.224   5.475  70.100  1.00  0.00    -0.063 OA 
BRANCH  26  29
HETATM   29  C   UNL     1      -9.669   5.311  70.157  1.00  0.00    -0.196 C  
HETATM   30  O   UNL     1     -10.509   4.948  69.051  1.00  0.00    -0.102 OA 
HETATM   31  H   UNL     1     -11.347   4.636  69.371  1.00  0.00     0.000 HD 
BRANCH  29  32
HETATM   32  C   UNL     1     -10.377   6.344  71.008  1.00  0.00    -0.247 A  
HETATM   33  C   UNL     1      -9.658   7.077  71.964  1.00  0.00    -0.149 A  
HETATM   34  C   UNL     1     -11.749   6.608  70.855  1.00  0.00    -0.431 A  
HETATM   35  C   UNL     1     -12.388   7.556  71.655  1.00  0.00    -0.362 A  
HETATM   36  C   UNL     1     -11.665   8.261  72.614  1.00  0.00    -0.406 A  
HETATM   37  C   UNL     1     -10.299   8.025  72.764  1.00  0.00    -0.408 A  
ENDBRANCH  29  32
ENDBRANCH  26  29
ENDBRANCH   8  25
TORSDOF 7
ENDMDL
MODEL      215
REMARK 921   NORMALIZED FREE ENERGY PREDICTED BY IDOCK:   -4.64 KCAL/MOL
REMARK 922        TOTAL FREE ENERGY PREDICTED BY IDOCK:   -7.51 KCAL/MOL
REMARK 923 INTER-LIGAND FREE ENERGY PREDICTED BY IDOCK:   -8.26 KCAL/MOL
REMARK 924 INTRA-LIGAND FREE ENERGY PREDICTED BY IDOCK:    0.75 KCAL/MOL
REMARK 927      BINDING AFFINITY PREDICTED BY RF-SCORE:    0.00 PKD
ROOT
HETATM    1  C   UNL     1     -11.885  12.424  65.970  1.00  0.00    -0.395 C  
HETATM    2  S   UNL     1     -10.278  12.256  65.164  1.00  0.00    -0.271 SA 
HETATM    3  C   UNL     1     -10.056  10.527  65.644  1.00  0.00    -0.268 C  
HETATM    4  C   UNL     1     -10.404  10.196  67.092  1.00  0.00    -0.295 C  
HETATM    5  C   UNL     1     -12.280  13.289  67.829  1.00  0.00    -0.113 C  
HETATM    6  CA  UNL     1     -11.169  10.995  67.896  1.00  0.00    -0.310 C  
HETATM    7  C   UNL     1     -11.364  10.626  69.354  1.00  0.00    -0.284 C  
HETATM    8  CA  UNL     1     -12.288  13.884  66.376  1.00  0.00    -0.426 C  
HETATM    9  N   UNL     1     -11.731  12.140  67.382  1.00  0.00    -0.333 N  
HETATM   10  O   UNL     1     -11.727  11.605  70.201  1.00  0.00    -0.323 OA 
HETATM   11  OXT UNL     1     -11.199   9.493  69.788  1.00  0.00    -0.223 OA 
HETATM   12  O   UNL     1     -12.498  13.654  68.961  1.00  0.00    -0.170 OA 
ENDROOT
BRANCH   4  13
HETATM   13  C   UNL     1      -9.628   8.961  67.568  1.00  0.00    -0.145 C  
BRANCH  13  14
HETATM   14  S   UNL     1     -10.489   7.380  67.244  1.00  0.00    -0.331 SA 
BRANCH  14  15
HETATM   15  C   UNL     1      -9.209   6.275  67.627  1.00  0.00    -0.111 A  
HETATM   16  N   UNL     1      -8.818   5.278  66.864  1.00  0.00    -0.111 NA 
HETATM   17  N   UNL     1      -7.765   4.685  67.513  1.00  0.00    -0.089 NA 
HETATM   18  N   UNL     1      -8.418   6.295  68.745  1.00  0.00    -0.119 NA 
HETATM   19  N   UNL     1      -7.503   5.303  68.654  1.00  0.00    -0.070 NA 
BRANCH  18  20
HETATM   20  C   UNL     1      -8.308   7.222  69.834  1.00  0.00    -0.135 C  
HETATM   21  O   UNL     1      -6.812   9.107  70.883  1.00  0.00    -0.077 OA 
HETATM   22  O   UNL     1      -6.360   8.392  68.594  1.00  0.00    -0.051 OA 
HETATM   23  O   UNL     1      -5.757   6.853  70.447  1.00  0.00    -0.023 OA 
HETATM   24  S   UNL     1      -6.689   7.900  70.099  1.00  0.00    -0.038 S  
ENDBRANCH  18  20
ENDBRANCH  14  15
ENDBRANCH  13  14
ENDBRANCH   4  13
BRANCH   8  25
HETATM   25  N   UNL     1     -11.272  14.936  66.122  1.00  0.00    -0.336 N  
HETATM   26  C   UNL     1     -10.227  15.235  66.971  1.00  0.00    -0.260 C  
HETATM   27  H   UNL     1     -11.352  15.474  65.259  1.00  0.00     0.000 HD 
HETATM   28  O   UNL     1     -10.067  14.693  68.059  1.00  0.00    -0.222 OA 
BRANCH  26  29
HETATM   29  C   UNL     1      -9.276  16.310  66.395  1.00  0.00    -0.299 C  
HETATM   30  O   UNL     1      -7.917  15.856  66.486  1.00  0.00    -0.262 OA 
HETATM   31  H   UNL     1      -7.333  16.516  66.133  1.00  0.00     0.000 HD 
BRANCH  29  32
HETATM   32  C   UNL     1      -9.412  17.637  67.112  1.00  0.00    -0.267 A  
HETATM   33  C   UNL     1      -8.386  18.086  67.956  1.00  0.00    -0.263 A  
HETATM   34  C   UNL     1     -10.545  18.452  66.942  1.00  0.00    -0.381 A  
HETATM   35  C   UNL     1     -10.659  19.667  67.618  1.00  0.00    -0.556 A  
HETATM   36  C   UNL     1      -9.640  20.090  68.468  1.00  0.00    -0.301 A  
HETATM   37  C   UNL     1      -8.502  19.302  68.633  1.00  0.00    -0.403 A  
ENDBRANCH  29  32
ENDBRANCH  26  29
ENDBRANCH   8  25
TORSDOF 7
ENDMDL
MODEL      216
REMARK 921   NORMALIZED FREE ENERGY PREDICTED BY IDOCK:   -4.64 KCAL/MOL
REMARK 922        TOTAL FREE ENERGY PREDICTED BY IDOCK:   -7.50 KCAL/MOL
REMARK 923 INTER-LIGAND FREE ENERGY PREDICTED BY IDOCK:   -6.26 KCAL/MOL
REMARK 924 INTRA-LIGAND FREE ENERGY PREDICTED BY IDOCK:   -1.24 KCAL/MOL
REMARK 927      BINDING AFFINITY PREDICTED BY RF-SCORE:    0.00 PKD
ROOT
HETATM    1  C   UNL     1     -10.637   8.432  69.292  1.00  0.00    -0.182 C  
HETATM    2  S   UNL     1     -10.534   8.854  67.540  1.00  0.00    -0.241 SA 
HETATM    3  C   UNL     1      -9.651   7.345  67.080  1.00  0.00    -0.172 C  
HETATM    4  C   UNL     1      -8.505   6.945  68.004  1.00  0.00    -0.124 C  
HETATM    5  C   UNL     1      -9.415   9.135  70.833  1.00  0.00    -0.276 C  
HETATM    6  CA  UNL     1      -8.347   7.421  69.276  1.00  0.00    -0.132 C  
HETATM    7  C   UNL     1      -7.113   7.042  70.072  1.00  0.00    -0.070 C  
HETATM    8  CA  UNL     1     -10.789   9.648  70.272  1.00  0.00    -0.285 C  
HETATM    9  N   UNL     1      -9.295   8.261  69.811  1.00  0.00    -0.158 N  
HETATM   10  O   UNL     1      -6.767   7.836  71.100  1.00  0.00    -0.041 OA 
HETATM   11  OXT UNL     1      -6.423   6.063  69.816  1.00  0.00    -0.038 OA 
HETATM   12  O   UNL     1      -8.626   9.420  71.704  1.00  0.00    -0.234 OA 
ENDROOT
BRANCH   4  13
HETATM   13  C   UNL     1      -7.470   6.099  67.251  1.00  0.00    -0.081 C  
BRANCH  13  14
HETATM   14  S   UNL     1      -8.035   5.537  65.604  1.00  0.00    -0.114 SA 
BRANCH  14  15
HETATM   15  C   UNL     1      -6.785   6.230  64.623  1.00  0.00    -0.038 A  
HETATM   16  N   UNL     1      -6.175   5.617  63.631  1.00  0.00    -0.024 NA 
HETATM   17  N   UNL     1      -5.294   6.523  63.100  1.00  0.00    -0.025 NA 
HETATM   18  N   UNL     1      -6.279   7.498  64.718  1.00  0.00    -0.038 NA 
HETATM   19  N   UNL     1      -5.356   7.677  63.745  1.00  0.00    -0.037 NA 
BRANCH  18  20
HETATM   20  C   UNL     1      -6.653   8.631  65.515  1.00  0.00    -0.063 C  
HETATM   21  O   UNL     1      -8.333  10.639  65.706  1.00  0.00    -0.156 OA 
HETATM   22  O   UNL     1      -8.824   8.850  64.122  1.00  0.00    -0.115 OA 
HETATM   23  O   UNL     1      -6.974  10.418  63.587  1.00  0.00    -0.102 OA 
HETATM   24  S   UNL     1      -7.678   9.831  64.703  1.00  0.00    -0.142 S  
ENDBRANCH  18  20
ENDBRANCH  14  15
ENDBRANCH  13  14
ENDBRANCH   4  13
BRANCH   8  25
HETATM   25  N   UNL     1     -10.751  10.995  69.651  1.00  0.00    -0.428 N  
HETATM   26  C   UNL     1     -11.702  11.974  69.847  1.00  0.00    -0.299 C  
HETATM   27  H   UNL     1      -9.966  11.211  69.036  1.00  0.00     0.000 HD 
HETATM   28  O   UNL     1     -12.714  11.804  70.519  1.00  0.00    -0.173 OA 
BRANCH  26  29
HETATM   29  C   UNL     1     -11.345  13.305  69.147  1.00  0.00    -0.282 C  
HETATM   30  O   UNL     1     -12.367  14.279  69.404  1.00  0.00    -0.470 OA 
HETATM   31  H   UNL     1     -12.149  15.098  68.974  1.00  0.00     0.000 HD 
BRANCH  29  32
HETATM   32  C   UNL     1     -11.175  13.137  67.652  1.00  0.00    -0.313 A  
HETATM   33  C   UNL     1     -10.162  13.836  66.979  1.00  0.00    -0.254 A  
HETATM   34  C   UNL     1     -12.002  12.278  66.910  1.00  0.00    -0.214 A  
HETATM   35  C   UNL     1     -11.838  12.143  65.530  1.00  0.00    -0.350 A  
HETATM   36  C   UNL     1     -10.841  12.859  64.874  1.00  0.00    -0.331 A  
HETATM   37  C   UNL     1     -10.000  13.701  65.599  1.00  0.00    -0.261 A  
ENDBRANCH  29  32
ENDBRANCH  26  29
ENDBRANCH   8  25
TORSDOF 7
ENDMDL
MODEL      217
REMARK 921   NORMALIZED FREE ENERGY PREDICTED BY IDOCK:   -4.60 KCAL/MOL
REMARK 922        TOTAL FREE ENERGY PREDICTED BY IDOCK:   -7.45 KCAL/MOL
REMARK 923 INTER-LIGAND FREE ENERGY PREDICTED BY IDOCK:   -6.61 KCAL/MOL
REMARK 924 INTRA-LIGAND FREE ENERGY PREDICTED BY IDOCK:   -0.84 KCAL/MOL
REMARK 927      BINDING AFFINITY PREDICTED BY RF-SCORE:    0.00 PKD
ROOT
HETATM    1  C   UNL     1     -10.891   8.545  68.206  1.00  0.00     0.072 C  
HETATM    2  S   UNL     1     -10.026   9.337  69.579  1.00  0.00    -0.198 SA 
HETATM    3  C   UNL     1      -9.745  10.890  68.697  1.00  0.00    -0.185 C  
HETATM    4  C   UNL     1      -9.263  10.751  67.257  1.00  0.00    -0.158 C  
HETATM    5  C   UNL     1     -10.103   7.180  66.837  1.00  0.00    -0.238 C  
HETATM    6  CA  UNL     1      -9.372   9.602  66.522  1.00  0.00    -0.165 C  
HETATM    7  C   UNL     1      -8.761   9.538  65.134  1.00  0.00    -0.172 C  
HETATM    8  CA  UNL     1     -10.856   6.977  68.199  1.00  0.00    -0.153 C  
HETATM    9  N   UNL     1     -10.009   8.508  67.058  1.00  0.00    -0.223 N  
HETATM   10  O   UNL     1      -8.496   8.322  64.627  1.00  0.00    -0.143 OA 
HETATM   11  OXT UNL     1      -8.495  10.533  64.471  1.00  0.00    -0.173 OA 
HETATM   12  O   UNL     1      -9.619   6.506  65.957  1.00  0.00    -0.048 OA 
ENDROOT
BRANCH   4  13
HETATM   13  C   UNL     1      -8.479  11.997  66.824  1.00  0.00    -0.155 C  
BRANCH  13  14
HETATM   14  S   UNL     1      -8.941  13.512  67.738  1.00  0.00    -0.213 SA 
BRANCH  14  15
HETATM   15  C   UNL     1      -7.405  14.317  67.749  1.00  0.00    -0.174 A  
HETATM   16  N   UNL     1      -6.253  13.750  67.465  1.00  0.00    -0.328 NA 
HETATM   17  N   UNL     1      -5.305  14.737  67.551  1.00  0.00    -0.341 NA 
HETATM   18  N   UNL     1      -7.176  15.639  68.023  1.00  0.00    -0.121 NA 
HETATM   19  N   UNL     1      -5.856  15.895  67.879  1.00  0.00    -0.129 NA 
BRANCH  18  20
HETATM   20  C   UNL     1      -8.060  16.743  68.264  1.00  0.00    -0.202 C  
HETATM   21  O   UNL     1      -9.223  18.819  67.155  1.00  0.00    -0.279 OA 
HETATM   22  O   UNL     1      -8.194  17.145  65.710  1.00  0.00    -0.515 OA 
HETATM   23  O   UNL     1      -6.707  18.647  67.014  1.00  0.00    -0.191 OA 
HETATM   24  S   UNL     1      -8.015  18.035  67.047  1.00  0.00    -0.227 S  
ENDBRANCH  18  20
ENDBRANCH  14  15
ENDBRANCH  13  14
ENDBRANCH   4  13
BRANCH   8  25
HETATM   25  N   UNL     1     -10.054   6.338  69.272  1.00  0.00    -0.166 N  
HETATM   26  C   UNL     1     -10.566   5.904  70.478  1.00  0.00    -0.275 C  
HETATM   27  H   UNL     1      -9.056   6.211  69.107  1.00  0.00     0.000 HD 
HETATM   28  O   UNL     1     -11.738   6.057  70.806  1.00  0.00    -0.198 OA 
BRANCH  26  29
HETATM   29  C   UNL     1      -9.511   5.193  71.355  1.00  0.00    -0.152 C  
HETATM   30  O   UNL     1     -10.153   4.229  72.203  1.00  0.00    -0.179 OA 
HETATM   31  H   UNL     1      -9.505   3.792  72.742  1.00  0.00     0.000 HD 
BRANCH  29  32
HETATM   32  C   UNL     1      -8.724   6.167  72.206  1.00  0.00    -0.137 A  
HETATM   33  C   UNL     1      -9.384   7.218  72.861  1.00  0.00    -0.194 A  
HETATM   34  C   UNL     1      -7.335   6.039  72.377  1.00  0.00    -0.090 A  
HETATM   35  C   UNL     1      -6.624   6.952  73.157  1.00  0.00    -0.066 A  
HETATM   36  C   UNL     1      -7.290   8.001  73.784  1.00  0.00    -0.188 A  
HETATM   37  C   UNL     1      -8.671   8.131  73.640  1.00  0.00    -0.309 A  
ENDBRANCH  29  32
ENDBRANCH  26  29
ENDBRANCH   8  25
TORSDOF 7
ENDMDL
MODEL      218
REMARK 921   NORMALIZED FREE ENERGY PREDICTED BY IDOCK:   -4.59 KCAL/MOL
REMARK 922        TOTAL FREE ENERGY PREDICTED BY IDOCK:   -7.43 KCAL/MOL
REMARK 923 INTER-LIGAND FREE ENERGY PREDICTED BY IDOCK:   -6.65 KCAL/MOL
REMARK 924 INTRA-LIGAND FREE ENERGY PREDICTED BY IDOCK:   -0.78 KCAL/MOL
REMARK 927      BINDING AFFINITY PREDICTED BY RF-SCORE:    0.00 PKD
ROOT
HETATM    1  C   UNL     1     -11.036   9.291  68.095  1.00  0.00     0.110 C  
HETATM    2  S   UNL     1     -10.525  10.427  69.402  1.00  0.00    -0.248 SA 
HETATM    3  C   UNL     1     -11.060  11.913  68.519  1.00  0.00    -0.243 C  
HETATM    4  C   UNL     1     -10.683  11.971  67.042  1.00  0.00    -0.280 C  
HETATM    5  C   UNL     1      -9.821   8.404  66.648  1.00  0.00    -0.273 C  
HETATM    6  CA  UNL     1     -10.311  10.882  66.304  1.00  0.00    -0.250 C  
HETATM    7  C   UNL     1      -9.851  11.068  64.870  1.00  0.00    -0.274 C  
HETATM    8  CA  UNL     1     -10.286   7.914  68.065  1.00  0.00    -0.208 C  
HETATM    9  N   UNL     1     -10.330   9.632  66.877  1.00  0.00    -0.245 N  
HETATM   10  O   UNL     1      -9.099  10.096  64.327  1.00  0.00    -0.207 OA 
HETATM   11  OXT UNL     1     -10.125  12.056  64.200  1.00  0.00    -0.301 OA 
HETATM   12  O   UNL     1      -9.153   8.003  65.722  1.00  0.00    -0.147 OA 
ENDROOT
BRANCH   4  13
HETATM   13  C   UNL     1     -10.596  13.426  66.562  1.00  0.00    -0.287 C  
BRANCH  13  14
HETATM   14  S   UNL     1     -10.410  14.640  67.918  1.00  0.00    -0.239 SA 
BRANCH  14  15
HETATM   15  C   UNL     1      -8.705  14.935  67.804  1.00  0.00    -0.167 A  
HETATM   16  N   UNL     1      -7.802  14.034  67.480  1.00  0.00    -0.174 NA 
HETATM   17  N   UNL     1      -6.595  14.685  67.467  1.00  0.00    -0.282 NA 
HETATM   18  N   UNL     1      -8.067  16.129  68.004  1.00  0.00    -0.145 NA 
HETATM   19  N   UNL     1      -6.744  15.964  67.773  1.00  0.00    -0.142 NA 
BRANCH  18  20
HETATM   20  C   UNL     1      -8.553  17.457  68.245  1.00  0.00    -0.260 C  
HETATM   21  O   UNL     1      -9.656  19.556  67.118  1.00  0.00    -0.308 OA 
HETATM   22  O   UNL     1      -9.634  17.448  65.892  1.00  0.00    -0.509 OA 
HETATM   23  O   UNL     1      -7.494  18.681  66.148  1.00  0.00    -0.252 OA 
HETATM   24  S   UNL     1      -8.765  18.466  66.799  1.00  0.00    -0.284 S  
ENDBRANCH  18  20
ENDBRANCH  14  15
ENDBRANCH  13  14
ENDBRANCH   4  13
BRANCH   8  25
HETATM   25  N   UNL     1      -9.198   7.743  69.060  1.00  0.00    -0.144 N  
HETATM   26  C   UNL     1      -8.371   6.642  69.133  1.00  0.00    -0.124 C  
HETATM   27  H   UNL     1      -9.052   8.492  69.737  1.00  0.00     0.000 HD 
HETATM   28  O   UNL     1      -8.492   5.659  68.408  1.00  0.00    -0.105 OA 
BRANCH  26  29
HETATM   29  C   UNL     1      -7.270   6.789  70.208  1.00  0.00    -0.076 C  
HETATM   30  O   UNL     1      -5.986   6.507  69.631  1.00  0.00    -0.017 OA 
HETATM   31  H   UNL     1      -5.309   6.597  70.292  1.00  0.00     0.000 HD 
BRANCH  29  32
HETATM   32  C   UNL     1      -7.501   5.873  71.392  1.00  0.00    -0.096 A  
HETATM   33  C   UNL     1      -8.454   4.847  71.309  1.00  0.00    -0.120 A  
HETATM   34  C   UNL     1      -6.768   6.012  72.582  1.00  0.00    -0.069 A  
HETATM   35  C   UNL     1      -7.001   5.166  73.668  1.00  0.00    -0.081 A  
HETATM   36  C   UNL     1      -7.965   4.165  73.577  1.00  0.00    -0.089 A  
HETATM   37  C   UNL     1      -8.687   4.002  72.396  1.00  0.00    -0.116 A  
ENDBRANCH  29  32
ENDBRANCH  26  29
ENDBRANCH   8  25
TORSDOF 7
ENDMDL
MODEL      219
REMARK 921   NORMALIZED FREE ENERGY PREDICTED BY IDOCK:   -4.58 KCAL/MOL
REMARK 922        TOTAL FREE ENERGY PREDICTED BY IDOCK:   -7.43 KCAL/MOL
REMARK 923 INTER-LIGAND FREE ENERGY PREDICTED BY IDOCK:   -6.48 KCAL/MOL
REMARK 924 INTRA-LIGAND FREE ENERGY PREDICTED BY IDOCK:   -0.95 KCAL/MOL
REMARK 927      BINDING AFFINITY PREDICTED BY RF-SCORE:    0.00 PKD
ROOT
HETATM    1  C   UNL     1     -10.567   8.913  67.543  1.00  0.00    -0.237 C  
HETATM    2  S   UNL     1      -9.926   9.630  66.015  1.00  0.00    -0.246 SA 
HETATM    3  C   UNL     1      -8.696   8.331  65.751  1.00  0.00    -0.166 C  
HETATM    4  C   UNL     1      -7.899   7.919  66.985  1.00  0.00    -0.108 C  
HETATM    5  C   UNL     1     -10.103   9.487  69.496  1.00  0.00    -0.206 C  
HETATM    6  CA  UNL     1      -8.282   8.193  68.268  1.00  0.00    -0.129 C  
HETATM    7  C   UNL     1      -7.362   7.833  69.419  1.00  0.00    -0.086 C  
HETATM    8  CA  UNL     1     -11.257   9.923  68.525  1.00  0.00    -0.072 C  
HETATM    9  N   UNL     1      -9.485   8.816  68.502  1.00  0.00    -0.144 N  
HETATM   10  O   UNL     1      -7.539   8.480  70.584  1.00  0.00    -0.064 OA 
HETATM   11  OXT UNL     1      -6.471   6.997  69.331  1.00  0.00    -0.041 OA 
HETATM   12  O   UNL     1      -9.731   9.714  70.625  1.00  0.00    -0.257 OA 
ENDROOT
BRANCH   4  13
HETATM   13  C   UNL     1      -6.538   7.336  66.582  1.00  0.00    -0.056 C  
BRANCH  13  14
HETATM   14  S   UNL     1      -6.574   5.538  66.253  1.00  0.00    -0.057 SA 
BRANCH  14  15
HETATM   15  C   UNL     1      -6.717   5.567  64.525  1.00  0.00    -0.043 A  
HETATM   16  N   UNL     1      -6.337   6.561  63.752  1.00  0.00    -0.033 NA 
HETATM   17  N   UNL     1      -6.588   6.166  62.463  1.00  0.00    -0.036 NA 
HETATM   18  N   UNL     1      -7.213   4.570  63.728  1.00  0.00    -0.049 NA 
HETATM   19  N   UNL     1      -7.110   4.950  62.434  1.00  0.00    -0.030 NA 
BRANCH  18  20
HETATM   20  C   UNL     1      -7.642   3.230  64.011  1.00  0.00    -0.075 C  
HETATM   21  O   UNL     1      -9.724   1.740  64.589  1.00  0.00    -0.082 OA 
HETATM   22  O   UNL     1     -10.100   4.006  63.769  1.00  0.00    -0.172 OA 
HETATM   23  O   UNL     1      -9.227   3.721  66.076  1.00  0.00    -0.144 OA 
HETATM   24  S   UNL     1      -9.236   3.086  64.779  1.00  0.00    -0.148 S  
ENDBRANCH  18  20
ENDBRANCH  14  15
ENDBRANCH  13  14
ENDBRANCH   4  13
BRANCH   8  25
HETATM   25  N   UNL     1     -11.231  11.350  68.118  1.00  0.00    -0.254 N  
HETATM   26  C   UNL     1     -11.693  12.393  68.893  1.00  0.00    -0.324 C  
HETATM   27  H   UNL     1     -10.845  11.574  67.201  1.00  0.00     0.000 HD 
HETATM   28  O   UNL     1     -12.229  12.234  69.985  1.00  0.00    -0.271 OA 
BRANCH  26  29
HETATM   29  C   UNL     1     -11.447  13.775  68.246  1.00  0.00    -0.312 C  
HETATM   30  O   UNL     1     -12.465  14.696  68.664  1.00  0.00    -0.583 OA 
HETATM   31  H   UNL     1     -12.315  15.545  68.267  1.00  0.00     0.000 HD 
BRANCH  29  32
HETATM   32  C   UNL     1     -11.425  13.702  66.734  1.00  0.00    -0.370 A  
HETATM   33  C   UNL     1     -12.627  13.758  66.012  1.00  0.00    -0.458 A  
HETATM   34  C   UNL     1     -10.219  13.596  66.021  1.00  0.00    -0.312 A  
HETATM   35  C   UNL     1     -10.218  13.520  64.627  1.00  0.00    -0.341 A  
HETATM   36  C   UNL     1     -11.420  13.557  63.926  1.00  0.00    -0.289 A  
HETATM   37  C   UNL     1     -12.623  13.682  64.617  1.00  0.00    -0.289 A  
ENDBRANCH  29  32
ENDBRANCH  26  29
ENDBRANCH   8  25
TORSDOF 7
ENDMDL
MODEL      220
REMARK 921   NORMALIZED FREE ENERGY PREDICTED BY IDOCK:   -4.58 KCAL/MOL
REMARK 922        TOTAL FREE ENERGY PREDICTED BY IDOCK:   -7.42 KCAL/MOL
REMARK 923 INTER-LIGAND FREE ENERGY PREDICTED BY IDOCK:   -6.64 KCAL/MOL
REMARK 924 INTRA-LIGAND FREE ENERGY PREDICTED BY IDOCK:   -0.78 KCAL/MOL
REMARK 927      BINDING AFFINITY PREDICTED BY RF-SCORE:    0.00 PKD
ROOT
HETATM    1  C   UNL     1     -11.281  10.608  67.461  1.00  0.00    -0.253 C  
HETATM    2  S   UNL     1      -9.670  10.054  66.864  1.00  0.00    -0.198 SA 
HETATM    3  C   UNL     1      -9.898   8.342  67.400  1.00  0.00    -0.188 C  
HETATM    4  C   UNL     1     -10.478   8.162  68.799  1.00  0.00    -0.198 C  
HETATM    5  C   UNL     1     -11.687  11.622  69.241  1.00  0.00    -0.331 C  
HETATM    6  CA  UNL     1     -11.134   9.145  69.487  1.00  0.00    -0.051 C  
HETATM    7  C   UNL     1     -11.576   8.894  70.916  1.00  0.00    -0.283 C  
HETATM    8  CA  UNL     1     -11.391  12.138  67.788  1.00  0.00    -0.307 C  
HETATM    9  N   UNL     1     -11.361  10.361  68.886  1.00  0.00    -0.241 N  
HETATM   10  O   UNL     1     -11.807   9.966  71.694  1.00  0.00    -0.379 OA 
HETATM   11  OXT UNL     1     -11.721   7.773  71.387  1.00  0.00    -0.269 OA 
HETATM   12  O   UNL     1     -11.948  12.077  70.331  1.00  0.00    -0.348 OA 
ENDROOT
BRANCH   4  13
HETATM   13  C   UNL     1     -10.061   6.809  69.389  1.00  0.00    -0.171 C  
BRANCH  13  14
HETATM   14  S   UNL     1      -8.708   6.926  70.616  1.00  0.00    -0.150 SA 
BRANCH  14  15
HETATM   15  C   UNL     1      -7.348   6.901  69.542  1.00  0.00    -0.091 A  
HETATM   16  N   UNL     1      -7.266   6.185  68.441  1.00  0.00    -0.082 NA 
HETATM   17  N   UNL     1      -6.054   6.485  67.874  1.00  0.00    -0.026 NA 
HETATM   18  N   UNL     1      -6.194   7.628  69.666  1.00  0.00    -0.030 NA 
HETATM   19  N   UNL     1      -5.397   7.373  68.604  1.00  0.00    -0.021 NA 
BRANCH  18  20
HETATM   20  C   UNL     1      -5.794   8.656  70.584  1.00  0.00    -0.032 C  
HETATM   21  O   UNL     1      -6.131  11.176  71.236  1.00  0.00    -0.320 OA 
HETATM   22  O   UNL     1      -7.723  10.142  69.705  1.00  0.00    -0.132 OA 
HETATM   23  O   UNL     1      -5.439  10.641  68.866  1.00  0.00    -0.042 OA 
HETATM   24  S   UNL     1      -6.159  10.317  70.075  1.00  0.00    -0.085 S  
ENDBRANCH  18  20
ENDBRANCH  14  15
ENDBRANCH  13  14
ENDBRANCH   4  13
BRANCH   8  25
HETATM   25  N   UNL     1     -10.143  12.927  67.643  1.00  0.00    -0.217 N  
HETATM   26  C   UNL     1     -10.087  14.227  67.184  1.00  0.00    -0.254 C  
HETATM   27  H   UNL     1      -9.264  12.477  67.900  1.00  0.00     0.000 HD 
HETATM   28  O   UNL     1     -11.072  14.845  66.794  1.00  0.00    -0.325 OA 
BRANCH  26  29
HETATM   29  C   UNL     1      -8.661  14.820  67.233  1.00  0.00    -0.210 C  
HETATM   30  O   UNL     1      -7.854  14.072  68.155  1.00  0.00    -0.121 OA 
HETATM   31  H   UNL     1      -6.978  14.436  68.186  1.00  0.00     0.000 HD 
BRANCH  29  32
HETATM   32  C   UNL     1      -8.662  16.279  67.637  1.00  0.00    -0.188 A  
HETATM   33  C   UNL     1      -9.259  17.237  66.803  1.00  0.00    -0.270 A  
HETATM   34  C   UNL     1      -8.090  16.709  68.846  1.00  0.00    -0.235 A  
HETATM   35  C   UNL     1      -8.090  18.059  69.197  1.00  0.00     0.066 A  
HETATM   36  C   UNL     1      -8.669  19.000  68.349  1.00  0.00    -0.381 A  
HETATM   37  C   UNL     1      -9.258  18.588  67.155  1.00  0.00    -0.280 A  
ENDBRANCH  29  32
ENDBRANCH  26  29
ENDBRANCH   8  25
TORSDOF 7
ENDMDL
MODEL      221
REMARK 921   NORMALIZED FREE ENERGY PREDICTED BY IDOCK:   -4.57 KCAL/MOL
REMARK 922        TOTAL FREE ENERGY PREDICTED BY IDOCK:   -7.41 KCAL/MOL
REMARK 923 INTER-LIGAND FREE ENERGY PREDICTED BY IDOCK:   -6.72 KCAL/MOL
REMARK 924 INTRA-LIGAND FREE ENERGY PREDICTED BY IDOCK:   -0.69 KCAL/MOL
REMARK 927      BINDING AFFINITY PREDICTED BY RF-SCORE:    0.00 PKD
ROOT
HETATM    1  C   UNL     1      -8.970  11.963  68.605  1.00  0.00    -0.041 C  
HETATM    2  S   UNL     1      -7.337  12.134  67.853  1.00  0.00    -0.121 SA 
HETATM    3  C   UNL     1      -7.451  13.929  67.668  1.00  0.00    -0.176 C  
HETATM    4  C   UNL     1      -8.778  14.453  67.128  1.00  0.00    -0.243 C  
HETATM    5  C   UNL     1     -10.736  11.370  67.663  1.00  0.00    -0.216 C  
HETATM    6  CA  UNL     1      -9.938  13.729  67.119  1.00  0.00    -0.243 C  
HETATM    7  C   UNL     1     -11.177  14.304  66.459  1.00  0.00    -0.332 C  
HETATM    8  CA  UNL     1      -9.644  10.556  68.444  1.00  0.00    -0.160 C  
HETATM    9  N   UNL     1      -9.964  12.476  67.684  1.00  0.00    -0.198 N  
HETATM   10  O   UNL     1     -12.137  13.443  66.080  1.00  0.00    -0.399 OA 
HETATM   11  OXT UNL     1     -11.333  15.501  66.251  1.00  0.00    -0.178 OA 
HETATM   12  O   UNL     1     -11.787  11.170  67.098  1.00  0.00    -0.466 OA 
ENDROOT
BRANCH   4  13
HETATM   13  C   UNL     1      -8.585  15.807  66.432  1.00  0.00    -0.311 C  
BRANCH  13  14
HETATM   14  S   UNL     1      -8.886  17.245  67.522  1.00  0.00    -0.220 SA 
BRANCH  14  15
HETATM   15  C   UNL     1      -7.320  17.381  68.252  1.00  0.00    -0.214 A  
HETATM   16  N   UNL     1      -6.936  16.753  69.342  1.00  0.00    -0.219 NA 
HETATM   17  N   UNL     1      -5.628  17.105  69.551  1.00  0.00    -0.186 NA 
HETATM   18  N   UNL     1      -6.267  18.128  67.795  1.00  0.00    -0.174 NA 
HETATM   19  N   UNL     1      -5.204  17.933  68.609  1.00  0.00    -0.152 NA 
BRANCH  18  20
HETATM   20  C   UNL     1      -6.074  18.897  66.600  1.00  0.00    -0.165 C  
HETATM   21  O   UNL     1      -6.032  21.332  65.620  1.00  0.00    -0.250 OA 
HETATM   22  O   UNL     1      -5.984  21.046  68.042  1.00  0.00    -0.302 OA 
HETATM   23  O   UNL     1      -8.108  20.576  66.845  1.00  0.00    -0.294 OA 
HETATM   24  S   UNL     1      -6.676  20.566  66.662  1.00  0.00    -0.267 S  
ENDBRANCH  18  20
ENDBRANCH  14  15
ENDBRANCH  13  14
ENDBRANCH   4  13
BRANCH   8  25
HETATM   25  N   UNL     1      -8.897   9.565  67.630  1.00  0.00    -0.119 N  
HETATM   26  C   UNL     1      -8.581   8.289  68.048  1.00  0.00    -0.132 C  
HETATM   27  H   UNL     1      -8.597   9.847  66.697  1.00  0.00     0.000 HD 
HETATM   28  O   UNL     1      -8.841   7.864  69.168  1.00  0.00    -0.141 OA 
BRANCH  26  29
HETATM   29  C   UNL     1      -7.884   7.454  66.949  1.00  0.00    -0.115 C  
HETATM   30  O   UNL     1      -6.671   6.885  67.466  1.00  0.00    -0.062 OA 
HETATM   31  H   UNL     1      -6.243   6.372  66.791  1.00  0.00     0.000 HD 
BRANCH  29  32
HETATM   32  C   UNL     1      -7.568   8.278  65.719  1.00  0.00    -0.082 A  
HETATM   33  C   UNL     1      -6.346   8.962  65.627  1.00  0.00    -0.060 A  
HETATM   34  C   UNL     1      -8.467   8.367  64.642  1.00  0.00    -0.094 A  
HETATM   35  C   UNL     1      -8.164   9.140  63.520  1.00  0.00    -0.178 A  
HETATM   36  C   UNL     1      -6.956   9.828  63.453  1.00  0.00    -0.118 A  
HETATM   37  C   UNL     1      -6.045   9.735  64.504  1.00  0.00    -0.096 A  
ENDBRANCH  29  32
ENDBRANCH  26  29
ENDBRANCH   8  25
TORSDOF 7
ENDMDL
MODEL      222
REMARK 921   NORMALIZED FREE ENERGY PREDICTED BY IDOCK:   -4.54 KCAL/MOL
REMARK 922        TOTAL FREE ENERGY PREDICTED BY IDOCK:   -7.36 KCAL/MOL
REMARK 923 INTER-LIGAND FREE ENERGY PREDICTED BY IDOCK:   -7.36 KCAL/MOL
REMARK 924 INTRA-LIGAND FREE ENERGY PREDICTED BY IDOCK:   -0.01 KCAL/MOL
REMARK 927      BINDING AFFINITY PREDICTED BY RF-SCORE:    0.00 PKD
ROOT
HETATM    1  C   UNL     1     -10.439  16.917  68.211  1.00  0.00    -0.352 C  
HETATM    2  S   UNL     1     -10.451  15.129  68.463  1.00  0.00    -0.239 SA 
HETATM    3  C   UNL     1      -9.086  15.141  69.649  1.00  0.00    -0.061 C  
HETATM    4  C   UNL     1      -7.894  16.014  69.271  1.00  0.00    -0.222 C  
HETATM    5  C   UNL     1      -9.574  17.961  66.623  1.00  0.00    -0.309 C  
HETATM    6  CA  UNL     1      -7.941  17.007  68.333  1.00  0.00    -0.239 C  
HETATM    7  C   UNL     1      -6.669  17.744  67.955  1.00  0.00    -0.191 C  
HETATM    8  CA  UNL     1     -11.028  17.410  66.843  1.00  0.00     0.135 C  
HETATM    9  N   UNL     1      -9.134  17.310  67.720  1.00  0.00    -0.232 N  
HETATM   10  O   UNL     1      -6.646  18.377  66.769  1.00  0.00    -0.179 OA 
HETATM   11  OXT UNL     1      -5.676  17.778  68.669  1.00  0.00    -0.166 OA 
HETATM   12  O   UNL     1      -8.954  18.580  65.789  1.00  0.00    -0.418 OA 
ENDROOT
BRANCH   4  13
HETATM   13  C   UNL     1      -6.612  15.501  69.941  1.00  0.00    -0.131 C  
BRANCH  13  14
HETATM   14  S   UNL     1      -5.886  14.038  69.118  1.00  0.00    -0.092 SA 
BRANCH  14  15
HETATM   15  C   UNL     1      -5.668  13.014  70.500  1.00  0.00    -0.173 A  
HETATM   16  N   UNL     1      -5.568  13.433  71.743  1.00  0.00    -0.399 NA 
HETATM   17  N   UNL     1      -5.448  12.309  72.521  1.00  0.00     0.065 NA 
HETATM   18  N   UNL     1      -5.598  11.646  70.502  1.00  0.00    -0.143 NA 
HETATM   19  N   UNL     1      -5.477  11.214  71.778  1.00  0.00    -0.331 NA 
BRANCH  18  20
HETATM   20  C   UNL     1      -5.776  10.668  69.468  1.00  0.00    -0.039 C  
HETATM   21  O   UNL     1      -7.515   9.631  67.797  1.00  0.00    -0.086 OA 
HETATM   22  O   UNL     1      -8.075  11.724  68.917  1.00  0.00    -0.088 OA 
HETATM   23  O   UNL     1      -8.084   9.635  70.259  1.00  0.00    -0.166 OA 
HETATM   24  S   UNL     1      -7.461  10.241  69.105  1.00  0.00    -0.118 S  
ENDBRANCH  18  20
ENDBRANCH  14  15
ENDBRANCH  13  14
ENDBRANCH   4  13
BRANCH   8  25
HETATM   25  N   UNL     1     -11.449  16.350  65.894  1.00  0.00     0.501 N  
HETATM   26  C   UNL     1     -10.583  15.511  65.224  1.00  0.00    -0.424 C  
HETATM   27  H   UNL     1     -12.448  16.234  65.725  1.00  0.00     0.000 HD 
HETATM   28  O   UNL     1      -9.363  15.598  65.307  1.00  0.00    -0.194 OA 
BRANCH  26  29
HETATM   29  C   UNL     1     -11.316  14.445  64.379  1.00  0.00    -0.251 C  
HETATM   30  O   UNL     1     -12.734  14.568  64.563  1.00  0.00    -0.653 OA 
HETATM   31  H   UNL     1     -13.185  13.913  64.044  1.00  0.00     0.000 HD 
BRANCH  29  32
HETATM   32  C   UNL     1     -10.884  13.037  64.734  1.00  0.00    -0.357 A  
HETATM   33  C   UNL     1     -10.283  12.222  63.762  1.00  0.00    -0.427 A  
HETATM   34  C   UNL     1     -11.053  12.521  66.030  1.00  0.00    -0.329 A  
HETATM   35  C   UNL     1     -10.658  11.218  66.336  1.00  0.00    -0.316 A  
HETATM   36  C   UNL     1     -10.082  10.415  65.356  1.00  0.00    -0.354 A  
HETATM   37  C   UNL     1      -9.890  10.919  64.071  1.00  0.00    -0.377 A  
ENDBRANCH  29  32
ENDBRANCH  26  29
ENDBRANCH   8  25
TORSDOF 7
ENDMDL
MODEL      223
REMARK 921   NORMALIZED FREE ENERGY PREDICTED BY IDOCK:   -4.53 KCAL/MOL
REMARK 922        TOTAL FREE ENERGY PREDICTED BY IDOCK:   -7.35 KCAL/MOL
REMARK 923 INTER-LIGAND FREE ENERGY PREDICTED BY IDOCK:   -7.70 KCAL/MOL
REMARK 924 INTRA-LIGAND FREE ENERGY PREDICTED BY IDOCK:    0.35 KCAL/MOL
REMARK 927      BINDING AFFINITY PREDICTED BY RF-SCORE:    0.00 PKD
ROOT
HETATM    1  C   UNL     1      -8.181  10.941  68.935  1.00  0.00    -0.141 C  
HETATM    2  S   UNL     1      -7.493  11.399  67.330  1.00  0.00    -0.142 SA 
HETATM    3  C   UNL     1      -7.956  13.141  67.465  1.00  0.00    -0.179 C  
HETATM    4  C   UNL     1      -9.368  13.409  67.978  1.00  0.00    -0.217 C  
HETATM    5  C   UNL     1     -10.021  10.028  69.306  1.00  0.00    -0.213 C  
HETATM    6  CA  UNL     1     -10.127  12.487  68.643  1.00  0.00    -0.130 C  
HETATM    7  C   UNL     1     -11.560  12.821  69.013  1.00  0.00    -0.316 C  
HETATM    8  CA  UNL     1      -8.583   9.434  69.094  1.00  0.00    -0.140 C  
HETATM    9  N   UNL     1      -9.595  11.256  68.944  1.00  0.00    -0.153 N  
HETATM   10  O   UNL     1     -12.396  11.796  69.255  1.00  0.00    -0.178 OA 
HETATM   11  OXT UNL     1     -11.983  13.968  69.092  1.00  0.00    -0.329 OA 
HETATM   12  O   UNL     1     -11.141   9.634  69.539  1.00  0.00    -0.229 OA 
ENDROOT
BRANCH   4  13
HETATM   13  C   UNL     1      -9.876  14.769  67.480  1.00  0.00    -0.218 C  
BRANCH  13  14
HETATM   14  S   UNL     1      -9.470  15.113  65.730  1.00  0.00    -0.153 SA 
BRANCH  14  15
HETATM   15  C   UNL     1      -9.885  16.795  65.667  1.00  0.00    -0.079 A  
HETATM   16  N   UNL     1     -10.928  17.293  65.039  1.00  0.00    -0.716 NA 
HETATM   17  N   UNL     1     -10.909  18.644  65.271  1.00  0.00    -0.448 NA 
HETATM   18  N   UNL     1      -9.216  17.826  66.271  1.00  0.00    -0.440 NA 
HETATM   19  N   UNL     1      -9.878  18.980  66.030  1.00  0.00    -0.481 NA 
BRANCH  18  20
HETATM   20  C   UNL     1      -8.105  17.857  67.178  1.00  0.00    -0.212 C  
HETATM   21  O   UNL     1      -7.090  19.096  69.257  1.00  0.00    -0.323 OA 
HETATM   22  O   UNL     1      -9.424  19.504  68.679  1.00  0.00    -0.375 OA 
HETATM   23  O   UNL     1      -7.665  20.469  67.216  1.00  0.00    -0.316 OA 
HETATM   24  S   UNL     1      -7.919  19.360  68.105  1.00  0.00    -0.326 S  
ENDBRANCH  18  20
ENDBRANCH  14  15
ENDBRANCH  13  14
ENDBRANCH   4  13
BRANCH   8  25
HETATM   25  N   UNL     1      -8.425   8.586  67.885  1.00  0.00    -0.130 N  
HETATM   26  C   UNL     1      -9.290   7.576  67.520  1.00  0.00    -0.138 C  
HETATM   27  H   UNL     1      -7.621   8.764  67.284  1.00  0.00     0.000 HD 
HETATM   28  O   UNL     1     -10.255   7.239  68.197  1.00  0.00    -0.173 OA 
BRANCH  26  29
HETATM   29  C   UNL     1      -8.921   6.933  66.164  1.00  0.00    -0.134 C  
HETATM   30  O   UNL     1      -9.993   6.089  65.718  1.00  0.00    -0.377 OA 
HETATM   31  H   UNL     1      -9.766   5.693  64.885  1.00  0.00     0.000 HD 
BRANCH  29  32
HETATM   32  C   UNL     1      -7.644   6.123  66.243  1.00  0.00    -0.090 A  
HETATM   33  C   UNL     1      -7.695   4.763  66.584  1.00  0.00    -0.095 A  
HETATM   34  C   UNL     1      -6.391   6.697  65.967  1.00  0.00    -0.045 A  
HETATM   35  C   UNL     1      -5.223   5.939  66.056  1.00  0.00    -0.009 A  
HETATM   36  C   UNL     1      -5.289   4.595  66.414  1.00  0.00    -0.009 A  
HETATM   37  C   UNL     1      -6.525   4.006  66.672  1.00  0.00    -0.041 A  
ENDBRANCH  29  32
ENDBRANCH  26  29
ENDBRANCH   8  25
TORSDOF 7
ENDMDL
MODEL      224
REMARK 921   NORMALIZED FREE ENERGY PREDICTED BY IDOCK:   -4.52 KCAL/MOL
REMARK 922        TOTAL FREE ENERGY PREDICTED BY IDOCK:   -7.34 KCAL/MOL
REMARK 923 INTER-LIGAND FREE ENERGY PREDICTED BY IDOCK:   -6.46 KCAL/MOL
REMARK 924 INTRA-LIGAND FREE ENERGY PREDICTED BY IDOCK:   -0.88 KCAL/MOL
REMARK 927      BINDING AFFINITY PREDICTED BY RF-SCORE:    0.00 PKD
ROOT
HETATM    1  C   UNL     1      -6.199   8.747  67.127  1.00  0.00    -0.059 C  
HETATM    2  S   UNL     1      -7.772   8.905  66.254  1.00  0.00    -0.099 SA 
HETATM    3  C   UNL     1      -7.736  10.713  66.218  1.00  0.00    -0.143 C  
HETATM    4  C   UNL     1      -7.330  11.389  67.524  1.00  0.00    -0.112 C  
HETATM    5  C   UNL     1      -5.918   8.400  69.166  1.00  0.00    -0.042 C  
HETATM    6  CA  UNL     1      -6.682  10.751  68.545  1.00  0.00    -0.057 C  
HETATM    7  C   UNL     1      -6.422  11.489  69.845  1.00  0.00    -0.106 C  
HETATM    8  CA  UNL     1      -6.010   7.421  67.942  1.00  0.00    -0.035 C  
HETATM    9  N   UNL     1      -6.297   9.440  68.395  1.00  0.00    -0.053 N  
HETATM   10  O   UNL     1      -6.197  10.751  70.946  1.00  0.00    -0.342 OA 
HETATM   11  OXT UNL     1      -6.416  12.710  69.935  1.00  0.00    -0.076 OA 
HETATM   12  O   UNL     1      -5.745   8.345  70.363  1.00  0.00    -0.028 OA 
ENDROOT
BRANCH   4  13
HETATM   13  C   UNL     1      -7.913  12.806  67.605  1.00  0.00    -0.165 C  
BRANCH  13  14
HETATM   14  S   UNL     1      -9.724  12.844  67.858  1.00  0.00    -0.223 SA 
BRANCH  14  15
HETATM   15  C   UNL     1      -9.975  14.560  67.862  1.00  0.00    -0.226 A  
HETATM   16  N   UNL     1      -9.213  15.433  68.484  1.00  0.00    -0.191 NA 
HETATM   17  N   UNL     1      -9.733  16.670  68.201  1.00  0.00    -0.238 NA 
HETATM   18  N   UNL     1     -10.966  15.243  67.210  1.00  0.00    -0.323 NA 
HETATM   19  N   UNL     1     -10.794  16.569  67.415  1.00  0.00    -0.256 NA 
BRANCH  18  20
HETATM   20  C   UNL     1     -11.982  14.826  66.287  1.00  0.00    -0.159 C  
HETATM   21  O   UNL     1     -12.431  14.069  63.814  1.00  0.00    -0.753 OA 
HETATM   22  O   UNL     1     -10.130  14.122  64.621  1.00  0.00    -0.343 OA 
HETATM   23  O   UNL     1     -11.275  16.283  64.191  1.00  0.00    -0.766 OA 
HETATM   24  S   UNL     1     -11.538  14.915  64.571  1.00  0.00    -0.304 S  
ENDBRANCH  18  20
ENDBRANCH  14  15
ENDBRANCH  13  14
ENDBRANCH   4  13
BRANCH   8  25
HETATM   25  N   UNL     1      -7.171   6.496  67.963  1.00  0.00    -0.085 N  
HETATM   26  C   UNL     1      -7.095   5.140  67.723  1.00  0.00    -0.066 C  
HETATM   27  H   UNL     1      -8.088   6.891  68.169  1.00  0.00     0.000 HD 
HETATM   28  O   UNL     1      -6.055   4.569  67.410  1.00  0.00    -0.026 OA 
BRANCH  26  29
HETATM   29  C   UNL     1      -8.451   4.422  67.908  1.00  0.00    -0.098 C  
HETATM   30  O   UNL     1      -8.264   3.218  68.667  1.00  0.00    -0.060 OA 
HETATM   31  H   UNL     1      -9.097   2.776  68.781  1.00  0.00     0.000 HD 
BRANCH  29  32
HETATM   32  C   UNL     1      -9.105   4.085  66.584  1.00  0.00    -0.149 A  
HETATM   33  C   UNL     1     -10.283   4.741  66.197  1.00  0.00    -0.313 A  
HETATM   34  C   UNL     1      -8.551   3.134  65.711  1.00  0.00    -0.118 A  
HETATM   35  C   UNL     1      -9.173   2.828  64.500  1.00  0.00    -0.133 A  
HETATM   36  C   UNL     1     -10.352   3.473  64.139  1.00  0.00    -0.220 A  
HETATM   37  C   UNL     1     -10.904   4.433  64.985  1.00  0.00    -0.097 A  
ENDBRANCH  29  32
ENDBRANCH  26  29
ENDBRANCH   8  25
TORSDOF 7
ENDMDL
MODEL      225
REMARK 921   NORMALIZED FREE ENERGY PREDICTED BY IDOCK:   -4.51 KCAL/MOL
REMARK 922        TOTAL FREE ENERGY PREDICTED BY IDOCK:   -7.32 KCAL/MOL
REMARK 923 INTER-LIGAND FREE ENERGY PREDICTED BY IDOCK:   -7.56 KCAL/MOL
REMARK 924 INTRA-LIGAND FREE ENERGY PREDICTED BY IDOCK:    0.24 KCAL/MOL
REMARK 927      BINDING AFFINITY PREDICTED BY RF-SCORE:    0.00 PKD
ROOT
HETATM    1  C   UNL     1      -9.991   6.155  72.008  1.00  0.00    -0.172 C  
HETATM    2  S   UNL     1     -11.117   6.099  70.599  1.00  0.00    -0.308 SA 
HETATM    3  C   UNL     1      -9.891   5.414  69.460  1.00  0.00    -0.196 C  
HETATM    4  C   UNL     1      -8.509   6.058  69.516  1.00  0.00    -0.119 C  
HETATM    5  C   UNL     1      -8.954   7.817  72.730  1.00  0.00    -0.181 C  
HETATM    6  CA  UNL     1      -8.065   6.824  70.557  1.00  0.00    -0.116 C  
HETATM    7  C   UNL     1      -6.713   7.508  70.463  1.00  0.00    -0.047 C  
HETATM    8  CA  UNL     1     -10.347   7.205  73.118  1.00  0.00    -0.295 C  
HETATM    9  N   UNL     1      -8.858   6.991  71.668  1.00  0.00    -0.131 N  
HETATM   10  O   UNL     1      -6.495   8.567  71.261  1.00  0.00    -0.045 OA 
HETATM   11  OXT UNL     1      -5.830   7.147  69.696  1.00  0.00    -0.022 OA 
HETATM   12  O   UNL     1      -8.241   8.736  73.064  1.00  0.00    -0.418 OA 
ENDROOT
BRANCH   4  13
HETATM   13  C   UNL     1      -7.777   5.888  68.178  1.00  0.00    -0.100 C  
BRANCH  13  14
HETATM   14  S   UNL     1      -8.872   5.405  66.795  1.00  0.00    -0.113 SA 
BRANCH  14  15
HETATM   15  C   UNL     1      -9.496   6.965  66.368  1.00  0.00    -0.120 A  
HETATM   16  N   UNL     1     -10.599   7.496  66.851  1.00  0.00    -0.337 NA 
HETATM   17  N   UNL     1     -10.706   8.742  66.289  1.00  0.00     0.388 NA 
HETATM   18  N   UNL     1      -8.930   7.865  65.505  1.00  0.00    -0.041 NA 
HETATM   19  N   UNL     1      -9.689   8.984  65.477  1.00  0.00    -0.128 NA 
BRANCH  18  20
HETATM   20  C   UNL     1      -7.679   7.875  64.804  1.00  0.00    -0.118 C  
HETATM   21  O   UNL     1      -5.217   8.785  64.856  1.00  0.00    -0.038 OA 
HETATM   22  O   UNL     1      -6.563   8.937  66.885  1.00  0.00    -0.060 OA 
HETATM   23  O   UNL     1      -7.108  10.455  64.997  1.00  0.00    -0.128 OA 
HETATM   24  S   UNL     1      -6.546   9.156  65.283  1.00  0.00    -0.069 S  
ENDBRANCH  18  20
ENDBRANCH  14  15
ENDBRANCH  13  14
ENDBRANCH   4  13
BRANCH   8  25
HETATM   25  N   UNL     1     -11.516   8.076  72.839  1.00  0.00    -0.502 N  
HETATM   26  C   UNL     1     -11.502   9.151  71.976  1.00  0.00    -0.281 C  
HETATM   27  H   UNL     1     -12.391   7.864  73.320  1.00  0.00     0.000 HD 
HETATM   28  O   UNL     1     -10.494   9.531  71.389  1.00  0.00    -0.317 OA 
BRANCH  26  29
HETATM   29  C   UNL     1     -12.892   9.809  71.816  1.00  0.00    -0.434 C  
HETATM   30  O   UNL     1     -13.642   9.121  70.804  1.00  0.00    -0.544 OA 
HETATM   31  H   UNL     1     -14.496   9.525  70.705  1.00  0.00     0.000 HD 
BRANCH  29  32
HETATM   32  C   UNL     1     -12.791  11.277  71.456  1.00  0.00    -0.519 A  
HETATM   33  C   UNL     1     -12.215  11.662  70.236  1.00  0.00    -0.401 A  
HETATM   34  C   UNL     1     -13.280  12.279  72.312  1.00  0.00    -0.345 A  
HETATM   35  C   UNL     1     -13.170  13.627  71.969  1.00  0.00    -0.522 A  
HETATM   36  C   UNL     1     -12.577  13.994  70.764  1.00  0.00    -0.431 A  
HETATM   37  C   UNL     1     -12.105  13.012  69.896  1.00  0.00    -0.347 A  
ENDBRANCH  29  32
ENDBRANCH  26  29
ENDBRANCH   8  25
TORSDOF 7
ENDMDL
MODEL      226
REMARK 921   NORMALIZED FREE ENERGY PREDICTED BY IDOCK:   -4.47 KCAL/MOL
REMARK 922        TOTAL FREE ENERGY PREDICTED BY IDOCK:   -7.27 KCAL/MOL
REMARK 923 INTER-LIGAND FREE ENERGY PREDICTED BY IDOCK:   -6.40 KCAL/MOL
REMARK 924 INTRA-LIGAND FREE ENERGY PREDICTED BY IDOCK:   -0.87 KCAL/MOL
REMARK 927      BINDING AFFINITY PREDICTED BY RF-SCORE:    0.00 PKD
ROOT
HETATM    1  C   UNL     1      -7.820   8.498  67.455  1.00  0.00    -0.099 C  
HETATM    2  S   UNL     1      -9.387   9.028  66.733  1.00  0.00    -0.178 SA 
HETATM    3  C   UNL     1      -8.770  10.649  66.221  1.00  0.00    -0.156 C  
HETATM    4  C   UNL     1      -7.930  11.390  67.257  1.00  0.00    -0.149 C  
HETATM    5  C   UNL     1      -7.295   8.509  69.476  1.00  0.00    -0.065 C  
HETATM    6  CA  UNL     1      -7.349  10.791  68.340  1.00  0.00    -0.092 C  
HETATM    7  C   UNL     1      -6.625  11.640  69.369  1.00  0.00    -0.115 C  
HETATM    8  CA  UNL     1      -7.927   7.396  68.567  1.00  0.00    -0.124 C  
HETATM    9  N   UNL     1      -7.449   9.429  68.501  1.00  0.00    -0.080 N  
HETATM   10  O   UNL     1      -6.455  11.119  70.596  1.00  0.00    -0.309 OA 
HETATM   11  OXT UNL     1      -6.205  12.765  69.134  1.00  0.00    -0.085 OA 
HETATM   12  O   UNL     1      -6.930   8.649  70.621  1.00  0.00    -0.039 OA 
ENDROOT
BRANCH   4  13
HETATM   13  C   UNL     1      -7.992  12.905  67.022  1.00  0.00    -0.022 C  
BRANCH  13  14
HETATM   14  S   UNL     1      -9.372  13.731  67.893  1.00  0.00    -0.219 SA 
BRANCH  14  15
HETATM   15  C   UNL     1      -9.787  14.922  66.705  1.00  0.00    -0.246 A  
HETATM   16  N   UNL     1     -10.833  14.864  65.909  1.00  0.00    -0.324 NA 
HETATM   17  N   UNL     1     -10.813  16.013  65.160  1.00  0.00    -0.469 NA 
HETATM   18  N   UNL     1      -9.116  16.087  66.445  1.00  0.00    -0.289 NA 
HETATM   19  N   UNL     1      -9.779  16.772  65.486  1.00  0.00    -0.515 NA 
BRANCH  18  20
HETATM   20  C   UNL     1      -8.001  16.723  67.086  1.00  0.00    -0.181 C  
HETATM   21  O   UNL     1      -7.309  18.602  68.783  1.00  0.00    -0.291 OA 
HETATM   22  O   UNL     1      -9.648  17.915  68.688  1.00  0.00    -0.315 OA 
HETATM   23  O   UNL     1      -8.738  19.252  66.803  1.00  0.00    -0.287 OA 
HETATM   24  S   UNL     1      -8.342  18.304  67.818  1.00  0.00    -0.259 S  
ENDBRANCH  18  20
ENDBRANCH  14  15
ENDBRANCH  13  14
ENDBRANCH   4  13
BRANCH   8  25
HETATM   25  N   UNL     1      -9.301   6.982  68.944  1.00  0.00    -0.139 N  
HETATM   26  C   UNL     1      -9.621   6.285  70.091  1.00  0.00    -0.162 C  
HETATM   27  H   UNL     1     -10.062   7.230  68.312  1.00  0.00     0.000 HD 
HETATM   28  O   UNL     1      -8.782   5.887  70.892  1.00  0.00    -0.129 OA 
BRANCH  26  29
HETATM   29  C   UNL     1     -11.143   6.079  70.262  1.00  0.00    -0.345 C  
HETATM   30  O   UNL     1     -11.786   6.113  68.980  1.00  0.00    -0.149 OA 
HETATM   31  H   UNL     1     -12.722   5.986  69.085  1.00  0.00     0.000 HD 
BRANCH  29  32
HETATM   32  C   UNL     1     -11.764   7.127  71.163  1.00  0.00    -0.350 A  
HETATM   33  C   UNL     1     -11.006   7.703  72.194  1.00  0.00    -0.304 A  
HETATM   34  C   UNL     1     -13.089   7.558  70.985  1.00  0.00    -0.145 A  
HETATM   35  C   UNL     1     -13.649   8.516  71.831  1.00  0.00    -0.427 A  
HETATM   36  C   UNL     1     -12.890   9.065  72.861  1.00  0.00     0.100 A  
HETATM   37  C   UNL     1     -11.568   8.662  73.039  1.00  0.00     0.561 A  
ENDBRANCH  29  32
ENDBRANCH  26  29
ENDBRANCH   8  25
TORSDOF 7
ENDMDL
MODEL      227
REMARK 921   NORMALIZED FREE ENERGY PREDICTED BY IDOCK:   -4.46 KCAL/MOL
REMARK 922        TOTAL FREE ENERGY PREDICTED BY IDOCK:   -7.25 KCAL/MOL
REMARK 923 INTER-LIGAND FREE ENERGY PREDICTED BY IDOCK:   -6.35 KCAL/MOL
REMARK 924 INTRA-LIGAND FREE ENERGY PREDICTED BY IDOCK:   -0.90 KCAL/MOL
REMARK 927      BINDING AFFINITY PREDICTED BY RF-SCORE:    0.00 PKD
ROOT
HETATM    1  C   UNL     1      -9.708   7.907  67.192  1.00  0.00    -0.191 C  
HETATM    2  S   UNL     1     -10.254   8.188  68.889  1.00  0.00    -0.209 SA 
HETATM    3  C   UNL     1     -10.510   9.964  68.666  1.00  0.00    -0.206 C  
HETATM    4  C   UNL     1      -9.405  10.700  67.915  1.00  0.00    -0.154 C  
HETATM    5  C   UNL     1      -7.743   7.717  66.513  1.00  0.00    -0.097 C  
HETATM    6  CA  UNL     1      -8.469  10.081  67.134  1.00  0.00    -0.125 C  
HETATM    7  C   UNL     1      -7.347  10.895  66.519  1.00  0.00    -0.142 C  
HETATM    8  CA  UNL     1      -8.797   6.649  66.974  1.00  0.00    -0.114 C  
HETATM    9  N   UNL     1      -8.538   8.722  66.936  1.00  0.00    -0.114 N  
HETATM   10  O   UNL     1      -6.236  10.239  66.142  1.00  0.00    -0.074 OA 
HETATM   11  OXT UNL     1      -7.406  12.108  66.362  1.00  0.00     0.219 OA 
HETATM   12  O   UNL     1      -6.609   7.752  66.091  1.00  0.00    -0.048 OA 
ENDROOT
BRANCH   4  13
HETATM   13  C   UNL     1      -9.375  12.183  68.310  1.00  0.00    -0.198 C  
BRANCH  13  14
HETATM   14  S   UNL     1     -11.034  12.928  68.502  1.00  0.00    -0.270 SA 
BRANCH  14  15
HETATM   15  C   UNL     1     -10.594  14.604  68.510  1.00  0.00    -0.245 A  
HETATM   16  N   UNL     1      -9.727  15.155  69.332  1.00  0.00    -0.222 NA 
HETATM   17  N   UNL     1      -9.643  16.477  68.976  1.00  0.00    -0.261 NA 
HETATM   18  N   UNL     1     -11.054  15.575  67.661  1.00  0.00    -0.319 NA 
HETATM   19  N   UNL     1     -10.437  16.743  67.952  1.00  0.00    -0.322 NA 
BRANCH  18  20
HETATM   20  C   UNL     1     -11.899  15.524  66.502  1.00  0.00     0.439 C  
HETATM   21  O   UNL     1     -11.911  15.372  63.882  1.00  0.00    -0.466 OA 
HETATM   22  O   UNL     1      -9.837  14.889  65.071  1.00  0.00    -0.263 OA 
HETATM   23  O   UNL     1     -10.607  17.248  64.961  1.00  0.00    -0.675 OA 
HETATM   24  S   UNL     1     -11.101  15.891  64.959  1.00  0.00    -0.298 S  
ENDBRANCH  18  20
ENDBRANCH  14  15
ENDBRANCH  13  14
ENDBRANCH   4  13
BRANCH   8  25
HETATM   25  N   UNL     1      -8.430   5.891  68.196  1.00  0.00    -0.114 N  
HETATM   26  C   UNL     1      -8.979   4.678  68.558  1.00  0.00    -0.110 C  
HETATM   27  H   UNL     1      -7.724   6.294  68.811  1.00  0.00     0.000 HD 
HETATM   28  O   UNL     1      -9.875   4.129  67.925  1.00  0.00    -0.132 OA 
BRANCH  26  29
HETATM   29  C   UNL     1      -8.332   4.083  69.829  1.00  0.00    -0.060 C  
HETATM   30  O   UNL     1      -7.974   2.712  69.597  1.00  0.00    -0.043 OA 
HETATM   31  H   UNL     1      -7.577   2.346  70.378  1.00  0.00     0.000 HD 
BRANCH  29  32
HETATM   32  C   UNL     1      -9.249   4.167  71.031  1.00  0.00    -0.202 A  
HETATM   33  C   UNL     1     -10.034   5.312  71.235  1.00  0.00    -0.256 A  
HETATM   34  C   UNL     1      -9.353   3.110  71.952  1.00  0.00    -0.196 A  
HETATM   35  C   UNL     1     -10.195   3.209  73.060  1.00  0.00    -0.232 A  
HETATM   36  C   UNL     1     -10.953   4.360  73.260  1.00  0.00    -0.358 A  
HETATM   37  C   UNL     1     -10.876   5.408  72.345  1.00  0.00    -0.297 A  
ENDBRANCH  29  32
ENDBRANCH  26  29
ENDBRANCH   8  25
TORSDOF 7
ENDMDL
MODEL      228
REMARK 921   NORMALIZED FREE ENERGY PREDICTED BY IDOCK:   -4.41 KCAL/MOL
REMARK 922        TOTAL FREE ENERGY PREDICTED BY IDOCK:   -7.18 KCAL/MOL
REMARK 923 INTER-LIGAND FREE ENERGY PREDICTED BY IDOCK:   -7.16 KCAL/MOL
REMARK 924 INTRA-LIGAND FREE ENERGY PREDICTED BY IDOCK:   -0.02 KCAL/MOL
REMARK 927      BINDING AFFINITY PREDICTED BY RF-SCORE:    0.00 PKD
ROOT
HETATM    1  C   UNL     1      -8.929  10.062  69.345  1.00  0.00    -0.194 C  
HETATM    2  S   UNL     1     -10.572  10.015  70.093  1.00  0.00    -0.291 SA 
HETATM    3  C   UNL     1     -10.670   8.210  70.113  1.00  0.00    -0.243 C  
HETATM    4  C   UNL     1     -10.215   7.512  68.836  1.00  0.00    -0.214 C  
HETATM    5  C   UNL     1      -8.466  10.397  67.337  1.00  0.00    -0.121 C  
HETATM    6  CA  UNL     1      -9.445   8.105  67.873  1.00  0.00    -0.146 C  
HETATM    7  C   UNL     1      -9.139   7.356  66.590  1.00  0.00    -0.154 C  
HETATM    8  CA  UNL     1      -8.581  11.374  68.560  1.00  0.00    -0.150 C  
HETATM    9  N   UNL     1      -8.979   9.384  68.067  1.00  0.00    -0.128 N  
HETATM   10  O   UNL     1      -8.777   8.081  65.517  1.00  0.00    -0.157 OA 
HETATM   11  OXT UNL     1      -9.216   6.138  66.488  1.00  0.00    -0.142 OA 
HETATM   12  O   UNL     1      -8.197  10.444  66.158  1.00  0.00    -0.132 OA 
ENDROOT
BRANCH   4  13
HETATM   13  C   UNL     1     -10.892   6.142  68.695  1.00  0.00    -0.332 C  
BRANCH  13  14
HETATM   14  S   UNL     1      -9.760   4.730  68.965  1.00  0.00    -0.170 SA 
BRANCH  14  15
HETATM   15  C   UNL     1      -8.941   5.289  70.387  1.00  0.00    -0.128 A  
HETATM   16  N   UNL     1      -8.038   6.245  70.412  1.00  0.00    -0.115 NA 
HETATM   17  N   UNL     1      -7.677   6.401  71.726  1.00  0.00    -0.095 NA 
HETATM   18  N   UNL     1      -9.131   4.845  71.668  1.00  0.00    -0.137 NA 
HETATM   19  N   UNL     1      -8.345   5.562  72.503  1.00  0.00    -0.114 NA 
BRANCH  18  20
HETATM   20  C   UNL     1     -10.070   3.925  72.243  1.00  0.00    -0.164 C  
HETATM   21  O   UNL     1     -12.394   3.730  73.448  1.00  0.00     0.271 OA 
HETATM   22  O   UNL     1     -11.815   5.834  72.356  1.00  0.00    -0.293 OA 
HETATM   23  O   UNL     1     -10.647   5.245  74.467  1.00  0.00    -0.304 OA 
HETATM   24  S   UNL     1     -11.285   4.647  73.317  1.00  0.00    -0.295 S  
ENDBRANCH  18  20
ENDBRANCH  14  15
ENDBRANCH  13  14
ENDBRANCH   4  13
BRANCH   8  25
HETATM   25  N   UNL     1      -9.666  12.382  68.461  1.00  0.00    -0.355 N  
HETATM   26  C   UNL     1      -9.471  13.715  68.165  1.00  0.00    -0.217 C  
HETATM   27  H   UNL     1     -10.623  12.066  68.622  1.00  0.00     0.000 HD 
HETATM   28  O   UNL     1      -8.362  14.214  68.009  1.00  0.00    -0.140 OA 
BRANCH  26  29
HETATM   29  C   UNL     1     -10.796  14.500  68.035  1.00  0.00    -0.244 C  
HETATM   30  O   UNL     1     -11.767  13.973  68.952  1.00  0.00    -0.295 OA 
HETATM   31  H   UNL     1     -12.581  14.455  68.872  1.00  0.00     0.000 HD 
BRANCH  29  32
HETATM   32  C   UNL     1     -11.355  14.448  66.628  1.00  0.00    -0.359 A  
HETATM   33  C   UNL     1     -11.047  15.467  65.714  1.00  0.00    -0.260 A  
HETATM   34  C   UNL     1     -12.172  13.388  66.200  1.00  0.00    -0.471 A  
HETATM   35  C   UNL     1     -12.687  13.363  64.903  1.00  0.00    -0.365 A  
HETATM   36  C   UNL     1     -12.388  14.391  64.013  1.00  0.00    -0.243 A  
HETATM   37  C   UNL     1     -11.563  15.440  64.417  1.00  0.00    -0.265 A  
ENDBRANCH  29  32
ENDBRANCH  26  29
ENDBRANCH   8  25
TORSDOF 7
ENDMDL
MODEL      229
REMARK 921   NORMALIZED FREE ENERGY PREDICTED BY IDOCK:   -4.40 KCAL/MOL
REMARK 922        TOTAL FREE ENERGY PREDICTED BY IDOCK:   -7.17 KCAL/MOL
REMARK 923 INTER-LIGAND FREE ENERGY PREDICTED BY IDOCK:   -6.99 KCAL/MOL
REMARK 924 INTRA-LIGAND FREE ENERGY PREDICTED BY IDOCK:   -0.18 KCAL/MOL
REMARK 927      BINDING AFFINITY PREDICTED BY RF-SCORE:    0.00 PKD
ROOT
HETATM    1  C   UNL     1      -8.940   9.916  69.378  1.00  0.00    -0.195 C  
HETATM    2  S   UNL     1      -8.633  10.586  67.730  1.00  0.00    -0.118 SA 
HETATM    3  C   UNL     1      -9.026  12.290  68.191  1.00  0.00    -0.192 C  
HETATM    4  C   UNL     1     -10.278  12.469  69.044  1.00  0.00     0.096 C  
HETATM    5  C   UNL     1     -10.660   8.935  70.041  1.00  0.00    -0.220 C  
HETATM    6  CA  UNL     1     -10.879  11.457  69.742  1.00  0.00     0.045 C  
HETATM    7  C   UNL     1     -12.183  11.720  70.471  1.00  0.00    -0.347 C  
HETATM    8  CA  UNL     1      -9.319   8.395  69.429  1.00  0.00    -0.154 C  
HETATM    9  N   UNL     1     -10.309  10.206  69.752  1.00  0.00    -0.249 N  
HETATM   10  O   UNL     1     -12.956  10.660  70.764  1.00  0.00    -0.364 OA 
HETATM   11  OXT UNL     1     -12.559  12.840  70.792  1.00  0.00    -0.310 OA 
HETATM   12  O   UNL     1     -11.702   8.498  70.473  1.00  0.00    -0.207 OA 
ENDROOT
BRANCH   4  13
HETATM   13  C   UNL     1     -10.867  13.873  68.856  1.00  0.00    -0.255 C  
BRANCH  13  14
HETATM   14  S   UNL     1     -10.599  14.567  67.185  1.00  0.00    -0.277 SA 
BRANCH  14  15
HETATM   15  C   UNL     1      -9.061  15.326  67.436  1.00  0.00    -0.192 A  
HETATM   16  N   UNL     1      -7.913  14.879  66.973  1.00  0.00    -0.189 NA 
HETATM   17  N   UNL     1      -6.961  15.787  67.360  1.00  0.00    -0.186 NA 
HETATM   18  N   UNL     1      -8.824  16.491  68.115  1.00  0.00    -0.198 NA 
HETATM   19  N   UNL     1      -7.505  16.780  68.046  1.00  0.00    -0.163 NA 
BRANCH  18  20
HETATM   20  C   UNL     1      -9.701  17.461  68.705  1.00  0.00    -0.308 C  
HETATM   21  O   UNL     1     -10.829  19.805  68.350  1.00  0.00    -0.105 OA 
HETATM   22  O   UNL     1      -9.793  18.704  66.436  1.00  0.00    -0.340 OA 
HETATM   23  O   UNL     1      -8.312  19.657  68.187  1.00  0.00    -0.308 OA 
HETATM   24  S   UNL     1      -9.626  19.088  67.997  1.00  0.00    -0.347 S  
ENDBRANCH  18  20
ENDBRANCH  14  15
ENDBRANCH  13  14
ENDBRANCH   4  13
BRANCH   8  25
HETATM   25  N   UNL     1      -9.455   7.712  68.118  1.00  0.00    -0.144 N  
HETATM   26  C   UNL     1      -9.994   6.455  67.944  1.00  0.00    -0.131 C  
HETATM   27  H   UNL     1      -9.127   8.208  67.289  1.00  0.00     0.000 HD 
HETATM   28  O   UNL     1     -10.366   5.747  68.873  1.00  0.00    -0.183 OA 
BRANCH  26  29
HETATM   29  C   UNL     1     -10.093   6.047  66.456  1.00  0.00    -0.137 C  
HETATM   30  O   UNL     1     -11.457   5.749  66.123  1.00  0.00    -0.619 OA 
HETATM   31  H   UNL     1     -11.518   5.498  65.209  1.00  0.00     0.000 HD 
BRANCH  29  32
HETATM   32  C   UNL     1      -9.224   4.850  66.132  1.00  0.00    -0.146 A  
HETATM   33  C   UNL     1      -9.660   3.899  65.198  1.00  0.00    -0.181 A  
HETATM   34  C   UNL     1      -7.967   4.669  66.735  1.00  0.00    -0.103 A  
HETATM   35  C   UNL     1      -7.184   3.554  66.433  1.00  0.00    -0.064 A  
HETATM   36  C   UNL     1      -7.639   2.609  65.519  1.00  0.00    -0.076 A  
HETATM   37  C   UNL     1      -8.875   2.784  64.897  1.00  0.00    -0.119 A  
ENDBRANCH  29  32
ENDBRANCH  26  29
ENDBRANCH   8  25
TORSDOF 7
ENDMDL
MODEL      230
REMARK 921   NORMALIZED FREE ENERGY PREDICTED BY IDOCK:   -4.37 KCAL/MOL
REMARK 922        TOTAL FREE ENERGY PREDICTED BY IDOCK:   -7.13 KCAL/MOL
REMARK 923 INTER-LIGAND FREE ENERGY PREDICTED BY IDOCK:   -5.46 KCAL/MOL
REMARK 924 INTRA-LIGAND FREE ENERGY PREDICTED BY IDOCK:   -1.66 KCAL/MOL
REMARK 927      BINDING AFFINITY PREDICTED BY RF-SCORE:    0.00 PKD
ROOT
HETATM    1  C   UNL     1     -10.352   7.836  67.233  1.00  0.00    -0.301 C  
HETATM    2  S   UNL     1      -8.680   8.266  66.704  1.00  0.00    -0.143 SA 
HETATM    3  C   UNL     1      -8.084   6.559  66.708  1.00  0.00    -0.109 C  
HETATM    4  C   UNL     1      -8.485   5.725  67.921  1.00  0.00    -0.103 C  
HETATM    5  C   UNL     1     -11.138   7.971  69.163  1.00  0.00     0.205 C  
HETATM    6  CA  UNL     1      -9.504   6.054  68.772  1.00  0.00    -0.125 C  
HETATM    7  C   UNL     1      -9.749   5.213  70.010  1.00  0.00    -0.205 C  
HETATM    8  CA  UNL     1     -11.146   8.978  67.958  1.00  0.00     0.228 C  
HETATM    9  N   UNL     1     -10.278   7.161  68.512  1.00  0.00    -0.169 N  
HETATM   10  O   UNL     1     -10.430   5.778  71.022  1.00  0.00    -0.221 OA 
HETATM   11  OXT UNL     1      -9.352   4.061  70.129  1.00  0.00    -0.133 OA 
HETATM   12  O   UNL     1     -11.556   7.908  70.297  1.00  0.00    -0.166 OA 
ENDROOT
BRANCH   4  13
HETATM   13  C   UNL     1      -7.479   4.591  68.157  1.00  0.00    -0.065 C  
BRANCH  13  14
HETATM   14  S   UNL     1      -5.817   5.171  68.652  1.00  0.00    -0.021 SA 
BRANCH  14  15
HETATM   15  C   UNL     1      -6.166   5.688  70.269  1.00  0.00    -0.027 A  
HETATM   16  N   UNL     1      -6.326   4.887  71.301  1.00  0.00    -0.022 NA 
HETATM   17  N   UNL     1      -6.545   5.695  72.387  1.00  0.00    -0.063 NA 
HETATM   18  N   UNL     1      -6.297   6.979  70.706  1.00  0.00    -0.042 NA 
HETATM   19  N   UNL     1      -6.517   6.972  72.040  1.00  0.00    -0.052 NA 
BRANCH  18  20
HETATM   20  C   UNL     1      -6.096   8.243  70.058  1.00  0.00    -0.028 C  
HETATM   21  O   UNL     1      -6.417  10.837  70.306  1.00  0.00    -0.146 OA 
HETATM   22  O   UNL     1      -6.660   9.433  72.287  1.00  0.00    -0.292 OA 
HETATM   23  O   UNL     1      -8.447   9.355  70.564  1.00  0.00    -0.194 OA 
HETATM   24  S   UNL     1      -7.032   9.598  70.722  1.00  0.00    -0.029 S  
ENDBRANCH  18  20
ENDBRANCH  14  15
ENDBRANCH  13  14
ENDBRANCH   4  13
BRANCH   8  25
HETATM   25  N   UNL     1     -10.403  10.242  68.191  1.00  0.00    -0.167 N  
HETATM   26  C   UNL     1     -10.648  11.427  67.528  1.00  0.00    -0.213 C  
HETATM   27  H   UNL     1      -9.660  10.234  68.889  1.00  0.00     0.000 HD 
HETATM   28  O   UNL     1     -11.477  11.537  66.630  1.00  0.00    -0.423 OA 
BRANCH  26  29
HETATM   29  C   UNL     1      -9.782  12.596  68.049  1.00  0.00    -0.215 C  
HETATM   30  O   UNL     1      -8.860  12.115  69.039  1.00  0.00    -0.365 OA 
HETATM   31  H   UNL     1      -8.328  12.833  69.360  1.00  0.00     0.000 HD 
BRANCH  29  32
HETATM   32  C   UNL     1     -10.621  13.708  68.643  1.00  0.00    -0.260 A  
HETATM   33  C   UNL     1     -10.330  15.046  68.338  1.00  0.00    -0.231 A  
HETATM   34  C   UNL     1     -11.709  13.436  69.490  1.00  0.00    -0.385 A  
HETATM   35  C   UNL     1     -12.465  14.474  70.037  1.00  0.00    -0.348 A  
HETATM   36  C   UNL     1     -12.151  15.797  69.740  1.00  0.00    -0.298 A  
HETATM   37  C   UNL     1     -11.087  16.083  68.886  1.00  0.00    -0.331 A  
ENDBRANCH  29  32
ENDBRANCH  26  29
ENDBRANCH   8  25
TORSDOF 7
ENDMDL
MODEL      231
REMARK 921   NORMALIZED FREE ENERGY PREDICTED BY IDOCK:   -4.35 KCAL/MOL
REMARK 922        TOTAL FREE ENERGY PREDICTED BY IDOCK:   -7.10 KCAL/MOL
REMARK 923 INTER-LIGAND FREE ENERGY PREDICTED BY IDOCK:   -6.53 KCAL/MOL
REMARK 924 INTRA-LIGAND FREE ENERGY PREDICTED BY IDOCK:   -0.57 KCAL/MOL
REMARK 927      BINDING AFFINITY PREDICTED BY RF-SCORE:    0.00 PKD
ROOT
HETATM    1  C   UNL     1      -6.845  10.624  67.622  1.00  0.00    -0.074 C  
HETATM    2  S   UNL     1      -7.357  10.690  69.352  1.00  0.00    -0.129 SA 
HETATM    3  C   UNL     1      -6.884   8.982  69.708  1.00  0.00    -0.050 C  
HETATM    4  C   UNL     1      -7.295   7.953  68.660  1.00  0.00    -0.090 C  
HETATM    5  C   UNL     1      -8.068  10.341  65.954  1.00  0.00    -0.143 C  
HETATM    6  CA  UNL     1      -7.654   8.268  67.379  1.00  0.00    -0.098 C  
HETATM    7  C   UNL     1      -8.151   7.178  66.449  1.00  0.00    -0.116 C  
HETATM    8  CA  UNL     1      -7.557  11.643  66.666  1.00  0.00    -0.050 C  
HETATM    9  N   UNL     1      -7.587   9.574  66.955  1.00  0.00    -0.094 N  
HETATM   10  O   UNL     1      -8.888   7.552  65.389  1.00  0.00    -0.059 OA 
HETATM   11  OXT UNL     1      -7.920   5.988  66.625  1.00  0.00    -0.100 OA 
HETATM   12  O   UNL     1      -8.744  10.033  64.999  1.00  0.00    -0.151 OA 
ENDROOT
BRANCH   4  13
HETATM   13  C   UNL     1      -7.434   6.561  69.292  1.00  0.00    -0.095 C  
BRANCH  13  14
HETATM   14  S   UNL     1      -9.156   6.110  69.711  1.00  0.00    -0.142 SA 
BRANCH  14  15
HETATM   15  C   UNL     1      -9.514   7.375  70.842  1.00  0.00    -0.165 A  
HETATM   16  N   UNL     1      -8.922   7.538  72.006  1.00  0.00    -0.123 NA 
HETATM   17  N   UNL     1      -9.467   8.667  72.561  1.00  0.00    -0.286 NA 
HETATM   18  N   UNL     1     -10.426   8.383  70.681  1.00  0.00    -0.197 NA 
HETATM   19  N   UNL     1     -10.375   9.199  71.759  1.00  0.00    -0.331 NA 
BRANCH  18  20
HETATM   20  C   UNL     1     -11.248   8.774  69.572  1.00  0.00     0.129 C  
HETATM   21  O   UNL     1     -11.995  10.807  68.088  1.00  0.00    -0.527 OA 
HETATM   22  O   UNL     1     -10.057  11.073  69.547  1.00  0.00    -0.110 OA 
HETATM   23  O   UNL     1     -12.309  10.978  70.589  1.00  0.00    -0.328 OA 
HETATM   24  S   UNL     1     -11.571  10.515  69.438  1.00  0.00    -0.221 S  
ENDBRANCH  18  20
ENDBRANCH  14  15
ENDBRANCH  13  14
ENDBRANCH   4  13
BRANCH   8  25
HETATM   25  N   UNL     1      -8.617  12.481  67.280  1.00  0.00    -0.184 N  
HETATM   26  C   UNL     1      -8.499  13.832  67.531  1.00  0.00    -0.196 C  
HETATM   27  H   UNL     1      -9.494  12.026  67.534  1.00  0.00     0.000 HD 
HETATM   28  O   UNL     1      -7.472  14.469  67.319  1.00  0.00    -0.191 OA 
BRANCH  26  29
HETATM   29  C   UNL     1      -9.800  14.455  68.087  1.00  0.00    -0.223 C  
HETATM   30  O   UNL     1     -10.936  13.724  67.600  1.00  0.00    -0.257 OA 
HETATM   31  H   UNL     1     -11.735  14.106  67.941  1.00  0.00     0.000 HD 
BRANCH  29  32
HETATM   32  C   UNL     1      -9.942  15.914  67.709  1.00  0.00    -0.229 A  
HETATM   33  C   UNL     1     -10.248  16.270  66.387  1.00  0.00    -0.322 A  
HETATM   34  C   UNL     1      -9.792  16.938  68.661  1.00  0.00    -0.270 A  
HETATM   35  C   UNL     1      -9.915  18.278  68.293  1.00  0.00    -0.382 A  
HETATM   36  C   UNL     1     -10.199  18.616  66.973  1.00  0.00    -0.418 A  
HETATM   37  C   UNL     1     -10.371  17.612  66.021  1.00  0.00    -0.305 A  
ENDBRANCH  29  32
ENDBRANCH  26  29
ENDBRANCH   8  25
TORSDOF 7
ENDMDL
MODEL      232
REMARK 921   NORMALIZED FREE ENERGY PREDICTED BY IDOCK:   -4.31 KCAL/MOL
REMARK 922        TOTAL FREE ENERGY PREDICTED BY IDOCK:   -7.03 KCAL/MOL
REMARK 923 INTER-LIGAND FREE ENERGY PREDICTED BY IDOCK:   -6.44 KCAL/MOL
REMARK 924 INTRA-LIGAND FREE ENERGY PREDICTED BY IDOCK:   -0.59 KCAL/MOL
REMARK 927      BINDING AFFINITY PREDICTED BY RF-SCORE:    0.00 PKD
ROOT
HETATM    1  C   UNL     1      -6.518   8.337  67.088  1.00  0.00    -0.058 C  
HETATM    2  S   UNL     1      -6.816   9.420  65.675  1.00  0.00    -0.080 SA 
HETATM    3  C   UNL     1      -7.268  10.851  66.684  1.00  0.00    -0.139 C  
HETATM    4  C   UNL     1      -8.214  10.565  67.846  1.00  0.00    -0.107 C  
HETATM    5  C   UNL     1      -7.812   6.896  67.868  1.00  0.00    -0.113 C  
HETATM    6  CA  UNL     1      -8.437   9.318  68.360  1.00  0.00    -0.120 C  
HETATM    7  C   UNL     1      -9.479   9.129  69.446  1.00  0.00    -0.161 C  
HETATM    8  CA  UNL     1      -6.661   6.801  66.804  1.00  0.00    -0.056 C  
HETATM    9  N   UNL     1      -7.734   8.243  67.870  1.00  0.00    -0.102 N  
HETATM   10  O   UNL     1      -9.982   7.894  69.618  1.00  0.00    -0.184 OA 
HETATM   11  OXT UNL     1      -9.883  10.042  70.156  1.00  0.00    -0.241 OA 
HETATM   12  O   UNL     1      -8.607   6.165  68.414  1.00  0.00    -0.113 OA 
ENDROOT
BRANCH   4  13
HETATM   13  C   UNL     1      -9.009  11.823  68.221  1.00  0.00    -0.180 C  
BRANCH  13  14
HETATM   14  S   UNL     1      -9.809  12.641  66.795  1.00  0.00    -0.241 SA 
BRANCH  14  15
HETATM   15  C   UNL     1     -10.752  13.826  67.639  1.00  0.00    -0.249 A  
HETATM   16  N   UNL     1     -11.438  13.603  68.738  1.00  0.00    -0.285 NA 
HETATM   17  N   UNL     1     -11.999  14.803  69.094  1.00  0.00    -0.299 NA 
HETATM   18  N   UNL     1     -10.895  15.147  67.305  1.00  0.00    -0.309 NA 
HETATM   19  N   UNL     1     -11.666  15.754  68.236  1.00  0.00    -0.302 NA 
BRANCH  18  20
HETATM   20  C   UNL     1     -10.280  15.961  66.297  1.00  0.00    -0.311 C  
HETATM   21  O   UNL     1      -8.683  18.006  65.896  1.00  0.00    -0.506 OA 
HETATM   22  O   UNL     1      -8.765  17.006  68.119  1.00  0.00    -0.219 OA 
HETATM   23  O   UNL     1     -10.713  18.348  67.361  1.00  0.00    -0.416 OA 
HETATM   24  S   UNL     1      -9.641  17.519  66.861  1.00  0.00    -0.290 S  
ENDBRANCH  18  20
ENDBRANCH  14  15
ENDBRANCH  13  14
ENDBRANCH   4  13
BRANCH   8  25
HETATM   25  N   UNL     1      -7.100   6.429  65.436  1.00  0.00    -0.063 N  
HETATM   26  C   UNL     1      -7.384   5.142  65.028  1.00  0.00    -0.068 C  
HETATM   27  H   UNL     1      -7.198   7.177  64.750  1.00  0.00     0.000 HD 
HETATM   28  O   UNL     1      -7.245   4.161  65.751  1.00  0.00    -0.069 OA 
BRANCH  26  29
HETATM   29  C   UNL     1      -7.909   5.076  63.576  1.00  0.00    -0.081 C  
HETATM   30  O   UNL     1      -8.695   6.242  63.289  1.00  0.00    -0.315 OA 
HETATM   31  H   UNL     1      -9.019   6.202  62.397  1.00  0.00     0.000 HD 
BRANCH  29  32
HETATM   32  C   UNL     1      -8.740   3.835  63.325  1.00  0.00    -0.098 A  
HETATM   33  C   UNL     1      -8.118   2.645  62.917  1.00  0.00    -0.069 A  
HETATM   34  C   UNL     1     -10.134   3.834  63.506  1.00  0.00    -0.193 A  
HETATM   35  C   UNL     1     -10.885   2.685  63.260  1.00  0.00    -0.231 A  
HETATM   36  C   UNL     1     -10.256   1.518  62.836  1.00  0.00    -0.106 A  
HETATM   37  C   UNL     1      -8.872   1.496  62.670  1.00  0.00    -0.071 A  
ENDBRANCH  29  32
ENDBRANCH  26  29
ENDBRANCH   8  25
TORSDOF 7
ENDMDL
MODEL      233
REMARK 921   NORMALIZED FREE ENERGY PREDICTED BY IDOCK:   -4.30 KCAL/MOL
REMARK 922        TOTAL FREE ENERGY PREDICTED BY IDOCK:   -7.03 KCAL/MOL
REMARK 923 INTER-LIGAND FREE ENERGY PREDICTED BY IDOCK:   -6.65 KCAL/MOL
REMARK 924 INTRA-LIGAND FREE ENERGY PREDICTED BY IDOCK:   -0.38 KCAL/MOL
REMARK 927      BINDING AFFINITY PREDICTED BY RF-SCORE:    0.00 PKD
ROOT
HETATM    1  C   UNL     1      -6.956   6.953  66.891  1.00  0.00    -0.070 C  
HETATM    2  S   UNL     1      -8.545   6.774  66.053  1.00  0.00    -0.141 SA 
HETATM    3  C   UNL     1      -8.283   8.180  64.946  1.00  0.00    -0.147 C  
HETATM    4  C   UNL     1      -7.718   9.437  65.600  1.00  0.00    -0.099 C  
HETATM    5  C   UNL     1      -6.600   7.853  68.741  1.00  0.00    -0.053 C  
HETATM    6  CA  UNL     1      -7.097   9.451  66.818  1.00  0.00    -0.082 C  
HETATM    7  C   UNL     1      -6.668  10.773  67.427  1.00  0.00    -0.076 C  
HETATM    8  CA  UNL     1      -6.887   6.362  68.342  1.00  0.00    -0.071 C  
HETATM    9  N   UNL     1      -6.890   8.270  67.491  1.00  0.00    -0.069 N  
HETATM   10  O   UNL     1      -6.474  10.812  68.756  1.00  0.00    -0.046 OA 
HETATM   11  OXT UNL     1      -6.504  11.793  66.769  1.00  0.00    -0.137 OA 
HETATM   12  O   UNL     1      -6.364   8.498  69.738  1.00  0.00    -0.035 OA 
ENDROOT
BRANCH   4  13
HETATM   13  C   UNL     1      -8.112  10.687  64.803  1.00  0.00    -0.004 C  
BRANCH  13  14
HETATM   14  S   UNL     1      -9.916  10.985  64.741  1.00  0.00    -0.319 SA 
BRANCH  14  15
HETATM   15  C   UNL     1     -10.221  11.231  66.430  1.00  0.00    -0.230 A  
HETATM   16  N   UNL     1     -10.673  10.314  67.258  1.00  0.00    -0.269 NA 
HETATM   17  N   UNL     1     -10.733  10.905  68.494  1.00  0.00    -0.189 NA 
HETATM   18  N   UNL     1     -10.015  12.383  67.140  1.00  0.00    -0.206 NA 
HETATM   19  N   UNL     1     -10.323  12.162  68.438  1.00  0.00    -0.225 NA 
BRANCH  18  20
HETATM   20  C   UNL     1      -9.421  13.641  66.788  1.00  0.00    -0.270 C  
HETATM   21  O   UNL     1      -9.938  16.142  66.177  1.00  0.00    -0.292 OA 
HETATM   22  O   UNL     1     -11.718  14.782  67.143  1.00  0.00    -0.376 OA 
HETATM   23  O   UNL     1     -11.032  14.327  64.800  1.00  0.00    -0.378 OA 
HETATM   24  S   UNL     1     -10.522  14.826  66.056  1.00  0.00    -0.321 S  
ENDBRANCH  18  20
ENDBRANCH  14  15
ENDBRANCH  13  14
ENDBRANCH   4  13
BRANCH   8  25
HETATM   25  N   UNL     1      -8.152   5.800  68.878  1.00  0.00    -0.101 N  
HETATM   26  C   UNL     1      -9.144   6.544  69.481  1.00  0.00    -0.140 C  
HETATM   27  H   UNL     1      -8.297   4.794  68.794  1.00  0.00     0.000 HD 
HETATM   28  O   UNL     1      -9.052   7.750  69.686  1.00  0.00    -0.146 OA 
BRANCH  26  29
HETATM   29  C   UNL     1     -10.385   5.700  69.851  1.00  0.00    -0.277 C  
HETATM   30  O   UNL     1     -11.572   6.336  69.354  1.00  0.00    -0.557 OA 
HETATM   31  H   UNL     1     -12.335   5.817  69.581  1.00  0.00     0.000 HD 
BRANCH  29  32
HETATM   32  C   UNL     1     -10.513   5.496  71.346  1.00  0.00    -0.305 A  
HETATM   33  C   UNL     1     -10.843   6.578  72.176  1.00  0.00    -0.264 A  
HETATM   34  C   UNL     1     -10.325   4.233  71.934  1.00  0.00    -0.140 A  
HETATM   35  C   UNL     1     -10.436   4.065  73.315  1.00  0.00    -0.253 A  
HETATM   36  C   UNL     1     -10.744   5.153  74.128  1.00  0.00    -0.268 A  
HETATM   37  C   UNL     1     -10.953   6.408  73.557  1.00  0.00    -0.099 A  
ENDBRANCH  29  32
ENDBRANCH  26  29
ENDBRANCH   8  25
TORSDOF 7
ENDMDL
MODEL      234
REMARK 921   NORMALIZED FREE ENERGY PREDICTED BY IDOCK:   -4.27 KCAL/MOL
REMARK 922        TOTAL FREE ENERGY PREDICTED BY IDOCK:   -6.98 KCAL/MOL
REMARK 923 INTER-LIGAND FREE ENERGY PREDICTED BY IDOCK:   -5.32 KCAL/MOL
REMARK 924 INTRA-LIGAND FREE ENERGY PREDICTED BY IDOCK:   -1.66 KCAL/MOL
REMARK 927      BINDING AFFINITY PREDICTED BY RF-SCORE:    0.00 PKD
ROOT
HETATM    1  C   UNL     1     -11.177   7.660  69.938  1.00  0.00    -0.085 C  
HETATM    2  S   UNL     1     -10.905   7.190  68.216  1.00  0.00    -0.045 SA 
HETATM    3  C   UNL     1     -10.626   5.442  68.586  1.00  0.00    -0.097 C  
HETATM    4  C   UNL     1      -9.716   5.159  69.777  1.00  0.00    -0.263 C  
HETATM    5  C   UNL     1      -9.803   8.549  71.235  1.00  0.00    -0.216 C  
HETATM    6  CA  UNL     1      -9.412   6.078  70.742  1.00  0.00    -0.168 C  
HETATM    7  C   UNL     1      -8.410   5.726  71.826  1.00  0.00    -0.120 C  
HETATM    8  CA  UNL     1     -10.889   9.163  70.282  1.00  0.00    -0.246 C  
HETATM    9  N   UNL     1      -9.996   7.323  70.706  1.00  0.00    -0.186 N  
HETATM   10  O   UNL     1      -7.812   6.740  72.474  1.00  0.00    -0.100 OA 
HETATM   11  OXT UNL     1      -8.121   4.574  72.124  1.00  0.00    -0.096 OA 
HETATM   12  O   UNL     1      -8.975   8.927  72.032  1.00  0.00    -0.365 OA 
ENDROOT
BRANCH   4  13
HETATM   13  C   UNL     1      -9.050   3.783  69.636  1.00  0.00    -0.126 C  
BRANCH  13  14
HETATM   14  S   UNL     1      -8.110   3.576  68.081  1.00  0.00    -0.078 SA 
BRANCH  14  15
HETATM   15  C   UNL     1      -7.034   4.928  68.217  1.00  0.00    -0.057 A  
HETATM   16  N   UNL     1      -6.051   5.028  69.086  1.00  0.00    -0.024 NA 
HETATM   17  N   UNL     1      -5.429   6.223  68.830  1.00  0.00    -0.014 NA 
HETATM   18  N   UNL     1      -7.031   6.054  67.437  1.00  0.00    -0.067 NA 
HETATM   19  N   UNL     1      -6.009   6.852  67.820  1.00  0.00    -0.030 NA 
BRANCH  18  20
HETATM   20  C   UNL     1      -7.779   6.422  66.270  1.00  0.00    -0.099 C  
HETATM   21  O   UNL     1      -7.927   6.151  63.663  1.00  0.00    -0.109 OA 
HETATM   22  O   UNL     1      -6.468   4.649  64.914  1.00  0.00    -0.034 OA 
HETATM   23  O   UNL     1      -5.769   7.017  64.651  1.00  0.00    -0.031 OA 
HETATM   24  S   UNL     1      -6.945   6.182  64.721  1.00  0.00    -0.057 S  
ENDBRANCH  18  20
ENDBRANCH  14  15
ENDBRANCH  13  14
ENDBRANCH   4  13
BRANCH   8  25
HETATM   25  N   UNL     1     -10.355   9.995  69.174  1.00  0.00    -0.202 N  
HETATM   26  C   UNL     1     -11.106  10.879  68.429  1.00  0.00    -0.262 C  
HETATM   27  H   UNL     1      -9.364   9.906  68.949  1.00  0.00     0.000 HD 
HETATM   28  O   UNL     1     -12.315  11.025  68.574  1.00  0.00    -0.536 OA 
BRANCH  26  29
HETATM   29  C   UNL     1     -10.258  11.674  67.410  1.00  0.00    -0.203 C  
HETATM   30  O   UNL     1      -9.156  10.871  66.962  1.00  0.00    -0.148 OA 
HETATM   31  H   UNL     1      -8.635  11.359  66.336  1.00  0.00     0.000 HD 
BRANCH  29  32
HETATM   32  C   UNL     1      -9.732  12.970  67.991  1.00  0.00    -0.224 A  
HETATM   33  C   UNL     1     -10.623  13.913  68.525  1.00  0.00    -0.260 A  
HETATM   34  C   UNL     1      -8.356  13.253  68.029  1.00  0.00    -0.162 A  
HETATM   35  C   UNL     1      -7.889  14.457  68.559  1.00  0.00    -0.138 A  
HETATM   36  C   UNL     1      -8.788  15.391  69.066  1.00  0.00    -0.231 A  
HETATM   37  C   UNL     1     -10.154  15.117  69.054  1.00  0.00    -0.244 A  
ENDBRANCH  29  32
ENDBRANCH  26  29
ENDBRANCH   8  25
TORSDOF 7
ENDMDL
MODEL      235
REMARK 921   NORMALIZED FREE ENERGY PREDICTED BY IDOCK:   -4.24 KCAL/MOL
REMARK 922        TOTAL FREE ENERGY PREDICTED BY IDOCK:   -6.94 KCAL/MOL
REMARK 923 INTER-LIGAND FREE ENERGY PREDICTED BY IDOCK:   -6.14 KCAL/MOL
REMARK 924 INTRA-LIGAND FREE ENERGY PREDICTED BY IDOCK:   -0.80 KCAL/MOL
REMARK 927      BINDING AFFINITY PREDICTED BY RF-SCORE:    0.00 PKD
ROOT
HETATM    1  C   UNL     1      -7.133  10.482  67.963  1.00  0.00    -0.086 C  
HETATM    2  S   UNL     1      -8.135  10.233  69.443  1.00  0.00    -0.154 SA 
HETATM    3  C   UNL     1      -7.798   8.459  69.549  1.00  0.00    -0.102 C  
HETATM    4  C   UNL     1      -7.884   7.693  68.233  1.00  0.00    -0.121 C  
HETATM    5  C   UNL     1      -7.807  10.626  65.992  1.00  0.00    -0.156 C  
HETATM    6  CA  UNL     1      -7.845   8.284  67.000  1.00  0.00    -0.096 C  
HETATM    7  C   UNL     1      -8.048   7.441  65.756  1.00  0.00    -0.129 C  
HETATM    8  CA  UNL     1      -7.524  11.720  67.082  1.00  0.00    -0.149 C  
HETATM    9  N   UNL     1      -7.649   9.642  66.902  1.00  0.00    -0.095 N  
HETATM   10  O   UNL     1      -8.436   8.070  64.633  1.00  0.00    -0.102 OA 
HETATM   11  OXT UNL     1      -7.886   6.227  65.734  1.00  0.00    -0.094 OA 
HETATM   12  O   UNL     1      -8.171  10.564  64.839  1.00  0.00    -0.168 OA 
ENDROOT
BRANCH   4  13
HETATM   13  C   UNL     1      -8.210   6.215  68.486  1.00  0.00    -0.111 C  
BRANCH  13  14
HETATM   14  S   UNL     1      -9.987   5.892  68.776  1.00  0.00    -0.166 SA 
BRANCH  14  15
HETATM   15  C   UNL     1      -9.867   4.885  70.182  1.00  0.00    -0.239 A  
HETATM   16  N   UNL     1      -9.488   3.625  70.180  1.00  0.00    -0.178 NA 
HETATM   17  N   UNL     1      -9.493   3.218  71.489  1.00  0.00    -0.136 NA 
HETATM   18  N   UNL     1     -10.118   5.254  71.476  1.00  0.00    -0.186 NA 
HETATM   19  N   UNL     1      -9.863   4.205  72.290  1.00  0.00    -0.157 NA 
BRANCH  18  20
HETATM   20  C   UNL     1     -10.430   6.519  72.077  1.00  0.00    -0.202 C  
HETATM   21  O   UNL     1      -9.512   8.417  73.641  1.00  0.00    -0.013 OA 
HETATM   22  O   UNL     1      -7.947   6.763  72.765  1.00  0.00    -0.099 OA 
HETATM   23  O   UNL     1      -9.543   6.052  74.529  1.00  0.00    -0.176 OA 
HETATM   24  S   UNL     1      -9.397   6.991  73.442  1.00  0.00    -0.185 S  
ENDBRANCH  18  20
ENDBRANCH  14  15
ENDBRANCH  13  14
ENDBRANCH   4  13
BRANCH   8  25
HETATM   25  N   UNL     1      -8.715  12.486  67.527  1.00  0.00    -0.172 N  
HETATM   26  C   UNL     1      -8.734  13.849  67.738  1.00  0.00    -0.187 C  
HETATM   27  H   UNL     1      -9.579  11.969  67.688  1.00  0.00     0.000 HD 
HETATM   28  O   UNL     1      -7.740  14.560  67.630  1.00  0.00    -0.147 OA 
BRANCH  26  29
HETATM   29  C   UNL     1     -10.139  14.379  68.103  1.00  0.00    -0.226 C  
HETATM   30  O   UNL     1     -11.142  13.604  67.431  1.00  0.00    -0.271 OA 
HETATM   31  H   UNL     1     -12.006  13.930  67.655  1.00  0.00     0.000 HD 
BRANCH  29  32
HETATM   32  C   UNL     1     -10.309  15.841  67.745  1.00  0.00    -0.275 A  
HETATM   33  C   UNL     1     -10.419  16.225  66.400  1.00  0.00    -0.297 A  
HETATM   34  C   UNL     1     -10.379  16.837  68.734  1.00  0.00    -0.318 A  
HETATM   35  C   UNL     1     -10.526  18.180  68.386  1.00  0.00    -0.308 A  
HETATM   36  C   UNL     1     -10.613  18.548  67.046  1.00  0.00    -0.421 A  
HETATM   37  C   UNL     1     -10.565  17.570  66.054  1.00  0.00    -0.217 A  
ENDBRANCH  29  32
ENDBRANCH  26  29
ENDBRANCH   8  25
TORSDOF 7
ENDMDL
MODEL      236
REMARK 921   NORMALIZED FREE ENERGY PREDICTED BY IDOCK:   -4.24 KCAL/MOL
REMARK 922        TOTAL FREE ENERGY PREDICTED BY IDOCK:   -6.94 KCAL/MOL
REMARK 923 INTER-LIGAND FREE ENERGY PREDICTED BY IDOCK:   -7.04 KCAL/MOL
REMARK 924 INTRA-LIGAND FREE ENERGY PREDICTED BY IDOCK:    0.11 KCAL/MOL
REMARK 927      BINDING AFFINITY PREDICTED BY RF-SCORE:    0.00 PKD
ROOT
HETATM    1  C   UNL     1      -8.898   8.538  67.260  1.00  0.00    -0.130 C  
HETATM    2  S   UNL     1      -7.936   8.781  68.768  1.00  0.00    -0.107 SA 
HETATM    3  C   UNL     1      -6.654   7.588  68.315  1.00  0.00    -0.050 C  
HETATM    4  C   UNL     1      -7.157   6.268  67.741  1.00  0.00    -0.081 C  
HETATM    5  C   UNL     1     -10.610   7.364  67.032  1.00  0.00    -0.344 C  
HETATM    6  CA  UNL     1      -8.416   6.082  67.241  1.00  0.00    -0.104 C  
HETATM    7  C   UNL     1      -8.850   4.699  66.794  1.00  0.00    -0.111 C  
HETATM    8  CA  UNL     1     -10.424   8.886  67.369  1.00  0.00    -0.277 C  
HETATM    9  N   UNL     1      -9.286   7.145  67.173  1.00  0.00    -0.130 N  
HETATM   10  O   UNL     1     -10.170   4.451  66.728  1.00  0.00    -0.202 OA 
HETATM   11  OXT UNL     1      -8.061   3.808  66.505  1.00  0.00    -0.095 OA 
HETATM   12  O   UNL     1     -11.511   6.576  66.855  1.00  0.00    -0.212 OA 
ENDROOT
BRANCH   4  13
HETATM   13  C   UNL     1      -6.135   5.148  67.979  1.00  0.00    -0.027 C  
BRANCH  13  14
HETATM   14  S   UNL     1      -6.591   4.010  69.336  1.00  0.00    -0.034 SA 
BRANCH  14  15
HETATM   15  C   UNL     1      -6.190   5.010  70.693  1.00  0.00    -0.019 A  
HETATM   16  N   UNL     1      -5.203   5.879  70.727  1.00  0.00    -0.012 NA 
HETATM   17  N   UNL     1      -5.259   6.481  71.958  1.00  0.00    -0.027 NA 
HETATM   18  N   UNL     1      -6.845   5.060  71.895  1.00  0.00    -0.051 NA 
HETATM   19  N   UNL     1      -6.262   5.999  72.674  1.00  0.00    -0.052 NA 
BRANCH  18  20
HETATM   20  C   UNL     1      -8.050   4.440  72.365  1.00  0.00    -0.100 C  
HETATM   21  O   UNL     1     -10.671   4.527  72.255  1.00  0.00    -0.151 OA 
HETATM   22  O   UNL     1      -9.389   5.803  70.618  1.00  0.00    -0.155 OA 
HETATM   23  O   UNL     1      -9.438   6.615  72.964  1.00  0.00    -0.141 OA 
HETATM   24  S   UNL     1      -9.528   5.406  72.179  1.00  0.00    -0.143 S  
ENDBRANCH  18  20
ENDBRANCH  14  15
ENDBRANCH  13  14
ENDBRANCH   4  13
BRANCH   8  25
HETATM   25  N   UNL     1     -10.905   9.296  68.712  1.00  0.00    -0.411 N  
HETATM   26  C   UNL     1     -11.229  10.589  69.065  1.00  0.00    -0.259 C  
HETATM   27  H   UNL     1     -11.002   8.571  69.422  1.00  0.00     0.000 HD 
HETATM   28  O   UNL     1     -11.097  11.547  68.310  1.00  0.00    -0.205 OA 
BRANCH  26  29
HETATM   29  C   UNL     1     -11.792  10.695  70.501  1.00  0.00    -0.357 C  
HETATM   30  O   UNL     1     -12.895   9.790  70.659  1.00  0.00    -0.526 OA 
HETATM   31  H   UNL     1     -13.241   9.855  71.541  1.00  0.00     0.000 HD 
BRANCH  29  32
HETATM   32  C   UNL     1     -12.244  12.101  70.836  1.00  0.00    -0.310 A  
HETATM   33  C   UNL     1     -11.966  13.156  69.953  1.00  0.00    -0.387 A  
HETATM   34  C   UNL     1     -12.958  12.383  72.013  1.00  0.00    -0.376 A  
HETATM   35  C   UNL     1     -13.357  13.687  72.311  1.00  0.00    -0.622 A  
HETATM   36  C   UNL     1     -13.056  14.726  71.435  1.00  0.00    -0.424 A  
HETATM   37  C   UNL     1     -12.366  14.460  70.253  1.00  0.00    -0.410 A  
ENDBRANCH  29  32
ENDBRANCH  26  29
ENDBRANCH   8  25
TORSDOF 7
ENDMDL
MODEL      237
REMARK 921   NORMALIZED FREE ENERGY PREDICTED BY IDOCK:   -4.17 KCAL/MOL
REMARK 922        TOTAL FREE ENERGY PREDICTED BY IDOCK:   -6.84 KCAL/MOL
REMARK 923 INTER-LIGAND FREE ENERGY PREDICTED BY IDOCK:   -6.59 KCAL/MOL
REMARK 924 INTRA-LIGAND FREE ENERGY PREDICTED BY IDOCK:   -0.25 KCAL/MOL
REMARK 927      BINDING AFFINITY PREDICTED BY RF-SCORE:    0.00 PKD
ROOT
HETATM    1  C   UNL     1      -7.936   7.525  66.475  1.00  0.00    -0.107 C  
HETATM    2  S   UNL     1      -9.660   7.898  66.086  1.00  0.00     0.026 SA 
HETATM    3  C   UNL     1      -9.308   9.550  65.440  1.00  0.00    -0.261 C  
HETATM    4  C   UNL     1      -8.344  10.390  66.271  1.00  0.00    -0.146 C  
HETATM    5  C   UNL     1      -7.011   7.641  68.342  1.00  0.00    -0.072 C  
HETATM    6  CA  UNL     1      -7.501   9.875  67.217  1.00  0.00    -0.087 C  
HETATM    7  C   UNL     1      -6.661  10.812  68.065  1.00  0.00    -0.064 C  
HETATM    8  CA  UNL     1      -7.714   6.452  67.596  1.00  0.00    -0.102 C  
HETATM    9  N   UNL     1      -7.444   8.515  67.410  1.00  0.00    -0.092 N  
HETATM   10  O   UNL     1      -6.196  10.344  69.236  1.00  0.00    -0.043 OA 
HETATM   11  OXT UNL     1      -6.400  11.962  67.736  1.00  0.00    -0.062 OA 
HETATM   12  O   UNL     1      -6.433   7.844  69.386  1.00  0.00    -0.034 OA 
ENDROOT
BRANCH   4  13
HETATM   13  C   UNL     1      -8.588  11.887  66.038  1.00  0.00     0.132 C  
BRANCH  13  14
HETATM   14  S   UNL     1     -10.165  12.252  65.186  1.00  0.00    -0.271 SA 
BRANCH  14  15
HETATM   15  C   UNL     1     -10.964  13.146  66.438  1.00  0.00    -0.288 A  
HETATM   16  N   UNL     1     -11.102  14.454  66.463  1.00  0.00    -0.324 NA 
HETATM   17  N   UNL     1     -11.822  14.745  67.594  1.00  0.00    -0.343 NA 
HETATM   18  N   UNL     1     -11.578  12.629  67.548  1.00  0.00    -0.339 NA 
HETATM   19  N   UNL     1     -12.129  13.641  68.257  1.00  0.00    -0.338 NA 
BRANCH  18  20
HETATM   20  C   UNL     1     -11.849  11.284  67.964  1.00  0.00    -0.170 C  
HETATM   21  O   UNL     1     -11.963   9.680  70.039  1.00  0.00    -0.061 OA 
HETATM   22  O   UNL     1     -11.861  12.086  70.425  1.00  0.00    -0.322 OA 
HETATM   23  O   UNL     1      -9.811  10.937  69.621  1.00  0.00    -0.038 OA 
HETATM   24  S   UNL     1     -11.252  10.850  69.579  1.00  0.00    -0.298 S  
ENDBRANCH  18  20
ENDBRANCH  14  15
ENDBRANCH  13  14
ENDBRANCH   4  13
BRANCH   8  25
HETATM   25  N   UNL     1      -8.939   5.933  68.254  1.00  0.00    -0.113 N  
HETATM   26  C   UNL     1      -9.597   6.562  69.290  1.00  0.00    -0.139 C  
HETATM   27  H   UNL     1      -9.320   5.049  67.917  1.00  0.00     0.000 HD 
HETATM   28  O   UNL     1      -9.197   7.598  69.811  1.00  0.00    -0.147 OA 
BRANCH  26  29
HETATM   29  C   UNL     1     -10.896   5.834  69.705  1.00  0.00    -0.348 C  
HETATM   30  O   UNL     1     -11.986   6.767  69.743  1.00  0.00    -0.654 OA 
HETATM   31  H   UNL     1     -12.784   6.320  69.999  1.00  0.00     0.000 HD 
BRANCH  29  32
HETATM   32  C   UNL     1     -10.766   5.158  71.053  1.00  0.00    -0.133 A  
HETATM   33  C   UNL     1     -10.034   3.966  71.173  1.00  0.00    -0.169 A  
HETATM   34  C   UNL     1     -11.350   5.703  72.209  1.00  0.00    -0.300 A  
HETATM   35  C   UNL     1     -11.229   5.061  73.442  1.00  0.00    -0.391 A  
HETATM   36  C   UNL     1     -10.517   3.868  73.540  1.00  0.00    -0.257 A  
HETATM   37  C   UNL     1      -9.915   3.324  72.407  1.00  0.00    -0.233 A  
ENDBRANCH  29  32
ENDBRANCH  26  29
ENDBRANCH   8  25
TORSDOF 7
ENDMDL
MODEL      238
REMARK 921   NORMALIZED FREE ENERGY PREDICTED BY IDOCK:   -4.14 KCAL/MOL
REMARK 922        TOTAL FREE ENERGY PREDICTED BY IDOCK:   -6.80 KCAL/MOL
REMARK 923 INTER-LIGAND FREE ENERGY PREDICTED BY IDOCK:   -6.29 KCAL/MOL
REMARK 924 INTRA-LIGAND FREE ENERGY PREDICTED BY IDOCK:   -0.52 KCAL/MOL
REMARK 927      BINDING AFFINITY PREDICTED BY RF-SCORE:    0.00 PKD
ROOT
HETATM    1  C   UNL     1     -11.442   8.624  69.735  1.00  0.00     0.239 C  
HETATM    2  S   UNL     1     -10.784  10.073  70.586  1.00  0.00    -0.164 SA 
HETATM    3  C   UNL     1     -10.949  11.168  69.156  1.00  0.00    -0.242 C  
HETATM    4  C   UNL     1     -10.484  10.586  67.825  1.00  0.00    -0.263 C  
HETATM    5  C   UNL     1     -10.354   7.054  68.892  1.00  0.00    -0.190 C  
HETATM    6  CA  UNL     1     -10.302   9.250  67.597  1.00  0.00    -0.253 C  
HETATM    7  C   UNL     1      -9.732   8.786  66.270  1.00  0.00    -0.272 C  
HETATM    8  CA  UNL     1     -10.991   7.237  70.315  1.00  0.00    -0.260 C  
HETATM    9  N   UNL     1     -10.612   8.342  68.583  1.00  0.00    -0.163 N  
HETATM   10  O   UNL     1      -9.166   7.567  66.228  1.00  0.00    -0.174 OA 
HETATM   11  OXT UNL     1      -9.757   9.468  65.253  1.00  0.00    -0.293 OA 
HETATM   12  O   UNL     1      -9.731   6.219  68.276  1.00  0.00    -0.119 OA 
ENDROOT
BRANCH   4  13
HETATM   13  C   UNL     1     -10.071  11.704  66.859  1.00  0.00    -0.211 C  
BRANCH  13  14
HETATM   14  S   UNL     1      -8.302  12.156  66.967  1.00  0.00    -0.151 SA 
BRANCH  14  15
HETATM   15  C   UNL     1      -8.449  13.696  67.750  1.00  0.00    -0.183 A  
HETATM   16  N   UNL     1      -8.112  13.945  68.997  1.00  0.00     0.046 NA 
HETATM   17  N   UNL     1      -8.349  15.281  69.201  1.00  0.00    -0.217 NA 
HETATM   18  N   UNL     1      -8.904  14.859  67.189  1.00  0.00    -0.203 NA 
HETATM   19  N   UNL     1      -8.820  15.851  68.104  1.00  0.00    -0.174 NA 
BRANCH  18  20
HETATM   20  C   UNL     1      -9.277  15.203  65.847  1.00  0.00    -0.158 C  
HETATM   21  O   UNL     1     -10.931  16.637  64.399  1.00  0.00    -0.924 OA 
HETATM   22  O   UNL     1     -10.756  17.109  66.786  1.00  0.00    -0.231 OA 
HETATM   23  O   UNL     1     -11.910  15.026  66.081  1.00  0.00    -0.197 OA 
HETATM   24  S   UNL     1     -10.878  15.948  65.667  1.00  0.00    -0.240 S  
ENDBRANCH  18  20
ENDBRANCH  14  15
ENDBRANCH  13  14
ENDBRANCH   4  13
BRANCH   8  25
HETATM   25  N   UNL     1     -10.021   7.284  71.437  1.00  0.00    -0.187 N  
HETATM   26  C   UNL     1     -10.334   7.013  72.753  1.00  0.00    -0.222 C  
HETATM   27  H   UNL     1      -9.057   7.534  71.220  1.00  0.00     0.000 HD 
HETATM   28  O   UNL     1     -11.471   6.758  73.136  1.00  0.00    -0.091 OA 
BRANCH  26  29
HETATM   29  C   UNL     1      -9.099   7.048  73.681  1.00  0.00    -0.166 C  
HETATM   30  O   UNL     1      -8.201   8.085  73.259  1.00  0.00    -0.163 OA 
HETATM   31  H   UNL     1      -7.442   8.106  73.830  1.00  0.00     0.000 HD 
BRANCH  29  32
HETATM   32  C   UNL     1      -8.363   5.724  73.703  1.00  0.00    -0.110 A  
HETATM   33  C   UNL     1      -7.021   5.675  74.111  1.00  0.00    -0.081 A  
HETATM   34  C   UNL     1      -8.996   4.524  73.337  1.00  0.00    -0.104 A  
HETATM   35  C   UNL     1      -8.299   3.315  73.352  1.00  0.00    -0.074 A  
HETATM   36  C   UNL     1      -6.963   3.285  73.741  1.00  0.00    -0.041 A  
HETATM   37  C   UNL     1      -6.326   4.464  74.126  1.00  0.00    -0.047 A  
ENDBRANCH  29  32
ENDBRANCH  26  29
ENDBRANCH   8  25
TORSDOF 7
ENDMDL
MODEL      239
REMARK 921   NORMALIZED FREE ENERGY PREDICTED BY IDOCK:   -4.14 KCAL/MOL
REMARK 922        TOTAL FREE ENERGY PREDICTED BY IDOCK:   -6.80 KCAL/MOL
REMARK 923 INTER-LIGAND FREE ENERGY PREDICTED BY IDOCK:   -6.10 KCAL/MOL
REMARK 924 INTRA-LIGAND FREE ENERGY PREDICTED BY IDOCK:   -0.70 KCAL/MOL
REMARK 927      BINDING AFFINITY PREDICTED BY RF-SCORE:    0.00 PKD
ROOT
HETATM    1  C   UNL     1     -11.060   7.361  67.370  1.00  0.00     0.004 C  
HETATM    2  S   UNL     1     -10.799   8.333  68.869  1.00  0.00     0.131 SA 
HETATM    3  C   UNL     1     -10.671   9.912  67.997  1.00  0.00    -0.248 C  
HETATM    4  C   UNL     1      -9.809   9.901  66.739  1.00  0.00    -0.256 C  
HETATM    5  C   UNL     1      -9.640   6.236  66.333  1.00  0.00    -0.119 C  
HETATM    6  CA  UNL     1      -9.446   8.764  66.071  1.00  0.00    -0.233 C  
HETATM    7  C   UNL     1      -8.495   8.857  64.893  1.00  0.00    -0.178 C  
HETATM    8  CA  UNL     1     -10.655   5.849  67.467  1.00  0.00    -0.273 C  
HETATM    9  N   UNL     1      -9.925   7.546  66.491  1.00  0.00    -0.183 N  
HETATM   10  O   UNL     1      -7.826   7.745  64.543  1.00  0.00    -0.125 OA 
HETATM   11  OXT UNL     1      -8.307   9.890  64.261  1.00  0.00    -0.144 OA 
HETATM   12  O   UNL     1      -8.797   5.703  65.648  1.00  0.00    -0.152 OA 
ENDROOT
BRANCH   4  13
HETATM   13  C   UNL     1      -9.256  11.303  66.448  1.00  0.00    -0.192 C  
BRANCH  13  14
HETATM   14  S   UNL     1      -8.826  12.253  67.950  1.00  0.00    -0.186 SA 
BRANCH  14  15
HETATM   15  C   UNL     1      -8.647  13.828  67.250  1.00  0.00    -0.212 A  
HETATM   16  N   UNL     1      -7.680  14.675  67.530  1.00  0.00    -0.182 NA 
HETATM   17  N   UNL     1      -7.887  15.774  66.736  1.00  0.00    -0.235 NA 
HETATM   18  N   UNL     1      -9.454  14.399  66.302  1.00  0.00    -0.290 NA 
HETATM   19  N   UNL     1      -8.957  15.613  65.974  1.00  0.00    -0.324 NA 
BRANCH  18  20
HETATM   20  C   UNL     1     -10.563  13.892  65.545  1.00  0.00    -0.311 C  
HETATM   21  O   UNL     1     -13.183  13.820  65.397  1.00  0.00    -0.722 OA 
HETATM   22  O   UNL     1     -12.141  15.447  66.886  1.00  0.00     0.198 OA 
HETATM   23  O   UNL     1     -12.089  13.052  67.541  1.00  0.00    -0.333 OA 
HETATM   24  S   UNL     1     -12.129  13.911  66.381  1.00  0.00    -0.454 S  
ENDBRANCH  18  20
ENDBRANCH  14  15
ENDBRANCH  13  14
ENDBRANCH   4  13
BRANCH   8  25
HETATM   25  N   UNL     1     -10.036   5.420  68.746  1.00  0.00    -0.157 N  
HETATM   26  C   UNL     1      -9.463   4.184  68.961  1.00  0.00    -0.174 C  
HETATM   27  H   UNL     1     -10.034   6.086  69.518  1.00  0.00     0.000 HD 
HETATM   28  O   UNL     1      -9.460   3.288  68.124  1.00  0.00    -0.192 OA 
BRANCH  26  29
HETATM   29  C   UNL     1      -8.814   4.060  70.359  1.00  0.00    -0.083 C  
HETATM   30  O   UNL     1      -9.803   4.279  71.376  1.00  0.00    -0.177 OA 
HETATM   31  H   UNL     1      -9.405   4.203  72.235  1.00  0.00     0.000 HD 
BRANCH  29  32
HETATM   32  C   UNL     1      -7.674   5.038  70.548  1.00  0.00    -0.070 A  
HETATM   33  C   UNL     1      -7.935   6.342  70.995  1.00  0.00    -0.115 A  
HETATM   34  C   UNL     1      -6.340   4.669  70.303  1.00  0.00    -0.026 A  
HETATM   35  C   UNL     1      -5.302   5.587  70.473  1.00  0.00    -0.005 A  
HETATM   36  C   UNL     1      -5.580   6.883  70.897  1.00  0.00    -0.027 A  
HETATM   37  C   UNL     1      -6.896   7.259  71.163  1.00  0.00    -0.055 A  
ENDBRANCH  29  32
ENDBRANCH  26  29
ENDBRANCH   8  25
TORSDOF 7
ENDMDL
MODEL      240
REMARK 921   NORMALIZED FREE ENERGY PREDICTED BY IDOCK:   -4.11 KCAL/MOL
REMARK 922        TOTAL FREE ENERGY PREDICTED BY IDOCK:   -6.77 KCAL/MOL
REMARK 923 INTER-LIGAND FREE ENERGY PREDICTED BY IDOCK:   -6.15 KCAL/MOL
REMARK 924 INTRA-LIGAND FREE ENERGY PREDICTED BY IDOCK:   -0.62 KCAL/MOL
REMARK 927      BINDING AFFINITY PREDICTED BY RF-SCORE:    0.00 PKD
ROOT
HETATM    1  C   UNL     1      -8.262  11.316  67.448  1.00  0.00    -0.135 C  
HETATM    2  S   UNL     1      -7.531   9.695  67.761  1.00  0.00    -0.087 SA 
HETATM    3  C   UNL     1      -6.778   9.558  66.123  1.00  0.00    -0.082 C  
HETATM    4  C   UNL     1      -7.670   9.960  64.952  1.00  0.00    -0.134 C  
HETATM    5  C   UNL     1     -10.241  11.728  66.925  1.00  0.00    -0.209 C  
HETATM    6  CA  UNL     1      -8.803  10.714  65.080  1.00  0.00    -0.197 C  
HETATM    7  C   UNL     1      -9.678  10.966  63.866  1.00  0.00    -0.303 C  
HETATM    8  CA  UNL     1      -9.518  11.670  68.318  1.00  0.00    -0.191 C  
HETATM    9  N   UNL     1      -9.154  11.214  66.312  1.00  0.00    -0.188 N  
HETATM   10  O   UNL     1     -10.958  11.313  64.082  1.00  0.00    -0.372 OA 
HETATM   11  OXT UNL     1      -9.275  10.860  62.714  1.00  0.00    -0.275 OA 
HETATM   12  O   UNL     1     -11.342  11.963  66.482  1.00  0.00    -0.327 OA 
ENDROOT
BRANCH   4  13
HETATM   13  C   UNL     1      -7.230   9.250  63.665  1.00  0.00    -0.094 C  
BRANCH  13  14
HETATM   14  S   UNL     1      -8.360   7.911  63.139  1.00  0.00     0.138 SA 
BRANCH  14  15
HETATM   15  C   UNL     1      -7.446   6.540  63.677  1.00  0.00    -0.082 A  
HETATM   16  N   UNL     1      -6.303   6.600  64.324  1.00  0.00    -0.037 NA 
HETATM   17  N   UNL     1      -5.942   5.304  64.593  1.00  0.00    -0.021 NA 
HETATM   18  N   UNL     1      -7.788   5.221  63.533  1.00  0.00    -0.081 NA 
HETATM   19  N   UNL     1      -6.845   4.455  64.128  1.00  0.00    -0.044 NA 
BRANCH  18  20
HETATM   20  C   UNL     1      -8.968   4.578  63.033  1.00  0.00    -0.129 C  
HETATM   21  O   UNL     1     -11.211   3.405  63.730  1.00  0.00    -0.280 OA 
HETATM   22  O   UNL     1      -9.989   4.684  65.410  1.00  0.00    -0.182 OA 
HETATM   23  O   UNL     1      -9.049   2.504  64.679  1.00  0.00    -0.120 OA 
HETATM   24  S   UNL     1      -9.865   3.602  64.215  1.00  0.00    -0.195 S  
ENDBRANCH  18  20
ENDBRANCH  14  15
ENDBRANCH  13  14
ENDBRANCH   4  13
BRANCH   8  25
HETATM   25  N   UNL     1      -9.999  10.605  69.232  1.00  0.00    -0.307 N  
HETATM   26  C   UNL     1     -11.298  10.486  69.680  1.00  0.00    -0.281 C  
HETATM   27  H   UNL     1      -9.322   9.912  69.552  1.00  0.00     0.000 HD 
HETATM   28  O   UNL     1     -12.181  11.293  69.407  1.00  0.00    -0.317 OA 
BRANCH  26  29
HETATM   29  C   UNL     1     -11.522   9.224  70.543  1.00  0.00    -0.248 C  
HETATM   30  O   UNL     1     -11.487   9.573  71.935  1.00  0.00    -0.355 OA 
HETATM   31  H   UNL     1     -11.625   8.797  72.465  1.00  0.00     0.000 HD 
BRANCH  29  32
HETATM   32  C   UNL     1     -10.487   8.153  70.268  1.00  0.00    -0.219 A  
HETATM   33  C   UNL     1     -10.572   7.379  69.100  1.00  0.00    -0.213 A  
HETATM   34  C   UNL     1      -9.420   7.917  71.151  1.00  0.00    -0.180 A  
HETATM   35  C   UNL     1      -8.481   6.919  70.887  1.00  0.00    -0.135 A  
HETATM   36  C   UNL     1      -8.590   6.146  69.734  1.00  0.00    -0.132 A  
HETATM   37  C   UNL     1      -9.632   6.380  68.838  1.00  0.00    -0.130 A  
ENDBRANCH  29  32
ENDBRANCH  26  29
ENDBRANCH   8  25
TORSDOF 7
ENDMDL
MODEL      241
REMARK 921   NORMALIZED FREE ENERGY PREDICTED BY IDOCK:   -4.09 KCAL/MOL
REMARK 922        TOTAL FREE ENERGY PREDICTED BY IDOCK:   -6.73 KCAL/MOL
REMARK 923 INTER-LIGAND FREE ENERGY PREDICTED BY IDOCK:   -6.68 KCAL/MOL
REMARK 924 INTRA-LIGAND FREE ENERGY PREDICTED BY IDOCK:   -0.05 KCAL/MOL
REMARK 927      BINDING AFFINITY PREDICTED BY RF-SCORE:    0.00 PKD
ROOT
HETATM    1  C   UNL     1      -7.475   9.627  66.599  1.00  0.00    -0.094 C  
HETATM    2  S   UNL     1      -9.048   8.984  65.991  1.00  0.00    -0.224 SA 
HETATM    3  C   UNL     1      -9.413  10.434  64.973  1.00  0.00    -0.253 C  
HETATM    4  C   UNL     1      -9.159  11.784  65.637  1.00  0.00    -0.034 C  
HETATM    5  C   UNL     1      -7.112  10.536  68.444  1.00  0.00    -0.078 C  
HETATM    6  CA  UNL     1      -8.381  11.955  66.748  1.00  0.00    -0.153 C  
HETATM    7  C   UNL     1      -8.283  13.326  67.392  1.00  0.00    -0.183 C  
HETATM    8  CA  UNL     1      -6.992   9.043  67.973  1.00  0.00    -0.077 C  
HETATM    9  N   UNL     1      -7.717  10.879  67.287  1.00  0.00    -0.108 N  
HETATM   10  O   UNL     1      -7.894  13.383  68.677  1.00  0.00    -0.132 OA 
HETATM   11  OXT UNL     1      -8.547  14.365  66.801  1.00  0.00    -0.201 OA 
HETATM   12  O   UNL     1      -6.925  11.191  69.444  1.00  0.00    -0.112 OA 
ENDROOT
BRANCH   4  13
HETATM   13  C   UNL     1     -10.041  12.872  65.008  1.00  0.00    -0.215 C  
BRANCH  13  14
HETATM   14  S   UNL     1     -11.810  12.732  65.449  1.00  0.00    -0.438 SA 
BRANCH  14  15
HETATM   15  C   UNL     1     -11.670  12.673  67.176  1.00  0.00    -0.371 A  
HETATM   16  N   UNL     1     -11.621  11.571  67.893  1.00  0.00    -0.478 NA 
HETATM   17  N   UNL     1     -11.471  11.966  69.198  1.00  0.00    -0.273 NA 
HETATM   18  N   UNL     1     -11.565  13.742  68.025  1.00  0.00    -0.313 NA 
HETATM   19  N   UNL     1     -11.422  13.286  69.290  1.00  0.00    -0.283 NA 
BRANCH  18  20
HETATM   20  C   UNL     1     -11.432  15.151  67.792  1.00  0.00    -0.318 C  
HETATM   21  O   UNL     1     -10.640  17.418  68.854  1.00  0.00    -0.328 OA 
HETATM   22  O   UNL     1      -9.984  15.330  69.931  1.00  0.00    -0.244 OA 
HETATM   23  O   UNL     1     -12.354  16.050  70.108  1.00  0.00    -0.256 OA 
HETATM   24  S   UNL     1     -11.200  16.145  69.245  1.00  0.00    -0.326 S  
ENDBRANCH  18  20
ENDBRANCH  14  15
ENDBRANCH  13  14
ENDBRANCH   4  13
BRANCH   8  25
HETATM   25  N   UNL     1      -7.920   8.097  68.641  1.00  0.00    -0.114 N  
HETATM   26  C   UNL     1      -7.988   7.899  70.004  1.00  0.00    -0.111 C  
HETATM   27  H   UNL     1      -8.551   7.555  68.051  1.00  0.00     0.000 HD 
HETATM   28  O   UNL     1      -7.239   8.453  70.803  1.00  0.00    -0.048 OA 
BRANCH  26  29
HETATM   29  C   UNL     1      -9.115   6.924  70.413  1.00  0.00    -0.156 C  
HETATM   30  O   UNL     1      -8.628   6.003  71.401  1.00  0.00    -0.127 OA 
HETATM   31  H   UNL     1      -9.321   5.404  71.652  1.00  0.00     0.000 HD 
BRANCH  29  32
HETATM   32  C   UNL     1      -9.658   6.150  69.230  1.00  0.00    -0.153 A  
HETATM   33  C   UNL     1     -10.664   6.710  68.427  1.00  0.00    -0.314 A  
HETATM   34  C   UNL     1      -9.168   4.876  68.897  1.00  0.00    -0.164 A  
HETATM   35  C   UNL     1      -9.688   4.172  67.810  1.00  0.00    -0.168 A  
HETATM   36  C   UNL     1     -10.699   4.733  67.035  1.00  0.00     0.215 A  
HETATM   37  C   UNL     1     -11.183   6.005  67.340  1.00  0.00    -0.050 A  
ENDBRANCH  29  32
ENDBRANCH  26  29
ENDBRANCH   8  25
TORSDOF 7
ENDMDL
MODEL      242
REMARK 921   NORMALIZED FREE ENERGY PREDICTED BY IDOCK:   -4.04 KCAL/MOL
REMARK 922        TOTAL FREE ENERGY PREDICTED BY IDOCK:   -6.66 KCAL/MOL
REMARK 923 INTER-LIGAND FREE ENERGY PREDICTED BY IDOCK:   -5.30 KCAL/MOL
REMARK 924 INTRA-LIGAND FREE ENERGY PREDICTED BY IDOCK:   -1.36 KCAL/MOL
REMARK 927      BINDING AFFINITY PREDICTED BY RF-SCORE:    0.00 PKD
ROOT
HETATM    1  C   UNL     1      -7.488   9.117  65.841  1.00  0.00    -0.094 C  
HETATM    2  S   UNL     1      -9.230   9.079  65.369  1.00  0.00    -0.123 SA 
HETATM    3  C   UNL     1      -9.391  10.877  65.263  1.00  0.00    -0.213 C  
HETATM    4  C   UNL     1      -8.760  11.662  66.409  1.00  0.00    -0.170 C  
HETATM    5  C   UNL     1      -6.697   8.917  67.762  1.00  0.00    -0.066 C  
HETATM    6  CA  UNL     1      -7.826  11.148  67.265  1.00  0.00    -0.137 C  
HETATM    7  C   UNL     1      -7.343  11.980  68.437  1.00  0.00    -0.096 C  
HETATM    8  CA  UNL     1      -6.974   7.864  66.631  1.00  0.00    -0.072 C  
HETATM    9  N   UNL     1      -7.354   9.871  67.071  1.00  0.00    -0.091 N  
HETATM   10  O   UNL     1      -6.789  11.331  69.476  1.00  0.00    -0.118 OA 
HETATM   11  OXT UNL     1      -7.443  13.200  68.481  1.00  0.00    -0.112 OA 
HETATM   12  O   UNL     1      -6.241   8.948  68.883  1.00  0.00    -0.043 OA 
ENDROOT
BRANCH   4  13
HETATM   13  C   UNL     1      -9.451  13.022  66.580  1.00  0.00    -0.245 C  
BRANCH  13  14
HETATM   14  S   UNL     1     -11.277  12.929  66.547  1.00  0.00    -0.316 SA 
BRANCH  14  15
HETATM   15  C   UNL     1     -11.617  13.452  68.165  1.00  0.00    -0.341 A  
HETATM   16  N   UNL     1     -12.151  14.610  68.489  1.00  0.00    -0.247 NA 
HETATM   17  N   UNL     1     -12.286  14.605  69.853  1.00  0.00    -0.319 NA 
HETATM   18  N   UNL     1     -11.409  12.740  69.315  1.00  0.00    -0.263 NA 
HETATM   19  N   UNL     1     -11.849  13.466  70.368  1.00  0.00    -0.263 NA 
BRANCH  18  20
HETATM   20  C   UNL     1     -10.982  11.391  69.553  1.00  0.00    -0.166 C  
HETATM   21  O   UNL     1     -11.775   9.012  70.330  1.00  0.00    -0.198 OA 
HETATM   22  O   UNL     1     -13.462  10.681  69.764  1.00  0.00     0.213 OA 
HETATM   23  O   UNL     1     -12.186  10.969  71.875  1.00  0.00     0.013 OA 
HETATM   24  S   UNL     1     -12.075  10.408  70.549  1.00  0.00    -0.347 S  
ENDBRANCH  18  20
ENDBRANCH  14  15
ENDBRANCH  13  14
ENDBRANCH   4  13
BRANCH   8  25
HETATM   25  N   UNL     1      -7.995   6.839  66.963  1.00  0.00    -0.108 N  
HETATM   26  C   UNL     1      -8.111   5.618  66.331  1.00  0.00    -0.106 C  
HETATM   27  H   UNL     1      -8.656   7.052  67.709  1.00  0.00     0.000 HD 
HETATM   28  O   UNL     1      -7.407   5.280  65.385  1.00  0.00    -0.067 OA 
BRANCH  26  29
HETATM   29  C   UNL     1      -9.204   4.722  66.956  1.00  0.00    -0.126 C  
HETATM   30  O   UNL     1     -10.486   5.356  66.826  1.00  0.00    -0.244 OA 
HETATM   31  H   UNL     1     -11.158   4.805  67.209  1.00  0.00     0.000 HD 
BRANCH  29  32
HETATM   32  C   UNL     1      -8.936   4.426  68.417  1.00  0.00    -0.149 A  
HETATM   33  C   UNL     1      -7.876   3.582  68.778  1.00  0.00    -0.055 A  
HETATM   34  C   UNL     1      -9.718   4.994  69.437  1.00  0.00    -0.254 A  
HETATM   35  C   UNL     1      -9.463   4.702  70.778  1.00  0.00    -0.235 A  
HETATM   36  C   UNL     1      -8.420   3.846  71.120  1.00  0.00    -0.099 A  
HETATM   37  C   UNL     1      -7.623   3.290  70.120  1.00  0.00    -0.044 A  
ENDBRANCH  29  32
ENDBRANCH  26  29
ENDBRANCH   8  25
TORSDOF 7
ENDMDL
MODEL      243
REMARK 921   NORMALIZED FREE ENERGY PREDICTED BY IDOCK:   -4.03 KCAL/MOL
REMARK 922        TOTAL FREE ENERGY PREDICTED BY IDOCK:   -6.64 KCAL/MOL
REMARK 923 INTER-LIGAND FREE ENERGY PREDICTED BY IDOCK:   -5.57 KCAL/MOL
REMARK 924 INTRA-LIGAND FREE ENERGY PREDICTED BY IDOCK:   -1.07 KCAL/MOL
REMARK 927      BINDING AFFINITY PREDICTED BY RF-SCORE:    0.00 PKD
ROOT
HETATM    1  C   UNL     1     -10.052   8.234  67.716  1.00  0.00    -0.206 C  
HETATM    2  S   UNL     1      -9.056   8.576  66.249  1.00  0.00    -0.197 SA 
HETATM    3  C   UNL     1      -7.738   7.422  66.696  1.00  0.00    -0.101 C  
HETATM    4  C   UNL     1      -7.287   7.470  68.153  1.00  0.00    -0.096 C  
HETATM    5  C   UNL     1     -10.166   9.377  69.458  1.00  0.00    -0.209 C  
HETATM    6  CA  UNL     1      -8.018   8.036  69.161  1.00  0.00    -0.114 C  
HETATM    7  C   UNL     1      -7.428   8.128  70.556  1.00  0.00    -0.063 C  
HETATM    8  CA  UNL     1     -11.032   9.378  68.149  1.00  0.00    -0.045 C  
HETATM    9  N   UNL     1      -9.268   8.542  68.894  1.00  0.00    -0.146 N  
HETATM   10  O   UNL     1      -7.948   9.043  71.392  1.00  0.00    -0.264 OA 
HETATM   11  OXT UNL     1      -6.507   7.420  70.943  1.00  0.00    -0.039 OA 
HETATM   12  O   UNL     1     -10.127   9.952  70.523  1.00  0.00    -0.259 OA 
ENDROOT
BRANCH   4  13
HETATM   13  C   UNL     1      -5.840   6.977  68.290  1.00  0.00    -0.022 C  
BRANCH  13  14
HETATM   14  S   UNL     1      -5.704   5.203  68.714  1.00  0.00    -0.016 SA 
BRANCH  14  15
HETATM   15  C   UNL     1      -5.825   4.521  67.125  1.00  0.00    -0.023 A  
HETATM   16  N   UNL     1      -5.200   4.972  66.059  1.00  0.00    -0.008 NA 
HETATM   17  N   UNL     1      -5.536   4.131  65.029  1.00  0.00    -0.013 NA 
HETATM   18  N   UNL     1      -6.552   3.419  66.761  1.00  0.00    -0.040 NA 
HETATM   19  N   UNL     1      -6.349   3.173  65.446  1.00  0.00    -0.030 NA 
BRANCH  18  20
HETATM   20  C   UNL     1      -7.308   2.466  67.521  1.00  0.00    -0.056 C  
HETATM   21  O   UNL     1      -9.732   1.745  68.223  1.00  0.00    -0.177 OA 
HETATM   22  O   UNL     1      -9.469   3.332  66.389  1.00  0.00    -0.163 OA 
HETATM   23  O   UNL     1      -9.010   4.118  68.699  1.00  0.00    -0.099 OA 
HETATM   24  S   UNL     1      -8.984   2.931  67.878  1.00  0.00    -0.174 S  
ENDBRANCH  18  20
ENDBRANCH  14  15
ENDBRANCH  13  14
ENDBRANCH   4  13
BRANCH   8  25
HETATM   25  N   UNL     1     -10.967  10.629  67.353  1.00  0.00    -0.301 N  
HETATM   26  C   UNL     1     -11.431  11.855  67.783  1.00  0.00    -0.319 C  
HETATM   27  H   UNL     1     -10.550  10.579  66.424  1.00  0.00     0.000 HD 
HETATM   28  O   UNL     1     -12.001  12.020  68.856  1.00  0.00    -0.297 OA 
BRANCH  26  29
HETATM   29  C   UNL     1     -11.139  12.992  66.777  1.00  0.00    -0.286 C  
HETATM   30  O   UNL     1     -10.269  12.514  65.741  1.00  0.00    -0.260 OA 
HETATM   31  H   UNL     1     -10.089  13.213  65.123  1.00  0.00     0.000 HD 
BRANCH  29  32
HETATM   32  C   UNL     1     -10.512  14.198  67.444  1.00  0.00    -0.271 A  
HETATM   33  C   UNL     1      -9.381  14.039  68.259  1.00  0.00    -0.208 A  
HETATM   34  C   UNL     1     -11.025  15.492  67.256  1.00  0.00    -0.303 A  
HETATM   35  C   UNL     1     -10.441  16.591  67.887  1.00  0.00    -0.313 A  
HETATM   36  C   UNL     1      -9.331  16.415  68.709  1.00  0.00    -0.245 A  
HETATM   37  C   UNL     1      -8.798  15.140  68.890  1.00  0.00    -0.205 A  
ENDBRANCH  29  32
ENDBRANCH  26  29
ENDBRANCH   8  25
TORSDOF 7
ENDMDL
MODEL      244
REMARK 921   NORMALIZED FREE ENERGY PREDICTED BY IDOCK:   -4.02 KCAL/MOL
REMARK 922        TOTAL FREE ENERGY PREDICTED BY IDOCK:   -6.64 KCAL/MOL
REMARK 923 INTER-LIGAND FREE ENERGY PREDICTED BY IDOCK:   -6.57 KCAL/MOL
REMARK 924 INTRA-LIGAND FREE ENERGY PREDICTED BY IDOCK:   -0.07 KCAL/MOL
REMARK 927      BINDING AFFINITY PREDICTED BY RF-SCORE:    0.00 PKD
ROOT
HETATM    1  C   UNL     1     -11.277   8.417  68.545  1.00  0.00     0.578 C  
HETATM    2  S   UNL     1     -10.585   9.443  69.859  1.00  0.00    -0.247 SA 
HETATM    3  C   UNL     1     -10.726  10.986  68.928  1.00  0.00    -0.211 C  
HETATM    4  C   UNL     1     -10.276  10.919  67.472  1.00  0.00    -0.224 C  
HETATM    5  C   UNL     1     -10.227   7.239  67.178  1.00  0.00    -0.269 C  
HETATM    6  CA  UNL     1     -10.125   9.754  66.771  1.00  0.00    -0.231 C  
HETATM    7  C   UNL     1      -9.567   9.793  65.361  1.00  0.00    -0.292 C  
HETATM    8  CA  UNL     1     -10.858   6.905  68.576  1.00  0.00    -0.180 C  
HETATM    9  N   UNL     1     -10.455   8.557  67.361  1.00  0.00    -0.280 N  
HETATM   10  O   UNL     1      -9.030   8.662  64.872  1.00  0.00    -0.105 OA 
HETATM   11  OXT UNL     1      -9.578  10.799  64.662  1.00  0.00    -0.223 OA 
HETATM   12  O   UNL     1      -9.624   6.673  66.294  1.00  0.00    -0.138 OA 
ENDROOT
BRANCH   4  13
HETATM   13  C   UNL     1      -9.838  12.303  66.975  1.00  0.00    -0.205 C  
BRANCH  13  14
HETATM   14  S   UNL     1     -11.212  13.322  66.328  1.00  0.00    -0.307 SA 
BRANCH  14  15
HETATM   15  C   UNL     1     -11.330  14.486  67.607  1.00  0.00    -0.337 A  
HETATM   16  N   UNL     1     -12.132  14.389  68.646  1.00  0.00    -0.284 NA 
HETATM   17  N   UNL     1     -11.885  15.487  69.429  1.00  0.00    -0.364 NA 
HETATM   18  N   UNL     1     -10.602  15.638  67.735  1.00  0.00    -0.275 NA 
HETATM   19  N   UNL     1     -10.946  16.250  68.891  1.00  0.00    -0.314 NA 
BRANCH  18  20
HETATM   20  C   UNL     1      -9.507  16.178  66.982  1.00  0.00    -0.222 C  
HETATM   21  O   UNL     1      -8.255  18.393  66.336  1.00  0.00    -0.267 OA 
HETATM   22  O   UNL     1      -9.844  18.445  68.187  1.00  0.00    -0.308 OA 
HETATM   23  O   UNL     1     -10.735  18.249  65.877  1.00  0.00    -0.370 OA 
HETATM   24  S   UNL     1      -9.578  17.926  66.679  1.00  0.00    -0.320 S  
ENDBRANCH  18  20
ENDBRANCH  14  15
ENDBRANCH  13  14
ENDBRANCH   4  13
BRANCH   8  25
HETATM   25  N   UNL     1      -9.886   6.520  69.629  1.00  0.00    -0.158 N  
HETATM   26  C   UNL     1     -10.232   6.025  70.869  1.00  0.00    -0.206 C  
HETATM   27  H   UNL     1      -8.893   6.628  69.421  1.00  0.00     0.000 HD 
HETATM   28  O   UNL     1     -11.393   5.907  71.247  1.00  0.00    -0.261 OA 
BRANCH  26  29
HETATM   29  C   UNL     1      -9.004   5.621  71.717  1.00  0.00    -0.136 C  
HETATM   30  O   UNL     1      -9.136   6.147  73.046  1.00  0.00    -0.132 OA 
HETATM   31  H   UNL     1      -8.382   5.899  73.567  1.00  0.00     0.000 HD 
BRANCH  29  32
HETATM   32  C   UNL     1      -7.705   6.109  71.111  1.00  0.00    -0.106 A  
HETATM   33  C   UNL     1      -6.806   5.191  70.548  1.00  0.00    -0.044 A  
HETATM   34  C   UNL     1      -7.376   7.475  71.079  1.00  0.00    -0.071 A  
HETATM   35  C   UNL     1      -6.169   7.906  70.526  1.00  0.00    -0.036 A  
HETATM   36  C   UNL     1      -5.278   6.981  69.989  1.00  0.00    -0.015 A  
HETATM   37  C   UNL     1      -5.599   5.624  69.995  1.00  0.00    -0.008 A  
ENDBRANCH  29  32
ENDBRANCH  26  29
ENDBRANCH   8  25
TORSDOF 7
ENDMDL
MODEL      245
REMARK 921   NORMALIZED FREE ENERGY PREDICTED BY IDOCK:   -3.89 KCAL/MOL
REMARK 922        TOTAL FREE ENERGY PREDICTED BY IDOCK:   -6.45 KCAL/MOL
REMARK 923 INTER-LIGAND FREE ENERGY PREDICTED BY IDOCK:   -6.02 KCAL/MOL
REMARK 924 INTRA-LIGAND FREE ENERGY PREDICTED BY IDOCK:   -0.43 KCAL/MOL
REMARK 927      BINDING AFFINITY PREDICTED BY RF-SCORE:    0.00 PKD
ROOT
HETATM    1  C   UNL     1      -9.270  16.391  69.179  1.00  0.00    -0.216 C  
HETATM    2  S   UNL     1     -10.060  16.001  67.604  1.00  0.00    -0.250 SA 
HETATM    3  C   UNL     1      -9.850  14.213  67.776  1.00  0.00    -0.231 C  
HETATM    4  C   UNL     1      -8.478  13.756  68.261  1.00  0.00    -0.173 C  
HETATM    5  C   UNL     1      -7.307  17.037  69.480  1.00  0.00     0.139 C  
HETATM    6  CA  UNL     1      -7.575  14.573  68.881  1.00  0.00    -0.138 C  
HETATM    7  C   UNL     1      -6.196  14.044  69.226  1.00  0.00    -0.105 C  
HETATM    8  CA  UNL     1      -8.650  17.828  69.287  1.00  0.00     0.288 C  
HETATM    9  N   UNL     1      -7.916  15.876  69.162  1.00  0.00    -0.223 N  
HETATM   10  O   UNL     1      -5.214  14.942  69.419  1.00  0.00    -0.088 OA 
HETATM   11  OXT UNL     1      -5.940  12.851  69.326  1.00  0.00    -0.080 OA 
HETATM   12  O   UNL     1      -6.136  17.269  69.675  1.00  0.00    -0.231 OA 
ENDROOT
BRANCH   4  13
HETATM   13  C   UNL     1      -8.185  12.325  67.788  1.00  0.00    -0.161 C  
BRANCH  13  14
HETATM   14  S   UNL     1      -8.492  11.050  69.063  1.00  0.00    -0.014 SA 
BRANCH  14  15
HETATM   15  C   UNL     1      -9.084   9.773  68.051  1.00  0.00    -0.125 A  
HETATM   16  N   UNL     1      -8.547   9.403  66.909  1.00  0.00    -0.127 NA 
HETATM   17  N   UNL     1      -9.291   8.344  66.457  1.00  0.00    -0.186 NA 
HETATM   18  N   UNL     1     -10.159   8.963  68.301  1.00  0.00    -0.180 NA 
HETATM   19  N   UNL     1     -10.269   8.058  67.302  1.00  0.00    -0.246 NA 
BRANCH  18  20
HETATM   20  C   UNL     1     -11.023   8.827  69.438  1.00  0.00    -0.030 C  
HETATM   21  O   UNL     1     -11.573   7.335  71.527  1.00  0.00    -0.257 OA 
HETATM   22  O   UNL     1      -9.464   6.974  70.355  1.00  0.00    -0.162 OA 
HETATM   23  O   UNL     1     -11.564   6.240  69.250  1.00  0.00    -0.363 OA 
HETATM   24  S   UNL     1     -11.054   7.216  70.185  1.00  0.00    -0.259 S  
ENDBRANCH  18  20
ENDBRANCH  14  15
ENDBRANCH  13  14
ENDBRANCH   4  13
BRANCH   8  25
HETATM   25  N   UNL     1      -8.718  18.661  68.060  1.00  0.00    -0.295 N  
HETATM   26  C   UNL     1      -8.071  19.868  67.897  1.00  0.00    -0.286 C  
HETATM   27  H   UNL     1      -9.283  18.316  67.284  1.00  0.00     0.000 HD 
HETATM   28  O   UNL     1      -7.412  20.403  68.782  1.00  0.00    -0.023 OA 
BRANCH  26  29
HETATM   29  C   UNL     1      -8.250  20.457  66.479  1.00  0.00    -0.131 C  
HETATM   30  O   UNL     1      -9.544  20.106  65.966  1.00  0.00    -0.554 OA 
HETATM   31  H   UNL     1      -9.654  20.468  65.095  1.00  0.00     0.000 HD 
BRANCH  29  32
HETATM   32  C   UNL     1      -7.182  19.975  65.521  1.00  0.00    -0.307 A  
HETATM   33  C   UNL     1      -6.627  20.862  64.585  1.00  0.00    -0.187 A  
HETATM   34  C   UNL     1      -6.710  18.652  65.550  1.00  0.00    -0.285 A  
HETATM   35  C   UNL     1      -5.732  18.222  64.651  1.00  0.00     0.043 A  
HETATM   36  C   UNL     1      -5.206  19.109  63.716  1.00  0.00    -0.296 A  
HETATM   37  C   UNL     1      -5.649  20.430  63.687  1.00  0.00    -0.280 A  
ENDBRANCH  29  32
ENDBRANCH  26  29
ENDBRANCH   8  25
TORSDOF 7
ENDMDL
MODEL      246
REMARK 921   NORMALIZED FREE ENERGY PREDICTED BY IDOCK:   -3.86 KCAL/MOL
REMARK 922        TOTAL FREE ENERGY PREDICTED BY IDOCK:   -6.41 KCAL/MOL
REMARK 923 INTER-LIGAND FREE ENERGY PREDICTED BY IDOCK:   -5.75 KCAL/MOL
REMARK 924 INTRA-LIGAND FREE ENERGY PREDICTED BY IDOCK:   -0.66 KCAL/MOL
REMARK 927      BINDING AFFINITY PREDICTED BY RF-SCORE:    0.00 PKD
ROOT
HETATM    1  C   UNL     1      -8.966   8.239  67.229  1.00  0.00    -0.137 C  
HETATM    2  S   UNL     1      -8.010   8.438  68.748  1.00  0.00    -0.122 SA 
HETATM    3  C   UNL     1      -6.540   7.605  68.104  1.00  0.00    -0.054 C  
HETATM    4  C   UNL     1      -6.800   6.312  67.337  1.00  0.00    -0.063 C  
HETATM    5  C   UNL     1     -10.425   6.797  66.837  1.00  0.00    -0.280 C  
HETATM    6  CA  UNL     1      -8.018   5.958  66.825  1.00  0.00    -0.102 C  
HETATM    7  C   UNL     1      -8.192   4.599  66.174  1.00  0.00    -0.107 C  
HETATM    8  CA  UNL     1     -10.525   8.258  67.404  1.00  0.00    -0.283 C  
HETATM    9  N   UNL     1      -9.079   6.826  66.931  1.00  0.00    -0.132 N  
HETATM   10  O   UNL     1      -9.440   4.108  66.082  1.00  0.00    -0.157 OA 
HETATM   11  OXT UNL     1      -7.257   3.936  65.743  1.00  0.00    -0.069 OA 
HETATM   12  O   UNL     1     -11.162   5.882  66.549  1.00  0.00    -0.132 OA 
ENDROOT
BRANCH   4  13
HETATM   13  C   UNL     1      -5.571   5.394  67.389  1.00  0.00    -0.013 C  
BRANCH  13  14
HETATM   14  S   UNL     1      -5.812   3.897  68.411  1.00  0.00    -0.027 SA 
BRANCH  14  15
HETATM   15  C   UNL     1      -5.887   4.632  69.979  1.00  0.00    -0.017 A  
HETATM   16  N   UNL     1      -5.344   5.787  70.300  1.00  0.00    -0.008 NA 
HETATM   17  N   UNL     1      -5.670   6.016  71.612  1.00  0.00    -0.026 NA 
HETATM   18  N   UNL     1      -6.533   4.142  71.083  1.00  0.00    -0.025 NA 
HETATM   19  N   UNL     1      -6.404   5.028  72.097  1.00  0.00    -0.033 NA 
BRANCH  18  20
HETATM   20  C   UNL     1      -7.389   3.007  71.277  1.00  0.00    -0.033 C  
HETATM   21  O   UNL     1      -9.835   2.108  70.961  1.00  0.00    -0.121 OA 
HETATM   22  O   UNL     1      -9.185   4.158  69.809  1.00  0.00    -0.112 OA 
HETATM   23  O   UNL     1      -9.511   4.245  72.270  1.00  0.00    -0.123 OA 
HETATM   24  S   UNL     1      -9.131   3.345  71.206  1.00  0.00    -0.118 S  
ENDBRANCH  18  20
ENDBRANCH  14  15
ENDBRANCH  13  14
ENDBRANCH   4  13
BRANCH   8  25
HETATM   25  N   UNL     1     -11.023   8.358  68.799  1.00  0.00    -0.428 N  
HETATM   26  C   UNL     1     -11.178   9.541  69.491  1.00  0.00    -0.074 C  
HETATM   27  H   UNL     1     -11.267   7.492  69.279  1.00  0.00     0.000 HD 
HETATM   28  O   UNL     1     -10.863  10.635  69.033  1.00  0.00    -0.203 OA 
BRANCH  26  29
HETATM   29  C   UNL     1     -11.806   9.340  70.888  1.00  0.00    -0.282 C  
HETATM   30  O   UNL     1     -12.212  10.607  71.427  1.00  0.00    -0.350 OA 
HETATM   31  H   UNL     1     -12.598  10.484  72.286  1.00  0.00     0.000 HD 
BRANCH  29  32
HETATM   32  C   UNL     1     -10.853   8.666  71.852  1.00  0.00    -0.419 A  
HETATM   33  C   UNL     1     -11.334   7.718  72.768  1.00  0.00    -0.446 A  
HETATM   34  C   UNL     1      -9.477   8.953  71.847  1.00  0.00    -0.301 A  
HETATM   35  C   UNL     1      -8.614   8.330  72.750  1.00  0.00    -0.270 A  
HETATM   36  C   UNL     1      -9.110   7.407  73.666  1.00  0.00    -0.273 A  
HETATM   37  C   UNL     1     -10.469   7.097  73.671  1.00  0.00    -0.412 A  
ENDBRANCH  29  32
ENDBRANCH  26  29
ENDBRANCH   8  25
TORSDOF 7
ENDMDL
MODEL      247
REMARK 921   NORMALIZED FREE ENERGY PREDICTED BY IDOCK:   -3.85 KCAL/MOL
REMARK 922        TOTAL FREE ENERGY PREDICTED BY IDOCK:   -6.40 KCAL/MOL
REMARK 923 INTER-LIGAND FREE ENERGY PREDICTED BY IDOCK:   -5.74 KCAL/MOL
REMARK 924 INTRA-LIGAND FREE ENERGY PREDICTED BY IDOCK:   -0.66 KCAL/MOL
REMARK 927      BINDING AFFINITY PREDICTED BY RF-SCORE:    0.00 PKD
ROOT
HETATM    1  C   UNL     1     -10.894   8.296  69.499  1.00  0.00    -0.116 C  
HETATM    2  S   UNL     1      -9.786   9.070  70.695  1.00  0.00    -0.255 SA 
HETATM    3  C   UNL     1      -9.064  10.219  69.500  1.00  0.00    -0.167 C  
HETATM    4  C   UNL     1      -8.692   9.617  68.149  1.00  0.00    -0.119 C  
HETATM    5  C   UNL     1     -10.610   6.483  68.504  1.00  0.00    -0.244 C  
HETATM    6  CA  UNL     1      -9.174   8.424  67.686  1.00  0.00    -0.134 C  
HETATM    7  C   UNL     1      -8.655   7.863  66.375  1.00  0.00    -0.147 C  
HETATM    8  CA  UNL     1     -11.348   6.835  69.844  1.00  0.00    -0.320 C  
HETATM    9  N   UNL     1     -10.103   7.731  68.426  1.00  0.00    -0.186 N  
HETATM   10  O   UNL     1      -8.796   6.543  66.164  1.00  0.00    -0.146 OA 
HETATM   11  OXT UNL     1      -8.114   8.550  65.518  1.00  0.00    -0.112 OA 
HETATM   12  O   UNL     1     -10.386   5.511  67.818  1.00  0.00    -0.188 OA 
ENDROOT
BRANCH   4  13
HETATM   13  C   UNL     1      -7.574  10.429  67.482  1.00  0.00    -0.094 C  
BRANCH  13  14
HETATM   14  S   UNL     1      -5.911  10.092  68.165  1.00  0.00    -0.041 SA 
BRANCH  14  15
HETATM   15  C   UNL     1      -5.886  11.264  69.443  1.00  0.00    -0.057 A  
HETATM   16  N   UNL     1      -5.666  10.994  70.712  1.00  0.00    -0.248 NA 
HETATM   17  N   UNL     1      -5.693  12.196  71.372  1.00  0.00    -0.330 NA 
HETATM   18  N   UNL     1      -6.061  12.616  69.317  1.00  0.00    -0.092 NA 
HETATM   19  N   UNL     1      -5.920  13.193  70.532  1.00  0.00    -0.139 NA 
BRANCH  18  20
HETATM   20  C   UNL     1      -6.201  13.470  68.172  1.00  0.00    -0.114 C  
HETATM   21  O   UNL     1      -7.509  15.527  67.199  1.00  0.00    -0.206 OA 
HETATM   22  O   UNL     1      -7.661  15.069  69.590  1.00  0.00    -0.196 OA 
HETATM   23  O   UNL     1      -8.845  13.548  68.025  1.00  0.00    -0.166 OA 
HETATM   24  S   UNL     1      -7.698  14.422  68.109  1.00  0.00    -0.146 S  
ENDBRANCH  18  20
ENDBRANCH  14  15
ENDBRANCH  13  14
ENDBRANCH   4  13
BRANCH   8  25
HETATM   25  N   UNL     1     -10.751   6.239  71.066  1.00  0.00    -0.247 N  
HETATM   26  C   UNL     1     -11.425   6.054  72.255  1.00  0.00    -0.312 C  
HETATM   27  H   UNL     1      -9.775   5.946  71.023  1.00  0.00     0.000 HD 
HETATM   28  O   UNL     1     -12.581   6.421  72.438  1.00  0.00    -0.109 OA 
BRANCH  26  29
HETATM   29  C   UNL     1     -10.574   5.323  73.319  1.00  0.00    -0.245 C  
HETATM   30  O   UNL     1      -9.570   6.210  73.833  1.00  0.00    -0.148 OA 
HETATM   31  H   UNL     1      -9.047   5.762  74.487  1.00  0.00     0.000 HD 
BRANCH  29  32
HETATM   32  C   UNL     1      -9.910   4.080  72.764  1.00  0.00    -0.200 A  
HETATM   33  C   UNL     1      -8.525   4.065  72.542  1.00  0.00    -0.100 A  
HETATM   34  C   UNL     1     -10.647   2.919  72.477  1.00  0.00    -0.068 A  
HETATM   35  C   UNL     1     -10.021   1.786  71.956  1.00  0.00    -0.215 A  
HETATM   36  C   UNL     1      -8.648   1.793  71.722  1.00  0.00    -0.080 A  
HETATM   37  C   UNL     1      -7.900   2.931  72.020  1.00  0.00    -0.054 A  
ENDBRANCH  29  32
ENDBRANCH  26  29
ENDBRANCH   8  25
TORSDOF 7
ENDMDL
MODEL      248
REMARK 921   NORMALIZED FREE ENERGY PREDICTED BY IDOCK:   -3.84 KCAL/MOL
REMARK 922        TOTAL FREE ENERGY PREDICTED BY IDOCK:   -6.38 KCAL/MOL
REMARK 923 INTER-LIGAND FREE ENERGY PREDICTED BY IDOCK:   -4.81 KCAL/MOL
REMARK 924 INTRA-LIGAND FREE ENERGY PREDICTED BY IDOCK:   -1.57 KCAL/MOL
REMARK 927      BINDING AFFINITY PREDICTED BY RF-SCORE:    0.00 PKD
ROOT
HETATM    1  C   UNL     1      -7.171   9.158  65.961  1.00  0.00    -0.094 C  
HETATM    2  S   UNL     1      -8.821   8.494  65.654  1.00  0.00    -0.148 SA 
HETATM    3  C   UNL     1      -9.458  10.022  64.925  1.00  0.00    -0.293 C  
HETATM    4  C   UNL     1      -9.100  11.305  65.668  1.00  0.00    -0.203 C  
HETATM    5  C   UNL     1      -6.418   9.883  67.769  1.00  0.00    -0.063 C  
HETATM    6  CA  UNL     1      -8.091  11.400  66.586  1.00  0.00    -0.155 C  
HETATM    7  C   UNL     1      -7.889  12.697  67.348  1.00  0.00    -0.175 C  
HETATM    8  CA  UNL     1      -6.364   8.459  67.110  1.00  0.00    -0.057 C  
HETATM    9  N   UNL     1      -7.286  10.313  66.829  1.00  0.00    -0.102 N  
HETATM   10  O   UNL     1      -7.215  12.638  68.509  1.00  0.00    -0.102 OA 
HETATM   11  OXT UNL     1      -8.316  13.777  66.960  1.00  0.00    -0.176 OA 
HETATM   12  O   UNL     1      -6.025  10.437  68.770  1.00  0.00    -0.041 OA 
ENDROOT
BRANCH   4  13
HETATM   13  C   UNL     1     -10.138  12.401  65.390  1.00  0.00    -0.269 C  
BRANCH  13  14
HETATM   14  S   UNL     1     -11.752  12.111  66.200  1.00  0.00    -0.224 SA 
BRANCH  14  15
HETATM   15  C   UNL     1     -11.660  13.307  67.452  1.00  0.00    -0.353 A  
HETATM   16  N   UNL     1     -12.099  14.543  67.349  1.00  0.00    -0.337 NA 
HETATM   17  N   UNL     1     -11.872  15.136  68.565  1.00  0.00    -0.314 NA 
HETATM   18  N   UNL     1     -11.153  13.136  68.712  1.00  0.00    -0.260 NA 
HETATM   19  N   UNL     1     -11.307  14.286  69.408  1.00  0.00    -0.271 NA 
BRANCH  18  20
HETATM   20  C   UNL     1     -10.668  11.980  69.410  1.00  0.00     0.076 C  
HETATM   21  O   UNL     1     -11.393   9.778  70.641  1.00  0.00    -0.279 OA 
HETATM   22  O   UNL     1     -13.039  10.949  69.273  1.00  0.00     0.129 OA 
HETATM   23  O   UNL     1     -12.372  11.966  71.438  1.00  0.00    -0.200 OA 
HETATM   24  S   UNL     1     -11.875  11.115  70.383  1.00  0.00    -0.356 S  
ENDBRANCH  18  20
ENDBRANCH  14  15
ENDBRANCH  13  14
ENDBRANCH   4  13
BRANCH   8  25
HETATM   25  N   UNL     1      -7.080   7.394  67.855  1.00  0.00    -0.082 N  
HETATM   26  C   UNL     1      -6.556   6.699  68.925  1.00  0.00    -0.051 C  
HETATM   27  H   UNL     1      -8.026   7.159  67.554  1.00  0.00     0.000 HD 
HETATM   28  O   UNL     1      -5.410   6.858  69.334  1.00  0.00    -0.014 OA 
BRANCH  26  29
HETATM   29  C   UNL     1      -7.569   5.719  69.558  1.00  0.00    -0.087 C  
HETATM   30  O   UNL     1      -7.692   5.986  70.963  1.00  0.00    -0.097 OA 
HETATM   31  H   UNL     1      -8.315   5.384  71.352  1.00  0.00     0.000 HD 
BRANCH  29  32
HETATM   32  C   UNL     1      -7.169   4.273  69.355  1.00  0.00    -0.051 A  
HETATM   33  C   UNL     1      -7.142   3.392  70.447  1.00  0.00    -0.034 A  
HETATM   34  C   UNL     1      -6.835   3.774  68.084  1.00  0.00    -0.047 A  
HETATM   35  C   UNL     1      -6.458   2.440  67.917  1.00  0.00    -0.029 A  
HETATM   36  C   UNL     1      -6.417   1.584  69.014  1.00  0.00    -0.025 A  
HETATM   37  C   UNL     1      -6.764   2.059  70.277  1.00  0.00    -0.032 A  
ENDBRANCH  29  32
ENDBRANCH  26  29
ENDBRANCH   8  25
TORSDOF 7
ENDMDL
MODEL      249
REMARK 921   NORMALIZED FREE ENERGY PREDICTED BY IDOCK:   -3.81 KCAL/MOL
REMARK 922        TOTAL FREE ENERGY PREDICTED BY IDOCK:   -6.33 KCAL/MOL
REMARK 923 INTER-LIGAND FREE ENERGY PREDICTED BY IDOCK:   -7.46 KCAL/MOL
REMARK 924 INTRA-LIGAND FREE ENERGY PREDICTED BY IDOCK:    1.13 KCAL/MOL
REMARK 927      BINDING AFFINITY PREDICTED BY RF-SCORE:    0.00 PKD
ROOT
HETATM    1  C   UNL     1      -7.793   8.898  66.703  1.00  0.00    -0.100 C  
HETATM    2  S   UNL     1      -9.536   8.777  66.249  1.00  0.00    -0.255 SA 
HETATM    3  C   UNL     1      -9.604  10.419  65.496  1.00  0.00    -0.234 C  
HETATM    4  C   UNL     1      -8.929  11.535  66.287  1.00  0.00    -0.199 C  
HETATM    5  C   UNL     1      -7.007   9.371  68.578  1.00  0.00    -0.066 C  
HETATM    6  CA  UNL     1      -8.020  11.321  67.286  1.00  0.00    -0.141 C  
HETATM    7  C   UNL     1      -7.491  12.498  68.084  1.00  0.00    -0.117 C  
HETATM    8  CA  UNL     1      -7.342   7.994  67.902  1.00  0.00    -0.093 C  
HETATM    9  N   UNL     1      -7.616  10.040  67.577  1.00  0.00    -0.091 N  
HETATM   10  O   UNL     1      -6.968  12.244  69.295  1.00  0.00    -0.083 OA 
HETATM   11  OXT UNL     1      -7.528  13.654  67.680  1.00  0.00    -0.153 OA 
HETATM   12  O   UNL     1      -6.546   9.785  69.618  1.00  0.00    -0.044 OA 
ENDROOT
BRANCH   4  13
HETATM   13  C   UNL     1      -9.548  12.896  65.942  1.00  0.00    -0.124 C  
BRANCH  13  14
HETATM   14  S   UNL     1     -11.374  12.922  66.044  1.00  0.00    -0.333 SA 
BRANCH  14  15
HETATM   15  C   UNL     1     -11.568  13.972  67.410  1.00  0.00    -0.368 A  
HETATM   16  N   UNL     1     -11.917  13.585  68.618  1.00  0.00    -0.358 NA 
HETATM   17  N   UNL     1     -11.915  14.712  69.400  1.00  0.00    -0.314 NA 
HETATM   18  N   UNL     1     -11.363  15.326  67.437  1.00  0.00    -0.318 NA 
HETATM   19  N   UNL     1     -11.567  15.777  68.696  1.00  0.00    -0.385 NA 
BRANCH  18  20
HETATM   20  C   UNL     1     -10.854  16.246  66.461  1.00  0.00    -0.105 C  
HETATM   21  O   UNL     1      -8.957  17.994  65.969  1.00  0.00    -0.502 OA 
HETATM   22  O   UNL     1      -8.693  16.484  67.867  1.00  0.00    -0.184 OA 
HETATM   23  O   UNL     1     -10.363  18.313  68.044  1.00  0.00    -0.368 OA 
HETATM   24  S   UNL     1      -9.713  17.459  67.078  1.00  0.00    -0.287 S  
ENDBRANCH  18  20
ENDBRANCH  14  15
ENDBRANCH  13  14
ENDBRANCH   4  13
BRANCH   8  25
HETATM   25  N   UNL     1      -8.413   7.212  68.568  1.00  0.00    -0.124 N  
HETATM   26  C   UNL     1      -9.330   7.737  69.454  1.00  0.00    -0.152 C  
HETATM   27  H   UNL     1      -8.475   6.216  68.355  1.00  0.00     0.000 HD 
HETATM   28  O   UNL     1      -9.314   8.906  69.826  1.00  0.00    -0.158 OA 
BRANCH  26  29
HETATM   29  C   UNL     1     -10.384   6.702  69.909  1.00  0.00    -0.200 C  
HETATM   30  O   UNL     1     -10.558   6.779  71.332  1.00  0.00    -0.218 OA 
HETATM   31  H   UNL     1     -11.206   6.143  71.612  1.00  0.00     0.000 HD 
BRANCH  29  32
HETATM   32  C   UNL     1     -10.001   5.289  69.525  1.00  0.00    -0.297 A  
HETATM   33  C   UNL     1      -9.683   4.353  70.521  1.00  0.00    -0.287 A  
HETATM   34  C   UNL     1      -9.970   4.875  68.182  1.00  0.00    -0.171 A  
HETATM   35  C   UNL     1      -9.604   3.571  67.845  1.00  0.00    -0.177 A  
HETATM   36  C   UNL     1      -9.272   2.659  68.844  1.00  0.00    -0.224 A  
HETATM   37  C   UNL     1      -9.317   3.049  70.182  1.00  0.00    -0.229 A  
ENDBRANCH  29  32
ENDBRANCH  26  29
ENDBRANCH   8  25
TORSDOF 7
ENDMDL
MODEL      250
REMARK 921   NORMALIZED FREE ENERGY PREDICTED BY IDOCK:   -3.80 KCAL/MOL
REMARK 922        TOTAL FREE ENERGY PREDICTED BY IDOCK:   -6.32 KCAL/MOL
REMARK 923 INTER-LIGAND FREE ENERGY PREDICTED BY IDOCK:   -5.32 KCAL/MOL
REMARK 924 INTRA-LIGAND FREE ENERGY PREDICTED BY IDOCK:   -1.00 KCAL/MOL
REMARK 927      BINDING AFFINITY PREDICTED BY RF-SCORE:    0.00 PKD
ROOT
HETATM    1  C   UNL     1     -10.592   7.399  68.486  1.00  0.00    -0.153 C  
HETATM    2  S   UNL     1     -10.132   8.976  69.235  1.00  0.00    -0.201 SA 
HETATM    3  C   UNL     1      -9.147   9.526  67.822  1.00  0.00    -0.125 C  
HETATM    4  C   UNL     1      -8.213   8.478  67.223  1.00  0.00    -0.108 C  
HETATM    5  C   UNL     1      -9.732   5.531  68.847  1.00  0.00    -0.144 C  
HETATM    6  CA  UNL     1      -8.333   7.134  67.441  1.00  0.00    -0.119 C  
HETATM    7  C   UNL     1      -7.286   6.186  66.886  1.00  0.00    -0.082 C  
HETATM    8  CA  UNL     1     -10.966   6.256  69.492  1.00  0.00    -0.379 C  
HETATM    9  N   UNL     1      -9.386   6.655  68.185  1.00  0.00    -0.116 N  
HETATM   10  O   UNL     1      -7.176   4.975  67.458  1.00  0.00    -0.068 OA 
HETATM   11  OXT UNL     1      -6.542   6.478  65.958  1.00  0.00    -0.045 OA 
HETATM   12  O   UNL     1      -9.147   4.476  68.940  1.00  0.00    -0.107 OA 
ENDROOT
BRANCH   4  13
HETATM   13  C   UNL     1      -7.029   9.148  66.513  1.00  0.00    -0.080 C  
BRANCH  13  14
HETATM   14  S   UNL     1      -5.459   9.047  67.445  1.00  0.00    -0.042 SA 
BRANCH  14  15
HETATM   15  C   UNL     1      -5.937   9.861  68.899  1.00  0.00    -0.037 A  
HETATM   16  N   UNL     1      -6.272   9.266  70.023  1.00  0.00    -0.041 NA 
HETATM   17  N   UNL     1      -6.540  10.265  70.924  1.00  0.00    -0.343 NA 
HETATM   18  N   UNL     1      -6.007  11.214  69.093  1.00  0.00    -0.042 NA 
HETATM   19  N   UNL     1      -6.370  11.456  70.374  1.00  0.00    -0.273 NA 
BRANCH  18  20
HETATM   20  C   UNL     1      -5.635  12.330  68.271  1.00  0.00    -0.054 C  
HETATM   21  O   UNL     1      -6.465  14.615  67.282  1.00  0.00    -0.298 OA 
HETATM   22  O   UNL     1      -7.747  13.587  69.084  1.00  0.00     0.046 OA 
HETATM   23  O   UNL     1      -7.847  12.549  66.830  1.00  0.00    -0.102 OA 
HETATM   24  S   UNL     1      -6.981  13.328  67.684  1.00  0.00    -0.150 S  
ENDBRANCH  18  20
ENDBRANCH  14  15
ENDBRANCH  13  14
ENDBRANCH   4  13
BRANCH   8  25
HETATM   25  N   UNL     1     -10.821   6.583  70.933  1.00  0.00    -0.241 N  
HETATM   26  C   UNL     1     -10.648   5.649  71.933  1.00  0.00    -0.232 C  
HETATM   27  H   UNL     1     -10.852   7.566  71.202  1.00  0.00     0.000 HD 
HETATM   28  O   UNL     1     -10.653   4.439  71.732  1.00  0.00    -0.063 OA 
BRANCH  26  29
HETATM   29  C   UNL     1     -10.430   6.291  73.322  1.00  0.00    -0.248 C  
HETATM   30  O   UNL     1     -11.285   7.435  73.468  1.00  0.00    -0.590 OA 
HETATM   31  H   UNL     1     -11.151   7.830  74.322  1.00  0.00     0.000 HD 
BRANCH  29  32
HETATM   32  C   UNL     1      -8.991   6.708  73.539  1.00  0.00    -0.143 A  
HETATM   33  C   UNL     1      -7.987   5.734  73.646  1.00  0.00    -0.108 A  
HETATM   34  C   UNL     1      -8.622   8.062  73.622  1.00  0.00    -0.322 A  
HETATM   35  C   UNL     1      -7.292   8.428  73.833  1.00  0.00    -0.165 A  
HETATM   36  C   UNL     1      -6.310   7.449  73.957  1.00  0.00    -0.076 A  
HETATM   37  C   UNL     1      -6.657   6.102  73.858  1.00  0.00    -0.071 A  
ENDBRANCH  29  32
ENDBRANCH  26  29
ENDBRANCH   8  25
TORSDOF 7
ENDMDL
MODEL      251
REMARK 921   NORMALIZED FREE ENERGY PREDICTED BY IDOCK:   -3.78 KCAL/MOL
REMARK 922        TOTAL FREE ENERGY PREDICTED BY IDOCK:   -6.30 KCAL/MOL
REMARK 923 INTER-LIGAND FREE ENERGY PREDICTED BY IDOCK:   -7.08 KCAL/MOL
REMARK 924 INTRA-LIGAND FREE ENERGY PREDICTED BY IDOCK:    0.78 KCAL/MOL
REMARK 927      BINDING AFFINITY PREDICTED BY RF-SCORE:    0.00 PKD
ROOT
HETATM    1  C   UNL     1      -8.190  10.143  67.166  1.00  0.00    -0.121 C  
HETATM    2  S   UNL     1      -9.785  10.974  67.323  1.00  0.00    -0.167 SA 
HETATM    3  C   UNL     1      -9.107  12.634  67.088  1.00  0.00    -0.210 C  
HETATM    4  C   UNL     1      -7.827  12.937  67.860  1.00  0.00    -0.151 C  
HETATM    5  C   UNL     1      -6.973   9.448  68.713  1.00  0.00    -0.064 C  
HETATM    6  CA  UNL     1      -7.013  11.978  68.396  1.00  0.00    -0.080 C  
HETATM    7  C   UNL     1      -5.820  12.390  69.238  1.00  0.00    -0.085 C  
HETATM    8  CA  UNL     1      -8.087   8.742  67.862  1.00  0.00    -0.107 C  
HETATM    9  N   UNL     1      -7.298  10.648  68.189  1.00  0.00    -0.087 N  
HETATM   10  O   UNL     1      -5.314  11.480  70.088  1.00  0.00    -0.074 OA 
HETATM   11  OXT UNL     1      -5.313  13.503  69.184  1.00  0.00    -0.073 OA 
HETATM   12  O   UNL     1      -6.197   9.175  69.600  1.00  0.00    -0.038 OA 
ENDROOT
BRANCH   4  13
HETATM   13  C   UNL     1      -7.688  14.444  68.111  1.00  0.00    -0.131 C  
BRANCH  13  14
HETATM   14  S   UNL     1      -8.519  15.481  66.854  1.00  0.00    -0.273 SA 
BRANCH  14  15
HETATM   15  C   UNL     1     -10.080  15.627  67.594  1.00  0.00    -0.248 A  
HETATM   16  N   UNL     1     -10.422  16.556  68.460  1.00  0.00    -0.282 NA 
HETATM   17  N   UNL     1     -11.742  16.337  68.761  1.00  0.00    -0.247 NA 
HETATM   18  N   UNL     1     -11.171  14.831  67.368  1.00  0.00    -0.328 NA 
HETATM   19  N   UNL     1     -12.213  15.296  68.093  1.00  0.00     0.080 NA 
BRANCH  18  20
HETATM   20  C   UNL     1     -11.412  13.763  66.440  1.00  0.00    -0.336 C  
HETATM   21  O   UNL     1     -12.237  13.199  64.013  1.00  0.00    -0.468 OA 
HETATM   22  O   UNL     1     -11.696  15.515  64.555  1.00  0.00    -0.382 OA 
HETATM   23  O   UNL     1     -13.769  14.537  65.511  1.00  0.00    -0.103 OA 
HETATM   24  S   UNL     1     -12.447  14.174  65.057  1.00  0.00    -0.373 S  
ENDBRANCH  18  20
ENDBRANCH  14  15
ENDBRANCH  13  14
ENDBRANCH   4  13
BRANCH   8  25
HETATM   25  N   UNL     1      -9.281   8.305  68.628  1.00  0.00    -0.143 N  
HETATM   26  C   UNL     1      -9.341   7.163  69.399  1.00  0.00    -0.147 C  
HETATM   27  H   UNL     1     -10.115   8.890  68.582  1.00  0.00     0.000 HD 
HETATM   28  O   UNL     1      -8.419   6.358  69.482  1.00  0.00    -0.130 OA 
BRANCH  26  29
HETATM   29  C   UNL     1     -10.681   7.020  70.156  1.00  0.00    -0.240 C  
HETATM   30  O   UNL     1     -11.439   8.233  70.037  1.00  0.00    -0.457 OA 
HETATM   31  H   UNL     1     -12.262   8.146  70.502  1.00  0.00     0.000 HD 
BRANCH  29  32
HETATM   32  C   UNL     1     -10.478   6.696  71.621  1.00  0.00    -0.232 A  
HETATM   33  C   UNL     1     -10.498   5.361  72.053  1.00  0.00    -0.278 A  
HETATM   34  C   UNL     1     -10.250   7.704  72.573  1.00  0.00    -0.298 A  
HETATM   35  C   UNL     1     -10.076   7.388  73.921  1.00  0.00    -0.245 A  
HETATM   36  C   UNL     1     -10.119   6.060  74.337  1.00  0.00    -0.316 A  
HETATM   37  C   UNL     1     -10.325   5.046  73.402  1.00  0.00    -0.243 A  
ENDBRANCH  29  32
ENDBRANCH  26  29
ENDBRANCH   8  25
TORSDOF 7
ENDMDL
MODEL      252
REMARK 921   NORMALIZED FREE ENERGY PREDICTED BY IDOCK:   -3.78 KCAL/MOL
REMARK 922        TOTAL FREE ENERGY PREDICTED BY IDOCK:   -6.29 KCAL/MOL
REMARK 923 INTER-LIGAND FREE ENERGY PREDICTED BY IDOCK:   -5.25 KCAL/MOL
REMARK 924 INTRA-LIGAND FREE ENERGY PREDICTED BY IDOCK:   -1.04 KCAL/MOL
REMARK 927      BINDING AFFINITY PREDICTED BY RF-SCORE:    0.00 PKD
ROOT
HETATM    1  C   UNL     1      -6.215   7.097  66.880  1.00  0.00    -0.045 C  
HETATM    2  S   UNL     1      -7.850   6.884  66.144  1.00  0.00    -0.106 SA 
HETATM    3  C   UNL     1      -7.913   8.552  65.448  1.00  0.00    -0.113 C  
HETATM    4  C   UNL     1      -7.456   9.671  66.378  1.00  0.00    -0.094 C  
HETATM    5  C   UNL     1      -5.776   7.533  68.874  1.00  0.00    -0.023 C  
HETATM    6  CA  UNL     1      -6.706   9.471  67.504  1.00  0.00    -0.067 C  
HETATM    7  C   UNL     1      -6.397  10.641  68.418  1.00  0.00    -0.054 C  
HETATM    8  CA  UNL     1      -5.899   6.170  68.105  1.00  0.00    -0.012 C  
HETATM    9  N   UNL     1      -6.263   8.206  67.811  1.00  0.00    -0.051 N  
HETATM   10  O   UNL     1      -6.058  10.366  69.689  1.00  0.00    -0.043 OA 
HETATM   11  OXT UNL     1      -6.451  11.809  68.054  1.00  0.00    -0.053 OA 
HETATM   12  O   UNL     1      -5.519   7.927  69.989  1.00  0.00    -0.023 OA 
ENDROOT
BRANCH   4  13
HETATM   13  C   UNL     1      -8.107  11.004  65.984  1.00  0.00    -0.110 C  
BRANCH  13  14
HETATM   14  S   UNL     1      -9.672  11.347  66.865  1.00  0.00    -0.195 SA 
BRANCH  14  15
HETATM   15  C   UNL     1      -9.989  12.944  66.270  1.00  0.00    -0.270 A  
HETATM   16  N   UNL     1     -10.874  13.244  65.343  1.00  0.00    -0.286 NA 
HETATM   17  N   UNL     1     -10.835  14.607  65.198  1.00  0.00    -0.373 NA 
HETATM   18  N   UNL     1      -9.397  14.106  66.687  1.00  0.00    -0.283 NA 
HETATM   19  N   UNL     1      -9.948  15.145  66.020  1.00  0.00    -0.289 NA 
BRANCH  18  20
HETATM   20  C   UNL     1      -8.472  14.393  67.746  1.00  0.00    -0.173 C  
HETATM   21  O   UNL     1      -8.275  15.124  70.259  1.00  0.00     0.299 OA 
HETATM   22  O   UNL     1     -10.447  14.399  69.419  1.00  0.00    -0.190 OA 
HETATM   23  O   UNL     1      -9.581  16.608  68.685  1.00  0.00    -0.231 OA 
HETATM   24  S   UNL     1      -9.140  15.302  69.117  1.00  0.00    -0.231 S  
ENDBRANCH  18  20
ENDBRANCH  14  15
ENDBRANCH  13  14
ENDBRANCH   4  13
BRANCH   8  25
HETATM   25  N   UNL     1      -7.005   5.289  68.558  1.00  0.00    -0.056 N  
HETATM   26  C   UNL     1      -7.022   4.610  69.758  1.00  0.00    -0.052 C  
HETATM   27  H   UNL     1      -7.807   5.179  67.939  1.00  0.00     0.000 HD 
HETATM   28  O   UNL     1      -6.087   4.624  70.553  1.00  0.00    -0.017 OA 
BRANCH  26  29
HETATM   29  C   UNL     1      -8.346   3.850  69.998  1.00  0.00    -0.056 C  
HETATM   30  O   UNL     1      -8.727   3.147  68.806  1.00  0.00    -0.082 OA 
HETATM   31  H   UNL     1      -9.540   2.680  68.952  1.00  0.00     0.000 HD 
BRANCH  29  32
HETATM   32  C   UNL     1      -9.469   4.775  70.416  1.00  0.00    -0.241 A  
HETATM   33  C   UNL     1      -9.696   5.033  71.777  1.00  0.00    -0.218 A  
HETATM   34  C   UNL     1     -10.293   5.407  69.469  1.00  0.00    -0.350 A  
HETATM   35  C   UNL     1     -11.330   6.249  69.872  1.00  0.00    -0.504 A  
HETATM   36  C   UNL     1     -11.555   6.479  71.227  1.00  0.00    -0.381 A  
HETATM   37  C   UNL     1     -10.734   5.875  72.178  1.00  0.00    -0.278 A  
ENDBRANCH  29  32
ENDBRANCH  26  29
ENDBRANCH   8  25
TORSDOF 7
ENDMDL
MODEL      253
REMARK 921   NORMALIZED FREE ENERGY PREDICTED BY IDOCK:   -3.77 KCAL/MOL
REMARK 922        TOTAL FREE ENERGY PREDICTED BY IDOCK:   -6.28 KCAL/MOL
REMARK 923 INTER-LIGAND FREE ENERGY PREDICTED BY IDOCK:   -7.65 KCAL/MOL
REMARK 924 INTRA-LIGAND FREE ENERGY PREDICTED BY IDOCK:    1.37 KCAL/MOL
REMARK 927      BINDING AFFINITY PREDICTED BY RF-SCORE:    0.00 PKD
ROOT
HETATM    1  C   UNL     1     -10.045   8.791  66.394  1.00  0.00    -0.243 C  
HETATM    2  S   UNL     1      -9.674   9.367  68.064  1.00  0.00    -0.149 SA 
HETATM    3  C   UNL     1     -10.685  10.860  67.930  1.00  0.00    -0.231 C  
HETATM    4  C   UNL     1     -10.537  11.640  66.628  1.00  0.00    -0.281 C  
HETATM    5  C   UNL     1      -8.847   8.987  64.696  1.00  0.00    -0.096 C  
HETATM    6  CA  UNL     1      -9.998  11.121  65.483  1.00  0.00    -0.249 C  
HETATM    7  C   UNL     1      -9.797  12.016  64.275  1.00  0.00    -0.169 C  
HETATM    8  CA  UNL     1      -8.977   7.836  65.756  1.00  0.00    -0.066 C  
HETATM    9  N   UNL     1      -9.619   9.800  65.447  1.00  0.00    -0.275 N  
HETATM   10  O   UNL     1      -8.900  11.626  63.353  1.00  0.00     0.112 OA 
HETATM   11  OXT UNL     1     -10.402  13.068  64.110  1.00  0.00    -0.419 OA 
HETATM   12  O   UNL     1      -8.228   9.224  63.684  1.00  0.00    -0.146 OA 
ENDROOT
BRANCH   4  13
HETATM   13  C   UNL     1     -10.891  13.119  66.837  1.00  0.00    -0.265 C  
BRANCH  13  14
HETATM   14  S   UNL     1     -12.517  13.592  66.147  1.00  0.00    -0.303 SA 
BRANCH  14  15
HETATM   15  C   UNL     1     -12.033  14.950  65.184  1.00  0.00    -0.210 A  
HETATM   16  N   UNL     1     -12.444  15.192  63.958  1.00  0.00    -0.738 NA 
HETATM   17  N   UNL     1     -11.859  16.373  63.580  1.00  0.00    -0.547 NA 
HETATM   18  N   UNL     1     -11.191  15.962  65.561  1.00  0.00    -0.126 NA 
HETATM   19  N   UNL     1     -11.103  16.859  64.553  1.00  0.00    -1.071 NA 
BRANCH  18  20
HETATM   20  C   UNL     1     -10.563  16.281  66.810  1.00  0.00    -0.257 C  
HETATM   21  O   UNL     1      -8.908  17.936  67.999  1.00  0.00    -0.255 OA 
HETATM   22  O   UNL     1      -9.777  18.530  65.798  1.00  0.00    -0.468 OA 
HETATM   23  O   UNL     1      -8.096  16.708  65.945  1.00  0.00    -0.359 OA 
HETATM   24  S   UNL     1      -9.147  17.347  66.702  1.00  0.00    -0.265 S  
ENDBRANCH  18  20
ENDBRANCH  14  15
ENDBRANCH  13  14
ENDBRANCH   4  13
BRANCH   8  25
HETATM   25  N   UNL     1      -7.759   7.586  66.566  1.00  0.00    -0.095 N  
HETATM   26  C   UNL     1      -7.333   6.339  66.972  1.00  0.00    -0.083 C  
HETATM   27  H   UNL     1      -7.199   8.392  66.841  1.00  0.00     0.000 HD 
HETATM   28  O   UNL     1      -7.958   5.307  66.747  1.00  0.00    -0.103 OA 
BRANCH  26  29
HETATM   29  C   UNL     1      -5.981   6.382  67.720  1.00  0.00    -0.020 C  
HETATM   30  O   UNL     1      -5.321   5.112  67.607  1.00  0.00    -0.010 OA 
HETATM   31  H   UNL     1      -4.491   5.138  68.067  1.00  0.00     0.000 HD 
BRANCH  29  32
HETATM   32  C   UNL     1      -6.149   6.732  69.184  1.00  0.00    -0.026 A  
HETATM   33  C   UNL     1      -6.792   5.836  70.050  1.00  0.00    -0.060 A  
HETATM   34  C   UNL     1      -5.657   7.938  69.712  1.00  0.00    -0.023 A  
HETATM   35  C   UNL     1      -5.830   8.250  71.061  1.00  0.00    -0.033 A  
HETATM   36  C   UNL     1      -6.488   7.359  71.904  1.00  0.00    -0.043 A  
HETATM   37  C   UNL     1      -6.964   6.150  71.400  1.00  0.00    -0.076 A  
ENDBRANCH  29  32
ENDBRANCH  26  29
ENDBRANCH   8  25
TORSDOF 7
ENDMDL
MODEL      254
REMARK 921   NORMALIZED FREE ENERGY PREDICTED BY IDOCK:   -3.71 KCAL/MOL
REMARK 922        TOTAL FREE ENERGY PREDICTED BY IDOCK:   -6.19 KCAL/MOL
REMARK 923 INTER-LIGAND FREE ENERGY PREDICTED BY IDOCK:   -5.34 KCAL/MOL
REMARK 924 INTRA-LIGAND FREE ENERGY PREDICTED BY IDOCK:   -0.86 KCAL/MOL
REMARK 927      BINDING AFFINITY PREDICTED BY RF-SCORE:    0.00 PKD
ROOT
HETATM    1  C   UNL     1      -9.559   8.412  69.790  1.00  0.00    -0.170 C  
HETATM    2  S   UNL     1      -7.820   8.304  70.262  1.00  0.00    -0.096 SA 
HETATM    3  C   UNL     1      -7.457  10.033  69.875  1.00  0.00    -0.167 C  
HETATM    4  C   UNL     1      -8.028  10.545  68.557  1.00  0.00    -0.118 C  
HETATM    5  C   UNL     1     -10.419   7.790  67.992  1.00  0.00    -0.185 C  
HETATM    6  CA  UNL     1      -9.036   9.929  67.869  1.00  0.00    -0.131 C  
HETATM    7  C   UNL     1      -9.455  10.462  66.512  1.00  0.00    -0.167 C  
HETATM    8  CA  UNL     1     -10.230   7.058  69.367  1.00  0.00    -0.189 C  
HETATM    9  N   UNL     1      -9.642   8.814  68.401  1.00  0.00    -0.145 N  
HETATM   10  O   UNL     1     -10.106   9.624  65.687  1.00  0.00    -0.296 OA 
HETATM   11  OXT UNL     1      -9.222  11.605  66.139  1.00  0.00    -0.215 OA 
HETATM   12  O   UNL     1     -10.899   7.569  66.903  1.00  0.00    -0.345 OA 
ENDROOT
BRANCH   4  13
HETATM   13  C   UNL     1      -7.196  11.720  68.025  1.00  0.00    -0.084 C  
BRANCH  13  14
HETATM   14  S   UNL     1      -5.481  11.755  68.662  1.00  0.00    -0.048 SA 
BRANCH  14  15
HETATM   15  C   UNL     1      -5.619  13.076  69.776  1.00  0.00    -0.105 A  
HETATM   16  N   UNL     1      -5.752  12.954  71.080  1.00  0.00    -0.314 NA 
HETATM   17  N   UNL     1      -5.785  14.229  71.585  1.00  0.00    -0.192 NA 
HETATM   18  N   UNL     1      -5.583  14.410  69.472  1.00  0.00    -0.091 NA 
HETATM   19  N   UNL     1      -5.670  15.125  70.618  1.00  0.00    -0.130 NA 
BRANCH  18  20
HETATM   20  C   UNL     1      -5.328  15.117  68.250  1.00  0.00    -0.113 C  
HETATM   21  O   UNL     1      -6.303  16.879  66.566  1.00  0.00    -0.203 OA 
HETATM   22  O   UNL     1      -7.347  16.654  68.760  1.00  0.00    -0.194 OA 
HETATM   23  O   UNL     1      -7.698  14.841  67.100  1.00  0.00    -0.200 OA 
HETATM   24  S   UNL     1      -6.749  15.858  67.486  1.00  0.00    -0.198 S  
ENDBRANCH  18  20
ENDBRANCH  14  15
ENDBRANCH  13  14
ENDBRANCH   4  13
BRANCH   8  25
HETATM   25  N   UNL     1      -9.339   5.872  69.332  1.00  0.00    -0.129 N  
HETATM   26  C   UNL     1      -9.493   4.754  70.124  1.00  0.00    -0.175 C  
HETATM   27  H   UNL     1      -8.558   5.885  68.676  1.00  0.00     0.000 HD 
HETATM   28  O   UNL     1     -10.360   4.653  70.985  1.00  0.00    -0.176 OA 
BRANCH  26  29
HETATM   29  C   UNL     1      -8.471   3.641  69.795  1.00  0.00    -0.053 C  
HETATM   30  O   UNL     1      -7.219   3.926  70.436  1.00  0.00    -0.040 OA 
HETATM   31  H   UNL     1      -6.590   3.243  70.235  1.00  0.00     0.000 HD 
BRANCH  29  32
HETATM   32  C   UNL     1      -8.250   3.490  68.305  1.00  0.00    -0.091 A  
HETATM   33  C   UNL     1      -7.058   3.948  67.723  1.00  0.00    -0.056 A  
HETATM   34  C   UNL     1      -9.209   2.881  67.478  1.00  0.00    -0.233 A  
HETATM   35  C   UNL     1      -8.993   2.759  66.104  1.00  0.00    -0.145 A  
HETATM   36  C   UNL     1      -7.814   3.236  65.538  1.00  0.00    -0.085 A  
HETATM   37  C   UNL     1      -6.844   3.825  66.349  1.00  0.00    -0.057 A  
ENDBRANCH  29  32
ENDBRANCH  26  29
ENDBRANCH   8  25
TORSDOF 7
ENDMDL
MODEL      255
REMARK 921   NORMALIZED FREE ENERGY PREDICTED BY IDOCK:   -3.60 KCAL/MOL
REMARK 922        TOTAL FREE ENERGY PREDICTED BY IDOCK:   -6.05 KCAL/MOL
REMARK 923 INTER-LIGAND FREE ENERGY PREDICTED BY IDOCK:   -7.02 KCAL/MOL
REMARK 924 INTRA-LIGAND FREE ENERGY PREDICTED BY IDOCK:    0.98 KCAL/MOL
REMARK 927      BINDING AFFINITY PREDICTED BY RF-SCORE:    0.00 PKD
ROOT
HETATM    1  C   UNL     1     -11.571  14.564  67.760  1.00  0.00    -0.365 C  
HETATM    2  S   UNL     1     -10.476  13.199  67.316  1.00  0.00    -0.243 SA 
HETATM    3  C   UNL     1     -11.572  11.917  67.967  1.00  0.00    -0.332 C  
HETATM    4  C   UNL     1     -12.184  12.206  69.334  1.00  0.00    -0.135 C  
HETATM    5  C   UNL     1     -11.417  15.815  69.424  1.00  0.00    -0.355 C  
HETATM    6  CA  UNL     1     -12.241  13.450  69.899  1.00  0.00    -0.271 C  
HETATM    7  C   UNL     1     -12.773  13.610  71.311  1.00  0.00    -0.361 C  
HETATM    8  CA  UNL     1     -10.873  15.954  67.958  1.00  0.00    -0.317 C  
HETATM    9  N   UNL     1     -11.791  14.540  69.191  1.00  0.00    -0.309 N  
HETATM   10  O   UNL     1     -12.423  14.719  71.985  1.00  0.00    -0.316 OA 
HETATM   11  OXT UNL     1     -13.488  12.780  71.857  1.00  0.00    -0.450 OA 
HETATM   12  O   UNL     1     -11.421  16.448  70.456  1.00  0.00    -0.328 OA 
ENDROOT
BRANCH   4  13
HETATM   13  C   UNL     1     -12.542  10.899  70.055  1.00  0.00    -0.187 C  
BRANCH  13  14
HETATM   14  S   UNL     1     -11.178  10.216  71.064  1.00  0.00    -0.125 SA 
BRANCH  14  15
HETATM   15  C   UNL     1     -10.735   8.868  70.068  1.00  0.00    -0.228 A  
HETATM   16  N   UNL     1     -11.353   7.707  70.048  1.00  0.00    -0.138 NA 
HETATM   17  N   UNL     1     -10.714   6.946  69.103  1.00  0.00    -0.229 NA 
HETATM   18  N   UNL     1      -9.715   8.826  69.156  1.00  0.00    -0.172 NA 
HETATM   19  N   UNL     1      -9.722   7.620  68.543  1.00  0.00    -0.155 NA 
BRANCH  18  20
HETATM   20  C   UNL     1      -8.811   9.828  68.669  1.00  0.00    -0.126 C  
HETATM   21  O   UNL     1      -7.876  10.982  66.504  1.00  0.00    -0.146 OA 
HETATM   22  O   UNL     1      -9.878   9.600  66.322  1.00  0.00    -0.218 OA 
HETATM   23  O   UNL     1      -7.697   8.468  66.688  1.00  0.00    -0.088 OA 
HETATM   24  S   UNL     1      -8.391   9.707  66.948  1.00  0.00    -0.117 S  
ENDBRANCH  18  20
ENDBRANCH  14  15
ENDBRANCH  13  14
ENDBRANCH   4  13
BRANCH   8  25
HETATM   25  N   UNL     1      -9.394  15.964  67.835  1.00  0.00    -0.207 N  
HETATM   26  C   UNL     1      -8.523  15.598  68.840  1.00  0.00    -0.213 C  
HETATM   27  H   UNL     1      -8.994  16.262  66.946  1.00  0.00     0.000 HD 
HETATM   28  O   UNL     1      -8.890  15.278  69.966  1.00  0.00    -0.020 OA 
BRANCH  26  29
HETATM   29  C   UNL     1      -7.045  15.617  68.389  1.00  0.00    -0.115 C  
HETATM   30  O   UNL     1      -6.960  16.033  67.018  1.00  0.00    -0.206 OA 
HETATM   31  H   UNL     1      -6.052  16.045  66.740  1.00  0.00     0.000 HD 
BRANCH  29  32
HETATM   32  C   UNL     1      -6.382  14.265  68.546  1.00  0.00    -0.092 A  
HETATM   33  C   UNL     1      -6.363  13.364  67.470  1.00  0.00    -0.112 A  
HETATM   34  C   UNL     1      -5.760  13.886  69.748  1.00  0.00    -0.110 A  
HETATM   35  C   UNL     1      -5.163  12.631  69.878  1.00  0.00    -0.087 A  
HETATM   36  C   UNL     1      -5.170  11.740  68.809  1.00  0.00    -0.049 A  
HETATM   37  C   UNL     1      -5.765  12.109  67.603  1.00  0.00    -0.101 A  
ENDBRANCH  29  32
ENDBRANCH  26  29
ENDBRANCH   8  25
TORSDOF 7
ENDMDL
MODEL      256
REMARK 921   NORMALIZED FREE ENERGY PREDICTED BY IDOCK:   -3.59 KCAL/MOL
REMARK 922        TOTAL FREE ENERGY PREDICTED BY IDOCK:   -6.03 KCAL/MOL
REMARK 923 INTER-LIGAND FREE ENERGY PREDICTED BY IDOCK:   -5.65 KCAL/MOL
REMARK 924 INTRA-LIGAND FREE ENERGY PREDICTED BY IDOCK:   -0.38 KCAL/MOL
REMARK 927      BINDING AFFINITY PREDICTED BY RF-SCORE:    0.00 PKD
ROOT
HETATM    1  C   UNL     1      -9.279  16.392  69.182  1.00  0.00    -0.216 C  
HETATM    2  S   UNL     1     -10.082  16.070  67.598  1.00  0.00    -0.250 SA 
HETATM    3  C   UNL     1      -9.951  14.272  67.732  1.00  0.00    -0.227 C  
HETATM    4  C   UNL     1      -8.601  13.744  68.209  1.00  0.00    -0.175 C  
HETATM    5  C   UNL     1      -7.291  16.945  69.500  1.00  0.00     0.106 C  
HETATM    6  CA  UNL     1      -7.665  14.508  68.849  1.00  0.00    -0.132 C  
HETATM    7  C   UNL     1      -6.311  13.912  69.185  1.00  0.00    -0.107 C  
HETATM    8  CA  UNL     1      -8.597  17.797  69.321  1.00  0.00     0.288 C  
HETATM    9  N   UNL     1      -7.949  15.818  69.157  1.00  0.00    -0.217 N  
HETATM   10  O   UNL     1      -5.292  14.762  69.398  1.00  0.00    -0.087 OA 
HETATM   11  OXT UNL     1      -6.108  12.706  69.259  1.00  0.00    -0.085 OA 
HETATM   12  O   UNL     1      -6.111  17.121  69.702  1.00  0.00    -0.226 OA 
ENDROOT
BRANCH   4  13
HETATM   13  C   UNL     1      -8.370  12.313  67.707  1.00  0.00    -0.162 C  
BRANCH  13  14
HETATM   14  S   UNL     1      -8.775  11.024  68.941  1.00  0.00    -0.067 SA 
BRANCH  14  15
HETATM   15  C   UNL     1      -9.418   9.810  67.883  1.00  0.00    -0.130 A  
HETATM   16  N   UNL     1     -10.625   9.294  67.970  1.00  0.00    -0.227 NA 
HETATM   17  N   UNL     1     -10.742   8.409  66.930  1.00  0.00    -0.215 NA 
HETATM   18  N   UNL     1      -8.786   9.243  66.809  1.00  0.00    -0.126 NA 
HETATM   19  N   UNL     1      -9.634   8.377  66.208  1.00  0.00    -0.229 NA 
BRANCH  18  20
HETATM   20  C   UNL     1      -7.528   9.512  66.175  1.00  0.00    -0.100 C  
HETATM   21  O   UNL     1      -6.394  10.617  64.081  1.00  0.00    -0.016 OA 
HETATM   22  O   UNL     1      -8.738  11.113  64.539  1.00  0.00    -0.016 OA 
HETATM   23  O   UNL     1      -8.160   8.853  63.688  1.00  0.00    -0.151 OA 
HETATM   24  S   UNL     1      -7.619   9.950  64.456  1.00  0.00    -0.142 S  
ENDBRANCH  18  20
ENDBRANCH  14  15
ENDBRANCH  13  14
ENDBRANCH   4  13
BRANCH   8  25
HETATM   25  N   UNL     1      -8.625  18.658  68.112  1.00  0.00    -0.298 N  
HETATM   26  C   UNL     1      -7.916  19.833  67.972  1.00  0.00    -0.302 C  
HETATM   27  H   UNL     1      -9.210  18.360  67.332  1.00  0.00     0.000 HD 
HETATM   28  O   UNL     1      -7.227  20.314  68.865  1.00  0.00    -0.164 OA 
BRANCH  26  29
HETATM   29  C   UNL     1      -8.068  20.460  66.568  1.00  0.00    -0.144 C  
HETATM   30  O   UNL     1      -9.387  20.205  66.061  1.00  0.00    -0.565 OA 
HETATM   31  H   UNL     1      -9.481  20.591  65.198  1.00  0.00     0.000 HD 
BRANCH  29  32
HETATM   32  C   UNL     1      -7.043  19.929  65.589  1.00  0.00    -0.337 A  
HETATM   33  C   UNL     1      -6.436  20.796  64.668  1.00  0.00    -0.281 A  
HETATM   34  C   UNL     1      -6.662  18.576  65.585  1.00  0.00    -0.300 A  
HETATM   35  C   UNL     1      -5.723  18.101  64.669  1.00  0.00     0.181 A  
HETATM   36  C   UNL     1      -5.144  18.970  63.749  1.00  0.00    -0.268 A  
HETATM   37  C   UNL     1      -5.496  20.319  63.752  1.00  0.00    -0.262 A  
ENDBRANCH  29  32
ENDBRANCH  26  29
ENDBRANCH   8  25
TORSDOF 7
ENDMDL
MODEL      257
REMARK 921   NORMALIZED FREE ENERGY PREDICTED BY IDOCK:   -3.59 KCAL/MOL
REMARK 922        TOTAL FREE ENERGY PREDICTED BY IDOCK:   -6.02 KCAL/MOL
REMARK 923 INTER-LIGAND FREE ENERGY PREDICTED BY IDOCK:   -5.74 KCAL/MOL
REMARK 924 INTRA-LIGAND FREE ENERGY PREDICTED BY IDOCK:   -0.28 KCAL/MOL
REMARK 927      BINDING AFFINITY PREDICTED BY RF-SCORE:    0.00 PKD
ROOT
HETATM    1  C   UNL     1      -6.914  10.209  68.246  1.00  0.00    -0.070 C  
HETATM    2  S   UNL     1      -8.563   9.522  67.989  1.00  0.00    -0.119 SA 
HETATM    3  C   UNL     1      -9.001  10.682  66.673  1.00  0.00    -0.150 C  
HETATM    4  C   UNL     1      -8.636  12.140  66.934  1.00  0.00    -0.191 C  
HETATM    5  C   UNL     1      -6.320  11.537  69.744  1.00  0.00    -0.140 C  
HETATM    6  CA  UNL     1      -7.732  12.545  67.877  1.00  0.00    -0.138 C  
HETATM    7  C   UNL     1      -7.524  14.027  68.130  1.00  0.00    -0.131 C  
HETATM    8  CA  UNL     1      -6.295   9.969  69.667  1.00  0.00    -0.053 C  
HETATM    9  N   UNL     1      -7.041  11.606  68.606  1.00  0.00    -0.092 N  
HETATM   10  O   UNL     1      -6.991  14.388  69.310  1.00  0.00    -0.120 OA 
HETATM   11  OXT UNL     1      -7.825  14.895  67.320  1.00  0.00    -0.189 OA 
HETATM   12  O   UNL     1      -6.002  12.414  70.515  1.00  0.00    -0.174 OA 
ENDROOT
BRANCH   4  13
HETATM   13  C   UNL     1      -9.553  13.079  66.139  1.00  0.00    -0.202 C  
BRANCH  13  14
HETATM   14  S   UNL     1     -10.641  14.110  67.188  1.00  0.00    -0.280 SA 
BRANCH  14  15
HETATM   15  C   UNL     1     -11.363  12.867  68.156  1.00  0.00    -0.289 A  
HETATM   16  N   UNL     1     -11.845  11.733  67.695  1.00  0.00    -0.603 NA 
HETATM   17  N   UNL     1     -12.282  11.026  68.786  1.00  0.00    -0.513 NA 
HETATM   18  N   UNL     1     -11.510  12.872  69.518  1.00  0.00    -0.254 NA 
HETATM   19  N   UNL     1     -12.072  11.704  69.904  1.00  0.00    -0.310 NA 
BRANCH  18  20
HETATM   20  C   UNL     1     -11.056  13.776  70.535  1.00  0.00     0.711 C  
HETATM   21  O   UNL     1     -11.838  15.375  72.464  1.00  0.00    -0.400 OA 
HETATM   22  O   UNL     1     -13.445  13.793  71.534  1.00  0.00    -0.334 OA 
HETATM   23  O   UNL     1     -12.784  15.747  70.151  1.00  0.00    -0.302 OA 
HETATM   24  S   UNL     1     -12.291  14.871  71.189  1.00  0.00    -0.356 S  
ENDBRANCH  18  20
ENDBRANCH  14  15
ENDBRANCH  13  14
ENDBRANCH   4  13
BRANCH   8  25
HETATM   25  N   UNL     1      -7.167   9.277  70.649  1.00  0.00    -0.104 N  
HETATM   26  C   UNL     1      -6.964   9.281  72.013  1.00  0.00     0.375 C  
HETATM   27  H   UNL     1      -7.971   8.763  70.290  1.00  0.00     0.000 HD 
HETATM   28  O   UNL     1      -6.000   9.818  72.549  1.00  0.00    -0.292 OA 
BRANCH  26  29
HETATM   29  C   UNL     1      -8.089   8.557  72.788  1.00  0.00    -0.036 C  
HETATM   30  O   UNL     1      -8.020   8.900  74.180  1.00  0.00    -0.348 OA 
HETATM   31  H   UNL     1      -8.710   8.455  74.656  1.00  0.00     0.000 HD 
BRANCH  29  32
HETATM   32  C   UNL     1      -8.009   7.052  72.637  1.00  0.00    -0.106 A  
HETATM   33  C   UNL     1      -6.893   6.356  73.126  1.00  0.00    -0.074 A  
HETATM   34  C   UNL     1      -9.041   6.319  72.027  1.00  0.00    -0.142 A  
HETATM   35  C   UNL     1      -8.946   4.933  71.886  1.00  0.00    -0.152 A  
HETATM   36  C   UNL     1      -7.824   4.260  72.359  1.00  0.00    -0.087 A  
HETATM   37  C   UNL     1      -6.800   4.970  72.984  1.00  0.00    -0.076 A  
ENDBRANCH  29  32
ENDBRANCH  26  29
ENDBRANCH   8  25
TORSDOF 7
ENDMDL
MODEL      258
REMARK 921   NORMALIZED FREE ENERGY PREDICTED BY IDOCK:   -3.57 KCAL/MOL
REMARK 922        TOTAL FREE ENERGY PREDICTED BY IDOCK:   -6.00 KCAL/MOL
REMARK 923 INTER-LIGAND FREE ENERGY PREDICTED BY IDOCK:   -5.14 KCAL/MOL
REMARK 924 INTRA-LIGAND FREE ENERGY PREDICTED BY IDOCK:   -0.86 KCAL/MOL
REMARK 927      BINDING AFFINITY PREDICTED BY RF-SCORE:    0.00 PKD
ROOT
HETATM    1  C   UNL     1      -5.386   7.801  68.011  1.00  0.00    -0.031 C  
HETATM    2  S   UNL     1      -6.119   8.609  66.572  1.00  0.00    -0.058 SA 
HETATM    3  C   UNL     1      -5.492  10.252  66.995  1.00  0.00    -0.041 C  
HETATM    4  C   UNL     1      -5.640  10.656  68.458  1.00  0.00    -0.040 C  
HETATM    5  C   UNL     1      -6.344   7.287  69.793  1.00  0.00    -0.035 C  
HETATM    6  CA  UNL     1      -5.869   9.772  69.476  1.00  0.00    -0.033 C  
HETATM    7  C   UNL     1      -6.108  10.290  70.882  1.00  0.00    -0.027 C  
HETATM    8  CA  UNL     1      -6.089   6.477  68.473  1.00  0.00    -0.025 C  
HETATM    9  N   UNL     1      -5.906   8.423  69.211  1.00  0.00    -0.034 N  
HETATM   10  O   UNL     1      -6.745   9.479  71.744  1.00  0.00    -0.304 OA 
HETATM   11  OXT UNL     1      -5.760  11.403  71.255  1.00  0.00    -0.370 OA 
HETATM   12  O   UNL     1      -6.853   7.119  70.878  1.00  0.00    -0.052 OA 
ENDROOT
BRANCH   4  13
HETATM   13  C   UNL     1      -5.689  12.183  68.598  1.00  0.00    -0.053 C  
BRANCH  13  14
HETATM   14  S   UNL     1      -7.372  12.884  68.448  1.00  0.00    -0.125 SA 
BRANCH  14  15
HETATM   15  C   UNL     1      -6.974  14.446  67.810  1.00  0.00    -0.176 A  
HETATM   16  N   UNL     1      -5.787  14.802  67.367  1.00  0.00    -0.315 NA 
HETATM   17  N   UNL     1      -5.913  16.092  66.920  1.00  0.00    -0.309 NA 
HETATM   18  N   UNL     1      -7.826  15.507  67.653  1.00  0.00    -0.143 NA 
HETATM   19  N   UNL     1      -7.153  16.529  67.077  1.00  0.00    -0.192 NA 
BRANCH  18  20
HETATM   20  C   UNL     1      -9.241  15.645  67.839  1.00  0.00    -0.190 C  
HETATM   21  O   UNL     1     -11.590  14.976  66.876  1.00  0.00    -0.323 OA 
HETATM   22  O   UNL     1      -9.617  13.781  66.083  1.00  0.00    -0.274 OA 
HETATM   23  O   UNL     1      -9.952  16.124  65.333  1.00  0.00    -0.482 OA 
HETATM   24  S   UNL     1     -10.240  15.232  66.431  1.00  0.00    -0.291 S  
ENDBRANCH  18  20
ENDBRANCH  14  15
ENDBRANCH  13  14
ENDBRANCH   4  13
BRANCH   8  25
HETATM   25  N   UNL     1      -7.312   6.093  67.724  1.00  0.00    -0.082 N  
HETATM   26  C   UNL     1      -7.532   4.848  67.173  1.00  0.00    -0.086 C  
HETATM   27  H   UNL     1      -8.040   6.798  67.610  1.00  0.00     0.000 HD 
HETATM   28  O   UNL     1      -6.704   3.943  67.200  1.00  0.00    -0.045 OA 
BRANCH  26  29
HETATM   29  C   UNL     1      -8.935   4.714  66.538  1.00  0.00    -0.113 C  
HETATM   30  O   UNL     1      -9.726   3.786  67.296  1.00  0.00    -0.210 OA 
HETATM   31  H   UNL     1     -10.588   3.703  66.906  1.00  0.00     0.000 HD 
BRANCH  29  32
HETATM   32  C   UNL     1      -8.869   4.257  65.096  1.00  0.00    -0.134 A  
HETATM   33  C   UNL     1      -9.406   3.013  64.729  1.00  0.00    -0.148 A  
HETATM   34  C   UNL     1      -8.293   5.058  64.096  1.00  0.00    -0.133 A  
HETATM   35  C   UNL     1      -8.230   4.617  62.774  1.00  0.00    -0.089 A  
HETATM   36  C   UNL     1      -8.749   3.372  62.429  1.00  0.00    -0.081 A  
HETATM   37  C   UNL     1      -9.342   2.573  63.406  1.00  0.00    -0.097 A  
ENDBRANCH  29  32
ENDBRANCH  26  29
ENDBRANCH   8  25
TORSDOF 7
ENDMDL
MODEL      259
REMARK 921   NORMALIZED FREE ENERGY PREDICTED BY IDOCK:   -3.53 KCAL/MOL
REMARK 922        TOTAL FREE ENERGY PREDICTED BY IDOCK:   -5.94 KCAL/MOL
REMARK 923 INTER-LIGAND FREE ENERGY PREDICTED BY IDOCK:   -5.17 KCAL/MOL
REMARK 924 INTRA-LIGAND FREE ENERGY PREDICTED BY IDOCK:   -0.77 KCAL/MOL
REMARK 927      BINDING AFFINITY PREDICTED BY RF-SCORE:    0.00 PKD
ROOT
HETATM    1  C   UNL     1     -10.902   6.366  68.054  1.00  0.00    -0.316 C  
HETATM    2  S   UNL     1     -10.069   7.947  67.797  1.00  0.00    -0.206 SA 
HETATM    3  C   UNL     1      -9.359   7.478  66.202  1.00  0.00    -0.069 C  
HETATM    4  C   UNL     1      -8.740   6.085  66.141  1.00  0.00    -0.146 C  
HETATM    5  C   UNL     1     -10.254   4.777  69.243  1.00  0.00    -0.074 C  
HETATM    6  CA  UNL     1      -8.996   5.095  67.049  1.00  0.00    -0.112 C  
HETATM    7  C   UNL     1      -8.243   3.781  66.957  1.00  0.00    -0.095 C  
HETATM    8  CA  UNL     1     -11.198   5.993  69.549  1.00  0.00    -0.346 C  
HETATM    9  N   UNL     1      -9.911   5.310  68.052  1.00  0.00    -0.150 N  
HETATM   10  O   UNL     1      -8.179   3.022  68.065  1.00  0.00    -0.076 OA 
HETATM   11  OXT UNL     1      -7.693   3.392  65.935  1.00  0.00    -0.080 OA 
HETATM   12  O   UNL     1      -9.817   3.801  69.809  1.00  0.00    -0.176 OA 
ENDROOT
BRANCH   4  13
HETATM   13  C   UNL     1      -7.663   6.017  65.050  1.00  0.00    -0.097 C  
BRANCH  13  14
HETATM   14  S   UNL     1      -5.960   6.235  65.680  1.00  0.00    -0.026 SA 
BRANCH  14  15
HETATM   15  C   UNL     1      -6.180   7.692  66.594  1.00  0.00    -0.045 A  
HETATM   16  N   UNL     1      -6.437   7.745  67.883  1.00  0.00    -0.050 NA 
HETATM   17  N   UNL     1      -6.495   9.075  68.211  1.00  0.00    -0.055 NA 
HETATM   18  N   UNL     1      -6.093   8.975  66.122  1.00  0.00    -0.058 NA 
HETATM   19  N   UNL     1      -6.275   9.835  67.150  1.00  0.00    -0.063 NA 
BRANCH  18  20
HETATM   20  C   UNL     1      -5.713   9.512  64.847  1.00  0.00    -0.065 C  
HETATM   21  O   UNL     1      -6.618  10.649  62.661  1.00  0.00    -0.134 OA 
HETATM   22  O   UNL     1      -8.085  10.520  64.606  1.00  0.00    -0.148 OA 
HETATM   23  O   UNL     1      -7.612   8.430  63.350  1.00  0.00    -0.114 OA 
HETATM   24  S   UNL     1      -7.035   9.713  63.679  1.00  0.00    -0.115 S  
ENDBRANCH  18  20
ENDBRANCH  14  15
ENDBRANCH  13  14
ENDBRANCH   4  13
BRANCH   8  25
HETATM   25  N   UNL     1     -10.689   6.942  70.570  1.00  0.00    -0.227 N  
HETATM   26  C   UNL     1     -11.105   6.973  71.885  1.00  0.00    -0.242 C  
HETATM   27  H   UNL     1      -9.984   7.619  70.280  1.00  0.00     0.000 HD 
HETATM   28  O   UNL     1     -11.987   6.245  72.330  1.00  0.00    -0.312 OA 
BRANCH  26  29
HETATM   29  C   UNL     1     -10.329   8.004  72.735  1.00  0.00    -0.339 C  
HETATM   30  O   UNL     1      -9.983   9.139  71.927  1.00  0.00    -0.308 OA 
HETATM   31  H   UNL     1      -9.506   9.773  72.449  1.00  0.00     0.000 HD 
BRANCH  29  32
HETATM   32  C   UNL     1      -9.072   7.416  73.341  1.00  0.00    -0.234 A  
HETATM   33  C   UNL     1      -8.897   6.025  73.380  1.00  0.00    -0.126 A  
HETATM   34  C   UNL     1      -8.051   8.234  73.856  1.00  0.00    -0.266 A  
HETATM   35  C   UNL     1      -6.904   7.675  74.420  1.00  0.00    -0.120 A  
HETATM   36  C   UNL     1      -6.755   6.292  74.470  1.00  0.00    -0.082 A  
HETATM   37  C   UNL     1      -7.748   5.467  73.946  1.00  0.00    -0.101 A  
ENDBRANCH  29  32
ENDBRANCH  26  29
ENDBRANCH   8  25
TORSDOF 7
ENDMDL
MODEL      260
REMARK 921   NORMALIZED FREE ENERGY PREDICTED BY IDOCK:   -3.52 KCAL/MOL
REMARK 922        TOTAL FREE ENERGY PREDICTED BY IDOCK:   -5.93 KCAL/MOL
REMARK 923 INTER-LIGAND FREE ENERGY PREDICTED BY IDOCK:   -6.26 KCAL/MOL
REMARK 924 INTRA-LIGAND FREE ENERGY PREDICTED BY IDOCK:    0.34 KCAL/MOL
REMARK 927      BINDING AFFINITY PREDICTED BY RF-SCORE:    0.00 PKD
ROOT
HETATM    1  C   UNL     1     -10.540   7.588  69.752  1.00  0.00    -0.241 C  
HETATM    2  S   UNL     1     -10.124   6.940  68.119  1.00  0.00    -0.176 SA 
HETATM    3  C   UNL     1      -9.779   5.266  68.711  1.00  0.00    -0.146 C  
HETATM    4  C   UNL     1      -8.940   5.178  69.982  1.00  0.00    -0.153 C  
HETATM    5  C   UNL     1      -9.309   8.702  71.018  1.00  0.00    -0.202 C  
HETATM    6  CA  UNL     1      -8.753   6.220  70.848  1.00  0.00    -0.136 C  
HETATM    7  C   UNL     1      -7.811   6.057  72.027  1.00  0.00    -0.106 C  
HETATM    8  CA  UNL     1     -10.357   9.135  69.932  1.00  0.00    -0.212 C  
HETATM    9  N   UNL     1      -9.399   7.414  70.628  1.00  0.00    -0.161 N  
HETATM   10  O   UNL     1      -7.315   7.174  72.586  1.00  0.00    -0.075 OA 
HETATM   11  OXT UNL     1      -7.482   4.967  72.477  1.00  0.00    -0.085 OA 
HETATM   12  O   UNL     1      -8.559   9.220  71.814  1.00  0.00    -0.289 OA 
ENDROOT
BRANCH   4  13
HETATM   13  C   UNL     1      -8.194   3.839  70.048  1.00  0.00    -0.056 C  
BRANCH  13  14
HETATM   14  S   UNL     1      -6.454   3.938  69.493  1.00  0.00    -0.033 SA 
BRANCH  14  15
HETATM   15  C   UNL     1      -6.652   4.975  68.118  1.00  0.00    -0.049 A  
HETATM   16  N   UNL     1      -6.445   6.274  68.116  1.00  0.00    -0.047 NA 
HETATM   17  N   UNL     1      -6.674   6.699  66.832  1.00  0.00    -0.055 NA 
HETATM   18  N   UNL     1      -7.020   4.597  66.855  1.00  0.00    -0.059 NA 
HETATM   19  N   UNL     1      -7.013   5.686  66.051  1.00  0.00    -0.061 NA 
BRANCH  18  20
HETATM   20  C   UNL     1      -7.239   3.313  66.255  1.00  0.00    -0.067 C  
HETATM   21  O   UNL     1      -6.657   1.800  64.190  1.00  0.00    -0.021 OA 
HETATM   22  O   UNL     1      -5.329   3.809  64.579  1.00  0.00    -0.009 OA 
HETATM   23  O   UNL     1      -7.656   4.079  63.754  1.00  0.00    -0.064 OA 
HETATM   24  S   UNL     1      -6.823   3.193  64.533  1.00  0.00    -0.041 S  
ENDBRANCH  18  20
ENDBRANCH  14  15
ENDBRANCH  13  14
ENDBRANCH   4  13
BRANCH   8  25
HETATM   25  N   UNL     1      -9.793   9.864  68.769  1.00  0.00    -0.165 N  
HETATM   26  C   UNL     1     -10.546  10.511  67.811  1.00  0.00    -0.243 C  
HETATM   27  H   UNL     1      -8.778   9.889  68.671  1.00  0.00     0.000 HD 
HETATM   28  O   UNL     1     -11.772  10.498  67.797  1.00  0.00    -0.438 OA 
BRANCH  26  29
HETATM   29  C   UNL     1      -9.680  11.263  66.775  1.00  0.00    -0.193 C  
HETATM   30  O   UNL     1      -8.905  12.277  67.433  1.00  0.00    -0.169 OA 
HETATM   31  H   UNL     1      -8.373  12.739  66.796  1.00  0.00     0.000 HD 
BRANCH  29  32
HETATM   32  C   UNL     1     -10.516  11.898  65.684  1.00  0.00    -0.302 A  
HETATM   33  C   UNL     1     -10.131  11.771  64.341  1.00  0.00    -0.319 A  
HETATM   34  C   UNL     1     -11.693  12.608  65.979  1.00  0.00    -0.470 A  
HETATM   35  C   UNL     1     -12.446  13.197  64.962  1.00  0.00    -0.516 A  
HETATM   36  C   UNL     1     -12.039  13.078  63.636  1.00  0.00    -0.604 A  
HETATM   37  C   UNL     1     -10.885  12.361  63.325  1.00  0.00    -0.300 A  
ENDBRANCH  29  32
ENDBRANCH  26  29
ENDBRANCH   8  25
TORSDOF 7
ENDMDL
MODEL      261
REMARK 921   NORMALIZED FREE ENERGY PREDICTED BY IDOCK:   -3.49 KCAL/MOL
REMARK 922        TOTAL FREE ENERGY PREDICTED BY IDOCK:   -5.89 KCAL/MOL
REMARK 923 INTER-LIGAND FREE ENERGY PREDICTED BY IDOCK:   -6.23 KCAL/MOL
REMARK 924 INTRA-LIGAND FREE ENERGY PREDICTED BY IDOCK:    0.35 KCAL/MOL
REMARK 927      BINDING AFFINITY PREDICTED BY RF-SCORE:    0.00 PKD
ROOT
HETATM    1  C   UNL     1     -10.532  10.975  68.476  1.00  0.00    -0.189 C  
HETATM    2  S   UNL     1     -10.879   9.350  67.771  1.00  0.00    -0.060 SA 
HETATM    3  C   UNL     1     -10.350   8.439  69.241  1.00  0.00    -0.214 C  
HETATM    4  C   UNL     1      -9.047   8.914  69.876  1.00  0.00    -0.166 C  
HETATM    5  C   UNL     1      -8.850  12.165  68.138  1.00  0.00    -0.187 C  
HETATM    6  CA  UNL     1      -8.480  10.135  69.635  1.00  0.00    -0.157 C  
HETATM    7  C   UNL     1      -7.125  10.465  70.234  1.00  0.00    -0.049 C  
HETATM    8  CA  UNL     1     -10.254  12.117  67.437  1.00  0.00    -0.198 C  
HETATM    9  N   UNL     1      -9.129  11.041  68.831  1.00  0.00    -0.158 N  
HETATM   10  O   UNL     1      -6.410  11.444  69.654  1.00  0.00    -0.099 OA 
HETATM   11  OXT UNL     1      -6.659   9.879  71.203  1.00  0.00    -0.304 OA 
HETATM   12  O   UNL     1      -7.818  12.792  68.063  1.00  0.00    -0.126 OA 
ENDROOT
BRANCH   4  13
HETATM   13  C   UNL     1      -8.376   7.775  70.655  1.00  0.00    -0.124 C  
BRANCH  13  14
HETATM   14  S   UNL     1      -7.225   6.771  69.649  1.00  0.00    -0.083 SA 
BRANCH  14  15
HETATM   15  C   UNL     1      -8.254   5.418  69.305  1.00  0.00    -0.093 A  
HETATM   16  N   UNL     1      -8.752   5.128  68.123  1.00  0.00    -0.102 NA 
HETATM   17  N   UNL     1      -9.469   3.970  68.280  1.00  0.00    -0.164 NA 
HETATM   18  N   UNL     1      -8.666   4.459  70.191  1.00  0.00    -0.072 NA 
HETATM   19  N   UNL     1      -9.415   3.545  69.532  1.00  0.00    -0.176 NA 
BRANCH  18  20
HETATM   20  C   UNL     1      -8.330   4.200  71.561  1.00  0.00    -0.090 C  
HETATM   21  O   UNL     1      -9.284   3.401  73.873  1.00  0.00    -0.089 OA 
HETATM   22  O   UNL     1     -10.624   3.038  71.866  1.00  0.00     0.151 OA 
HETATM   23  O   UNL     1     -10.406   5.356  72.732  1.00  0.00    -0.180 OA 
HETATM   24  S   UNL     1      -9.707   4.094  72.678  1.00  0.00    -0.151 S  
ENDBRANCH  18  20
ENDBRANCH  14  15
ENDBRANCH  13  14
ENDBRANCH   4  13
BRANCH   8  25
HETATM   25  N   UNL     1     -10.231  11.709  66.010  1.00  0.00    -0.224 N  
HETATM   26  C   UNL     1     -10.384  12.574  64.947  1.00  0.00    -0.300 C  
HETATM   27  H   UNL     1     -10.093  10.720  65.802  1.00  0.00     0.000 HD 
HETATM   28  O   UNL     1     -10.612  13.772  65.081  1.00  0.00    -0.330 OA 
BRANCH  26  29
HETATM   29  C   UNL     1     -10.219  11.876  63.578  1.00  0.00    -0.457 C  
HETATM   30  O   UNL     1     -11.455  11.253  63.197  1.00  0.00    -0.850 OA 
HETATM   31  H   UNL     1     -11.353  10.824  62.356  1.00  0.00     0.000 HD 
BRANCH  29  32
HETATM   32  C   UNL     1      -9.117  10.837  63.596  1.00  0.00    -0.224 A  
HETATM   33  C   UNL     1      -8.428  10.525  62.414  1.00  0.00    -0.253 A  
HETATM   34  C   UNL     1      -8.747  10.177  64.780  1.00  0.00    -0.202 A  
HETATM   35  C   UNL     1      -7.737   9.214  64.776  1.00  0.00    -0.111 A  
HETATM   36  C   UNL     1      -7.076   8.902  63.591  1.00  0.00    -0.088 A  
HETATM   37  C   UNL     1      -7.418   9.561  62.411  1.00  0.00    -0.111 A  
ENDBRANCH  29  32
ENDBRANCH  26  29
ENDBRANCH   8  25
TORSDOF 7
ENDMDL
MODEL      262
REMARK 921   NORMALIZED FREE ENERGY PREDICTED BY IDOCK:   -3.19 KCAL/MOL
REMARK 922        TOTAL FREE ENERGY PREDICTED BY IDOCK:   -5.46 KCAL/MOL
REMARK 923 INTER-LIGAND FREE ENERGY PREDICTED BY IDOCK:   -4.50 KCAL/MOL
REMARK 924 INTRA-LIGAND FREE ENERGY PREDICTED BY IDOCK:   -0.95 KCAL/MOL
REMARK 927      BINDING AFFINITY PREDICTED BY RF-SCORE:    0.00 PKD
ROOT
HETATM    1  C   UNL     1      -7.242   9.581  66.369  1.00  0.00    -0.089 C  
HETATM    2  S   UNL     1      -9.021   9.379  66.144  1.00  0.00    -0.173 SA 
HETATM    3  C   UNL     1      -9.381  11.148  66.242  1.00  0.00    -0.195 C  
HETATM    4  C   UNL     1      -8.670  11.904  67.360  1.00  0.00    -0.166 C  
HETATM    5  C   UNL     1      -6.155   9.314  68.132  1.00  0.00    -0.053 C  
HETATM    6  CA  UNL     1      -7.570  11.432  68.021  1.00  0.00    -0.110 C  
HETATM    7  C   UNL     1      -7.005  12.215  69.192  1.00  0.00    -0.053 C  
HETATM    8  CA  UNL     1      -6.488   8.334  66.952  1.00  0.00    -0.057 C  
HETATM    9  N   UNL     1      -7.003  10.239  67.637  1.00  0.00    -0.083 N  
HETATM   10  O   UNL     1      -6.237  11.550  70.073  1.00  0.00    -0.133 OA 
HETATM   11  OXT UNL     1      -7.223  13.406  69.370  1.00  0.00     0.040 OA 
HETATM   12  O   UNL     1      -5.541   9.305  69.175  1.00  0.00    -0.036 OA 
ENDROOT
BRANCH   4  13
HETATM   13  C   UNL     1      -9.463  13.154  67.760  1.00  0.00    -0.209 C  
BRANCH  13  14
HETATM   14  S   UNL     1     -11.276  12.949  67.631  1.00  0.00    -0.296 SA 
BRANCH  14  15
HETATM   15  C   UNL     1     -11.567  12.062  69.091  1.00  0.00    -0.312 A  
HETATM   16  N   UNL     1     -11.000  10.918  69.407  1.00  0.00    -0.237 NA 
HETATM   17  N   UNL     1     -11.471  10.583  70.650  1.00  0.00    -0.336 NA 
HETATM   18  N   UNL     1     -12.393  12.428  70.120  1.00  0.00    -0.193 NA 
HETATM   19  N   UNL     1     -12.311  11.500  71.101  1.00  0.00    -0.322 NA 
BRANCH  18  20
HETATM   20  C   UNL     1     -13.150  13.620  70.375  1.00  0.00     0.190 C  
HETATM   21  O   UNL     1     -13.043  16.025  71.423  1.00  0.00    -0.405 OA 
HETATM   22  O   UNL     1     -10.955  14.830  71.024  1.00  0.00    -0.088 OA 
HETATM   23  O   UNL     1     -12.413  14.060  72.881  1.00  0.00    -0.122 OA 
HETATM   24  S   UNL     1     -12.463  14.713  71.594  1.00  0.00    -0.360 S  
ENDBRANCH  18  20
ENDBRANCH  14  15
ENDBRANCH  13  14
ENDBRANCH   4  13
BRANCH   8  25
HETATM   25  N   UNL     1      -7.337   7.173  67.319  1.00  0.00    -0.089 N  
HETATM   26  C   UNL     1      -7.605   6.106  66.487  1.00  0.00    -0.094 C  
HETATM   27  H   UNL     1      -7.749   7.163  68.252  1.00  0.00     0.000 HD 
HETATM   28  O   UNL     1      -7.209   6.040  65.328  1.00  0.00    -0.066 OA 
BRANCH  26  29
HETATM   29  C   UNL     1      -8.438   5.003  67.177  1.00  0.00    -0.106 C  
HETATM   30  O   UNL     1      -9.094   5.540  68.336  1.00  0.00    -0.110 OA 
HETATM   31  H   UNL     1      -9.606   4.862  68.760  1.00  0.00     0.000 HD 
BRANCH  29  32
HETATM   32  C   UNL     1      -7.590   3.817  67.585  1.00  0.00    -0.067 A  
HETATM   33  C   UNL     1      -6.993   3.011  66.604  1.00  0.00    -0.053 A  
HETATM   34  C   UNL     1      -7.365   3.503  68.937  1.00  0.00    -0.050 A  
HETATM   35  C   UNL     1      -6.590   2.400  69.295  1.00  0.00    -0.029 A  
HETATM   36  C   UNL     1      -6.020   1.598  68.309  1.00  0.00    -0.024 A  
HETATM   37  C   UNL     1      -6.217   1.907  66.964  1.00  0.00    -0.020 A  
ENDBRANCH  29  32
ENDBRANCH  26  29
ENDBRANCH   8  25
TORSDOF 7
ENDMDL
MODEL      263
REMARK 921   NORMALIZED FREE ENERGY PREDICTED BY IDOCK:   -2.82 KCAL/MOL
REMARK 922        TOTAL FREE ENERGY PREDICTED BY IDOCK:   -4.94 KCAL/MOL
REMARK 923 INTER-LIGAND FREE ENERGY PREDICTED BY IDOCK:   -5.86 KCAL/MOL
REMARK 924 INTRA-LIGAND FREE ENERGY PREDICTED BY IDOCK:    0.92 KCAL/MOL
REMARK 927      BINDING AFFINITY PREDICTED BY RF-SCORE:    0.00 PKD
ROOT
HETATM    1  C   UNL     1      -8.732   9.557  65.008  1.00  0.00    -0.177 C  
HETATM    2  S   UNL     1     -10.446   9.808  65.516  1.00  0.00     0.596 SA 
HETATM    3  C   UNL     1     -10.291  11.604  65.666  1.00  0.00    -0.262 C  
HETATM    4  C   UNL     1      -9.034  12.098  66.374  1.00  0.00    -0.138 C  
HETATM    5  C   UNL     1      -7.140   8.934  66.206  1.00  0.00    -0.083 C  
HETATM    6  CA  UNL     1      -7.915  11.336  66.567  1.00  0.00    -0.145 C  
HETATM    7  C   UNL     1      -6.760  11.889  67.380  1.00  0.00    -0.126 C  
HETATM    8  CA  UNL     1      -8.142   8.133  65.301  1.00  0.00    -0.136 C  
HETATM    9  N   UNL     1      -7.859  10.065  66.045  1.00  0.00    -0.115 N  
HETATM   10  O   UNL     1      -5.896  11.009  67.914  1.00  0.00    -0.046 OA 
HETATM   11  OXT UNL     1      -6.589  13.086  67.575  1.00  0.00    -0.151 OA 
HETATM   12  O   UNL     1      -6.187   8.716  66.919  1.00  0.00    -0.057 OA 
ENDROOT
BRANCH   4  13
HETATM   13  C   UNL     1      -9.270  13.480  66.998  1.00  0.00    -0.246 C  
BRANCH  13  14
HETATM   14  S   UNL     1     -11.019  13.807  67.425  1.00  0.00    -0.289 SA 
BRANCH  14  15
HETATM   15  C   UNL     1     -11.217  12.659  68.709  1.00  0.00    -0.280 A  
HETATM   16  N   UNL     1     -10.502  11.566  68.863  1.00  0.00    -0.207 NA 
HETATM   17  N   UNL     1     -10.952  10.969  70.013  1.00  0.00    -0.165 NA 
HETATM   18  N   UNL     1     -12.112  12.735  69.743  1.00  0.00    -0.275 NA 
HETATM   19  N   UNL     1     -11.924  11.678  70.565  1.00  0.00    -0.359 NA 
BRANCH  18  20
HETATM   20  C   UNL     1     -13.035  13.756  70.149  1.00  0.00     0.206 C  
HETATM   21  O   UNL     1     -13.300  15.933  71.591  1.00  0.00    -0.431 OA 
HETATM   22  O   UNL     1     -11.053  15.109  71.121  1.00  0.00    -0.311 OA 
HETATM   23  O   UNL     1     -12.456  13.844  72.733  1.00  0.00    -0.074 OA 
HETATM   24  S   UNL     1     -12.550  14.699  71.573  1.00  0.00    -0.366 S  
ENDBRANCH  18  20
ENDBRANCH  14  15
ENDBRANCH  13  14
ENDBRANCH   4  13
BRANCH   8  25
HETATM   25  N   UNL     1      -9.034   7.195  66.028  1.00  0.00    -0.278 N  
HETATM   26  C   UNL     1      -9.378   7.316  67.358  1.00  0.00    -0.128 C  
HETATM   27  H   UNL     1      -9.419   6.407  65.508  1.00  0.00     0.000 HD 
HETATM   28  O   UNL     1      -8.930   8.190  68.093  1.00  0.00    -0.135 OA 
BRANCH  26  29
HETATM   29  C   UNL     1     -10.398   6.247  67.813  1.00  0.00    -0.195 C  
HETATM   30  O   UNL     1     -11.265   6.796  68.816  1.00  0.00    -0.488 OA 
HETATM   31  H   UNL     1     -11.891   6.139  69.096  1.00  0.00     0.000 HD 
BRANCH  29  32
HETATM   32  C   UNL     1      -9.721   5.007  68.358  1.00  0.00    -0.209 A  
HETATM   33  C   UNL     1      -9.541   4.856  69.741  1.00  0.00    -0.243 A  
HETATM   34  C   UNL     1      -9.276   3.978  67.509  1.00  0.00    -0.194 A  
HETATM   35  C   UNL     1      -8.644   2.847  68.028  1.00  0.00    -0.115 A  
HETATM   36  C   UNL     1      -8.455   2.722  69.402  1.00  0.00    -0.100 A  
HETATM   37  C   UNL     1      -8.908   3.724  70.258  1.00  0.00    -0.145 A  
ENDBRANCH  29  32
ENDBRANCH  26  29
ENDBRANCH   8  25
TORSDOF 7
ENDMDL
MODEL      264
REMARK 921   NORMALIZED FREE ENERGY PREDICTED BY IDOCK:   -2.81 KCAL/MOL
REMARK 922        TOTAL FREE ENERGY PREDICTED BY IDOCK:   -4.93 KCAL/MOL
REMARK 923 INTER-LIGAND FREE ENERGY PREDICTED BY IDOCK:   -5.38 KCAL/MOL
REMARK 924 INTRA-LIGAND FREE ENERGY PREDICTED BY IDOCK:    0.45 KCAL/MOL
REMARK 927      BINDING AFFINITY PREDICTED BY RF-SCORE:    0.00 PKD
ROOT
HETATM    1  C   UNL     1      -7.142  10.517  67.739  1.00  0.00    -0.083 C  
HETATM    2  S   UNL     1      -7.371   8.880  68.466  1.00  0.00    -0.081 SA 
HETATM    3  C   UNL     1      -6.506   8.010  67.138  1.00  0.00    -0.057 C  
HETATM    4  C   UNL     1      -6.861   8.452  65.722  1.00  0.00    -0.067 C  
HETATM    5  C   UNL     1      -8.535  11.613  66.635  1.00  0.00    -0.165 C  
HETATM    6  CA  UNL     1      -7.480   9.634  65.422  1.00  0.00    -0.111 C  
HETATM    7  C   UNL     1      -7.886   9.927  63.990  1.00  0.00    -0.145 C  
HETATM    8  CA  UNL     1      -8.194  11.599  68.167  1.00  0.00    -0.151 C  
HETATM    9  N   UNL     1      -7.752  10.534  66.426  1.00  0.00    -0.129 N  
HETATM   10  O   UNL     1      -8.846  10.847  63.791  1.00  0.00    -0.154 OA 
HETATM   11  OXT UNL     1      -7.391   9.363  63.023  1.00  0.00    -0.104 OA 
HETATM   12  O   UNL     1      -9.280  12.188  65.875  1.00  0.00    -0.182 OA 
ENDROOT
BRANCH   4  13
HETATM   13  C   UNL     1      -6.607   7.318  64.720  1.00  0.00    -0.040 C  
BRANCH  13  14
HETATM   14  S   UNL     1      -8.132   6.497  64.133  1.00  0.00     0.018 SA 
BRANCH  14  15
HETATM   15  C   UNL     1      -8.811   6.034  65.660  1.00  0.00    -0.109 A  
HETATM   16  N   UNL     1      -9.811   6.643  66.259  1.00  0.00    -0.028 NA 
HETATM   17  N   UNL     1     -10.058   5.941  67.410  1.00  0.00    -0.151 NA 
HETATM   18  N   UNL     1      -8.431   4.971  66.436  1.00  0.00    -0.111 NA 
HETATM   19  N   UNL     1      -9.232   4.913  67.524  1.00  0.00    -0.119 NA 
BRANCH  18  20
HETATM   20  C   UNL     1      -7.499   3.902  66.221  1.00  0.00    -0.084 C  
HETATM   21  O   UNL     1      -7.192   1.532  65.137  1.00  0.00    -0.046 OA 
HETATM   22  O   UNL     1      -9.149   2.853  64.525  1.00  0.00    -0.116 OA 
HETATM   23  O   UNL     1      -9.071   1.849  66.795  1.00  0.00    -0.119 OA 
HETATM   24  S   UNL     1      -8.215   2.349  65.745  1.00  0.00    -0.092 S  
ENDBRANCH  18  20
ENDBRANCH  14  15
ENDBRANCH  13  14
ENDBRANCH   4  13
BRANCH   8  25
HETATM   25  N   UNL     1      -9.290  11.130  69.052  1.00  0.00    -0.386 N  
HETATM   26  C   UNL     1     -10.343  10.340  68.640  1.00  0.00    -0.184 C  
HETATM   27  H   UNL     1      -9.262  11.411  70.032  1.00  0.00     0.000 HD 
HETATM   28  O   UNL     1     -10.508   9.991  67.475  1.00  0.00    -0.218 OA 
BRANCH  26  29
HETATM   29  C   UNL     1     -11.275   9.931  69.802  1.00  0.00    -0.235 C  
HETATM   30  O   UNL     1     -11.570  11.076  70.617  1.00  0.00    -0.383 OA 
HETATM   31  H   UNL     1     -12.143  10.824  71.331  1.00  0.00     0.000 HD 
BRANCH  29  32
HETATM   32  C   UNL     1     -10.670   8.843  70.665  1.00  0.00    -0.282 A  
HETATM   33  C   UNL     1     -10.034   7.745  70.065  1.00  0.00    -0.187 A  
HETATM   34  C   UNL     1     -10.713   8.908  72.068  1.00  0.00    -0.389 A  
HETATM   35  C   UNL     1     -10.159   7.891  72.847  1.00  0.00    -0.376 A  
HETATM   36  C   UNL     1      -9.549   6.799  72.237  1.00  0.00    -0.153 A  
HETATM   37  C   UNL     1      -9.482   6.729  70.847  1.00  0.00    -0.159 A  
ENDBRANCH  29  32
ENDBRANCH  26  29
ENDBRANCH   8  25
TORSDOF 7
ENDMDL
MODEL      265
REMARK 921   NORMALIZED FREE ENERGY PREDICTED BY IDOCK:   -2.56 KCAL/MOL
REMARK 922        TOTAL FREE ENERGY PREDICTED BY IDOCK:   -4.57 KCAL/MOL
REMARK 923 INTER-LIGAND FREE ENERGY PREDICTED BY IDOCK:   -5.31 KCAL/MOL
REMARK 924 INTRA-LIGAND FREE ENERGY PREDICTED BY IDOCK:    0.74 KCAL/MOL
REMARK 927      BINDING AFFINITY PREDICTED BY RF-SCORE:    0.00 PKD
ROOT
HETATM    1  C   UNL     1     -10.652   9.910  65.809  1.00  0.00     0.197 C  
HETATM    2  S   UNL     1     -10.305  10.396  67.513  1.00  0.00    -0.241 SA 
HETATM    3  C   UNL     1     -11.731  11.500  67.641  1.00  0.00    -0.208 C  
HETATM    4  C   UNL     1     -11.962  12.419  66.446  1.00  0.00    -0.346 C  
HETATM    5  C   UNL     1      -9.750  10.650  64.078  1.00  0.00    -0.315 C  
HETATM    6  CA  UNL     1     -11.411  12.218  65.210  1.00  0.00    -0.338 C  
HETATM    7  C   UNL     1     -11.617  13.252  64.119  1.00  0.00    -0.405 C  
HETATM    8  CA  UNL     1      -9.415   9.412  64.983  1.00  0.00    -0.134 C  
HETATM    9  N   UNL     1     -10.653  11.095  64.977  1.00  0.00    -0.293 N  
HETATM   10  O   UNL     1     -10.742  13.263  63.099  1.00  0.00     0.487 OA 
HETATM   11  OXT UNL     1     -12.527  14.071  64.134  1.00  0.00    -0.665 OA 
HETATM   12  O   UNL     1      -9.340  11.174  63.067  1.00  0.00    -0.297 OA 
ENDROOT
BRANCH   4  13
HETATM   13  C   UNL     1     -12.726  13.680  66.870  1.00  0.00     0.298 C  
BRANCH  13  14
HETATM   14  S   UNL     1     -11.804  15.233  66.581  1.00  0.00     0.301 SA 
BRANCH  14  15
HETATM   15  C   UNL     1     -10.917  15.317  68.068  1.00  0.00    -0.299 A  
HETATM   16  N   UNL     1      -9.610  15.433  68.163  1.00  0.00    -0.202 NA 
HETATM   17  N   UNL     1      -9.325  15.504  69.503  1.00  0.00    -0.281 NA 
HETATM   18  N   UNL     1     -11.439  15.302  69.334  1.00  0.00    -0.293 NA 
HETATM   19  N   UNL     1     -10.431  15.438  70.227  1.00  0.00    -0.286 NA 
BRANCH  18  20
HETATM   20  C   UNL     1     -12.787  15.324  69.824  1.00  0.00     0.087 C  
HETATM   21  O   UNL     1     -14.284  15.867  71.911  1.00  0.00    -0.350 OA 
HETATM   22  O   UNL     1     -11.973  16.648  71.895  1.00  0.00    -0.300 OA 
HETATM   23  O   UNL     1     -12.391  14.218  72.199  1.00  0.00    -0.272 OA 
HETATM   24  S   UNL     1     -12.956  15.400  71.590  1.00  0.00    -0.469 S  
ENDBRANCH  18  20
ENDBRANCH  14  15
ENDBRANCH  13  14
ENDBRANCH   4  13
BRANCH   8  25
HETATM   25  N   UNL     1      -8.102   9.475  65.673  1.00  0.00    -0.110 N  
HETATM   26  C   UNL     1      -7.399   8.375  66.118  1.00  0.00    -0.084 C  
HETATM   27  H   UNL     1      -7.692  10.396  65.830  1.00  0.00     0.000 HD 
HETATM   28  O   UNL     1      -7.821   7.227  66.034  1.00  0.00    -0.098 OA 
BRANCH  26  29
HETATM   29  C   UNL     1      -6.020   8.745  66.711  1.00  0.00    -0.056 C  
HETATM   30  O   UNL     1      -5.165   7.592  66.712  1.00  0.00    -0.022 OA 
HETATM   31  H   UNL     1      -4.318   7.819  67.076  1.00  0.00     0.000 HD 
BRANCH  29  32
HETATM   32  C   UNL     1      -6.132   9.289  68.120  1.00  0.00    -0.053 A  
HETATM   33  C   UNL     1      -6.551   8.451  69.164  1.00  0.00    -0.047 A  
HETATM   34  C   UNL     1      -5.807  10.623  68.421  1.00  0.00    -0.043 A  
HETATM   35  C   UNL     1      -5.926  11.110  69.724  1.00  0.00    -0.095 A  
HETATM   36  C   UNL     1      -6.363  10.271  70.745  1.00  0.00    -0.030 A  
HETATM   37  C   UNL     1      -6.670   8.940  70.466  1.00  0.00    -0.051 A  
ENDBRANCH  29  32
ENDBRANCH  26  29
ENDBRANCH   8  25
TORSDOF 7
ENDMDL
MODEL      266
REMARK 921   NORMALIZED FREE ENERGY PREDICTED BY IDOCK:   -2.35 KCAL/MOL
REMARK 922        TOTAL FREE ENERGY PREDICTED BY IDOCK:   -4.28 KCAL/MOL
REMARK 923 INTER-LIGAND FREE ENERGY PREDICTED BY IDOCK:   -4.72 KCAL/MOL
REMARK 924 INTRA-LIGAND FREE ENERGY PREDICTED BY IDOCK:    0.45 KCAL/MOL
REMARK 927      BINDING AFFINITY PREDICTED BY RF-SCORE:    0.00 PKD
ROOT
HETATM    1  C   UNL     1      -9.800   4.655  68.813  1.00  0.00    -0.131 C  
HETATM    2  S   UNL     1      -9.583   5.441  67.202  1.00  0.00    -0.147 SA 
HETATM    3  C   UNL     1      -8.034   4.585  66.831  1.00  0.00    -0.102 C  
HETATM    4  C   UNL     1      -7.026   4.523  67.975  1.00  0.00    -0.056 C  
HETATM    5  C   UNL     1      -9.350   5.466  70.683  1.00  0.00    -0.162 C  
HETATM    6  CA  UNL     1      -7.344   4.741  69.287  1.00  0.00    -0.053 C  
HETATM    7  C   UNL     1      -6.245   4.763  70.332  1.00  0.00    -0.022 C  
HETATM    8  CA  UNL     1     -10.675   5.453  69.842  1.00  0.00    -0.221 C  
HETATM    9  N   UNL     1      -8.654   4.965  69.642  1.00  0.00    -0.082 N  
HETATM   10  O   UNL     1      -6.502   5.392  71.492  1.00  0.00    -0.036 OA 
HETATM   11  OXT UNL     1      -5.147   4.249  70.162  1.00  0.00     0.000 OA 
HETATM   12  O   UNL     1      -8.958   5.869  71.755  1.00  0.00    -0.139 OA 
ENDROOT
BRANCH   4  13
HETATM   13  C   UNL     1      -5.598   4.378  67.432  1.00  0.00    -0.021 C  
BRANCH  13  14
HETATM   14  S   UNL     1      -5.333   5.208  65.824  1.00  0.00    -0.013 SA 
BRANCH  14  15
HETATM   15  C   UNL     1      -5.438   6.861  66.336  1.00  0.00    -0.022 A  
HETATM   16  N   UNL     1      -5.150   7.298  67.543  1.00  0.00    -0.019 NA 
HETATM   17  N   UNL     1      -5.327   8.658  67.514  1.00  0.00    -0.034 NA 
HETATM   18  N   UNL     1      -5.804   7.934  65.568  1.00  0.00    -0.037 NA 
HETATM   19  N   UNL     1      -5.713   9.059  66.313  1.00  0.00    -0.052 NA 
BRANCH  18  20
HETATM   20  C   UNL     1      -6.091   8.068  64.169  1.00  0.00    -0.057 C  
HETATM   21  O   UNL     1      -7.944   7.751  62.337  1.00  0.00    -0.128 OA 
HETATM   22  O   UNL     1      -8.600   7.692  64.686  1.00  0.00     0.023 OA 
HETATM   23  O   UNL     1      -7.333   5.763  63.771  1.00  0.00    -0.052 OA 
HETATM   24  S   UNL     1      -7.520   7.184  63.596  1.00  0.00    -0.106 S  
ENDBRANCH  18  20
ENDBRANCH  14  15
ENDBRANCH  13  14
ENDBRANCH   4  13
BRANCH   8  25
HETATM   25  N   UNL     1     -11.151   6.787  69.397  1.00  0.00    -0.417 N  
HETATM   26  C   UNL     1     -10.489   7.973  69.636  1.00  0.00    -0.224 C  
HETATM   27  H   UNL     1     -12.028   6.829  68.879  1.00  0.00     0.000 HD 
HETATM   28  O   UNL     1      -9.458   8.047  70.296  1.00  0.00    -0.166 OA 
BRANCH  26  29
HETATM   29  C   UNL     1     -11.174   9.187  68.969  1.00  0.00     0.216 C  
HETATM   30  O   UNL     1     -10.200   9.968  68.261  1.00  0.00    -0.159 OA 
HETATM   31  H   UNL     1     -10.621  10.714  67.851  1.00  0.00     0.000 HD 
BRANCH  29  32
HETATM   32  C   UNL     1     -11.887  10.065  69.975  1.00  0.00    -0.196 A  
HETATM   33  C   UNL     1     -12.603   9.482  71.032  1.00  0.00    -0.331 A  
HETATM   34  C   UNL     1     -11.840  11.467  69.892  1.00  0.00    -0.430 A  
HETATM   35  C   UNL     1     -12.512  12.262  70.822  1.00  0.00    -0.356 A  
HETATM   36  C   UNL     1     -13.234  11.668  71.853  1.00  0.00    -0.475 A  
HETATM   37  C   UNL     1     -13.275  10.279  71.961  1.00  0.00    -0.516 A  
ENDBRANCH  29  32
ENDBRANCH  26  29
ENDBRANCH   8  25
TORSDOF 7
ENDMDL
MODEL      267
REMARK 921   NORMALIZED FREE ENERGY PREDICTED BY IDOCK:   -2.10 KCAL/MOL
REMARK 922        TOTAL FREE ENERGY PREDICTED BY IDOCK:   -3.92 KCAL/MOL
REMARK 923 INTER-LIGAND FREE ENERGY PREDICTED BY IDOCK:   -3.56 KCAL/MOL
REMARK 924 INTRA-LIGAND FREE ENERGY PREDICTED BY IDOCK:   -0.36 KCAL/MOL
REMARK 927      BINDING AFFINITY PREDICTED BY RF-SCORE:    0.00 PKD
ROOT
HETATM    1  C   UNL     1      -8.728  16.253  67.535  1.00  0.00    -0.181 C  
HETATM    2  S   UNL     1      -8.572  15.167  66.101  1.00  0.00     0.437 SA 
HETATM    3  C   UNL     1     -10.346  15.132  65.753  1.00  0.00    -0.339 C  
HETATM    4  C   UNL     1     -11.251  14.939  66.966  1.00  0.00    -0.344 C  
HETATM    5  C   UNL     1      -8.722  15.695  69.547  1.00  0.00    -0.199 C  
HETATM    6  CA  UNL     1     -10.851  15.143  68.257  1.00  0.00    -0.262 C  
HETATM    7  C   UNL     1     -11.799  14.817  69.397  1.00  0.00    -0.323 C  
HETATM    8  CA  UNL     1      -7.568  16.155  68.587  1.00  0.00    -0.183 C  
HETATM    9  N   UNL     1      -9.585  15.615  68.512  1.00  0.00    -0.195 N  
HETATM   10  O   UNL     1     -11.263  14.608  70.611  1.00  0.00    -0.190 OA 
HETATM   11  OXT UNL     1     -13.012  14.730  69.257  1.00  0.00     0.331 OA 
HETATM   12  O   UNL     1      -8.866  15.368  70.703  1.00  0.00     0.982 OA 
ENDROOT
BRANCH   4  13
HETATM   13  C   UNL     1     -12.587  14.309  66.551  1.00  0.00    -0.052 C  
BRANCH  13  14
HETATM   14  S   UNL     1     -12.408  12.741  65.628  1.00  0.00    -0.262 SA 
BRANCH  14  15
HETATM   15  C   UNL     1     -11.715  11.755  66.874  1.00  0.00    -0.139 A  
HETATM   16  N   UNL     1     -11.926  11.907  68.164  1.00  0.00    -0.528 NA 
HETATM   17  N   UNL     1     -11.229  10.906  68.790  1.00  0.00    -0.247 NA 
HETATM   18  N   UNL     1     -10.885  10.679  66.700  1.00  0.00    -0.181 NA 
HETATM   19  N   UNL     1     -10.601  10.143  67.909  1.00  0.00    -0.230 NA 
BRANCH  18  20
HETATM   20  C   UNL     1     -10.433   9.987  65.528  1.00  0.00     0.063 C  
HETATM   21  O   UNL     1      -8.451   9.764  63.820  1.00  0.00    -0.154 OA 
HETATM   22  O   UNL     1      -8.068  10.971  65.904  1.00  0.00    -0.150 OA 
HETATM   23  O   UNL     1      -9.476  12.047  64.164  1.00  0.00    -0.046 OA 
HETATM   24  S   UNL     1      -9.082  10.751  64.665  1.00  0.00    -0.182 S  
ENDBRANCH  18  20
ENDBRANCH  14  15
ENDBRANCH  13  14
ENDBRANCH   4  13
BRANCH   8  25
HETATM   25  N   UNL     1      -6.529  15.130  68.317  1.00  0.00    -0.105 N  
HETATM   26  C   UNL     1      -6.683  13.779  68.551  1.00  0.00    -0.094 C  
HETATM   27  H   UNL     1      -5.639  15.447  67.932  1.00  0.00     0.000 HD 
HETATM   28  O   UNL     1      -7.687  13.295  69.063  1.00  0.00     0.007 OA 
BRANCH  26  29
HETATM   29  C   UNL     1      -5.467  12.948  68.082  1.00  0.00    -0.085 C  
HETATM   30  O   UNL     1      -5.556  12.710  66.669  1.00  0.00    -0.403 OA 
HETATM   31  H   UNL     1      -4.809  12.199  66.381  1.00  0.00     0.000 HD 
BRANCH  29  32
HETATM   32  C   UNL     1      -5.366  11.623  68.809  1.00  0.00    -0.045 A  
HETATM   33  C   UNL     1      -5.278  11.597  70.209  1.00  0.00    -0.095 A  
HETATM   34  C   UNL     1      -5.375  10.401  68.115  1.00  0.00    -0.034 A  
HETATM   35  C   UNL     1      -5.271   9.190  68.801  1.00  0.00    -0.034 A  
HETATM   36  C   UNL     1      -5.164   9.181  70.189  1.00  0.00    -0.028 A  
HETATM   37  C   UNL     1      -5.173  10.384  70.893  1.00  0.00    -0.077 A  
ENDBRANCH  29  32
ENDBRANCH  26  29
ENDBRANCH   8  25
TORSDOF 7
ENDMDL
MODEL      268
REMARK 921   NORMALIZED FREE ENERGY PREDICTED BY IDOCK:   -2.06 KCAL/MOL
REMARK 922        TOTAL FREE ENERGY PREDICTED BY IDOCK:   -3.87 KCAL/MOL
REMARK 923 INTER-LIGAND FREE ENERGY PREDICTED BY IDOCK:   -4.43 KCAL/MOL
REMARK 924 INTRA-LIGAND FREE ENERGY PREDICTED BY IDOCK:    0.57 KCAL/MOL
REMARK 927      BINDING AFFINITY PREDICTED BY RF-SCORE:    0.00 PKD
ROOT
HETATM    1  C   UNL     1      -6.611   9.695  68.654  1.00  0.00    -0.051 C  
HETATM    2  S   UNL     1      -6.613   7.914  68.949  1.00  0.00    -0.053 SA 
HETATM    3  C   UNL     1      -5.869   7.501  67.354  1.00  0.00    -0.035 C  
HETATM    4  C   UNL     1      -6.444   8.240  66.149  1.00  0.00    -0.050 C  
HETATM    5  C   UNL     1      -8.219  10.872  68.032  1.00  0.00    -0.121 C  
HETATM    6  CA  UNL     1      -7.186   9.385  66.238  1.00  0.00    -0.092 C  
HETATM    7  C   UNL     1      -7.802   9.979  64.985  1.00  0.00    -0.137 C  
HETATM    8  CA  UNL     1      -7.676  10.515  69.461  1.00  0.00    -0.136 C  
HETATM    9  N   UNL     1      -7.390   9.971  67.464  1.00  0.00    -0.089 N  
HETATM   10  O   UNL     1      -8.848  10.809  65.139  1.00  0.00    -0.195 OA 
HETATM   11  OXT UNL     1      -7.398   9.731  63.856  1.00  0.00    -0.117 OA 
HETATM   12  O   UNL     1      -9.101  11.535  67.534  1.00  0.00    -0.161 OA 
ENDROOT
BRANCH   4  13
HETATM   13  C   UNL     1      -6.239   7.425  64.865  1.00  0.00    -0.038 C  
BRANCH  13  14
HETATM   14  S   UNL     1      -7.765   6.630  64.246  1.00  0.00    -0.110 SA 
BRANCH  14  15
HETATM   15  C   UNL     1      -8.350   5.945  65.727  1.00  0.00    -0.140 A  
HETATM   16  N   UNL     1      -9.337   6.433  66.448  1.00  0.00    -0.160 NA 
HETATM   17  N   UNL     1      -9.503   5.576  67.505  1.00  0.00    -0.115 NA 
HETATM   18  N   UNL     1      -7.898   4.805  66.336  1.00  0.00    -0.098 NA 
HETATM   19  N   UNL     1      -8.641   4.573  67.442  1.00  0.00    -0.104 NA 
BRANCH  18  20
HETATM   20  C   UNL     1      -6.946   3.809  65.937  1.00  0.00    -0.062 C  
HETATM   21  O   UNL     1      -5.422   1.854  66.802  1.00  0.00    -0.015 OA 
HETATM   22  O   UNL     1      -7.168   2.715  68.273  1.00  0.00    -0.048 OA 
HETATM   23  O   UNL     1      -5.166   4.128  67.873  1.00  0.00    -0.007 OA 
HETATM   24  S   UNL     1      -5.978   3.109  67.251  1.00  0.00    -0.024 S  
ENDBRANCH  18  20
ENDBRANCH  14  15
ENDBRANCH  13  14
ENDBRANCH   4  13
BRANCH   8  25
HETATM   25  N   UNL     1      -8.604   9.724  70.307  1.00  0.00    -0.291 N  
HETATM   26  C   UNL     1      -9.667   8.989  69.825  1.00  0.00    -0.175 C  
HETATM   27  H   UNL     1      -8.445   9.724  71.314  1.00  0.00     0.000 HD 
HETATM   28  O   UNL     1      -9.986   8.963  68.641  1.00  0.00    -0.167 OA 
BRANCH  26  29
HETATM   29  C   UNL     1     -10.396   8.193  70.932  1.00  0.00    -0.190 C  
HETATM   30  O   UNL     1     -10.272   8.879  72.187  1.00  0.00    -0.321 OA 
HETATM   31  H   UNL     1     -10.719   8.390  72.867  1.00  0.00     0.000 HD 
BRANCH  29  32
HETATM   32  C   UNL     1      -9.856   6.785  71.073  1.00  0.00    -0.192 A  
HETATM   33  C   UNL     1     -10.631   5.692  70.656  1.00  0.00    -0.347 A  
HETATM   34  C   UNL     1      -8.577   6.537  71.601  1.00  0.00    -0.128 A  
HETATM   35  C   UNL     1      -8.100   5.232  71.734  1.00  0.00    -0.117 A  
HETATM   36  C   UNL     1      -8.889   4.157  71.334  1.00  0.00    -0.147 A  
HETATM   37  C   UNL     1     -10.152   4.387  70.791  1.00  0.00    -0.199 A  
ENDBRANCH  29  32
ENDBRANCH  26  29
ENDBRANCH   8  25
TORSDOF 7
ENDMDL
MODEL      269
REMARK 921   NORMALIZED FREE ENERGY PREDICTED BY IDOCK:   -2.02 KCAL/MOL
REMARK 922        TOTAL FREE ENERGY PREDICTED BY IDOCK:   -3.82 KCAL/MOL
REMARK 923 INTER-LIGAND FREE ENERGY PREDICTED BY IDOCK:   -3.52 KCAL/MOL
REMARK 924 INTRA-LIGAND FREE ENERGY PREDICTED BY IDOCK:   -0.30 KCAL/MOL
REMARK 927      BINDING AFFINITY PREDICTED BY RF-SCORE:    0.00 PKD
ROOT
HETATM    1  C   UNL     1     -10.176  16.933  66.871  1.00  0.00    -0.296 C  
HETATM    2  S   UNL     1      -9.483  15.528  65.972  1.00  0.00    -0.346 SA 
HETATM    3  C   UNL     1     -11.044  14.618  65.902  1.00  0.00    -0.338 C  
HETATM    4  C   UNL     1     -11.844  14.582  67.200  1.00  0.00    -0.412 C  
HETATM    5  C   UNL     1     -10.045  17.308  68.920  1.00  0.00    -0.331 C  
HETATM    6  CA  UNL     1     -11.648  15.445  68.243  1.00  0.00    -0.348 C  
HETATM    7  C   UNL     1     -12.425  15.253  69.532  1.00  0.00    -0.087 C  
HETATM    8  CA  UNL     1      -9.151  17.768  67.714  1.00  0.00    -0.249 C  
HETATM    9  N   UNL     1     -10.728  16.460  68.123  1.00  0.00    -0.323 N  
HETATM   10  O   UNL     1     -11.921  15.805  70.650  1.00  0.00    -0.353 OA 
HETATM   11  OXT UNL     1     -13.470  14.619  69.598  1.00  0.00     0.881 OA 
HETATM   12  O   UNL     1     -10.100  17.458  70.120  1.00  0.00     0.512 OA 
ENDROOT
BRANCH   4  13
HETATM   13  C   UNL     1     -12.750  13.345  67.246  1.00  0.00     0.768 C  
BRANCH  13  14
HETATM   14  S   UNL     1     -11.969  11.835  66.569  1.00  0.00     0.569 SA 
BRANCH  14  15
HETATM   15  C   UNL     1     -11.416  11.115  68.046  1.00  0.00    -0.293 A  
HETATM   16  N   UNL     1     -11.568  11.636  69.244  1.00  0.00    -0.291 NA 
HETATM   17  N   UNL     1     -11.028  10.736  70.128  1.00  0.00    -0.228 NA 
HETATM   18  N   UNL     1     -10.777   9.911  68.180  1.00  0.00    -0.228 NA 
HETATM   19  N   UNL     1     -10.554   9.676  69.493  1.00  0.00    -0.218 NA 
BRANCH  18  20
HETATM   20  C   UNL     1     -10.472   8.869  67.243  1.00  0.00    -0.277 C  
HETATM   21  O   UNL     1      -8.653   7.970  65.577  1.00  0.00    -0.155 OA 
HETATM   22  O   UNL     1      -8.016   9.687  67.189  1.00  0.00    -0.105 OA 
HETATM   23  O   UNL     1      -9.468  10.343  65.284  1.00  0.00    -0.199 OA 
HETATM   24  S   UNL     1      -9.138   9.216  66.124  1.00  0.00    -0.204 S  
ENDBRANCH  18  20
ENDBRANCH  14  15
ENDBRANCH  13  14
ENDBRANCH   4  13
BRANCH   8  25
HETATM   25  N   UNL     1      -7.757  17.259  67.736  1.00  0.00    -0.187 N  
HETATM   26  C   UNL     1      -7.305  16.251  68.562  1.00  0.00    -0.169 C  
HETATM   27  H   UNL     1      -7.087  17.684  67.095  1.00  0.00     0.000 HD 
HETATM   28  O   UNL     1      -8.007  15.710  69.410  1.00  0.00    -0.226 OA 
BRANCH  26  29
HETATM   29  C   UNL     1      -5.831  15.870  68.292  1.00  0.00    -0.110 C  
HETATM   30  O   UNL     1      -5.440  16.332  66.990  1.00  0.00    -0.321 OA 
HETATM   31  H   UNL     1      -4.535  16.098  66.823  1.00  0.00     0.000 HD 
BRANCH  29  32
HETATM   32  C   UNL     1      -5.601  14.377  68.385  1.00  0.00    -0.107 A  
HETATM   33  C   UNL     1      -5.399  13.624  67.218  1.00  0.00     0.458 A  
HETATM   34  C   UNL     1      -5.566  13.714  69.624  1.00  0.00    -0.096 A  
HETATM   35  C   UNL     1      -5.363  12.335  69.691  1.00  0.00    -0.078 A  
HETATM   36  C   UNL     1      -5.184  11.599  68.523  1.00  0.00    -0.042 A  
HETATM   37  C   UNL     1      -5.196  12.244  67.288  1.00  0.00    -0.087 A  
ENDBRANCH  29  32
ENDBRANCH  26  29
ENDBRANCH   8  25
TORSDOF 7
ENDMDL
MODEL      270
REMARK 921   NORMALIZED FREE ENERGY PREDICTED BY IDOCK:   -1.96 KCAL/MOL
REMARK 922        TOTAL FREE ENERGY PREDICTED BY IDOCK:   -3.73 KCAL/MOL
REMARK 923 INTER-LIGAND FREE ENERGY PREDICTED BY IDOCK:   -5.26 KCAL/MOL
REMARK 924 INTRA-LIGAND FREE ENERGY PREDICTED BY IDOCK:    1.53 KCAL/MOL
REMARK 927      BINDING AFFINITY PREDICTED BY RF-SCORE:    0.00 PKD
ROOT
HETATM    1  C   UNL     1      -7.442   9.951  70.123  1.00  0.00    -0.170 C  
HETATM    2  S   UNL     1      -6.778   9.322  68.566  1.00  0.00    -0.058 SA 
HETATM    3  C   UNL     1      -7.843  10.351  67.528  1.00  0.00    -0.106 C  
HETATM    4  C   UNL     1      -9.307  10.417  67.950  1.00  0.00    -0.147 C  
HETATM    5  C   UNL     1      -8.867   9.039  71.346  1.00  0.00    -0.150 C  
HETATM    6  CA  UNL     1      -9.762  10.065  69.191  1.00  0.00    -0.209 C  
HETATM    7  C   UNL     1     -11.253  10.065  69.472  1.00  0.00    -0.208 C  
HETATM    8  CA  UNL     1      -7.298   8.992  71.355  1.00  0.00    -0.036 C  
HETATM    9  N   UNL     1      -8.866   9.688  70.163  1.00  0.00    -0.228 N  
HETATM   10  O   UNL     1     -11.692   9.323  70.503  1.00  0.00    -0.257 OA 
HETATM   11  OXT UNL     1     -12.062  10.695  68.803  1.00  0.00    -0.389 OA 
HETATM   12  O   UNL     1      -9.793   8.591  71.983  1.00  0.00    -0.254 OA 
ENDROOT
BRANCH   4  13
HETATM   13  C   UNL     1     -10.204  10.744  66.749  1.00  0.00    -0.230 C  
BRANCH  13  14
HETATM   14  S   UNL     1      -9.447  11.909  65.559  1.00  0.00    -0.072 SA 
BRANCH  14  15
HETATM   15  C   UNL     1      -9.380  13.327  66.554  1.00  0.00    -0.213 A  
HETATM   16  N   UNL     1      -8.277  13.877  67.013  1.00  0.00    -0.111 NA 
HETATM   17  N   UNL     1      -8.663  14.990  67.714  1.00  0.00    -0.160 NA 
HETATM   18  N   UNL     1     -10.442  14.082  66.975  1.00  0.00    -0.273 NA 
HETATM   19  N   UNL     1      -9.979  15.134  67.688  1.00  0.00    -0.228 NA 
BRANCH  18  20
HETATM   20  C   UNL     1     -11.844  14.031  66.673  1.00  0.00    -0.419 C  
HETATM   21  O   UNL     1     -13.597  13.855  64.727  1.00  0.00     0.277 OA 
HETATM   22  O   UNL     1     -11.259  13.356  64.243  1.00  0.00    -0.373 OA 
HETATM   23  O   UNL     1     -11.898  15.723  64.635  1.00  0.00    -0.220 OA 
HETATM   24  S   UNL     1     -12.274  14.373  64.985  1.00  0.00    -0.389 S  
ENDBRANCH  18  20
ENDBRANCH  14  15
ENDBRANCH  13  14
ENDBRANCH   4  13
BRANCH   8  25
HETATM   25  N   UNL     1      -6.707   7.659  71.079  1.00  0.00    -0.042 N  
HETATM   26  C   UNL     1      -7.362   6.632  70.431  1.00  0.00    -0.082 C  
HETATM   27  H   UNL     1      -5.750   7.490  71.389  1.00  0.00     0.000 HD 
HETATM   28  O   UNL     1      -8.531   6.704  70.065  1.00  0.00    -0.136 OA 
BRANCH  26  29
HETATM   29  C   UNL     1      -6.462   5.397  70.201  1.00  0.00    -0.034 C  
HETATM   30  O   UNL     1      -6.268   5.192  68.794  1.00  0.00    -0.028 OA 
HETATM   31  H   UNL     1      -5.714   4.433  68.652  1.00  0.00     0.000 HD 
BRANCH  29  32
HETATM   32  C   UNL     1      -7.044   4.142  70.816  1.00  0.00    -0.033 A  
HETATM   33  C   UNL     1      -6.559   2.883  70.433  1.00  0.00    -0.032 A  
HETATM   34  C   UNL     1      -8.060   4.202  71.786  1.00  0.00    -0.090 A  
HETATM   35  C   UNL     1      -8.593   3.035  72.335  1.00  0.00    -0.086 A  
HETATM   36  C   UNL     1      -8.114   1.792  71.930  1.00  0.00    -0.045 A  
HETATM   37  C   UNL     1      -7.094   1.716  70.984  1.00  0.00    -0.032 A  
ENDBRANCH  29  32
ENDBRANCH  26  29
ENDBRANCH   8  25
TORSDOF 7
ENDMDL
MODEL      271
REMARK 921   NORMALIZED FREE ENERGY PREDICTED BY IDOCK:   -1.93 KCAL/MOL
REMARK 922        TOTAL FREE ENERGY PREDICTED BY IDOCK:   -3.68 KCAL/MOL
REMARK 923 INTER-LIGAND FREE ENERGY PREDICTED BY IDOCK:   -4.39 KCAL/MOL
REMARK 924 INTRA-LIGAND FREE ENERGY PREDICTED BY IDOCK:    0.70 KCAL/MOL
REMARK 927      BINDING AFFINITY PREDICTED BY RF-SCORE:    0.00 PKD
ROOT
HETATM    1  C   UNL     1      -5.509   7.363  69.825  1.00  0.00    -0.023 C  
HETATM    2  S   UNL     1      -6.733   6.049  69.640  1.00  0.00    -0.054 SA 
HETATM    3  C   UNL     1      -6.785   6.152  67.836  1.00  0.00    -0.064 C  
HETATM    4  C   UNL     1      -6.848   7.563  67.259  1.00  0.00    -0.071 C  
HETATM    5  C   UNL     1      -5.865   9.356  70.333  1.00  0.00    -0.044 C  
HETATM    6  CA  UNL     1      -6.520   8.691  67.961  1.00  0.00    -0.057 C  
HETATM    7  C   UNL     1      -6.722  10.054  67.327  1.00  0.00    -0.074 C  
HETATM    8  CA  UNL     1      -5.514   8.101  71.209  1.00  0.00    -0.033 C  
HETATM    9  N   UNL     1      -6.038   8.579  69.244  1.00  0.00    -0.041 N  
HETATM   10  O   UNL     1      -6.816  11.115  68.148  1.00  0.00    -0.065 OA 
HETATM   11  OXT UNL     1      -6.811  10.226  66.118  1.00  0.00    -0.100 OA 
HETATM   12  O   UNL     1      -6.074  10.539  70.482  1.00  0.00    -0.110 OA 
ENDROOT
BRANCH   4  13
HETATM   13  C   UNL     1      -7.502   7.554  65.872  1.00  0.00    -0.082 C  
BRANCH  13  14
HETATM   14  S   UNL     1      -9.262   7.055  65.890  1.00  0.00     0.144 SA 
BRANCH  14  15
HETATM   15  C   UNL     1      -9.968   8.525  66.478  1.00  0.00    -0.280 A  
HETATM   16  N   UNL     1     -10.335   8.742  67.723  1.00  0.00    -0.228 NA 
HETATM   17  N   UNL     1     -10.803  10.031  67.768  1.00  0.00    -0.282 NA 
HETATM   18  N   UNL     1     -10.217   9.660  65.754  1.00  0.00    -0.207 NA 
HETATM   19  N   UNL     1     -10.725  10.605  66.578  1.00  0.00    -0.194 NA 
BRANCH  18  20
HETATM   20  C   UNL     1      -9.904  10.034  64.405  1.00  0.00    -0.133 C  
HETATM   21  O   UNL     1      -9.456  12.070  62.810  1.00  0.00    -0.236 OA 
HETATM   22  O   UNL     1      -9.441  12.447  65.220  1.00  0.00    -0.064 OA 
HETATM   23  O   UNL     1     -11.622  12.028  64.109  1.00  0.00    -0.354 OA 
HETATM   24  S   UNL     1     -10.213  11.733  63.992  1.00  0.00    -0.383 S  
ENDBRANCH  18  20
ENDBRANCH  14  15
ENDBRANCH  13  14
ENDBRANCH   4  13
BRANCH   8  25
HETATM   25  N   UNL     1      -6.571   7.687  72.165  1.00  0.00    -0.053 N  
HETATM   26  C   UNL     1      -7.913   7.970  72.019  1.00  0.00    -0.118 C  
HETATM   27  H   UNL     1      -6.284   7.156  72.988  1.00  0.00     0.000 HD 
HETATM   28  O   UNL     1      -8.361   8.649  71.101  1.00  0.00    -0.133 OA 
BRANCH  26  29
HETATM   29  C   UNL     1      -8.784   7.326  73.121  1.00  0.00    -0.136 C  
HETATM   30  O   UNL     1      -8.002   7.133  74.309  1.00  0.00    -0.117 OA 
HETATM   31  H   UNL     1      -8.538   6.737  74.987  1.00  0.00     0.000 HD 
BRANCH  29  32
HETATM   32  C   UNL     1      -9.371   6.001  72.685  1.00  0.00    -0.147 A  
HETATM   33  C   UNL     1      -9.776   5.062  73.646  1.00  0.00    -0.149 A  
HETATM   34  C   UNL     1      -9.541   5.683  71.326  1.00  0.00    -0.198 A  
HETATM   35  C   UNL     1     -10.074   4.452  70.941  1.00  0.00    -0.199 A  
HETATM   36  C   UNL     1     -10.453   3.524  71.907  1.00  0.00     0.139 A  
HETATM   37  C   UNL     1     -10.309   3.831  73.259  1.00  0.00    -0.242 A  
ENDBRANCH  29  32
ENDBRANCH  26  29
ENDBRANCH   8  25
TORSDOF 7
ENDMDL
MODEL      272
REMARK 921   NORMALIZED FREE ENERGY PREDICTED BY IDOCK:   -1.81 KCAL/MOL
REMARK 922        TOTAL FREE ENERGY PREDICTED BY IDOCK:   -3.52 KCAL/MOL
REMARK 923 INTER-LIGAND FREE ENERGY PREDICTED BY IDOCK:   -3.52 KCAL/MOL
REMARK 924 INTRA-LIGAND FREE ENERGY PREDICTED BY IDOCK:   -0.00 KCAL/MOL
REMARK 927      BINDING AFFINITY PREDICTED BY RF-SCORE:    0.00 PKD
ROOT
HETATM    1  C   UNL     1      -7.154  14.664  69.963  1.00  0.00     0.005 C  
HETATM    2  S   UNL     1      -8.906  15.102  69.967  1.00  0.00     0.628 SA 
HETATM    3  C   UNL     1      -9.483  13.390  69.893  1.00  0.00     2.349 C  
HETATM    4  C   UNL     1      -8.756  12.493  68.896  1.00  0.00     0.310 C  
HETATM    5  C   UNL     1      -5.849  14.698  68.334  1.00  0.00    -0.105 C  
HETATM    6  CA  UNL     1      -7.536  12.786  68.353  1.00  0.00    -0.124 C  
HETATM    7  C   UNL     1      -6.950  11.878  67.287  1.00  0.00    -0.145 C  
HETATM    8  CA  UNL     1      -6.182  15.772  69.429  1.00  0.00    -0.144 C  
HETATM    9  N   UNL     1      -6.863  13.915  68.758  1.00  0.00    -0.099 N  
HETATM   10  O   UNL     1      -6.007  12.393  66.481  1.00  0.00    -0.027 OA 
HETATM   11  OXT UNL     1      -7.303  10.716  67.128  1.00  0.00    -0.092 OA 
HETATM   12  O   UNL     1      -5.126  14.575  67.372  1.00  0.00    -0.324 OA 
ENDROOT
BRANCH   4  13
HETATM   13  C   UNL     1      -9.658  11.335  68.449  1.00  0.00    -0.195 C  
BRANCH  13  14
HETATM   14  S   UNL     1     -11.428  11.588  68.835  1.00  0.00    -0.320 SA 
BRANCH  14  15
HETATM   15  C   UNL     1     -11.783  12.863  67.715  1.00  0.00    -0.362 A  
HETATM   16  N   UNL     1     -12.109  14.093  68.048  1.00  0.00    -0.327 NA 
HETATM   17  N   UNL     1     -12.266  14.783  66.873  1.00  0.00    -0.114 NA 
HETATM   18  N   UNL     1     -11.751  12.784  66.348  1.00  0.00    -0.384 NA 
HETATM   19  N   UNL     1     -12.039  14.000  65.830  1.00  0.00    -0.405 NA 
BRANCH  18  20
HETATM   20  C   UNL     1     -11.339  11.744  65.450  1.00  0.00    -0.222 C  
HETATM   21  O   UNL     1     -10.481  11.248  63.019  1.00  0.00    -0.273 OA 
HETATM   22  O   UNL     1     -10.460  13.553  63.819  1.00  0.00    -0.069 OA 
HETATM   23  O   UNL     1     -12.651  12.515  63.281  1.00  0.00    -0.667 OA 
HETATM   24  S   UNL     1     -11.319  12.186  63.730  1.00  0.00    -0.486 S  
ENDBRANCH  18  20
ENDBRANCH  14  15
ENDBRANCH  13  14
ENDBRANCH   4  13
BRANCH   8  25
HETATM   25  N   UNL     1      -6.821  17.011  68.921  1.00  0.00    -0.200 N  
HETATM   26  C   UNL     1      -6.404  18.290  69.228  1.00  0.00    -0.254 C  
HETATM   27  H   UNL     1      -7.626  16.911  68.302  1.00  0.00     0.000 HD 
HETATM   28  O   UNL     1      -5.486  18.530  70.006  1.00  0.00    -0.213 OA 
BRANCH  26  29
HETATM   29  C   UNL     1      -7.203  19.378  68.475  1.00  0.00    -0.321 C  
HETATM   30  O   UNL     1      -8.609  19.118  68.592  1.00  0.00    -0.350 OA 
HETATM   31  H   UNL     1      -9.101  19.786  68.130  1.00  0.00     0.000 HD 
BRANCH  29  32
HETATM   32  C   UNL     1      -6.826  19.453  67.011  1.00  0.00    -0.206 A  
HETATM   33  C   UNL     1      -5.586  18.958  66.579  1.00  0.00    -0.174 A  
HETATM   34  C   UNL     1      -7.699  19.998  66.054  1.00  0.00    -0.318 A  
HETATM   35  C   UNL     1      -7.331  20.069  64.709  1.00  0.00     0.517 A  
HETATM   36  C   UNL     1      -6.089  19.591  64.300  1.00  0.00    -0.207 A  
HETATM   37  C   UNL     1      -5.219  19.031  65.234  1.00  0.00    -0.201 A  
ENDBRANCH  29  32
ENDBRANCH  26  29
ENDBRANCH   8  25
TORSDOF 7
ENDMDL
MODEL      273
REMARK 921   NORMALIZED FREE ENERGY PREDICTED BY IDOCK:   -0.93 KCAL/MOL
REMARK 922        TOTAL FREE ENERGY PREDICTED BY IDOCK:   -2.28 KCAL/MOL
REMARK 923 INTER-LIGAND FREE ENERGY PREDICTED BY IDOCK:   -2.98 KCAL/MOL
REMARK 924 INTRA-LIGAND FREE ENERGY PREDICTED BY IDOCK:    0.70 KCAL/MOL
REMARK 927      BINDING AFFINITY PREDICTED BY RF-SCORE:    0.00 PKD
ROOT
HETATM    1  C   UNL     1      -7.571  16.192  69.044  1.00  0.00    -0.213 C  
HETATM    2  S   UNL     1      -7.663  15.662  70.768  1.00  0.00     2.540 SA 
HETATM    3  C   UNL     1      -6.199  14.605  70.672  1.00  0.00    -0.115 C  
HETATM    4  C   UNL     1      -6.109  13.717  69.434  1.00  0.00    -0.103 C  
HETATM    5  C   UNL     1      -8.682  15.454  67.437  1.00  0.00    -0.179 C  
HETATM    6  CA  UNL     1      -6.832  13.922  68.292  1.00  0.00    -0.108 C  
HETATM    7  C   UNL     1      -6.747  12.916  67.159  1.00  0.00     0.098 C  
HETATM    8  CA  UNL     1      -8.926  16.662  68.409  1.00  0.00    -0.223 C  
HETATM    9  N   UNL     1      -7.649  15.023  68.192  1.00  0.00    -0.105 N  
HETATM   10  O   UNL     1      -7.755  12.895  66.270  1.00  0.00     0.838 OA 
HETATM   11  OXT UNL     1      -5.819  12.129  67.029  1.00  0.00    -0.170 OA 
HETATM   12  O   UNL     1      -9.212  14.935  66.481  1.00  0.00    -0.258 OA 
ENDROOT
BRANCH   4  13
HETATM   13  C   UNL     1      -5.254  12.475  69.719  1.00  0.00    -0.079 C  
BRANCH  13  14
HETATM   14  S   UNL     1      -6.036  11.290  70.872  1.00  0.00     0.275 SA 
BRANCH  14  15
HETATM   15  C   UNL     1      -7.040  10.426  69.755  1.00  0.00    -0.148 A  
HETATM   16  N   UNL     1      -8.105  10.917  69.160  1.00  0.00    -0.133 NA 
HETATM   17  N   UNL     1      -8.578   9.928  68.336  1.00  0.00    -0.114 NA 
HETATM   18  N   UNL     1      -6.859   9.141  69.317  1.00  0.00    -0.049 NA 
HETATM   19  N   UNL     1      -7.820   8.845  68.413  1.00  0.00    -0.102 NA 
BRANCH  18  20
HETATM   20  C   UNL     1      -5.807   8.189  69.525  1.00  0.00    -0.026 C  
HETATM   21  O   UNL     1      -5.135   6.009  70.825  1.00  0.00    -0.012 OA 
HETATM   22  O   UNL     1      -7.485   6.663  70.774  1.00  0.00    -0.083 OA 
HETATM   23  O   UNL     1      -5.922   8.001  72.165  1.00  0.00    -0.039 OA 
HETATM   24  S   UNL     1      -5.967   7.180  70.978  1.00  0.00    -0.036 S  
ENDBRANCH  18  20
ENDBRANCH  14  15
ENDBRANCH  13  14
ENDBRANCH   4  13
BRANCH   8  25
HETATM   25  N   UNL     1     -10.128  16.542  69.273  1.00  0.00    -0.276 N  
HETATM   26  C   UNL     1     -11.082  15.553  69.152  1.00  0.00    -0.272 C  
HETATM   27  H   UNL     1     -10.256  17.239  70.006  1.00  0.00     0.000 HD 
HETATM   28  O   UNL     1     -11.058  14.699  68.272  1.00  0.00    -0.253 OA 
BRANCH  26  29
HETATM   29  C   UNL     1     -12.165  15.629  70.251  1.00  0.00    -0.386 C  
HETATM   30  O   UNL     1     -11.721  16.485  71.314  1.00  0.00    -0.637 OA 
HETATM   31  H   UNL     1     -12.387  16.532  71.990  1.00  0.00     0.000 HD 
BRANCH  29  32
HETATM   32  C   UNL     1     -12.505  14.265  70.814  1.00  0.00    -0.428 A  
HETATM   33  C   UNL     1     -12.131  13.106  70.117  1.00  0.00    -0.392 A  
HETATM   34  C   UNL     1     -13.179  14.121  72.038  1.00  0.00    -0.488 A  
HETATM   35  C   UNL     1     -13.494  12.856  72.537  1.00  0.00    -0.456 A  
HETATM   36  C   UNL     1     -13.133  11.716  71.824  1.00  0.00    -0.487 A  
HETATM   37  C   UNL     1     -12.447  11.841  70.617  1.00  0.00    -0.364 A  
ENDBRANCH  29  32
ENDBRANCH  26  29
ENDBRANCH   8  25
TORSDOF 7
ENDMDL
MODEL      274
REMARK 921   NORMALIZED FREE ENERGY PREDICTED BY IDOCK:   -0.08 KCAL/MOL
REMARK 922        TOTAL FREE ENERGY PREDICTED BY IDOCK:   -1.08 KCAL/MOL
REMARK 923 INTER-LIGAND FREE ENERGY PREDICTED BY IDOCK:   -1.34 KCAL/MOL
REMARK 924 INTRA-LIGAND FREE ENERGY PREDICTED BY IDOCK:    0.26 KCAL/MOL
REMARK 927      BINDING AFFINITY PREDICTED BY RF-SCORE:    0.00 PKD
ROOT
HETATM    1  C   UNL     1      -7.361   9.771  69.136  1.00  0.00    -0.079 C  
HETATM    2  S   UNL     1      -8.953   9.672  69.982  1.00  0.00    -0.229 SA 
HETATM    3  C   UNL     1      -9.294   7.977  69.450  1.00  0.00    -0.155 C  
HETATM    4  C   UNL     1      -9.005   7.677  67.983  1.00  0.00    -0.126 C  
HETATM    5  C   UNL     1      -6.963  10.675  67.297  1.00  0.00    -0.084 C  
HETATM    6  CA  UNL     1      -8.214   8.457  67.185  1.00  0.00    -0.108 C  
HETATM    7  C   UNL     1      -8.080   8.128  65.710  1.00  0.00    -0.115 C  
HETATM    8  CA  UNL     1      -6.880  11.217  68.768  1.00  0.00    -0.082 C  
HETATM    9  N   UNL     1      -7.569   9.546  67.721  1.00  0.00    -0.087 N  
HETATM   10  O   UNL     1      -7.680   9.112  64.886  1.00  0.00    -0.104 OA 
HETATM   11  OXT UNL     1      -8.326   7.022  65.243  1.00  0.00    -0.136 OA 
HETATM   12  O   UNL     1      -6.753  11.066  66.171  1.00  0.00    -0.127 OA 
ENDROOT
BRANCH   4  13
HETATM   13  C   UNL     1      -9.867   6.509  67.488  1.00  0.00    -0.124 C  
BRANCH  13  14
HETATM   14  S   UNL     1      -8.899   5.049  66.962  1.00  0.00    -0.105 SA 
BRANCH  14  15
HETATM   15  C   UNL     1     -10.013   4.362  65.826  1.00  0.00    -0.239 A  
HETATM   16  N   UNL     1     -11.160   4.900  65.472  1.00  0.00     0.012 NA 
HETATM   17  N   UNL     1     -11.706   4.063  64.532  1.00  0.00     0.586 NA 
HETATM   18  N   UNL     1      -9.853   3.196  65.125  1.00  0.00    -0.022 NA 
HETATM   19  N   UNL     1     -10.914   3.028  64.303  1.00  0.00     0.065 NA 
BRANCH  18  20
HETATM   20  C   UNL     1      -8.756   2.279  65.014  1.00  0.00    -0.114 C  
HETATM   21  O   UNL     1      -6.623   1.672  63.608  1.00  0.00    -0.017 OA 
HETATM   22  O   UNL     1      -7.666   3.851  63.269  1.00  0.00    -0.061 OA 
HETATM   23  O   UNL     1      -8.837   1.839  62.403  1.00  0.00    -0.071 OA 
HETATM   24  S   UNL     1      -7.929   2.265  63.442  1.00  0.00    -0.073 S  
ENDBRANCH  18  20
ENDBRANCH  14  15
ENDBRANCH  13  14
ENDBRANCH   4  13
BRANCH   8  25
HETATM   25  N   UNL     1      -7.823  12.319  69.086  1.00  0.00    -0.323 N  
HETATM   26  C   UNL     1      -7.452  13.631  69.293  1.00  0.00     0.188 C  
HETATM   27  H   UNL     1      -8.814  12.089  69.157  1.00  0.00     0.000 HD 
HETATM   28  O   UNL     1      -6.285  14.009  69.288  1.00  0.00    -0.093 OA 
BRANCH  26  29
HETATM   29  C   UNL     1      -8.661  14.569  69.511  1.00  0.00     0.331 C  
HETATM   30  O   UNL     1      -9.811  14.046  68.829  1.00  0.00    -0.304 OA 
HETATM   31  H   UNL     1     -10.555  14.622  68.962  1.00  0.00     0.000 HD 
BRANCH  29  32
HETATM   32  C   UNL     1      -8.387  15.977  69.026  1.00  0.00    -0.243 A  
HETATM   33  C   UNL     1      -8.634  16.319  67.688  1.00  0.00    -0.181 A  
HETATM   34  C   UNL     1      -7.902  16.971  69.892  1.00  0.00     1.249 A  
HETATM   35  C   UNL     1      -7.644  18.261  69.426  1.00  0.00     0.165 A  
HETATM   36  C   UNL     1      -7.876  18.579  68.091  1.00  0.00    -0.308 A  
HETATM   37  C   UNL     1      -8.376  17.610  67.223  1.00  0.00    -0.225 A  
ENDBRANCH  29  32
ENDBRANCH  26  29
ENDBRANCH   8  25
TORSDOF 7
ENDMDL
MODEL      275
REMARK 921   NORMALIZED FREE ENERGY PREDICTED BY IDOCK:    0.56 KCAL/MOL
REMARK 922        TOTAL FREE ENERGY PREDICTED BY IDOCK:   -0.17 KCAL/MOL
REMARK 923 INTER-LIGAND FREE ENERGY PREDICTED BY IDOCK:    0.68 KCAL/MOL
REMARK 924 INTRA-LIGAND FREE ENERGY PREDICTED BY IDOCK:   -0.85 KCAL/MOL
REMARK 927      BINDING AFFINITY PREDICTED BY RF-SCORE:    0.00 PKD
ROOT
HETATM    1  C   UNL     1      -6.591  13.570  69.191  1.00  0.00    -0.109 C  
HETATM    2  S   UNL     1      -6.615  12.535  70.670  1.00  0.00     1.590 SA 
HETATM    3  C   UNL     1      -5.653  11.197  69.925  1.00  0.00    -0.073 C  
HETATM    4  C   UNL     1      -6.063  10.800  68.511  1.00  0.00    -0.043 C  
HETATM    5  C   UNL     1      -8.110  13.782  67.775  1.00  0.00    -0.176 C  
HETATM    6  CA  UNL     1      -6.823  11.584  67.687  1.00  0.00    -0.083 C  
HETATM    7  C   UNL     1      -7.266  11.047  66.339  1.00  0.00    -0.127 C  
HETATM    8  CA  UNL     1      -7.767  14.602  69.069  1.00  0.00    -0.134 C  
HETATM    9  N   UNL     1      -7.201  12.840  68.100  1.00  0.00    -0.102 N  
HETATM   10  O   UNL     1      -8.332  11.625  65.759  1.00  0.00     0.075 OA 
HETATM   11  OXT UNL     1      -6.707  10.118  65.770  1.00  0.00    -0.095 OA 
HETATM   12  O   UNL     1      -8.922  13.799  66.878  1.00  0.00    -0.237 OA 
ENDROOT
BRANCH   4  13
HETATM   13  C   UNL     1      -5.674   9.344  68.221  1.00  0.00    -0.037 C  
BRANCH  13  14
HETATM   14  S   UNL     1      -6.040   8.196  69.598  1.00  0.00    -0.029 SA 
BRANCH  14  15
HETATM   15  C   UNL     1      -7.652   7.732  69.160  1.00  0.00    -0.099 A  
HETATM   16  N   UNL     1      -8.066   7.505  67.932  1.00  0.00    -0.118 NA 
HETATM   17  N   UNL     1      -9.381   7.129  68.032  1.00  0.00    -0.130 NA 
HETATM   18  N   UNL     1      -8.700   7.514  70.013  1.00  0.00    -0.139 NA 
HETATM   19  N   UNL     1      -9.776   7.118  69.295  1.00  0.00    -0.159 NA 
BRANCH  18  20
HETATM   20  C   UNL     1      -8.792   7.484  71.445  1.00  0.00    -0.132 C  
HETATM   21  O   UNL     1     -10.455   7.317  73.468  1.00  0.00    -0.349 OA 
HETATM   22  O   UNL     1     -11.272   6.771  71.235  1.00  0.00    -0.254 OA 
HETATM   23  O   UNL     1     -10.822   9.154  71.773  1.00  0.00    -0.351 OA 
HETATM   24  S   UNL     1     -10.403   7.815  72.113  1.00  0.00    -0.242 S  
ENDBRANCH  18  20
ENDBRANCH  14  15
ENDBRANCH  13  14
ENDBRANCH   4  13
BRANCH   8  25
HETATM   25  N   UNL     1      -8.794  14.548  70.139  1.00  0.00     0.374 N  
HETATM   26  C   UNL     1      -9.980  15.253  70.120  1.00  0.00    -0.029 C  
HETATM   27  H   UNL     1      -8.611  13.949  70.943  1.00  0.00     0.000 HD 
HETATM   28  O   UNL     1     -10.278  16.045  69.233  1.00  0.00    -0.218 OA 
BRANCH  26  29
HETATM   29  C   UNL     1     -10.892  14.922  71.323  1.00  0.00     0.277 C  
HETATM   30  O   UNL     1     -10.100  14.783  72.512  1.00  0.00     2.093 OA 
HETATM   31  H   UNL     1     -10.661  14.580  73.251  1.00  0.00     0.000 HD 
BRANCH  29  32
HETATM   32  C   UNL     1     -11.693  13.656  71.102  1.00  0.00     0.386 A  
HETATM   33  C   UNL     1     -12.568  13.196  72.098  1.00  0.00     0.008 A  
HETATM   34  C   UNL     1     -11.598  12.925  69.905  1.00  0.00    -0.246 A  
HETATM   35  C   UNL     1     -12.335  11.755  69.723  1.00  0.00    -0.175 A  
HETATM   36  C   UNL     1     -13.184  11.301  70.729  1.00  0.00     0.169 A  
HETATM   37  C   UNL     1     -13.304  12.024  71.914  1.00  0.00    -0.408 A  
ENDBRANCH  29  32
ENDBRANCH  26  29
ENDBRANCH   8  25
TORSDOF 7
ENDMDL
MODEL      276
REMARK 921   NORMALIZED FREE ENERGY PREDICTED BY IDOCK:    1.47 KCAL/MOL
REMARK 922        TOTAL FREE ENERGY PREDICTED BY IDOCK:    1.10 KCAL/MOL
REMARK 923 INTER-LIGAND FREE ENERGY PREDICTED BY IDOCK:   -2.41 KCAL/MOL
REMARK 924 INTRA-LIGAND FREE ENERGY PREDICTED BY IDOCK:    3.51 KCAL/MOL
REMARK 927      BINDING AFFINITY PREDICTED BY RF-SCORE:    0.00 PKD
ROOT
HETATM    1  C   UNL     1     -11.480   9.309  68.357  1.00  0.00     0.668 C  
HETATM    2  S   UNL     1     -10.114   8.637  67.388  1.00  0.00    -0.251 SA 
HETATM    3  C   UNL     1     -10.714   6.933  67.453  1.00  0.00    -0.326 C  
HETATM    4  C   UNL     1     -11.200   6.458  68.819  1.00  0.00    -0.358 C  
HETATM    5  C   UNL     1     -11.470   9.788  70.389  1.00  0.00    -0.280 C  
HETATM    6  CA  UNL     1     -11.530   7.298  69.846  1.00  0.00    -0.054 C  
HETATM    7  C   UNL     1     -11.899   6.720  71.200  1.00  0.00    -0.360 C  
HETATM    8  CA  UNL     1     -11.179  10.651  69.110  1.00  0.00    -0.265 C  
HETATM    9  N   UNL     1     -11.498   8.659  69.651  1.00  0.00     0.204 N  
HETATM   10  O   UNL     1     -11.790   7.524  72.271  1.00  0.00    -0.298 OA 
HETATM   11  OXT UNL     1     -12.277   5.566  71.356  1.00  0.00     0.804 OA 
HETATM   12  O   UNL     1     -11.517   9.931  71.590  1.00  0.00    -0.329 OA 
ENDROOT
BRANCH   4  13
HETATM   13  C   UNL     1     -11.083   4.933  68.937  1.00  0.00     1.737 C  
BRANCH  13  14
HETATM   14  S   UNL     1      -9.884   4.382  70.204  1.00  0.00    -0.181 SA 
BRANCH  14  15
HETATM   15  C   UNL     1      -8.495   5.285  69.693  1.00  0.00    -0.098 A  
HETATM   16  N   UNL     1      -8.326   5.797  68.493  1.00  0.00    -0.107 NA 
HETATM   17  N   UNL     1      -7.125   6.460  68.522  1.00  0.00    -0.080 NA 
HETATM   18  N   UNL     1      -7.407   5.613  70.456  1.00  0.00    -0.077 NA 
HETATM   19  N   UNL     1      -6.561   6.366  69.716  1.00  0.00    -0.046 NA 
BRANCH  18  20
HETATM   20  C   UNL     1      -7.115   5.437  71.850  1.00  0.00    -0.084 C  
HETATM   21  O   UNL     1      -8.148   5.477  74.263  1.00  0.00    -0.105 OA 
HETATM   22  O   UNL     1      -9.656   5.443  72.345  1.00  0.00    -0.149 OA 
HETATM   23  O   UNL     1      -8.406   7.536  72.821  1.00  0.00    -0.107 OA 
HETATM   24  S   UNL     1      -8.319   6.102  72.972  1.00  0.00    -0.114 S  
ENDBRANCH  18  20
ENDBRANCH  14  15
ENDBRANCH  13  14
ENDBRANCH   4  13
BRANCH   8  25
HETATM   25  N   UNL     1      -9.791  11.164  68.999  1.00  0.00    -0.359 N  
HETATM   26  C   UNL     1      -9.420  12.265  68.256  1.00  0.00    -0.209 C  
HETATM   27  H   UNL     1      -9.060  10.666  69.508  1.00  0.00     0.000 HD 
HETATM   28  O   UNL     1     -10.205  12.903  67.561  1.00  0.00    -0.211 OA 
BRANCH  26  29
HETATM   29  C   UNL     1      -7.923  12.616  68.410  1.00  0.00    -0.134 C  
HETATM   30  O   UNL     1      -7.390  11.975  69.579  1.00  0.00    -0.335 OA 
HETATM   31  H   UNL     1      -6.470  12.191  69.673  1.00  0.00     0.000 HD 
BRANCH  29  32
HETATM   32  C   UNL     1      -7.692  14.109  68.505  1.00  0.00    -0.138 A  
HETATM   33  C   UNL     1      -7.135  14.659  69.670  1.00  0.00    -0.125 A  
HETATM   34  C   UNL     1      -8.008  14.972  67.442  1.00  0.00    -0.218 A  
HETATM   35  C   UNL     1      -7.798  16.347  67.551  1.00  0.00    -0.167 A  
HETATM   36  C   UNL     1      -7.263  16.880  68.721  1.00  0.00    -0.220 A  
HETATM   37  C   UNL     1      -6.927  16.036  69.777  1.00  0.00    -0.040 A  
ENDBRANCH  29  32
ENDBRANCH  26  29
ENDBRANCH   8  25
TORSDOF 7
ENDMDL
MODEL      277
REMARK 921   NORMALIZED FREE ENERGY PREDICTED BY IDOCK:    1.96 KCAL/MOL
REMARK 922        TOTAL FREE ENERGY PREDICTED BY IDOCK:    1.79 KCAL/MOL
REMARK 923 INTER-LIGAND FREE ENERGY PREDICTED BY IDOCK:   -1.95 KCAL/MOL
REMARK 924 INTRA-LIGAND FREE ENERGY PREDICTED BY IDOCK:    3.74 KCAL/MOL
REMARK 927      BINDING AFFINITY PREDICTED BY RF-SCORE:    0.00 PKD
ROOT
HETATM    1  C   UNL     1      -7.230   9.815  69.368  1.00  0.00    -0.076 C  
HETATM    2  S   UNL     1      -8.849   9.819  70.166  1.00  0.00    -0.116 SA 
HETATM    3  C   UNL     1      -9.162   8.064  69.867  1.00  0.00    -0.152 C  
HETATM    4  C   UNL     1      -8.822   7.564  68.467  1.00  0.00    -0.126 C  
HETATM    5  C   UNL     1      -6.775  10.456  67.434  1.00  0.00    -0.072 C  
HETATM    6  CA  UNL     1      -8.008   8.231  67.594  1.00  0.00    -0.118 C  
HETATM    7  C   UNL     1      -7.823   7.700  66.185  1.00  0.00    -0.096 C  
HETATM    8  CA  UNL     1      -6.744  11.200  68.816  1.00  0.00    -0.067 C  
HETATM    9  N   UNL     1      -7.388   9.392  67.992  1.00  0.00    -0.079 N  
HETATM   10  O   UNL     1      -7.400   8.563  65.245  1.00  0.00    -0.081 OA 
HETATM   11  OXT UNL     1      -8.047   6.538  65.870  1.00  0.00    -0.112 OA 
HETATM   12  O   UNL     1      -6.528  10.687  66.272  1.00  0.00    -0.106 OA 
ENDROOT
BRANCH   4  13
HETATM   13  C   UNL     1      -9.661   6.328  68.113  1.00  0.00    -0.115 C  
BRANCH  13  14
HETATM   14  S   UNL     1      -8.753   5.077  67.136  1.00  0.00    -0.102 SA 
BRANCH  14  15
HETATM   15  C   UNL     1     -10.039   4.529  66.110  1.00  0.00    -0.258 A  
HETATM   16  N   UNL     1     -11.191   5.144  65.949  1.00  0.00     0.141 NA 
HETATM   17  N   UNL     1     -11.897   4.407  65.032  1.00  0.00     0.847 NA 
HETATM   18  N   UNL     1     -10.032   3.416  65.313  1.00  0.00    -0.011 NA 
HETATM   19  N   UNL     1     -11.197   3.358  64.628  1.00  0.00     0.344 NA 
BRANCH  18  20
HETATM   20  C   UNL     1      -9.009   2.462  64.993  1.00  0.00    -0.126 C  
HETATM   21  O   UNL     1      -7.150   1.840  63.247  1.00  0.00    -0.033 OA 
HETATM   22  O   UNL     1      -8.132   4.072  63.165  1.00  0.00    -0.078 OA 
HETATM   23  O   UNL     1      -9.514   2.151  62.411  1.00  0.00    -0.089 OA 
HETATM   24  S   UNL     1      -8.438   2.491  63.312  1.00  0.00    -0.085 S  
ENDBRANCH  18  20
ENDBRANCH  14  15
ENDBRANCH  13  14
ENDBRANCH   4  13
BRANCH   8  25
HETATM   25  N   UNL     1      -7.704  12.326  68.945  1.00  0.00    -0.313 N  
HETATM   26  C   UNL     1      -7.342  13.649  69.091  1.00  0.00     0.047 C  
HETATM   27  H   UNL     1      -8.699  12.105  68.925  1.00  0.00     0.000 HD 
HETATM   28  O   UNL     1      -6.177  14.022  69.184  1.00  0.00    -0.092 OA 
BRANCH  26  29
HETATM   29  C   UNL     1      -8.557  14.604  69.103  1.00  0.00    -0.035 C  
HETATM   30  O   UNL     1      -8.610  15.307  70.354  1.00  0.00     0.039 OA 
HETATM   31  H   UNL     1      -9.357  15.894  70.362  1.00  0.00     0.000 HD 
BRANCH  29  32
HETATM   32  C   UNL     1      -9.863  13.871  68.883  1.00  0.00    -0.041 A  
HETATM   33  C   UNL     1     -11.056  14.387  69.413  1.00  0.00    -0.294 A  
HETATM   34  C   UNL     1      -9.922  12.680  68.139  1.00  0.00    -0.225 A  
HETATM   35  C   UNL     1     -11.133  12.011  67.955  1.00  0.00    -0.292 A  
HETATM   36  C   UNL     1     -12.304  12.526  68.504  1.00  0.00     0.307 A  
HETATM   37  C   UNL     1     -12.266  13.717  69.228  1.00  0.00    -0.283 A  
ENDBRANCH  29  32
ENDBRANCH  26  29
ENDBRANCH   8  25
TORSDOF 7
ENDMDL
MODEL      278
REMARK 921   NORMALIZED FREE ENERGY PREDICTED BY IDOCK:    2.28 KCAL/MOL
REMARK 922        TOTAL FREE ENERGY PREDICTED BY IDOCK:    2.25 KCAL/MOL
REMARK 923 INTER-LIGAND FREE ENERGY PREDICTED BY IDOCK:   -0.95 KCAL/MOL
REMARK 924 INTRA-LIGAND FREE ENERGY PREDICTED BY IDOCK:    3.20 KCAL/MOL
REMARK 927      BINDING AFFINITY PREDICTED BY RF-SCORE:    0.00 PKD
ROOT
HETATM    1  C   UNL     1      -7.495  16.017  66.290  1.00  0.00     0.454 C  
HETATM    2  S   UNL     1      -8.163  14.340  66.247  1.00  0.00     1.345 SA 
HETATM    3  C   UNL     1      -9.480  14.739  65.074  1.00  0.00     0.685 C  
HETATM    4  C   UNL     1     -10.241  16.031  65.353  1.00  0.00    -0.333 C  
HETATM    5  C   UNL     1      -7.830  17.472  67.749  1.00  0.00    -0.207 C  
HETATM    6  CA  UNL     1      -9.781  17.027  66.170  1.00  0.00    -0.261 C  
HETATM    7  C   UNL     1     -10.666  18.224  66.465  1.00  0.00    -0.170 C  
HETATM    8  CA  UNL     1      -6.699  16.395  67.587  1.00  0.00    -0.138 C  
HETATM    9  N   UNL     1      -8.533  16.922  66.737  1.00  0.00    -0.214 N  
HETATM   10  O   UNL     1     -10.395  18.941  67.569  1.00  0.00    -0.375 OA 
HETATM   11  OXT UNL     1     -11.609  18.553  65.756  1.00  0.00     1.148 OA 
HETATM   12  O   UNL     1      -8.133  18.364  68.508  1.00  0.00    -0.308 OA 
ENDROOT
BRANCH   4  13
HETATM   13  C   UNL     1     -11.652  15.970  64.755  1.00  0.00    -0.100 C  
BRANCH  13  14
HETATM   14  S   UNL     1     -12.832  14.987  65.747  1.00  0.00     0.954 SA 
BRANCH  14  15
HETATM   15  C   UNL     1     -11.714  14.159  66.781  1.00  0.00    -0.410 A  
HETATM   16  N   UNL     1     -11.012  13.099  66.441  1.00  0.00    -0.286 NA 
HETATM   17  N   UNL     1     -10.232  12.789  67.525  1.00  0.00    -0.214 NA 
HETATM   18  N   UNL     1     -11.384  14.496  68.066  1.00  0.00    -0.291 NA 
HETATM   19  N   UNL     1     -10.440  13.639  68.517  1.00  0.00    -0.242 NA 
BRANCH  18  20
HETATM   20  C   UNL     1     -11.733  15.617  68.891  1.00  0.00    -0.384 C  
HETATM   21  O   UNL     1     -11.680  16.553  71.343  1.00  0.00    -0.359 OA 
HETATM   22  O   UNL     1     -10.324  14.597  70.809  1.00  0.00     0.447 OA 
HETATM   23  O   UNL     1     -12.787  14.317  70.945  1.00  0.00    -0.330 OA 
HETATM   24  S   UNL     1     -11.771  15.296  70.637  1.00  0.00    -0.369 S  
ENDBRANCH  18  20
ENDBRANCH  14  15
ENDBRANCH  13  14
ENDBRANCH   4  13
BRANCH   8  25
HETATM   25  N   UNL     1      -6.659  15.361  68.651  1.00  0.00    -0.096 N  
HETATM   26  C   UNL     1      -6.085  15.539  69.893  1.00  0.00    -0.157 C  
HETATM   27  H   UNL     1      -7.085  14.457  68.451  1.00  0.00     0.000 HD 
HETATM   28  O   UNL     1      -5.495  16.563  70.222  1.00  0.00    -0.182 OA 
BRANCH  26  29
HETATM   29  C   UNL     1      -6.281  14.321  70.824  1.00  0.00    -0.116 C  
HETATM   30  O   UNL     1      -5.513  14.497  72.024  1.00  0.00    -0.146 OA 
HETATM   31  H   UNL     1      -5.634  13.748  72.596  1.00  0.00     0.000 HD 
BRANCH  29  32
HETATM   32  C   UNL     1      -5.881  13.021  70.157  1.00  0.00    -0.153 A  
HETATM   33  C   UNL     1      -5.802  11.841  70.912  1.00  0.00     0.085 A  
HETATM   34  C   UNL     1      -5.599  12.957  68.782  1.00  0.00    -0.071 A  
HETATM   35  C   UNL     1      -5.222  11.752  68.186  1.00  0.00    -0.045 A  
HETATM   36  C   UNL     1      -5.128  10.594  68.953  1.00  0.00    -0.041 A  
HETATM   37  C   UNL     1      -5.424  10.638  70.314  1.00  0.00    -0.067 A  
ENDBRANCH  29  32
ENDBRANCH  26  29
ENDBRANCH   8  25
TORSDOF 7
ENDMDL
MODEL      279
REMARK 921   NORMALIZED FREE ENERGY PREDICTED BY IDOCK:    2.83 KCAL/MOL
REMARK 922        TOTAL FREE ENERGY PREDICTED BY IDOCK:    3.02 KCAL/MOL
REMARK 923 INTER-LIGAND FREE ENERGY PREDICTED BY IDOCK:    3.39 KCAL/MOL
REMARK 924 INTRA-LIGAND FREE ENERGY PREDICTED BY IDOCK:   -0.37 KCAL/MOL
REMARK 927      BINDING AFFINITY PREDICTED BY RF-SCORE:    0.00 PKD
ROOT
HETATM    1  C   UNL     1      -6.739  13.435  69.383  1.00  0.00    -0.037 C  
HETATM    2  S   UNL     1      -6.729  12.073  70.568  1.00  0.00     1.559 SA 
HETATM    3  C   UNL     1      -5.533  11.083  69.641  1.00  0.00    -0.041 C  
HETATM    4  C   UNL     1      -5.774  10.999  68.137  1.00  0.00    -0.046 C  
HETATM    5  C   UNL     1      -8.160  13.806  67.899  1.00  0.00    -0.166 C  
HETATM    6  CA  UNL     1      -6.571  11.865  67.441  1.00  0.00    -0.124 C  
HETATM    7  C   UNL     1      -6.829  11.627  65.965  1.00  0.00     0.546 C  
HETATM    8  CA  UNL     1      -8.036  14.317  69.378  1.00  0.00     0.220 C  
HETATM    9  N   UNL     1      -7.154  12.927  68.092  1.00  0.00    -0.095 N  
HETATM   10  O   UNL     1      -7.919  12.198  65.423  1.00  0.00     1.262 OA 
HETATM   11  OXT UNL     1      -6.102  10.939  65.259  1.00  0.00    -0.060 OA 
HETATM   12  O   UNL     1      -8.895  13.946  66.948  1.00  0.00    -0.231 OA 
ENDROOT
BRANCH   4  13
HETATM   13  C   UNL     1      -5.161   9.716  67.560  1.00  0.00    -0.036 C  
BRANCH  13  14
HETATM   14  S   UNL     1      -5.798   8.185  68.331  1.00  0.00    -0.041 SA 
BRANCH  14  15
HETATM   15  C   UNL     1      -7.318   8.061  67.505  1.00  0.00    -0.089 A  
HETATM   16  N   UNL     1      -7.538   8.446  66.266  1.00  0.00    -0.085 NA 
HETATM   17  N   UNL     1      -8.846   8.138  65.994  1.00  0.00    -0.165 NA 
HETATM   18  N   UNL     1      -8.478   7.532  68.002  1.00  0.00    -0.123 NA 
HETATM   19  N   UNL     1      -9.427   7.569  67.039  1.00  0.00    -0.153 NA 
BRANCH  18  20
HETATM   20  C   UNL     1      -8.783   6.853  69.229  1.00  0.00    -0.135 C  
HETATM   21  O   UNL     1     -10.724   5.823  70.665  1.00  0.00    -0.261 OA 
HETATM   22  O   UNL     1     -11.166   6.381  68.332  1.00  0.00    -0.320 OA 
HETATM   23  O   UNL     1     -10.919   8.240  69.959  1.00  0.00    -0.247 OA 
HETATM   24  S   UNL     1     -10.492   6.883  69.713  1.00  0.00    -0.227 S  
ENDBRANCH  18  20
ENDBRANCH  14  15
ENDBRANCH  13  14
ENDBRANCH   4  13
BRANCH   8  25
HETATM   25  N   UNL     1      -9.124  13.881  70.288  1.00  0.00     1.938 N  
HETATM   26  C   UNL     1     -10.388  14.434  70.317  1.00  0.00     0.715 C  
HETATM   27  H   UNL     1      -8.924  13.120  70.936  1.00  0.00     0.000 HD 
HETATM   28  O   UNL     1     -10.720  15.389  69.623  1.00  0.00    -0.240 OA 
BRANCH  26  29
HETATM   29  C   UNL     1     -11.336  13.710  71.299  1.00  0.00     1.631 C  
HETATM   30  O   UNL     1     -12.192  12.813  70.577  1.00  0.00    -0.368 OA 
HETATM   31  H   UNL     1     -12.775  12.368  71.181  1.00  0.00     0.000 HD 
BRANCH  29  32
HETATM   32  C   UNL     1     -12.182  14.680  72.097  1.00  0.00    -0.352 A  
HETATM   33  C   UNL     1     -13.582  14.606  72.032  1.00  0.00    -0.496 A  
HETATM   34  C   UNL     1     -11.600  15.655  72.924  1.00  0.00    -0.408 A  
HETATM   35  C   UNL     1     -12.396  16.548  73.644  1.00  0.00    -0.494 A  
HETATM   36  C   UNL     1     -13.783  16.475  73.554  1.00  0.00     0.578 A  
HETATM   37  C   UNL     1     -14.376  15.501  72.753  1.00  0.00    -0.018 A  
ENDBRANCH  29  32
ENDBRANCH  26  29
ENDBRANCH   8  25
TORSDOF 7
ENDMDL
MODEL      280
REMARK 921   NORMALIZED FREE ENERGY PREDICTED BY IDOCK:    3.33 KCAL/MOL
REMARK 922        TOTAL FREE ENERGY PREDICTED BY IDOCK:    3.72 KCAL/MOL
REMARK 923 INTER-LIGAND FREE ENERGY PREDICTED BY IDOCK:    0.66 KCAL/MOL
REMARK 924 INTRA-LIGAND FREE ENERGY PREDICTED BY IDOCK:    3.06 KCAL/MOL
REMARK 927      BINDING AFFINITY PREDICTED BY RF-SCORE:    0.00 PKD
ROOT
HETATM    1  C   UNL     1      -7.478  10.781  69.464  1.00  0.00    -0.110 C  
HETATM    2  S   UNL     1      -6.790  10.551  67.811  1.00  0.00    -0.074 SA 
HETATM    3  C   UNL     1      -7.722  11.915  67.076  1.00  0.00    -0.146 C  
HETATM    4  C   UNL     1      -9.196  11.989  67.463  1.00  0.00    -0.180 C  
HETATM    5  C   UNL     1      -9.025   9.695  70.350  1.00  0.00    -0.187 C  
HETATM    6  CA  UNL     1      -9.735  11.349  68.545  1.00  0.00    -0.197 C  
HETATM    7  C   UNL     1     -11.233  11.402  68.778  1.00  0.00    -0.247 C  
HETATM    8  CA  UNL     1      -7.467   9.510  70.384  1.00  0.00    -0.151 C  
HETATM    9  N   UNL     1      -8.918  10.642  69.395  1.00  0.00    -0.093 N  
HETATM   10  O   UNL     1     -11.776  10.445  69.551  1.00  0.00    -0.241 OA 
HETATM   11  OXT UNL     1     -11.958  12.260  68.292  1.00  0.00    -0.336 OA 
HETATM   12  O   UNL     1     -10.013   9.171  70.814  1.00  0.00    -0.225 OA 
ENDROOT
BRANCH   4  13
HETATM   13  C   UNL     1     -10.006  12.711  66.378  1.00  0.00    -0.255 C  
BRANCH  13  14
HETATM   14  S   UNL     1      -9.077  14.033  65.521  1.00  0.00     1.157 SA 
BRANCH  14  15
HETATM   15  C   UNL     1      -8.595  14.977  66.893  1.00  0.00    -0.249 A  
HETATM   16  N   UNL     1      -7.356  15.133  67.306  1.00  0.00    -0.202 NA 
HETATM   17  N   UNL     1      -7.411  15.978  68.385  1.00  0.00    -0.138 NA 
HETATM   18  N   UNL     1      -9.415  15.706  67.714  1.00  0.00    -0.207 NA 
HETATM   19  N   UNL     1      -8.658  16.343  68.636  1.00  0.00    -0.225 NA 
BRANCH  18  20
HETATM   20  C   UNL     1     -10.817  16.005  67.661  1.00  0.00    -0.311 C  
HETATM   21  O   UNL     1     -12.812  16.574  66.053  1.00  0.00     3.984 OA 
HETATM   22  O   UNL     1     -10.746  15.706  65.090  1.00  0.00    -0.397 OA 
HETATM   23  O   UNL     1     -10.752  18.033  65.958  1.00  0.00    -0.319 OA 
HETATM   24  S   UNL     1     -11.382  16.748  66.151  1.00  0.00     0.961 S  
ENDBRANCH  18  20
ENDBRANCH  14  15
ENDBRANCH  13  14
ENDBRANCH   4  13
BRANCH   8  25
HETATM   25  N   UNL     1      -6.968   8.259  69.761  1.00  0.00    -0.047 N  
HETATM   26  C   UNL     1      -7.571   7.620  68.698  1.00  0.00    -0.109 C  
HETATM   27  H   UNL     1      -6.120   7.843  70.146  1.00  0.00     0.000 HD 
HETATM   28  O   UNL     1      -8.623   7.999  68.194  1.00  0.00    -0.126 OA 
BRANCH  26  29
HETATM   29  C   UNL     1      -6.771   6.394  68.203  1.00  0.00    -0.068 C  
HETATM   30  O   UNL     1      -5.406   6.768  67.963  1.00  0.00    -0.010 OA 
HETATM   31  H   UNL     1      -4.914   6.014  67.659  1.00  0.00     0.000 HD 
BRANCH  29  32
HETATM   32  C   UNL     1      -7.359   5.799  66.941  1.00  0.00    -0.079 A  
HETATM   33  C   UNL     1      -7.650   6.627  65.845  1.00  0.00    -0.087 A  
HETATM   34  C   UNL     1      -7.609   4.421  66.824  1.00  0.00    -0.086 A  
HETATM   35  C   UNL     1      -8.161   3.892  65.657  1.00  0.00    -0.105 A  
HETATM   36  C   UNL     1      -8.463   4.729  64.586  1.00  0.00    -0.139 A  
HETATM   37  C   UNL     1      -8.203   6.095  64.679  1.00  0.00    -0.094 A  
ENDBRANCH  29  32
ENDBRANCH  26  29
ENDBRANCH   8  25
TORSDOF 7
ENDMDL
MODEL      281
REMARK 921   NORMALIZED FREE ENERGY PREDICTED BY IDOCK:    4.24 KCAL/MOL
REMARK 922        TOTAL FREE ENERGY PREDICTED BY IDOCK:    5.01 KCAL/MOL
REMARK 923 INTER-LIGAND FREE ENERGY PREDICTED BY IDOCK:   -0.83 KCAL/MOL
REMARK 924 INTRA-LIGAND FREE ENERGY PREDICTED BY IDOCK:    5.84 KCAL/MOL
REMARK 927      BINDING AFFINITY PREDICTED BY RF-SCORE:    0.00 PKD
ROOT
HETATM    1  C   UNL     1     -11.190   9.601  67.954  1.00  0.00     0.103 C  
HETATM    2  S   UNL     1     -10.530   9.534  66.275  1.00  0.00     0.042 SA 
HETATM    3  C   UNL     1     -11.118   7.854  65.954  1.00  0.00     3.707 C  
HETATM    4  C   UNL     1     -10.888   6.851  67.080  1.00  0.00    -0.436 C  
HETATM    5  C   UNL     1     -10.142   9.305  69.735  1.00  0.00    -0.204 C  
HETATM    6  CA  UNL     1     -10.613   7.202  68.372  1.00  0.00    -0.186 C  
HETATM    7  C   UNL     1     -10.293   6.124  69.391  1.00  0.00    -0.227 C  
HETATM    8  CA  UNL     1     -10.475  10.606  68.922  1.00  0.00    -0.210 C  
HETATM    9  N   UNL     1     -10.601   8.529  68.730  1.00  0.00    -0.179 N  
HETATM   10  O   UNL     1      -9.618   6.491  70.494  1.00  0.00    -0.168 OA 
HETATM   11  OXT UNL     1     -10.612   4.950  69.249  1.00  0.00    -0.073 OA 
HETATM   12  O   UNL     1      -9.578   8.992  70.758  1.00  0.00    -0.206 OA 
ENDROOT
BRANCH   4  13
HETATM   13  C   UNL     1     -10.819   5.421  66.526  1.00  0.00    -0.148 C  
BRANCH  13  14
HETATM   14  S   UNL     1      -9.114   4.798  66.307  1.00  0.00    -0.129 SA 
BRANCH  14  15
HETATM   15  C   UNL     1      -8.251   6.300  66.372  1.00  0.00    -0.114 A  
HETATM   16  N   UNL     1      -8.720   7.460  65.965  1.00  0.00    -0.154 NA 
HETATM   17  N   UNL     1      -7.744   8.386  66.230  1.00  0.00    -0.092 NA 
HETATM   18  N   UNL     1      -6.992   6.499  66.872  1.00  0.00    -0.066 NA 
HETATM   19  N   UNL     1      -6.691   7.816  66.794  1.00  0.00    -0.065 NA 
BRANCH  18  20
HETATM   20  C   UNL     1      -6.076   5.633  67.557  1.00  0.00    -0.026 C  
HETATM   21  O   UNL     1      -5.740   4.161  69.704  1.00  0.00    -0.016 OA 
HETATM   22  O   UNL     1      -7.986   4.943  69.162  1.00  0.00    -0.075 OA 
HETATM   23  O   UNL     1      -6.339   6.596  70.011  1.00  0.00    -0.037 OA 
HETATM   24  S   UNL     1      -6.427   5.357  69.275  1.00  0.00    -0.040 S  
ENDBRANCH  18  20
ENDBRANCH  14  15
ENDBRANCH  13  14
ENDBRANCH   4  13
BRANCH   8  25
HETATM   25  N   UNL     1      -9.298  11.320  68.367  1.00  0.00    -0.176 N  
HETATM   26  C   UNL     1      -9.305  12.634  67.950  1.00  0.00    -0.204 C  
HETATM   27  H   UNL     1      -8.423  10.802  68.289  1.00  0.00     0.000 HD 
HETATM   28  O   UNL     1     -10.313  13.333  67.945  1.00  0.00    -0.228 OA 
BRANCH  26  29
HETATM   29  C   UNL     1      -7.909  13.131  67.510  1.00  0.00    -0.172 C  
HETATM   30  O   UNL     1      -6.900  12.222  67.975  1.00  0.00    -0.068 OA 
HETATM   31  H   UNL     1      -6.042  12.527  67.705  1.00  0.00     0.000 HD 
BRANCH  29  32
HETATM   32  C   UNL     1      -7.609  14.522  68.027  1.00  0.00    -0.138 A  
HETATM   33  C   UNL     1      -6.516  14.732  68.881  1.00  0.00    -0.089 A  
HETATM   34  C   UNL     1      -8.393  15.629  67.659  1.00  0.00    -0.168 A  
HETATM   35  C   UNL     1      -8.108  16.903  68.154  1.00  0.00    -0.201 A  
HETATM   36  C   UNL     1      -7.032  17.091  69.016  1.00  0.00    -0.229 A  
HETATM   37  C   UNL     1      -6.233  16.007  69.376  1.00  0.00    -0.159 A  
ENDBRANCH  29  32
ENDBRANCH  26  29
ENDBRANCH   8  25
TORSDOF 7
ENDMDL
MODEL      282
REMARK 921   NORMALIZED FREE ENERGY PREDICTED BY IDOCK:    6.22 KCAL/MOL
REMARK 922        TOTAL FREE ENERGY PREDICTED BY IDOCK:    7.79 KCAL/MOL
REMARK 923 INTER-LIGAND FREE ENERGY PREDICTED BY IDOCK:   -0.81 KCAL/MOL
REMARK 924 INTRA-LIGAND FREE ENERGY PREDICTED BY IDOCK:    8.60 KCAL/MOL
REMARK 927      BINDING AFFINITY PREDICTED BY RF-SCORE:    0.00 PKD
ROOT
HETATM    1  C   UNL     1      -9.850  10.459  67.361  1.00  0.00    -0.178 C  
HETATM    2  S   UNL     1      -8.996  11.033  65.877  1.00  0.00    -0.195 SA 
HETATM    3  C   UNL     1      -9.630   9.707  64.824  1.00  0.00    -0.127 C  
HETATM    4  C   UNL     1      -9.590   8.308  65.432  1.00  0.00     0.512 C  
HETATM    5  C   UNL     1      -9.040   9.347  68.931  1.00  0.00    -0.140 C  
HETATM    6  CA  UNL     1      -9.454   8.060  66.770  1.00  0.00    -0.202 C  
HETATM    7  C   UNL     1      -9.317   6.630  67.258  1.00  0.00    -0.132 C  
HETATM    8  CA  UNL     1      -9.204  10.894  68.723  1.00  0.00    -0.183 C  
HETATM    9  N   UNL     1      -9.415   9.110  67.657  1.00  0.00    -0.138 N  
HETATM   10  O   UNL     1      -8.761   6.435  68.466  1.00  0.00    -0.121 OA 
HETATM   11  OXT UNL     1      -9.677   5.660  66.604  1.00  0.00    -0.142 OA 
HETATM   12  O   UNL     1      -8.620   8.582  69.770  1.00  0.00    -0.127 OA 
ENDROOT
BRANCH   4  13
HETATM   13  C   UNL     1      -9.531   7.240  64.332  1.00  0.00     2.457 C  
BRANCH  13  14
HETATM   14  S   UNL     1      -7.873   6.497  64.116  1.00  0.00    -0.091 SA 
BRANCH  14  15
HETATM   15  C   UNL     1      -6.962   7.520  65.178  1.00  0.00    -0.058 A  
HETATM   16  N   UNL     1      -7.255   8.771  65.458  1.00  0.00    -0.083 NA 
HETATM   17  N   UNL     1      -6.313   9.196  66.359  1.00  0.00    -0.065 NA 
HETATM   18  N   UNL     1      -5.842   7.174  65.886  1.00  0.00    -0.035 NA 
HETATM   19  N   UNL     1      -5.454   8.229  66.638  1.00  0.00    -0.032 NA 
BRANCH  18  20
HETATM   20  C   UNL     1      -5.161   5.924  66.067  1.00  0.00    -0.009 C  
HETATM   21  O   UNL     1      -5.419   3.317  65.908  1.00  0.00    -0.015 OA 
HETATM   22  O   UNL     1      -7.118   4.726  64.869  1.00  0.00    -0.060 OA 
HETATM   23  O   UNL     1      -7.058   4.591  67.348  1.00  0.00    -0.062 OA 
HETATM   24  S   UNL     1      -6.208   4.495  66.185  1.00  0.00    -0.033 S  
ENDBRANCH  18  20
ENDBRANCH  14  15
ENDBRANCH  13  14
ENDBRANCH   4  13
BRANCH   8  25
HETATM   25  N   UNL     1      -7.932  11.654  68.628  1.00  0.00    -0.202 N  
HETATM   26  C   UNL     1      -7.830  12.954  68.180  1.00  0.00    -0.147 C  
HETATM   27  H   UNL     1      -7.075  11.182  68.915  1.00  0.00     0.000 HD 
HETATM   28  O   UNL     1      -8.785  13.598  67.757  1.00  0.00    -0.162 OA 
BRANCH  26  29
HETATM   29  C   UNL     1      -6.393  13.513  68.285  1.00  0.00    -0.104 C  
HETATM   30  O   UNL     1      -5.741  12.967  69.441  1.00  0.00    -0.079 OA 
HETATM   31  H   UNL     1      -4.858  13.310  69.506  1.00  0.00     0.000 HD 
BRANCH  29  32
HETATM   32  C   UNL     1      -6.371  15.025  68.363  1.00  0.00    -0.107 A  
HETATM   33  C   UNL     1      -7.095  15.686  69.367  1.00  0.00    -0.198 A  
HETATM   34  C   UNL     1      -5.624  15.797  67.457  1.00  0.00    -0.096 A  
HETATM   35  C   UNL     1      -5.625  17.191  67.537  1.00  0.00    -0.154 A  
HETATM   36  C   UNL     1      -6.364  17.832  68.527  1.00  0.00    -0.187 A  
HETATM   37  C   UNL     1      -7.094  17.080  69.445  1.00  0.00    -0.113 A  
ENDBRANCH  29  32
ENDBRANCH  26  29
ENDBRANCH   8  25
TORSDOF 7
ENDMDL
MODEL      283
REMARK 921   NORMALIZED FREE ENERGY PREDICTED BY IDOCK:    7.84 KCAL/MOL
REMARK 922        TOTAL FREE ENERGY PREDICTED BY IDOCK:   10.08 KCAL/MOL
REMARK 923 INTER-LIGAND FREE ENERGY PREDICTED BY IDOCK:    8.99 KCAL/MOL
REMARK 924 INTRA-LIGAND FREE ENERGY PREDICTED BY IDOCK:    1.08 KCAL/MOL
REMARK 927      BINDING AFFINITY PREDICTED BY RF-SCORE:    0.00 PKD
ROOT
HETATM    1  C   UNL     1      -6.377  16.400  70.382  1.00  0.00     0.376 C  
HETATM    2  S   UNL     1      -7.093  15.165  71.488  1.00  0.00     2.676 SA 
HETATM    3  C   UNL     1      -5.967  13.845  70.979  1.00  0.00    -0.152 C  
HETATM    4  C   UNL     1      -5.737  13.719  69.476  1.00  0.00    -0.095 C  
HETATM    5  C   UNL     1      -7.114  17.010  68.526  1.00  0.00    -0.202 C  
HETATM    6  CA  UNL     1      -6.023  14.706  68.574  1.00  0.00    -0.093 C  
HETATM    7  C   UNL     1      -5.858  14.437  67.090  1.00  0.00     0.885 C  
HETATM    8  CA  UNL     1      -7.331  17.576  69.974  1.00  0.00     1.266 C  
HETATM    9  N   UNL     1      -6.484  15.923  69.018  1.00  0.00    -0.130 N  
HETATM   10  O   UNL     1      -6.536  15.224  66.236  1.00  0.00     1.573 OA 
HETATM   11  OXT UNL     1      -5.152  13.542  66.644  1.00  0.00     0.759 OA 
HETATM   12  O   UNL     1      -7.451  17.262  67.392  1.00  0.00    -0.164 OA 
ENDROOT
BRANCH   4  13
HETATM   13  C   UNL     1      -5.331  12.286  69.108  1.00  0.00    -0.063 C  
BRANCH  13  14
HETATM   14  S   UNL     1      -6.339  10.999  69.928  1.00  0.00    -0.146 SA 
BRANCH  14  15
HETATM   15  C   UNL     1      -7.664  10.923  68.814  1.00  0.00    -0.129 A  
HETATM   16  N   UNL     1      -8.617  11.824  68.709  1.00  0.00    -0.050 NA 
HETATM   17  N   UNL     1      -9.435  11.405  67.691  1.00  0.00    -0.160 NA 
HETATM   18  N   UNL     1      -7.894   9.947  67.881  1.00  0.00    -0.090 NA 
HETATM   19  N   UNL     1      -8.999  10.269  67.170  1.00  0.00    -0.136 NA 
BRANCH  18  20
HETATM   20  C   UNL     1      -7.126   8.809  67.464  1.00  0.00    -0.079 C  
HETATM   21  O   UNL     1      -6.542   7.270  65.419  1.00  0.00    -0.046 OA 
HETATM   22  O   UNL     1      -7.673   9.391  65.001  1.00  0.00    -0.105 OA 
HETATM   23  O   UNL     1      -8.974   7.551  66.043  1.00  0.00    -0.167 OA 
HETATM   24  S   UNL     1      -7.631   8.069  65.931  1.00  0.00    -0.088 S  
ENDBRANCH  18  20
ENDBRANCH  14  15
ENDBRANCH  13  14
ENDBRANCH   4  13
BRANCH   8  25
HETATM   25  N   UNL     1      -8.724  17.491  70.480  1.00  0.00     3.752 N  
HETATM   26  C   UNL     1      -9.738  16.786  69.866  1.00  0.00     0.571 C  
HETATM   27  H   UNL     1      -8.947  17.989  71.342  1.00  0.00     0.000 HD 
HETATM   28  O   UNL     1      -9.598  16.200  68.798  1.00  0.00    -0.215 OA 
BRANCH  26  29
HETATM   29  C   UNL     1     -11.054  16.802  70.675  1.00  0.00     0.275 C  
HETATM   30  O   UNL     1     -10.807  17.301  71.998  1.00  0.00     1.284 OA 
HETATM   31  H   UNL     1     -11.615  17.311  72.496  1.00  0.00     0.000 HD 
BRANCH  29  32
HETATM   32  C   UNL     1     -11.686  15.429  70.766  1.00  0.00    -0.385 A  
HETATM   33  C   UNL     1     -11.321  14.427  69.854  1.00  0.00    -0.273 A  
HETATM   34  C   UNL     1     -12.628  15.117  71.762  1.00  0.00    -0.418 A  
HETATM   35  C   UNL     1     -13.208  13.849  71.824  1.00  0.00    -0.455 A  
HETATM   36  C   UNL     1     -12.850  12.872  70.899  1.00  0.00    -0.203 A  
HETATM   37  C   UNL     1     -11.903  13.160  69.917  1.00  0.00    -0.378 A  
ENDBRANCH  29  32
ENDBRANCH  26  29
ENDBRANCH   8  25
TORSDOF 7
ENDMDL
MODEL      284
REMARK 921   NORMALIZED FREE ENERGY PREDICTED BY IDOCK:    8.52 KCAL/MOL
REMARK 922        TOTAL FREE ENERGY PREDICTED BY IDOCK:   11.04 KCAL/MOL
REMARK 923 INTER-LIGAND FREE ENERGY PREDICTED BY IDOCK:   10.47 KCAL/MOL
REMARK 924 INTRA-LIGAND FREE ENERGY PREDICTED BY IDOCK:    0.58 KCAL/MOL
REMARK 927      BINDING AFFINITY PREDICTED BY RF-SCORE:    0.00 PKD
ROOT
HETATM    1  C   UNL     1      -6.106  11.994  69.716  1.00  0.00    -0.145 C  
HETATM    2  S   UNL     1      -6.385  10.663  70.904  1.00  0.00     0.367 SA 
HETATM    3  C   UNL     1      -5.360   9.464  70.020  1.00  0.00    -0.032 C  
HETATM    4  C   UNL     1      -5.561   9.413  68.509  1.00  0.00    -0.040 C  
HETATM    5  C   UNL     1      -7.385  12.606  68.184  1.00  0.00    -0.112 C  
HETATM    6  CA  UNL     1      -6.163  10.404  67.785  1.00  0.00    -0.056 C  
HETATM    7  C   UNL     1      -6.411  10.205  66.301  1.00  0.00    -0.085 C  
HETATM    8  CA  UNL     1      -7.219  13.098  69.665  1.00  0.00     0.477 C  
HETATM    9  N   UNL     1      -6.564  11.560  68.413  1.00  0.00    -0.058 N  
HETATM   10  O   UNL     1      -7.359  10.961  65.721  1.00  0.00    -0.102 OA 
HETATM   11  OXT UNL     1      -5.799   9.390  65.622  1.00  0.00    -0.052 OA 
HETATM   12  O   UNL     1      -8.050  12.869  67.208  1.00  0.00    -0.176 OA 
ENDROOT
BRANCH   4  13
HETATM   13  C   UNL     1      -5.174   8.035  67.956  1.00  0.00    -0.033 C  
BRANCH  13  14
HETATM   14  S   UNL     1      -6.515   6.795  68.063  1.00  0.00    -0.055 SA 
BRANCH  14  15
HETATM   15  C   UNL     1      -7.789   7.805  68.666  1.00  0.00    -0.120 A  
HETATM   16  N   UNL     1      -8.540   8.595  67.930  1.00  0.00    -0.136 NA 
HETATM   17  N   UNL     1      -9.441   9.178  68.785  1.00  0.00    -0.146 NA 
HETATM   18  N   UNL     1      -8.207   7.906  69.966  1.00  0.00    -0.118 NA 
HETATM   19  N   UNL     1      -9.256   8.758  70.026  1.00  0.00    -0.162 NA 
BRANCH  18  20
HETATM   20  C   UNL     1      -7.845   7.191  71.156  1.00  0.00    -0.098 C  
HETATM   21  O   UNL     1      -8.784   5.777  73.158  1.00  0.00    -0.123 OA 
HETATM   22  O   UNL     1     -10.234   6.197  71.242  1.00  0.00    -0.198 OA 
HETATM   23  O   UNL     1      -9.739   8.085  72.779  1.00  0.00    -0.228 OA 
HETATM   24  S   UNL     1      -9.178   6.851  72.278  1.00  0.00    -0.132 S  
ENDBRANCH  18  20
ENDBRANCH  14  15
ENDBRANCH  13  14
ENDBRANCH   4  13
BRANCH   8  25
HETATM   25  N   UNL     1      -8.399  12.876  70.538  1.00  0.00     4.571 N  
HETATM   26  C   UNL     1      -9.663  13.366  70.284  1.00  0.00     3.472 C  
HETATM   27  H   UNL     1      -8.265  12.322  71.384  1.00  0.00     0.000 HD 
HETATM   28  O   UNL     1      -9.925  14.090  69.329  1.00  0.00    -0.004 OA 
BRANCH  26  29
HETATM   29  C   UNL     1     -10.708  12.891  71.319  1.00  0.00     5.482 C  
HETATM   30  O   UNL     1     -11.392  11.731  70.822  1.00  0.00    -0.113 OA 
HETATM   31  H   UNL     1     -12.035  11.439  71.457  1.00  0.00     0.000 HD 
BRANCH  29  32
HETATM   32  C   UNL     1     -11.720  13.969  71.646  1.00  0.00     0.487 A  
HETATM   33  C   UNL     1     -11.337  15.083  72.408  1.00  0.00    -0.146 A  
HETATM   34  C   UNL     1     -13.047  13.896  71.188  1.00  0.00    -0.351 A  
HETATM   35  C   UNL     1     -13.969  14.893  71.508  1.00  0.00    -0.571 A  
HETATM   36  C   UNL     1     -13.578  15.982  72.282  1.00  0.00    -0.181 A  
HETATM   37  C   UNL     1     -12.261  16.079  72.728  1.00  0.00    -0.617 A  
ENDBRANCH  29  32
ENDBRANCH  26  29
ENDBRANCH   8  25
TORSDOF 7
ENDMDL
MODEL      285
REMARK 921   NORMALIZED FREE ENERGY PREDICTED BY IDOCK:    9.94 KCAL/MOL
REMARK 922        TOTAL FREE ENERGY PREDICTED BY IDOCK:   13.04 KCAL/MOL
REMARK 923 INTER-LIGAND FREE ENERGY PREDICTED BY IDOCK:    5.14 KCAL/MOL
REMARK 924 INTRA-LIGAND FREE ENERGY PREDICTED BY IDOCK:    7.90 KCAL/MOL
REMARK 927      BINDING AFFINITY PREDICTED BY RF-SCORE:    0.00 PKD
ROOT
HETATM    1  C   UNL     1      -9.785  17.200  69.497  1.00  0.00     0.182 C  
HETATM    2  S   UNL     1     -10.431  15.561  69.099  1.00  0.00    -0.248 SA 
HETATM    3  C   UNL     1      -9.545  14.728  70.437  1.00  0.00     1.026 C  
HETATM    4  C   UNL     1      -8.084  15.129  70.610  1.00  0.00     1.556 C  
HETATM    5  C   UNL     1      -8.208  18.196  68.559  1.00  0.00    -0.307 C  
HETATM    6  CA  UNL     1      -7.538  16.269  70.088  1.00  0.00     1.142 C  
HETATM    7  C   UNL     1      -6.048  16.519  70.226  1.00  0.00     0.023 C  
HETATM    8  CA  UNL     1      -9.757  18.223  68.309  1.00  0.00    -0.335 C  
HETATM    9  N   UNL     1      -8.339  17.163  69.418  1.00  0.00     0.168 N  
HETATM   10  O   UNL     1      -5.478  17.378  69.363  1.00  0.00    -0.169 OA 
HETATM   11  OXT UNL     1      -5.351  15.973  71.073  1.00  0.00    -0.131 OA 
HETATM   12  O   UNL     1      -7.208  18.717  68.121  1.00  0.00    -0.241 OA 
ENDROOT
BRANCH   4  13
HETATM   13  C   UNL     1      -7.286  14.000  71.274  1.00  0.00     2.708 C  
BRANCH  13  14
HETATM   14  S   UNL     1      -5.740  13.574  70.394  1.00  0.00    -0.166 SA 
BRANCH  14  15
HETATM   15  C   UNL     1      -6.258  12.126  69.594  1.00  0.00    -0.131 A  
HETATM   16  N   UNL     1      -6.580  11.002  70.198  1.00  0.00    -0.201 NA 
HETATM   17  N   UNL     1      -6.968  10.131  69.212  1.00  0.00    -0.060 NA 
HETATM   18  N   UNL     1      -6.429  11.952  68.247  1.00  0.00    -0.050 NA 
HETATM   19  N   UNL     1      -6.892  10.701  68.020  1.00  0.00    -0.071 NA 
BRANCH  18  20
HETATM   20  C   UNL     1      -6.355  12.859  67.138  1.00  0.00     0.162 C  
HETATM   21  O   UNL     1      -7.704  14.621  65.735  1.00  0.00     2.480 OA 
HETATM   22  O   UNL     1      -8.610  13.892  67.880  1.00  0.00    -0.159 OA 
HETATM   23  O   UNL     1      -8.669  12.298  65.977  1.00  0.00     0.038 OA 
HETATM   24  S   UNL     1      -7.916  13.414  66.500  1.00  0.00     1.093 S  
ENDBRANCH  18  20
ENDBRANCH  14  15
ENDBRANCH  13  14
ENDBRANCH   4  13
BRANCH   8  25
HETATM   25  N   UNL     1     -10.190  17.700  66.988  1.00  0.00    -0.320 N  
HETATM   26  C   UNL     1      -9.633  16.606  66.360  1.00  0.00    -0.285 C  
HETATM   27  H   UNL     1     -10.951  18.184  66.513  1.00  0.00     0.000 HD 
HETATM   28  O   UNL     1      -8.677  15.984  66.812  1.00  0.00    -0.205 OA 
BRANCH  26  29
HETATM   29  C   UNL     1     -10.354  16.240  65.043  1.00  0.00     0.008 C  
HETATM   30  O   UNL     1     -11.174  17.338  64.616  1.00  0.00    -1.014 OA 
HETATM   31  H   UNL     1     -11.617  17.114  63.806  1.00  0.00     0.000 HD 
BRANCH  29  32
HETATM   32  C   UNL     1     -11.210  14.999  65.184  1.00  0.00    -0.391 A  
HETATM   33  C   UNL     1     -11.396  14.147  64.085  1.00  0.00    -0.122 A  
HETATM   34  C   UNL     1     -11.818  14.661  66.405  1.00  0.00    -0.304 A  
HETATM   35  C   UNL     1     -12.613  13.518  66.514  1.00  0.00    -0.181 A  
HETATM   36  C   UNL     1     -12.804  12.693  65.409  1.00  0.00     0.113 A  
HETATM   37  C   UNL     1     -12.191  13.005  64.197  1.00  0.00    -0.471 A  
ENDBRANCH  29  32
ENDBRANCH  26  29
ENDBRANCH   8  25
TORSDOF 7
ENDMDL
MODEL      286
REMARK 921   NORMALIZED FREE ENERGY PREDICTED BY IDOCK:   18.01 KCAL/MOL
REMARK 922        TOTAL FREE ENERGY PREDICTED BY IDOCK:   24.42 KCAL/MOL
REMARK 923 INTER-LIGAND FREE ENERGY PREDICTED BY IDOCK:   11.99 KCAL/MOL
REMARK 924 INTRA-LIGAND FREE ENERGY PREDICTED BY IDOCK:   12.43 KCAL/MOL
REMARK 927      BINDING AFFINITY PREDICTED BY RF-SCORE:    0.00 PKD
ROOT
HETATM    1  C   UNL     1      -7.213  13.497  67.305  1.00  0.00     0.013 C  
HETATM    2  S   UNL     1      -7.980  12.583  65.950  1.00  0.00     1.836 SA 
HETATM    3  C   UNL     1      -8.436  14.064  65.018  1.00  0.00     4.736 C  
HETATM    4  C   UNL     1      -9.051  15.194  65.837  1.00  0.00    -0.078 C  
HETATM    5  C   UNL     1      -8.055  13.942  69.163  1.00  0.00     0.242 C  
HETATM    6  CA  UNL     1      -8.951  15.295  67.197  1.00  0.00    -0.209 C  
HETATM    7  C   UNL     1      -9.693  16.400  67.925  1.00  0.00    -0.235 C  
HETATM    8  CA  UNL     1      -7.159  12.747  68.681  1.00  0.00    -0.100 C  
HETATM    9  N   UNL     1      -8.202  14.377  67.894  1.00  0.00    -0.144 N  
HETATM   10  O   UNL     1      -9.937  16.228  69.235  1.00  0.00    -0.245 OA 
HETATM   11  OXT UNL     1     -10.080  17.423  67.375  1.00  0.00    -0.299 OA 
HETATM   12  O   UNL     1      -8.584  14.328  70.180  1.00  0.00     1.066 OA 
ENDROOT
BRANCH   4  13
HETATM   13  C   UNL     1      -9.945  16.078  64.956  1.00  0.00     0.330 C  
BRANCH  13  14
HETATM   14  S   UNL     1     -11.571  16.458  65.703  1.00  0.00     1.015 SA 
BRANCH  14  15
HETATM   15  C   UNL     1     -11.949  14.902  66.367  1.00  0.00    -0.064 A  
HETATM   16  N   UNL     1     -12.838  14.678  67.311  1.00  0.00     0.961 NA 
HETATM   17  N   UNL     1     -12.854  13.322  67.513  1.00  0.00     0.834 NA 
HETATM   18  N   UNL     1     -11.408  13.700  65.995  1.00  0.00    -0.308 NA 
HETATM   19  N   UNL     1     -11.997  12.713  66.709  1.00  0.00    -0.519 NA 
BRANCH  18  20
HETATM   20  C   UNL     1     -10.505  13.331  64.944  1.00  0.00    -0.371 C  
HETATM   21  O   UNL     1     -10.186  13.262  62.339  1.00  0.00     3.941 OA 
HETATM   22  O   UNL     1     -12.007  14.599  63.259  1.00  0.00     0.157 OA 
HETATM   23  O   UNL     1     -12.217  12.126  63.321  1.00  0.00    -0.503 OA 
HETATM   24  S   UNL     1     -11.233  13.182  63.331  1.00  0.00     0.286 S  
ENDBRANCH  18  20
ENDBRANCH  14  15
ENDBRANCH  13  14
ENDBRANCH   4  13
BRANCH   8  25
HETATM   25  N   UNL     1      -7.812  11.414  68.723  1.00  0.00    -0.178 N  
HETATM   26  C   UNL     1      -7.760  10.486  67.705  1.00  0.00    -0.097 C  
HETATM   27  H   UNL     1      -8.335  11.169  69.564  1.00  0.00     0.000 HD 
HETATM   28  O   UNL     1      -7.209  10.696  66.629  1.00  0.00    -0.113 OA 
BRANCH  26  29
HETATM   29  C   UNL     1      -8.452   9.153  68.073  1.00  0.00    -0.121 C  
HETATM   30  O   UNL     1      -7.841   8.595  69.246  1.00  0.00    -0.096 OA 
HETATM   31  H   UNL     1      -8.266   7.777  69.472  1.00  0.00     0.000 HD 
BRANCH  29  32
HETATM   32  C   UNL     1      -8.388   8.145  66.945  1.00  0.00    -0.115 A  
HETATM   33  C   UNL     1      -7.145   7.670  66.499  1.00  0.00    -0.075 A  
HETATM   34  C   UNL     1      -9.553   7.651  66.333  1.00  0.00    -0.223 A  
HETATM   35  C   UNL     1      -9.475   6.730  65.288  1.00  0.00     0.850 A  
HETATM   36  C   UNL     1      -8.233   6.283  64.843  1.00  0.00    -0.119 A  
HETATM   37  C   UNL     1      -7.069   6.749  65.452  1.00  0.00    -0.064 A  
ENDBRANCH  29  32
ENDBRANCH  26  29
ENDBRANCH   8  25
TORSDOF 7
ENDMDL
MODEL      287
REMARK 921   NORMALIZED FREE ENERGY PREDICTED BY IDOCK:   19.45 KCAL/MOL
REMARK 922        TOTAL FREE ENERGY PREDICTED BY IDOCK:   26.44 KCAL/MOL
REMARK 923 INTER-LIGAND FREE ENERGY PREDICTED BY IDOCK:   13.94 KCAL/MOL
REMARK 924 INTRA-LIGAND FREE ENERGY PREDICTED BY IDOCK:   12.50 KCAL/MOL
REMARK 927      BINDING AFFINITY PREDICTED BY RF-SCORE:    0.00 PKD
ROOT
HETATM    1  C   UNL     1      -7.552  11.057  69.610  1.00  0.00     0.092 C  
HETATM    2  S   UNL     1      -7.568  10.151  68.048  1.00  0.00    -0.088 SA 
HETATM    3  C   UNL     1      -8.822  11.206  67.283  1.00  0.00    -0.144 C  
HETATM    4  C   UNL     1     -10.018  11.553  68.165  1.00  0.00    -0.197 C  
HETATM    5  C   UNL     1      -8.523  10.532  71.383  1.00  0.00     4.634 C  
HETATM    6  CA  UNL     1     -10.026  11.425  69.526  1.00  0.00     0.408 C  
HETATM    7  C   UNL     1     -11.304  11.694  70.298  1.00  0.00     0.130 C  
HETATM    8  CA  UNL     1      -7.072  10.239  70.860  1.00  0.00     0.600 C  
HETATM    9  N   UNL     1      -8.883  11.029  70.180  1.00  0.00     1.372 N  
HETATM   10  O   UNL     1     -11.414  11.158  71.526  1.00  0.00     0.797 OA 
HETATM   11  OXT UNL     1     -12.229  12.361  69.853  1.00  0.00    -0.248 OA 
HETATM   12  O   UNL     1      -9.197  10.315  72.364  1.00  0.00     4.800 OA 
ENDROOT
BRANCH   4  13
HETATM   13  C   UNL     1     -11.249  11.872  67.308  1.00  0.00    -0.317 C  
BRANCH  13  14
HETATM   14  S   UNL     1     -10.844  12.576  65.669  1.00  0.00    -0.287 SA 
BRANCH  14  15
HETATM   15  C   UNL     1      -9.821  13.884  66.166  1.00  0.00    -0.302 A  
HETATM   16  N   UNL     1      -8.543  13.997  65.874  1.00  0.00     0.954 NA 
HETATM   17  N   UNL     1      -8.125  15.184  66.421  1.00  0.00     0.178 NA 
HETATM   18  N   UNL     1     -10.191  14.980  66.898  1.00  0.00    -0.255 NA 
HETATM   19  N   UNL     1      -9.123  15.798  67.037  1.00  0.00    -0.209 NA 
BRANCH  18  20
HETATM   20  C   UNL     1     -11.465  15.443  67.369  1.00  0.00    -0.195 C  
HETATM   21  O   UNL     1     -13.512  14.848  68.901  1.00  0.00     2.168 OA 
HETATM   22  O   UNL     1     -11.463  13.545  69.129  1.00  0.00    -0.261 OA 
HETATM   23  O   UNL     1     -12.853  13.202  67.100  1.00  0.00     0.314 OA 
HETATM   24  S   UNL     1     -12.510  14.200  68.087  1.00  0.00     0.510 S  
ENDBRANCH  18  20
ENDBRANCH  14  15
ENDBRANCH  13  14
ENDBRANCH   4  13
BRANCH   8  25
HETATM   25  N   UNL     1      -6.766   8.806  70.624  1.00  0.00    -0.043 N  
HETATM   26  C   UNL     1      -6.585   7.870  71.621  1.00  0.00    -0.044 C  
HETATM   27  H   UNL     1      -6.685   8.492  69.657  1.00  0.00     0.000 HD 
HETATM   28  O   UNL     1      -6.604   8.147  72.815  1.00  0.00    -0.074 OA 
BRANCH  26  29
HETATM   29  C   UNL     1      -6.376   6.441  71.070  1.00  0.00    -0.048 C  
HETATM   30  O   UNL     1      -7.414   6.124  70.131  1.00  0.00    -0.088 OA 
HETATM   31  H   UNL     1      -7.286   5.246  69.792  1.00  0.00     0.000 HD 
BRANCH  29  32
HETATM   32  C   UNL     1      -6.360   5.401  72.171  1.00  0.00    -0.036 A  
HETATM   33  C   UNL     1      -5.179   5.158  72.889  1.00  0.00    -0.009 A  
HETATM   34  C   UNL     1      -7.512   4.673  72.511  1.00  0.00    -0.084 A  
HETATM   35  C   UNL     1      -7.476   3.711  73.521  1.00  0.00    -0.062 A  
HETATM   36  C   UNL     1      -6.292   3.467  74.211  1.00  0.00    -0.025 A  
HETATM   37  C   UNL     1      -5.145   4.195  73.898  1.00  0.00    -0.003 A  
ENDBRANCH  29  32
ENDBRANCH  26  29
ENDBRANCH   8  25
TORSDOF 7
ENDMDL
MODEL      288
REMARK 921   NORMALIZED FREE ENERGY PREDICTED BY IDOCK:   52.17 KCAL/MOL
REMARK 922        TOTAL FREE ENERGY PREDICTED BY IDOCK:   72.55 KCAL/MOL
REMARK 923 INTER-LIGAND FREE ENERGY PREDICTED BY IDOCK:    9.53 KCAL/MOL
REMARK 924 INTRA-LIGAND FREE ENERGY PREDICTED BY IDOCK:   63.03 KCAL/MOL
REMARK 927      BINDING AFFINITY PREDICTED BY RF-SCORE:    0.00 PKD
ROOT
HETATM    1  C   UNL     1      -7.446  13.406  67.329  1.00  0.00    -0.046 C  
HETATM    2  S   UNL     1      -8.345  12.209  66.320  1.00  0.00     0.334 SA 
HETATM    3  C   UNL     1      -9.583  13.399  65.752  1.00  0.00    -0.047 C  
HETATM    4  C   UNL     1     -10.155  14.317  66.828  1.00  0.00    -0.264 C  
HETATM    5  C   UNL     1      -7.584  13.669  69.396  1.00  0.00     0.355 C  
HETATM    6  CA  UNL     1      -9.565  14.530  68.043  1.00  0.00    -0.217 C  
HETATM    7  C   UNL     1     -10.274  15.378  69.083  1.00  0.00    -0.239 C  
HETATM    8  CA  UNL     1      -6.616  12.802  68.515  1.00  0.00    -0.086 C  
HETATM    9  N   UNL     1      -8.350  13.951  68.322  1.00  0.00    -0.158 N  
HETATM   10  O   UNL     1      -9.913  15.218  70.368  1.00  0.00    -0.094 OA 
HETATM   11  OXT UNL     1     -11.154  16.183  68.806  1.00  0.00    -0.313 OA 
HETATM   12  O   UNL     1      -7.764  13.925  70.565  1.00  0.00     1.514 OA 
ENDROOT
BRANCH   4  13
HETATM   13  C   UNL     1     -11.555  14.805  66.435  1.00  0.00    -0.299 C  
BRANCH  13  14
HETATM   14  S   UNL     1     -12.435  15.679  67.780  1.00  0.00     1.601 SA 
BRANCH  14  15
HETATM   15  C   UNL     1     -11.545  15.076  69.141  1.00  0.00    -0.310 A  
HETATM   16  N   UNL     1     -11.315  15.744  70.250  1.00  0.00    -0.329 NA 
HETATM   17  N   UNL     1     -10.618  14.898  71.074  1.00  0.00     0.215 NA 
HETATM   18  N   UNL     1     -10.987  13.832  69.267  1.00  0.00    -0.208 NA 
HETATM   19  N   UNL     1     -10.423  13.725  70.491  1.00  0.00     1.658 NA 
BRANCH  18  20
HETATM   20  C   UNL     1     -11.036  12.662  68.438  1.00  0.00    -0.265 C  
HETATM   21  O   UNL     1     -12.643  10.913  67.318  1.00  0.00     1.921 OA 
HETATM   22  O   UNL     1     -13.598  12.967  68.224  1.00  0.00     4.037 OA 
HETATM   23  O   UNL     1     -12.795  11.241  69.819  1.00  0.00    -0.010 OA 
HETATM   24  S   UNL     1     -12.562  11.755  68.489  1.00  0.00     1.622 S  
ENDBRANCH  18  20
ENDBRANCH  14  15
ENDBRANCH  13  14
ENDBRANCH   4  13
BRANCH   8  25
HETATM   25  N   UNL     1      -6.731  11.335  68.711  1.00  0.00    -0.064 N  
HETATM   26  C   UNL     1      -6.892  10.420  67.692  1.00  0.00    -0.075 C  
HETATM   27  H   UNL     1      -6.689  10.979  69.666  1.00  0.00     0.000 HD 
HETATM   28  O   UNL     1      -7.013  10.739  66.513  1.00  0.00    -0.115 OA 
BRANCH  26  29
HETATM   29  C   UNL     1      -6.884   8.958  68.192  1.00  0.00    -0.069 C  
HETATM   30  O   UNL     1      -5.661   8.690  68.894  1.00  0.00    -0.039 OA 
HETATM   31  H   UNL     1      -5.656   7.791  69.202  1.00  0.00     0.000 HD 
BRANCH  29  32
HETATM   32  C   UNL     1      -7.042   7.965  67.060  1.00  0.00    -0.078 A  
HETATM   33  C   UNL     1      -5.906   7.415  66.446  1.00  0.00    -0.036 A  
HETATM   34  C   UNL     1      -8.309   7.559  66.609  1.00  0.00    -0.127 A  
HETATM   35  C   UNL     1      -8.436   6.651  65.556  1.00  0.00    -0.135 A  
HETATM   36  C   UNL     1      -7.299   6.130  64.944  1.00  0.00    -0.074 A  
HETATM   37  C   UNL     1      -6.034   6.508  65.393  1.00  0.00    -0.033 A  
ENDBRANCH  29  32
ENDBRANCH  26  29
ENDBRANCH   8  25
TORSDOF 7
ENDMDL
