MODEL        1
REMARK 921   NORMALIZED FREE ENERGY PREDICTED BY IDOCK:   -8.10 KCAL/MOL
REMARK 922        TOTAL FREE ENERGY PREDICTED BY IDOCK:  -15.13 KCAL/MOL
REMARK 923 INTER-LIGAND FREE ENERGY PREDICTED BY IDOCK:  -12.83 KCAL/MOL
REMARK 924 INTRA-LIGAND FREE ENERGY PREDICTED BY IDOCK:   -2.30 KCAL/MOL
REMARK 927      BINDING AFFINITY PREDICTED BY RF-SCORE:    0.00 PKD
ROOT
HETATM    1  C   UNL     1     -10.748  10.324  68.845  1.00  0.00    -0.227 C  
HETATM    2  S   UNL     1      -9.099  11.013  68.568  1.00  0.00    -0.175 SA 
HETATM    3  C   UNL     1      -8.256   9.486  69.038  1.00  0.00    -0.113 C  
HETATM    4  C   UNL     1      -8.759   8.833  70.322  1.00  0.00    -0.170 C  
HETATM    5  CA  UNL     1      -9.974   9.100  70.886  1.00  0.00    -0.288 C  
HETATM    6  CA  UNL     1     -11.875  11.378  69.137  1.00  0.00    -0.345 C  
HETATM    7  O   UNL     1     -12.727  10.487  71.462  1.00  0.00    -0.387 OA 
HETATM    8  N   UNL     1     -10.851   9.926  70.236  1.00  0.00    -0.288 N  
HETATM    9  C   UNL     1     -10.316   8.557  72.262  1.00  0.00    -0.332 C  
HETATM   10  OXT UNL     1      -9.487   8.105  73.038  1.00  0.00    -0.259 OA 
HETATM   11  O   UNL     1     -11.624   8.507  72.582  1.00  0.00    -0.357 OA 
HETATM   12  C   UNL     1     -12.006  10.584  70.495  1.00  0.00    -0.342 C  
ENDROOT
BRANCH   4  13
HETATM   13  C   UNL     1      -7.661   7.962  70.933  1.00  0.00    -0.083 C  
BRANCH  13  14
HETATM   14  S   UNL     1      -7.510   6.289  70.257  1.00  0.00    -0.097 SA 
BRANCH  14  15
HETATM   15  C   UNL     1      -8.400   5.304  71.343  1.00  0.00    -0.121 A  
HETATM   16  N   UNL     1      -7.969   4.675  72.409  1.00  0.00    -0.093 NA 
HETATM   17  C   UNL     1     -10.653   5.495  70.190  1.00  0.00    -0.297 C  
HETATM   18  N   UNL     1      -9.053   3.988  72.903  1.00  0.00    -0.107 NA 
HETATM   19  N   UNL     1      -9.730   5.031  71.185  1.00  0.00    -0.169 NA 
HETATM   20  N   UNL     1     -10.132   4.198  72.161  1.00  0.00    -0.183 NA 
ENDBRANCH  14  15
ENDBRANCH  13  14
ENDBRANCH   4  13
BRANCH   6  21
HETATM   21  N   UNL     1     -11.405  12.790  69.218  1.00  0.00    -0.364 N  
HETATM   22  H   UNL     1     -10.783  13.048  69.984  1.00  0.00     0.000 HD 
HETATM   23  O   UNL     1     -12.374  13.497  67.280  1.00  0.00    -0.297 OA 
HETATM   24  C   UNL     1     -11.766  13.766  68.313  1.00  0.00    -0.359 C  
BRANCH  24  25
HETATM   25  CA  UNL     1     -11.502  15.222  68.788  1.00  0.00    -0.331 C  
BRANCH  25  26
HETATM   26  C   UNL     1     -12.090  15.463  70.171  1.00  0.00    -0.400 A  
HETATM   27  C   UNL     1     -13.934  15.328  71.759  1.00  0.00    -0.638 A  
HETATM   28  C   UNL     1     -11.296  16.029  71.181  1.00  0.00    -0.413 A  
HETATM   29  O   UNL     1     -13.661  16.046  73.985  1.00  0.00    -0.762 OA 
HETATM   30  C   UNL     1     -13.419  15.113  70.480  1.00  0.00    -0.122 A  
HETATM   31  C   UNL     1     -11.811  16.237  72.465  1.00  0.00    -0.608 A  
HETATM   32  H   UNL     1     -14.558  15.800  74.176  1.00  0.00     0.000 HD 
HETATM   33  C   UNL     1     -13.124  15.878  72.744  1.00  0.00    -0.491 A  
ENDBRANCH  25  26
BRANCH  25  34
HETATM   34  N   UNL     1     -10.076  15.539  68.798  1.00  0.00    -0.204 N  
HETATM   35  H   UNL     1      -9.543  15.381  69.654  1.00  0.00     0.000 HD 
BRANCH  34  36
HETATM   36  C   UNL     1      -9.427  16.041  67.704  1.00  0.00    -0.216 C  
HETATM   37  O   UNL     1      -9.402  15.426  66.641  1.00  0.00    -0.227 OA 
BRANCH  36  38
HETATM   38  N   UNL     1      -8.822  17.280  67.872  1.00  0.00    -0.231 N  
HETATM   39  C   UNL     1      -7.405  17.307  68.220  1.00  0.00    -0.214 C  
HETATM   40  N   UNL     1      -7.308  19.679  67.647  1.00  0.00    -0.248 N  
HETATM   41  C   UNL     1      -6.661  18.392  67.465  1.00  0.00    -0.196 C  
HETATM   42  C   UNL     1      -8.692  19.774  67.522  1.00  0.00    -0.330 C  
HETATM   43  O   UNL     1     -10.730  18.586  67.942  1.00  0.00    -0.385 OA 
HETATM   44  C   UNL     1      -9.515  18.491  67.784  1.00  0.00    -0.289 C  
HETATM   45  O   UNL     1      -9.282  20.814  67.255  1.00  0.00    -0.364 OA 
BRANCH  40  46
HETATM   46  C   UNL     1      -6.508  20.896  67.727  1.00  0.00    -0.348 C  
HETATM   47  C   UNL     1      -5.603  20.972  68.942  1.00  0.00    -0.363 C  
ENDBRANCH  40  46
ENDBRANCH  36  38
ENDBRANCH  34  36
ENDBRANCH  25  34
ENDBRANCH  24  25
ENDBRANCH   6  21
TORSDOF 10
ENDMDL
MODEL        2
REMARK 921   NORMALIZED FREE ENERGY PREDICTED BY IDOCK:   -7.97 KCAL/MOL
REMARK 922        TOTAL FREE ENERGY PREDICTED BY IDOCK:  -14.92 KCAL/MOL
REMARK 923 INTER-LIGAND FREE ENERGY PREDICTED BY IDOCK:  -12.77 KCAL/MOL
REMARK 924 INTRA-LIGAND FREE ENERGY PREDICTED BY IDOCK:   -2.15 KCAL/MOL
REMARK 927      BINDING AFFINITY PREDICTED BY RF-SCORE:    0.00 PKD
ROOT
HETATM    1  C   UNL     1     -10.968  10.108  69.059  1.00  0.00    -0.226 C  
HETATM    2  S   UNL     1      -9.339  10.799  68.683  1.00  0.00    -0.190 SA 
HETATM    3  C   UNL     1      -8.462   9.294  69.161  1.00  0.00    -0.133 C  
HETATM    4  C   UNL     1      -8.899   8.678  70.486  1.00  0.00    -0.182 C  
HETATM    5  CA  UNL     1     -10.089   8.954  71.098  1.00  0.00    -0.271 C  
HETATM    6  CA  UNL     1     -12.088  11.162  69.371  1.00  0.00    -0.326 C  
HETATM    7  O   UNL     1     -12.823  10.340  71.759  1.00  0.00    -0.411 OA 
HETATM    8  N   UNL     1     -11.002   9.753  70.465  1.00  0.00    -0.297 N  
HETATM    9  C   UNL     1     -10.362   8.452  72.506  1.00  0.00    -0.301 C  
HETATM   10  OXT UNL     1      -9.493   8.030  73.255  1.00  0.00    -0.273 OA 
HETATM   11  O   UNL     1     -11.653   8.403  72.888  1.00  0.00    -0.294 OA 
HETATM   12  C   UNL     1     -12.149  10.411  70.757  1.00  0.00    -0.364 C  
ENDROOT
BRANCH   4  13
HETATM   13  C   UNL     1      -7.767   7.834  71.072  1.00  0.00    -0.084 C  
BRANCH  13  14
HETATM   14  S   UNL     1      -7.522   6.206  70.320  1.00  0.00    -0.092 SA 
BRANCH  14  15
HETATM   15  C   UNL     1      -8.501   5.150  71.252  1.00  0.00    -0.123 A  
HETATM   16  N   UNL     1      -8.161   4.444  72.304  1.00  0.00    -0.105 NA 
HETATM   17  C   UNL     1     -10.646   5.431  69.926  1.00  0.00    -0.281 C  
HETATM   18  N   UNL     1      -9.283   3.729  72.653  1.00  0.00    -0.104 NA 
HETATM   19  N   UNL     1      -9.811   4.893  70.962  1.00  0.00    -0.184 NA 
HETATM   20  N   UNL     1     -10.294   3.995  71.837  1.00  0.00    -0.084 NA 
ENDBRANCH  14  15
ENDBRANCH  13  14
ENDBRANCH   4  13
BRANCH   6  21
HETATM   21  N   UNL     1     -11.627  12.579  69.386  1.00  0.00    -0.314 N  
HETATM   22  H   UNL     1     -10.985  12.870  70.123  1.00  0.00     0.000 HD 
HETATM   23  O   UNL     1     -12.657  13.208  67.451  1.00  0.00    -0.030 OA 
HETATM   24  C   UNL     1     -12.021  13.519  68.456  1.00  0.00    -0.344 C  
BRANCH  24  25
HETATM   25  CA  UNL     1     -11.755  14.993  68.868  1.00  0.00    -0.328 C  
BRANCH  25  26
HETATM   26  C   UNL     1     -12.183  15.246  70.307  1.00  0.00    -0.403 A  
HETATM   27  C   UNL     1     -11.673  15.880  72.605  1.00  0.00    -0.527 A  
HETATM   28  C   UNL     1     -13.531  15.110  70.671  1.00  0.00    -0.243 A  
HETATM   29  O   UNL     1     -13.380  16.022  74.221  1.00  0.00    -0.806 OA 
HETATM   30  C   UNL     1     -11.258  15.637  71.295  1.00  0.00    -0.393 A  
HETATM   31  C   UNL     1     -13.948  15.361  71.983  1.00  0.00    -0.640 A  
HETATM   32  H   UNL     1     -12.742  16.288  74.873  1.00  0.00     0.000 HD 
HETATM   33  C   UNL     1     -13.015  15.750  72.936  1.00  0.00    -0.500 A  
ENDBRANCH  25  26
BRANCH  25  34
HETATM   34  N   UNL     1     -10.350  15.358  68.702  1.00  0.00    -0.228 N  
HETATM   35  H   UNL     1      -9.711  15.224  69.487  1.00  0.00     0.000 HD 
BRANCH  34  36
HETATM   36  C   UNL     1      -9.857  15.871  67.534  1.00  0.00    -0.230 C  
HETATM   37  O   UNL     1      -9.288  16.959  67.506  1.00  0.00    -0.229 OA 
BRANCH  36  38
HETATM   38  N   UNL     1     -10.030  15.082  66.404  1.00  0.00    -0.266 N  
HETATM   39  C   UNL     1      -9.169  13.914  66.248  1.00  0.00    -0.088 C  
HETATM   40  N   UNL     1     -10.652  13.051  64.510  1.00  0.00    -0.371 N  
HETATM   41  C   UNL     1      -9.937  12.714  65.729  1.00  0.00    -0.256 C  
HETATM   42  C   UNL     1     -11.379  14.237  64.448  1.00  0.00    -0.273 C  
HETATM   43  O   UNL     1     -11.376  16.517  65.186  1.00  0.00    -0.079 OA 
HETATM   44  C   UNL     1     -10.941  15.384  65.388  1.00  0.00    -0.368 C  
HETATM   45  O   UNL     1     -12.310  14.425  63.674  1.00  0.00    -0.722 OA 
BRANCH  40  46
HETATM   46  C   UNL     1     -10.801  12.059  63.451  1.00  0.00    -0.405 C  
HETATM   47  C   UNL     1      -9.992  10.794  63.659  1.00  0.00    -0.405 C  
ENDBRANCH  40  46
ENDBRANCH  36  38
ENDBRANCH  34  36
ENDBRANCH  25  34
ENDBRANCH  24  25
ENDBRANCH   6  21
TORSDOF 10
ENDMDL
MODEL        3
REMARK 921   NORMALIZED FREE ENERGY PREDICTED BY IDOCK:   -7.87 KCAL/MOL
REMARK 922        TOTAL FREE ENERGY PREDICTED BY IDOCK:  -14.76 KCAL/MOL
REMARK 923 INTER-LIGAND FREE ENERGY PREDICTED BY IDOCK:  -12.49 KCAL/MOL
REMARK 924 INTRA-LIGAND FREE ENERGY PREDICTED BY IDOCK:   -2.27 KCAL/MOL
REMARK 927      BINDING AFFINITY PREDICTED BY RF-SCORE:    0.00 PKD
ROOT
HETATM    1  C   UNL     1     -10.882  10.314  68.962  1.00  0.00    -0.230 C  
HETATM    2  S   UNL     1      -9.250  11.022  68.636  1.00  0.00    -0.171 SA 
HETATM    3  C   UNL     1      -8.375   9.507  69.087  1.00  0.00    -0.125 C  
HETATM    4  C   UNL     1      -8.834   8.852  70.386  1.00  0.00    -0.204 C  
HETATM    5  CA  UNL     1     -10.036   9.106  70.984  1.00  0.00    -0.297 C  
HETATM    6  CA  UNL     1     -12.013  11.355  69.283  1.00  0.00    -0.332 C  
HETATM    7  O   UNL     1     -12.788  10.462  71.633  1.00  0.00    -0.404 OA 
HETATM    8  N   UNL     1     -10.941   9.920  70.356  1.00  0.00    -0.295 N  
HETATM    9  C   UNL     1     -10.332   8.564  72.371  1.00  0.00    -0.302 C  
HETATM   10  OXT UNL     1      -9.476   8.124  73.124  1.00  0.00    -0.267 OA 
HETATM   11  O   UNL     1     -11.630   8.499  72.728  1.00  0.00    -0.312 OA 
HETATM   12  C   UNL     1     -12.096  10.564  70.647  1.00  0.00    -0.356 C  
ENDROOT
BRANCH   4  13
HETATM   13  C   UNL     1      -7.709   7.996  70.969  1.00  0.00    -0.085 C  
BRANCH  13  14
HETATM   14  S   UNL     1      -7.575   6.313  70.315  1.00  0.00    -0.098 SA 
BRANCH  14  15
HETATM   15  C   UNL     1      -8.593   5.376  71.329  1.00  0.00    -0.126 A  
HETATM   16  N   UNL     1      -8.284   4.762  72.445  1.00  0.00    -0.113 NA 
HETATM   17  C   UNL     1     -10.716   5.592  69.956  1.00  0.00    -0.320 C  
HETATM   18  N   UNL     1      -9.429   4.113  72.845  1.00  0.00    -0.121 NA 
HETATM   19  N   UNL     1      -9.907   5.130  71.047  1.00  0.00    -0.185 NA 
HETATM   20  N   UNL     1     -10.424   4.330  71.996  1.00  0.00    -0.090 NA 
ENDBRANCH  14  15
ENDBRANCH  13  14
ENDBRANCH   4  13
BRANCH   6  21
HETATM   21  N   UNL     1     -11.558  12.773  69.346  1.00  0.00    -0.320 N  
HETATM   22  H   UNL     1     -11.039  13.077  70.170  1.00  0.00     0.000 HD 
HETATM   23  O   UNL     1     -12.272  13.367  67.264  1.00  0.00    -0.335 OA 
HETATM   24  C   UNL     1     -11.801  13.696  68.351  1.00  0.00    -0.372 C  
BRANCH  24  25
HETATM   25  CA  UNL     1     -11.601  15.177  68.775  1.00  0.00    -0.349 C  
BRANCH  25  26
HETATM   26  C   UNL     1     -12.123  15.420  70.184  1.00  0.00    -0.400 A  
HETATM   27  C   UNL     1     -11.798  16.162  72.483  1.00  0.00    -0.630 A  
HETATM   28  C   UNL     1     -13.466  15.151  70.489  1.00  0.00    -0.122 A  
HETATM   29  O   UNL     1     -13.588  16.163  74.013  1.00  0.00    -0.817 OA 
HETATM   30  C   UNL     1     -11.295  15.932  71.201  1.00  0.00    -0.435 A  
HETATM   31  C   UNL     1     -13.972  15.389  71.772  1.00  0.00    -0.626 A  
HETATM   32  H   UNL     1     -13.014  16.512  74.685  1.00  0.00     0.000 HD 
HETATM   33  C   UNL     1     -13.133  15.899  72.755  1.00  0.00    -0.491 A  
ENDBRANCH  25  26
BRANCH  25  34
HETATM   34  N   UNL     1     -10.198  15.580  68.695  1.00  0.00    -0.211 N  
HETATM   35  H   UNL     1      -9.533  15.178  69.356  1.00  0.00     0.000 HD 
BRANCH  34  36
HETATM   36  C   UNL     1      -9.743  16.476  67.768  1.00  0.00    -0.235 C  
HETATM   37  O   UNL     1     -10.364  16.690  66.730  1.00  0.00    -0.294 OA 
BRANCH  36  38
HETATM   38  N   UNL     1      -8.558  17.128  68.085  1.00  0.00    -0.225 N  
HETATM   39  C   UNL     1      -8.415  18.523  67.680  1.00  0.00    -0.263 C  
HETATM   40  N   UNL     1      -6.499  18.763  69.174  1.00  0.00    -0.269 N  
HETATM   41  C   UNL     1      -7.757  19.358  68.761  1.00  0.00    -0.362 C  
HETATM   42  C   UNL     1      -6.438  17.394  69.425  1.00  0.00    -0.233 C  
HETATM   43  O   UNL     1      -7.305  15.282  68.696  1.00  0.00    -0.111 OA 
HETATM   44  C   UNL     1      -7.481  16.499  68.714  1.00  0.00    -0.216 C  
HETATM   45  O   UNL     1      -5.592  16.869  70.139  1.00  0.00    -0.208 OA 
BRANCH  40  46
HETATM   46  C   UNL     1      -5.374  19.613  69.548  1.00  0.00    -0.195 C  
HETATM   47  C   UNL     1      -5.552  21.077  69.196  1.00  0.00    -0.343 C  
ENDBRANCH  40  46
ENDBRANCH  36  38
ENDBRANCH  34  36
ENDBRANCH  25  34
ENDBRANCH  24  25
ENDBRANCH   6  21
TORSDOF 10
ENDMDL
MODEL        4
REMARK 921   NORMALIZED FREE ENERGY PREDICTED BY IDOCK:   -7.79 KCAL/MOL
REMARK 922        TOTAL FREE ENERGY PREDICTED BY IDOCK:  -14.63 KCAL/MOL
REMARK 923 INTER-LIGAND FREE ENERGY PREDICTED BY IDOCK:  -12.12 KCAL/MOL
REMARK 924 INTRA-LIGAND FREE ENERGY PREDICTED BY IDOCK:   -2.52 KCAL/MOL
REMARK 927      BINDING AFFINITY PREDICTED BY RF-SCORE:    0.00 PKD
ROOT
HETATM    1  C   UNL     1      -7.647  10.299  67.409  1.00  0.00    -0.094 C  
HETATM    2  S   UNL     1      -7.720  11.176  68.989  1.00  0.00    -0.079 SA 
HETATM    3  C   UNL     1      -7.569   9.664  69.967  1.00  0.00    -0.147 C  
HETATM    4  C   UNL     1      -8.470   8.514  69.529  1.00  0.00    -0.127 C  
HETATM    5  CA  UNL     1      -9.055   8.431  68.298  1.00  0.00    -0.139 C  
HETATM    6  CA  UNL     1      -8.299  11.050  66.194  1.00  0.00    -0.163 C  
HETATM    7  O   UNL     1     -10.048   9.238  65.435  1.00  0.00    -0.062 OA 
HETATM    8  N   UNL     1      -8.760   9.372  67.348  1.00  0.00    -0.125 N  
HETATM    9  C   UNL     1     -10.090   7.357  68.011  1.00  0.00    -0.179 C  
HETATM   10  OXT UNL     1     -10.646   6.703  68.881  1.00  0.00    -0.195 OA 
HETATM   11  O   UNL     1     -10.321   7.073  66.714  1.00  0.00    -0.245 OA 
HETATM   12  C   UNL     1      -9.223   9.772  66.140  1.00  0.00    -0.176 C  
ENDROOT
BRANCH   4  13
HETATM   13  C   UNL     1      -8.718   7.565  70.703  1.00  0.00    -0.141 C  
BRANCH  13  14
HETATM   14  S   UNL     1      -9.317   8.333  72.229  1.00  0.00    -0.277 SA 
BRANCH  14  15
HETATM   15  C   UNL     1     -11.018   8.422  72.027  1.00  0.00    -0.323 A  
HETATM   16  N   UNL     1     -11.748   9.471  71.736  1.00  0.00    -0.383 NA 
HETATM   17  C   UNL     1     -11.533   5.981  72.490  1.00  0.00    -0.290 C  
HETATM   18  N   UNL     1     -13.051   9.033  71.735  1.00  0.00    -0.356 NA 
HETATM   19  N   UNL     1     -11.847   7.348  72.187  1.00  0.00    -0.289 NA 
HETATM   20  N   UNL     1     -13.121   7.739  72.013  1.00  0.00    -0.251 NA 
ENDBRANCH  14  15
ENDBRANCH  13  14
ENDBRANCH   4  13
BRANCH   6  21
HETATM   21  N   UNL     1      -8.951  12.346  66.537  1.00  0.00    -0.340 N  
HETATM   22  H   UNL     1      -8.648  12.829  67.383  1.00  0.00     0.000 HD 
HETATM   23  O   UNL     1     -10.241  12.491  64.663  1.00  0.00    -0.302 OA 
HETATM   24  C   UNL     1      -9.941  12.927  65.772  1.00  0.00    -0.254 C  
BRANCH  24  25
HETATM   25  CA  UNL     1     -10.748  14.042  66.493  1.00  0.00    -0.281 C  
BRANCH  25  26
HETATM   26  C   UNL     1     -11.343  13.532  67.798  1.00  0.00    -0.327 A  
HETATM   27  C   UNL     1     -12.141  11.716  69.214  1.00  0.00    -0.323 A  
HETATM   28  C   UNL     1     -11.621  14.431  68.839  1.00  0.00    -0.340 A  
HETATM   29  O   UNL     1     -12.889  12.138  71.407  1.00  0.00    -0.376 OA 
HETATM   30  C   UNL     1     -11.610  12.165  68.004  1.00  0.00    -0.411 A  
HETATM   31  C   UNL     1     -12.146  13.980  70.055  1.00  0.00    -0.412 A  
HETATM   32  H   UNL     1     -13.059  11.212  71.528  1.00  0.00     0.000 HD 
HETATM   33  C   UNL     1     -12.395  12.624  70.233  1.00  0.00    -0.195 A  
ENDBRANCH  25  26
BRANCH  25  34
HETATM   34  N   UNL     1      -9.929  15.223  66.754  1.00  0.00    -0.237 N  
HETATM   35  H   UNL     1      -9.288  15.210  67.548  1.00  0.00     0.000 HD 
BRANCH  34  36
HETATM   36  C   UNL     1      -9.988  16.345  65.976  1.00  0.00    -0.345 C  
HETATM   37  O   UNL     1     -10.649  16.369  64.941  1.00  0.00    -0.677 OA 
BRANCH  36  38
HETATM   38  N   UNL     1      -9.272  17.443  66.438  1.00  0.00    -0.262 N  
HETATM   39  C   UNL     1      -7.816  17.390  66.361  1.00  0.00    -0.302 C  
HETATM   40  N   UNL     1      -7.706  19.798  66.752  1.00  0.00    -0.269 N  
HETATM   41  C   UNL     1      -7.228  18.714  65.912  1.00  0.00    -0.232 C  
HETATM   42  C   UNL     1      -9.061  19.877  67.063  1.00  0.00    -0.348 C  
HETATM   43  O   UNL     1     -10.990  18.535  67.536  1.00  0.00    -0.371 OA 
HETATM   44  C   UNL     1      -9.873  18.560  67.023  1.00  0.00    -0.325 C  
HETATM   45  O   UNL     1      -9.625  20.912  67.396  1.00  0.00    -0.433 OA 
BRANCH  40  46
HETATM   46  C   UNL     1      -6.828  20.918  67.073  1.00  0.00    -0.333 C  
HETATM   47  C   UNL     1      -6.143  20.809  68.421  1.00  0.00    -0.379 C  
ENDBRANCH  40  46
ENDBRANCH  36  38
ENDBRANCH  34  36
ENDBRANCH  25  34
ENDBRANCH  24  25
ENDBRANCH   6  21
TORSDOF 10
ENDMDL
MODEL        5
REMARK 921   NORMALIZED FREE ENERGY PREDICTED BY IDOCK:   -7.68 KCAL/MOL
REMARK 922        TOTAL FREE ENERGY PREDICTED BY IDOCK:  -14.47 KCAL/MOL
REMARK 923 INTER-LIGAND FREE ENERGY PREDICTED BY IDOCK:  -11.96 KCAL/MOL
REMARK 924 INTRA-LIGAND FREE ENERGY PREDICTED BY IDOCK:   -2.51 KCAL/MOL
REMARK 927      BINDING AFFINITY PREDICTED BY RF-SCORE:    0.00 PKD
ROOT
HETATM    1  C   UNL     1      -8.514  11.640  66.394  1.00  0.00    -0.114 C  
HETATM    2  S   UNL     1     -10.245  12.091  66.124  1.00  0.00    -0.233 SA 
HETATM    3  C   UNL     1      -9.845  13.770  65.590  1.00  0.00    -0.192 C  
HETATM    4  C   UNL     1      -8.844  14.512  66.469  1.00  0.00    -0.156 C  
HETATM    5  CA  UNL     1      -7.999  13.896  67.348  1.00  0.00    -0.170 C  
HETATM    6  CA  UNL     1      -8.277  10.464  67.406  1.00  0.00    -0.117 C  
HETATM    7  O   UNL     1      -6.693  11.668  69.127  1.00  0.00    -0.092 OA 
HETATM    8  N   UNL     1      -7.960  12.529  67.398  1.00  0.00    -0.171 N  
HETATM    9  C   UNL     1      -7.175  14.718  68.324  1.00  0.00    -0.115 C  
HETATM   10  OXT UNL     1      -7.393  15.895  68.572  1.00  0.00    -0.119 OA 
HETATM   11  O   UNL     1      -6.098  14.112  68.863  1.00  0.00    -0.080 OA 
HETATM   12  C   UNL     1      -7.457  11.557  68.196  1.00  0.00    -0.101 C  
ENDROOT
BRANCH   4  13
HETATM   13  C   UNL     1      -9.028  16.022  66.315  1.00  0.00    -0.345 C  
BRANCH  13  14
HETATM   14  S   UNL     1     -10.654  16.673  66.774  1.00  0.00    -0.152 SA 
BRANCH  14  15
HETATM   15  C   UNL     1     -10.314  18.136  67.601  1.00  0.00    -0.397 A  
HETATM   16  N   UNL     1      -9.992  18.301  68.861  1.00  0.00    -0.369 NA 
HETATM   17  C   UNL     1     -10.666  19.712  65.643  1.00  0.00    -0.329 C  
HETATM   18  N   UNL     1      -9.871  19.659  69.042  1.00  0.00    -0.428 NA 
HETATM   19  N   UNL     1     -10.376  19.364  67.004  1.00  0.00    -0.407 NA 
HETATM   20  N   UNL     1     -10.106  20.316  67.915  1.00  0.00    -0.381 NA 
ENDBRANCH  14  15
ENDBRANCH  13  14
ENDBRANCH   4  13
BRANCH   6  21
HETATM   21  N   UNL     1      -9.511   9.939  68.055  1.00  0.00    -0.134 N  
HETATM   22  H   UNL     1     -10.402  10.072  67.576  1.00  0.00     0.000 HD 
HETATM   23  O   UNL     1      -8.471   8.944  69.824  1.00  0.00    -0.121 OA 
HETATM   24  C   UNL     1      -9.514   9.284  69.269  1.00  0.00    -0.160 C  
BRANCH  24  25
HETATM   25  CA  UNL     1     -10.909   9.176  69.946  1.00  0.00    -0.228 C  
BRANCH  25  26
HETATM   26  C   UNL     1     -10.908   8.118  71.040  1.00  0.00    -0.265 A  
HETATM   27  C   UNL     1     -10.748   7.473  73.385  1.00  0.00    -0.387 A  
HETATM   28  C   UNL     1     -11.108   6.769  70.710  1.00  0.00    -0.323 A  
HETATM   29  O   UNL     1     -10.995   5.223  74.034  1.00  0.00    -0.355 OA 
HETATM   30  C   UNL     1     -10.729   8.457  72.395  1.00  0.00    -0.405 A  
HETATM   31  C   UNL     1     -11.134   5.783  71.703  1.00  0.00    -0.290 A  
HETATM   32  H   UNL     1     -10.877   5.471  74.943  1.00  0.00     0.000 HD 
HETATM   33  C   UNL     1     -10.960   6.147  73.033  1.00  0.00    -0.249 A  
ENDBRANCH  25  26
BRANCH  25  34
HETATM   34  N   UNL     1     -11.344  10.456  70.501  1.00  0.00    -0.329 N  
HETATM   35  H   UNL     1     -11.113  10.675  71.470  1.00  0.00     0.000 HD 
BRANCH  34  36
HETATM   36  C   UNL     1     -12.048  11.372  69.770  1.00  0.00    -0.320 C  
HETATM   37  O   UNL     1     -12.381  11.143  68.610  1.00  0.00    -0.549 OA 
BRANCH  36  38
HETATM   38  N   UNL     1     -12.367  12.555  70.425  1.00  0.00    -0.279 N  
HETATM   39  C   UNL     1     -13.397  12.508  71.457  1.00  0.00    -0.089 C  
HETATM   40  N   UNL     1     -12.697  14.706  72.259  1.00  0.00    -0.325 N  
HETATM   41  C   UNL     1     -13.026  13.350  72.663  1.00  0.00    -0.119 C  
HETATM   42  C   UNL     1     -11.859  14.911  71.167  1.00  0.00    -0.337 C  
HETATM   43  O   UNL     1     -11.283  14.033  69.013  1.00  0.00    -0.254 OA 
HETATM   44  C   UNL     1     -11.795  13.789  70.104  1.00  0.00    -0.290 C  
HETATM   45  O   UNL     1     -11.209  15.934  70.990  1.00  0.00    -0.349 OA 
BRANCH  40  46
HETATM   46  C   UNL     1     -13.046  15.830  73.120  1.00  0.00    -0.564 C  
HETATM   47  C   UNL     1     -12.403  15.791  74.493  1.00  0.00    -0.776 C  
ENDBRANCH  40  46
ENDBRANCH  36  38
ENDBRANCH  34  36
ENDBRANCH  25  34
ENDBRANCH  24  25
ENDBRANCH   6  21
TORSDOF 10
ENDMDL
MODEL        6
REMARK 921   NORMALIZED FREE ENERGY PREDICTED BY IDOCK:   -7.61 KCAL/MOL
REMARK 922        TOTAL FREE ENERGY PREDICTED BY IDOCK:  -14.36 KCAL/MOL
REMARK 923 INTER-LIGAND FREE ENERGY PREDICTED BY IDOCK:  -12.10 KCAL/MOL
REMARK 924 INTRA-LIGAND FREE ENERGY PREDICTED BY IDOCK:   -2.26 KCAL/MOL
REMARK 927      BINDING AFFINITY PREDICTED BY RF-SCORE:    0.00 PKD
ROOT
HETATM    1  C   UNL     1      -9.710   8.671  68.924  1.00  0.00    -0.170 C  
HETATM    2  S   UNL     1     -10.581   8.917  67.358  1.00  0.00    -0.164 SA 
HETATM    3  C   UNL     1      -9.488   7.806  66.443  1.00  0.00    -0.180 C  
HETATM    4  C   UNL     1      -7.997   8.011  66.690  1.00  0.00    -0.102 C  
HETATM    5  CA  UNL     1      -7.488   8.670  67.773  1.00  0.00    -0.097 C  
HETATM    6  CA  UNL     1      -9.872   9.830  69.970  1.00  0.00    -0.251 C  
HETATM    7  O   UNL     1      -7.342  10.438  70.359  1.00  0.00    -0.245 OA 
HETATM    8  N   UNL     1      -8.336   9.103  68.756  1.00  0.00    -0.120 N  
HETATM    9  C   UNL     1      -6.007   9.000  67.844  1.00  0.00    -0.050 C  
HETATM   10  OXT UNL     1      -5.255   8.951  66.881  1.00  0.00    -0.038 OA 
HETATM   11  O   UNL     1      -5.508   9.272  69.065  1.00  0.00    -0.036 OA 
HETATM   12  C   UNL     1      -8.302   9.917  69.838  1.00  0.00    -0.183 C  
ENDROOT
BRANCH   4  13
HETATM   13  C   UNL     1      -7.191   7.496  65.497  1.00  0.00    -0.069 C  
BRANCH  13  14
HETATM   14  S   UNL     1      -6.362   5.903  65.730  1.00  0.00    -0.043 SA 
BRANCH  14  15
HETATM   15  C   UNL     1      -7.641   4.779  65.936  1.00  0.00    -0.090 A  
HETATM   16  N   UNL     1      -8.358   4.185  65.012  1.00  0.00    -0.108 NA 
HETATM   17  C   UNL     1      -7.633   4.729  68.473  1.00  0.00    -0.073 C  
HETATM   18  N   UNL     1      -9.282   3.422  65.686  1.00  0.00    -0.151 NA 
HETATM   19  N   UNL     1      -8.097   4.381  67.160  1.00  0.00    -0.101 NA 
HETATM   20  N   UNL     1      -9.132   3.538  66.999  1.00  0.00    -0.155 NA 
ENDBRANCH  14  15
ENDBRANCH  13  14
ENDBRANCH   4  13
BRANCH   6  21
HETATM   21  N   UNL     1     -10.660  11.001  69.490  1.00  0.00    -0.409 N  
HETATM   22  H   UNL     1     -10.400  11.425  68.600  1.00  0.00     0.000 HD 
HETATM   23  O   UNL     1     -12.195  10.988  71.175  1.00  0.00    -0.346 OA 
HETATM   24  C   UNL     1     -11.722  11.541  70.185  1.00  0.00    -0.309 C  
BRANCH  24  25
HETATM   25  CA  UNL     1     -12.143  12.964  69.725  1.00  0.00    -0.245 C  
BRANCH  25  26
HETATM   26  C   UNL     1     -12.446  13.859  70.919  1.00  0.00    -0.447 A  
HETATM   27  C   UNL     1     -11.776  15.544  72.548  1.00  0.00    -0.569 A  
HETATM   28  C   UNL     1     -13.727  13.854  71.490  1.00  0.00    -0.323 A  
HETATM   29  O   UNL     1     -13.314  16.369  74.128  1.00  0.00    -0.914 OA 
HETATM   30  C   UNL     1     -11.472  14.719  71.463  1.00  0.00    -0.203 A  
HETATM   31  C   UNL     1     -14.033  14.687  72.572  1.00  0.00    -0.518 A  
HETATM   32  H   UNL     1     -12.645  16.945  74.480  1.00  0.00     0.000 HD 
HETATM   33  C   UNL     1     -13.055  15.529  73.087  1.00  0.00    -0.545 A  
ENDBRANCH  25  26
BRANCH  25  34
HETATM   34  N   UNL     1     -11.119  13.589  68.890  1.00  0.00    -0.260 N  
HETATM   35  H   UNL     1     -10.138  13.464  69.139  1.00  0.00     0.000 HD 
BRANCH  34  36
HETATM   36  C   UNL     1     -11.427  14.336  67.787  1.00  0.00    -0.329 C  
HETATM   37  O   UNL     1     -11.877  15.474  67.892  1.00  0.00    -0.240 OA 
BRANCH  36  38
HETATM   38  N   UNL     1     -11.184  13.733  66.559  1.00  0.00    -0.306 N  
HETATM   39  C   UNL     1      -9.807  13.375  66.233  1.00  0.00    -0.290 C  
HETATM   40  N   UNL     1     -10.603  11.965  64.405  1.00  0.00    -0.296 N  
HETATM   41  C   UNL     1      -9.722  12.020  65.558  1.00  0.00    -0.202 C  
HETATM   42  C   UNL     1     -11.907  12.442  64.516  1.00  0.00    -0.384 C  
HETATM   43  O   UNL     1     -13.233  14.140  65.565  1.00  0.00    -0.688 OA 
HETATM   44  C   UNL     1     -12.179  13.509  65.603  1.00  0.00    -0.458 C  
HETATM   45  O   UNL     1     -12.825  12.092  63.784  1.00  0.00    -0.718 OA 
BRANCH  40  46
HETATM   46  C   UNL     1     -10.211  11.212  63.219  1.00  0.00    -0.350 C  
HETATM   47  C   UNL     1      -9.191  10.121  63.480  1.00  0.00    -0.322 C  
ENDBRANCH  40  46
ENDBRANCH  36  38
ENDBRANCH  34  36
ENDBRANCH  25  34
ENDBRANCH  24  25
ENDBRANCH   6  21
TORSDOF 10
ENDMDL
MODEL        7
REMARK 921   NORMALIZED FREE ENERGY PREDICTED BY IDOCK:   -7.44 KCAL/MOL
REMARK 922        TOTAL FREE ENERGY PREDICTED BY IDOCK:  -14.09 KCAL/MOL
REMARK 923 INTER-LIGAND FREE ENERGY PREDICTED BY IDOCK:  -12.37 KCAL/MOL
REMARK 924 INTRA-LIGAND FREE ENERGY PREDICTED BY IDOCK:   -1.72 KCAL/MOL
REMARK 927      BINDING AFFINITY PREDICTED BY RF-SCORE:    0.00 PKD
ROOT
HETATM    1  C   UNL     1     -10.280   8.308  69.277  1.00  0.00    -0.204 C  
HETATM    2  S   UNL     1     -10.651   8.754  67.564  1.00  0.00    -0.161 SA 
HETATM    3  C   UNL     1      -9.668   7.402  66.878  1.00  0.00    -0.205 C  
HETATM    4  C   UNL     1      -8.280   7.231  67.488  1.00  0.00    -0.113 C  
HETATM    5  CA  UNL     1      -7.911   7.750  68.696  1.00  0.00    -0.122 C  
HETATM    6  CA  UNL     1     -10.410   9.477  70.318  1.00  0.00    -0.269 C  
HETATM    7  O   UNL     1      -7.986   9.440  71.337  1.00  0.00    -0.318 OA 
HETATM    8  N   UNL     1      -8.845   8.385  69.470  1.00  0.00    -0.144 N  
HETATM    9  C   UNL     1      -6.459   7.702  69.140  1.00  0.00    -0.040 C  
HETATM   10  OXT UNL     1      -5.527   7.463  68.386  1.00  0.00    -0.021 OA 
HETATM   11  O   UNL     1      -6.227   7.849  70.460  1.00  0.00    -0.036 OA 
HETATM   12  C   UNL     1      -8.883   9.171  70.572  1.00  0.00    -0.224 C  
ENDROOT
BRANCH   4  13
HETATM   13  C   UNL     1      -7.354   6.526  66.497  1.00  0.00    -0.078 C  
BRANCH  13  14
HETATM   14  S   UNL     1      -6.410   7.604  65.390  1.00  0.00    -0.038 SA 
BRANCH  14  15
HETATM   15  C   UNL     1      -7.551   8.763  64.844  1.00  0.00    -0.099 A  
HETATM   16  N   UNL     1      -8.403   8.659  63.852  1.00  0.00    -0.150 NA 
HETATM   17  C   UNL     1      -6.992  10.590  66.514  1.00  0.00    -0.115 C  
HETATM   18  N   UNL     1      -9.054   9.868  63.789  1.00  0.00    -0.250 NA 
HETATM   19  N   UNL     1      -7.680  10.004  65.399  1.00  0.00    -0.131 NA 
HETATM   20  N   UNL     1      -8.617  10.697  64.728  1.00  0.00    -0.163 NA 
ENDBRANCH  14  15
ENDBRANCH  13  14
ENDBRANCH   4  13
BRANCH   6  21
HETATM   21  N   UNL     1     -10.748  10.804  69.728  1.00  0.00    -0.405 N  
HETATM   22  H   UNL     1     -10.137  11.179  69.004  1.00  0.00     0.000 HD 
HETATM   23  O   UNL     1     -12.710  11.095  70.854  1.00  0.00    -0.357 OA 
HETATM   24  C   UNL     1     -11.843  11.551  70.111  1.00  0.00    -0.356 C  
BRANCH  24  25
HETATM   25  CA  UNL     1     -11.796  13.042  69.677  1.00  0.00    -0.319 C  
BRANCH  25  26
HETATM   26  C   UNL     1     -12.300  13.953  70.788  1.00  0.00    -0.449 A  
HETATM   27  C   UNL     1     -14.002  14.602  72.407  1.00  0.00    -0.578 A  
HETATM   28  C   UNL     1     -11.490  14.996  71.260  1.00  0.00    -0.359 A  
HETATM   29  O   UNL     1     -13.633  16.396  73.887  1.00  0.00    -0.891 OA 
HETATM   30  C   UNL     1     -13.565  13.766  71.379  1.00  0.00    -0.250 A  
HETATM   31  C   UNL     1     -11.925  15.830  72.296  1.00  0.00    -0.592 A  
HETATM   32  H   UNL     1     -14.487  16.253  74.276  1.00  0.00     0.000 HD 
HETATM   33  C   UNL     1     -13.176  15.620  72.864  1.00  0.00    -0.532 A  
ENDBRANCH  25  26
BRANCH  25  34
HETATM   34  N   UNL     1     -10.450  13.449  69.281  1.00  0.00    -0.438 N  
HETATM   35  H   UNL     1      -9.743  13.579  70.005  1.00  0.00     0.000 HD 
BRANCH  34  36
HETATM   36  C   UNL     1     -10.101  13.662  67.976  1.00  0.00    -0.250 C  
HETATM   37  O   UNL     1      -9.791  12.730  67.238  1.00  0.00    -0.202 OA 
BRANCH  36  38
HETATM   38  N   UNL     1     -10.137  14.983  67.546  1.00  0.00    -0.228 N  
HETATM   39  C   UNL     1      -9.474  15.988  68.371  1.00  0.00    -0.207 C  
HETATM   40  N   UNL     1      -9.586  17.581  66.524  1.00  0.00    -0.275 N  
HETATM   41  C   UNL     1      -8.717  16.997  67.530  1.00  0.00    -0.210 C  
HETATM   42  C   UNL     1     -10.417  16.754  65.773  1.00  0.00    -0.292 C  
HETATM   43  O   UNL     1     -11.748  14.765  65.901  1.00  0.00    -0.336 OA 
HETATM   44  C   UNL     1     -10.822  15.400  66.402  1.00  0.00    -0.303 C  
HETATM   45  O   UNL     1     -10.865  17.056  64.674  1.00  0.00    -0.855 OA 
BRANCH  40  46
HETATM   46  C   UNL     1      -9.426  18.979  66.140  1.00  0.00    -0.234 C  
HETATM   47  C   UNL     1     -10.454  19.916  66.744  1.00  0.00    -0.575 C  
ENDBRANCH  40  46
ENDBRANCH  36  38
ENDBRANCH  34  36
ENDBRANCH  25  34
ENDBRANCH  24  25
ENDBRANCH   6  21
TORSDOF 10
ENDMDL
MODEL        8
REMARK 921   NORMALIZED FREE ENERGY PREDICTED BY IDOCK:   -7.41 KCAL/MOL
REMARK 922        TOTAL FREE ENERGY PREDICTED BY IDOCK:  -14.04 KCAL/MOL
REMARK 923 INTER-LIGAND FREE ENERGY PREDICTED BY IDOCK:  -11.74 KCAL/MOL
REMARK 924 INTRA-LIGAND FREE ENERGY PREDICTED BY IDOCK:   -2.31 KCAL/MOL
REMARK 927      BINDING AFFINITY PREDICTED BY RF-SCORE:    0.00 PKD
ROOT
HETATM    1  C   UNL     1      -7.812   9.173  67.675  1.00  0.00    -0.096 C  
HETATM    2  S   UNL     1      -7.210  10.008  69.162  1.00  0.00    -0.085 SA 
HETATM    3  C   UNL     1      -6.469   8.509  69.845  1.00  0.00    -0.035 C  
HETATM    4  C   UNL     1      -7.353   7.268  69.802  1.00  0.00    -0.084 C  
HETATM    5  CA  UNL     1      -8.442   7.136  68.987  1.00  0.00    -0.129 C  
HETATM    6  CA  UNL     1      -9.032   9.861  66.966  1.00  0.00    -0.138 C  
HETATM    7  O   UNL     1     -10.748   7.867  66.991  1.00  0.00    -0.339 OA 
HETATM    8  N   UNL     1      -8.726   8.121  68.079  1.00  0.00    -0.129 N  
HETATM    9  C   UNL     1      -9.380   5.952  69.145  1.00  0.00    -0.120 C  
HETATM   10  OXT UNL     1      -9.391   5.223  70.126  1.00  0.00    -0.142 OA 
HETATM   11  O   UNL     1     -10.171   5.665  68.092  1.00  0.00    -0.160 OA 
HETATM   12  C   UNL     1      -9.743   8.484  67.262  1.00  0.00    -0.183 C  
ENDROOT
BRANCH   4  13
HETATM   13  C   UNL     1      -6.922   6.277  70.884  1.00  0.00    -0.068 C  
BRANCH  13  14
HETATM   14  S   UNL     1      -7.026   6.874  72.590  1.00  0.00    -0.070 SA 
BRANCH  14  15
HETATM   15  C   UNL     1      -8.699   7.152  72.846  1.00  0.00    -0.122 A  
HETATM   16  N   UNL     1      -9.375   8.261  72.666  1.00  0.00    -0.267 NA 
HETATM   17  C   UNL     1      -9.303   4.824  73.656  1.00  0.00    -0.125 C  
HETATM   18  N   UNL     1     -10.664   7.983  73.057  1.00  0.00    -0.335 NA 
HETATM   19  N   UNL     1      -9.552   6.198  73.323  1.00  0.00    -0.146 NA 
HETATM   20  N   UNL     1     -10.780   6.726  73.462  1.00  0.00    -0.315 NA 
ENDBRANCH  14  15
ENDBRANCH  13  14
ENDBRANCH   4  13
BRANCH   6  21
HETATM   21  N   UNL     1      -9.564  11.065  67.665  1.00  0.00    -0.167 N  
HETATM   22  H   UNL     1      -9.002  11.478  68.410  1.00  0.00     0.000 HD 
HETATM   23  O   UNL     1     -11.426  11.313  66.373  1.00  0.00    -0.306 OA 
HETATM   24  C   UNL     1     -10.775  11.651  67.359  1.00  0.00    -0.234 C  
BRANCH  24  25
HETATM   25  CA  UNL     1     -11.317  12.625  68.442  1.00  0.00    -0.290 C  
BRANCH  25  26
HETATM   26  C   UNL     1     -11.890  11.862  69.628  1.00  0.00    -0.406 A  
HETATM   27  C   UNL     1     -13.135  11.797  71.722  1.00  0.00    -0.480 A  
HETATM   28  C   UNL     1     -11.728  10.471  69.711  1.00  0.00    -0.354 A  
HETATM   29  O   UNL     1     -13.528   9.754  72.826  1.00  0.00    -0.593 OA 
HETATM   30  C   UNL     1     -12.604  12.516  70.651  1.00  0.00    -0.237 A  
HETATM   31  C   UNL     1     -12.267   9.749  70.782  1.00  0.00    -0.342 A  
HETATM   32  H   UNL     1     -14.010  10.212  73.504  1.00  0.00     0.000 HD 
HETATM   33  C   UNL     1     -12.971  10.420  71.775  1.00  0.00    -0.475 A  
ENDBRANCH  25  26
BRANCH  25  34
HETATM   34  N   UNL     1     -10.286  13.551  68.904  1.00  0.00    -0.420 N  
HETATM   35  H   UNL     1     -10.160  13.685  69.907  1.00  0.00     0.000 HD 
BRANCH  34  36
HETATM   36  C   UNL     1      -9.483  14.246  68.042  1.00  0.00    -0.204 C  
HETATM   37  O   UNL     1      -8.418  13.779  67.647  1.00  0.00    -0.157 OA 
BRANCH  36  38
HETATM   38  N   UNL     1      -9.956  15.489  67.640  1.00  0.00    -0.232 N  
HETATM   39  C   UNL     1      -9.822  16.604  68.571  1.00  0.00    -0.252 C  
HETATM   40  N   UNL     1     -10.294  18.174  66.761  1.00  0.00    -0.359 N  
HETATM   41  C   UNL     1      -9.399  17.878  67.865  1.00  0.00    -0.271 C  
HETATM   42  C   UNL     1     -10.658  17.156  65.883  1.00  0.00    -0.215 C  
HETATM   43  O   UNL     1     -11.157  14.814  65.781  1.00  0.00    -0.324 OA 
HETATM   44  C   UNL     1     -10.603  15.706  66.421  1.00  0.00    -0.308 C  
HETATM   45  O   UNL     1     -11.049  17.351  64.739  1.00  0.00    -0.973 OA 
BRANCH  40  46
HETATM   46  C   UNL     1     -10.621  19.557  66.433  1.00  0.00    -0.472 C  
HETATM   47  C   UNL     1      -9.727  20.586  67.098  1.00  0.00    -0.581 C  
ENDBRANCH  40  46
ENDBRANCH  36  38
ENDBRANCH  34  36
ENDBRANCH  25  34
ENDBRANCH  24  25
ENDBRANCH   6  21
TORSDOF 10
ENDMDL
MODEL        9
REMARK 921   NORMALIZED FREE ENERGY PREDICTED BY IDOCK:   -7.41 KCAL/MOL
REMARK 922        TOTAL FREE ENERGY PREDICTED BY IDOCK:  -14.04 KCAL/MOL
REMARK 923 INTER-LIGAND FREE ENERGY PREDICTED BY IDOCK:  -11.29 KCAL/MOL
REMARK 924 INTRA-LIGAND FREE ENERGY PREDICTED BY IDOCK:   -2.75 KCAL/MOL
REMARK 927      BINDING AFFINITY PREDICTED BY RF-SCORE:    0.00 PKD
ROOT
HETATM    1  C   UNL     1      -7.917  10.592  67.715  1.00  0.00    -0.110 C  
HETATM    2  S   UNL     1      -7.532  10.954  69.445  1.00  0.00    -0.060 SA 
HETATM    3  C   UNL     1      -6.925   9.286  69.779  1.00  0.00    -0.058 C  
HETATM    4  C   UNL     1      -7.812   8.156  69.269  1.00  0.00    -0.110 C  
HETATM    5  CA  UNL     1      -8.768   8.314  68.305  1.00  0.00    -0.136 C  
HETATM    6  CA  UNL     1      -9.005  11.517  67.062  1.00  0.00    -0.174 C  
HETATM    7  O   UNL     1     -10.736   9.693  66.290  1.00  0.00    -0.040 OA 
HETATM    8  N   UNL     1      -8.897   9.524  67.678  1.00  0.00    -0.119 N  
HETATM    9  C   UNL     1      -9.738   7.187  67.994  1.00  0.00    -0.138 C  
HETATM   10  OXT UNL     1      -9.907   6.219  68.721  1.00  0.00    -0.132 OA 
HETATM   11  O   UNL     1     -10.366   7.244  66.803  1.00  0.00    -0.269 OA 
HETATM   12  C   UNL     1      -9.774  10.154  66.861  1.00  0.00    -0.187 C  
ENDROOT
BRANCH   4  13
HETATM   13  C   UNL     1      -7.564   6.884  70.081  1.00  0.00    -0.099 C  
BRANCH  13  14
HETATM   14  S   UNL     1      -7.674   7.060  71.879  1.00  0.00    -0.093 SA 
BRANCH  14  15
HETATM   15  C   UNL     1      -9.354   7.192  72.196  1.00  0.00    -0.132 A  
HETATM   16  N   UNL     1     -10.045   8.270  72.481  1.00  0.00    -0.298 NA 
HETATM   17  C   UNL     1      -9.933   4.734  71.951  1.00  0.00    -0.190 C  
HETATM   18  N   UNL     1     -11.334   7.844  72.696  1.00  0.00    -0.388 NA 
HETATM   19  N   UNL     1     -10.199   6.119  72.216  1.00  0.00    -0.183 NA 
HETATM   20  N   UNL     1     -11.437   6.531  72.539  1.00  0.00    -0.262 NA 
ENDBRANCH  14  15
ENDBRANCH  13  14
ENDBRANCH   4  13
BRANCH   6  21
HETATM   21  N   UNL     1      -9.617  12.512  67.988  1.00  0.00    -0.206 N  
HETATM   22  H   UNL     1      -9.081  12.804  68.805  1.00  0.00     0.000 HD 
HETATM   23  O   UNL     1     -11.502  12.883  66.760  1.00  0.00    -0.305 OA 
HETATM   24  C   UNL     1     -10.869  13.059  67.799  1.00  0.00    -0.240 C  
BRANCH  24  25
HETATM   25  CA  UNL     1     -11.472  13.750  69.053  1.00  0.00    -0.305 C  
BRANCH  25  26
HETATM   26  C   UNL     1     -12.057  12.727  70.016  1.00  0.00    -0.355 A  
HETATM   27  C   UNL     1     -13.236  12.163  72.074  1.00  0.00    -0.496 A  
HETATM   28  C   UNL     1     -11.990  11.360  69.711  1.00  0.00    -0.422 A  
HETATM   29  O   UNL     1     -13.734   9.923  72.601  1.00  0.00    -0.657 OA 
HETATM   30  C   UNL     1     -12.691  13.117  71.212  1.00  0.00    -0.396 A  
HETATM   31  C   UNL     1     -12.542  10.404  70.572  1.00  0.00    -0.384 A  
HETATM   32  H   UNL     1     -14.160  10.205  73.401  1.00  0.00     0.000 HD 
HETATM   33  C   UNL     1     -13.166  10.818  71.743  1.00  0.00    -0.418 A  
ENDBRANCH  25  26
BRANCH  25  34
HETATM   34  N   UNL     1     -10.483  14.571  69.749  1.00  0.00    -0.448 N  
HETATM   35  H   UNL     1      -9.675  14.113  70.170  1.00  0.00     0.000 HD 
BRANCH  34  36
HETATM   36  C   UNL     1     -10.599  15.929  69.856  1.00  0.00    -0.326 C  
HETATM   37  O   UNL     1     -11.337  16.442  70.693  1.00  0.00    -0.368 OA 
BRANCH  36  38
HETATM   38  N   UNL     1      -9.826  16.676  68.975  1.00  0.00    -0.266 N  
HETATM   39  C   UNL     1     -10.512  17.591  68.070  1.00  0.00    -0.387 C  
HETATM   40  N   UNL     1      -8.390  18.693  67.573  1.00  0.00    -0.263 N  
HETATM   41  C   UNL     1      -9.778  18.912  67.942  1.00  0.00    -0.327 C  
HETATM   42  C   UNL     1      -7.651  17.716  68.235  1.00  0.00    -0.257 C  
HETATM   43  O   UNL     1      -7.824  15.545  69.234  1.00  0.00    -0.196 OA 
HETATM   44  C   UNL     1      -8.438  16.548  68.876  1.00  0.00    -0.235 C  
HETATM   45  O   UNL     1      -6.428  17.716  68.303  1.00  0.00    -0.179 OA 
BRANCH  40  46
HETATM   46  C   UNL     1      -7.711  19.634  66.689  1.00  0.00    -0.276 C  
HETATM   47  C   UNL     1      -7.218  20.893  67.376  1.00  0.00    -0.396 C  
ENDBRANCH  40  46
ENDBRANCH  36  38
ENDBRANCH  34  36
ENDBRANCH  25  34
ENDBRANCH  24  25
ENDBRANCH   6  21
TORSDOF 10
ENDMDL
MODEL       10
REMARK 921   NORMALIZED FREE ENERGY PREDICTED BY IDOCK:   -7.40 KCAL/MOL
REMARK 922        TOTAL FREE ENERGY PREDICTED BY IDOCK:  -14.02 KCAL/MOL
REMARK 923 INTER-LIGAND FREE ENERGY PREDICTED BY IDOCK:  -12.17 KCAL/MOL
REMARK 924 INTRA-LIGAND FREE ENERGY PREDICTED BY IDOCK:   -1.85 KCAL/MOL
REMARK 927      BINDING AFFINITY PREDICTED BY RF-SCORE:    0.00 PKD
ROOT
HETATM    1  C   UNL     1     -10.255   8.514  69.261  1.00  0.00    -0.208 C  
HETATM    2  S   UNL     1      -9.775   9.194  67.656  1.00  0.00    -0.167 SA 
HETATM    3  C   UNL     1      -8.699   7.799  67.257  1.00  0.00    -0.128 C  
HETATM    4  C   UNL     1      -7.755   7.365  68.373  1.00  0.00    -0.120 C  
HETATM    5  CA  UNL     1      -7.932   7.689  69.688  1.00  0.00    -0.124 C  
HETATM    6  CA  UNL     1     -10.749   9.568  70.315  1.00  0.00    -0.265 C  
HETATM    7  O   UNL     1      -9.058   9.071  72.269  1.00  0.00    -0.351 OA 
HETATM    8  N   UNL     1      -9.061   8.362  70.070  1.00  0.00    -0.148 N  
HETATM    9  C   UNL     1      -6.846   7.384  70.706  1.00  0.00    -0.048 C  
HETATM   10  OXT UNL     1      -5.696   7.099  70.405  1.00  0.00    -0.023 OA 
HETATM   11  O   UNL     1      -7.224   7.350  71.999  1.00  0.00    -0.066 OA 
HETATM   12  C   UNL     1      -9.531   9.019  71.157  1.00  0.00    -0.278 C  
ENDROOT
BRANCH   4  13
HETATM   13  C   UNL     1      -6.540   6.647  67.785  1.00  0.00    -0.058 C  
BRANCH  13  14
HETATM   14  S   UNL     1      -6.644   4.841  67.715  1.00  0.00    -0.048 SA 
BRANCH  14  15
HETATM   15  C   UNL     1      -8.003   4.528  66.716  1.00  0.00    -0.102 A  
HETATM   16  N   UNL     1      -8.088   4.613  65.410  1.00  0.00    -0.105 NA 
HETATM   17  C   UNL     1      -9.636   3.920  68.561  1.00  0.00    -0.111 C  
HETATM   18  N   UNL     1      -9.393   4.310  65.099  1.00  0.00    -0.156 NA 
HETATM   19  N   UNL     1      -9.224   4.163  67.208  1.00  0.00    -0.145 NA 
HETATM   20  N   UNL     1     -10.095   4.037  66.191  1.00  0.00    -0.124 NA 
ENDBRANCH  14  15
ENDBRANCH  13  14
ENDBRANCH   4  13
BRANCH   6  21
HETATM   21  N   UNL     1     -10.678  10.986  69.862  1.00  0.00    -0.463 N  
HETATM   22  H   UNL     1      -9.796  11.485  69.976  1.00  0.00     0.000 HD 
HETATM   23  O   UNL     1     -12.778  11.081  68.979  1.00  0.00    -0.260 OA 
HETATM   24  C   UNL     1     -11.741  11.659  69.297  1.00  0.00    -0.331 C  
BRANCH  24  25
HETATM   25  CA  UNL     1     -11.587  13.205  69.265  1.00  0.00    -0.314 C  
BRANCH  25  26
HETATM   26  C   UNL     1     -12.066  13.832  70.566  1.00  0.00    -0.416 A  
HETATM   27  C   UNL     1     -13.620  13.932  72.441  1.00  0.00    -0.676 A  
HETATM   28  C   UNL     1     -11.356  14.901  71.132  1.00  0.00    -0.256 A  
HETATM   29  O   UNL     1     -13.318  15.499  74.173  1.00  0.00    -0.572 OA 
HETATM   30  C   UNL     1     -13.206  13.353  71.240  1.00  0.00    -0.251 A  
HETATM   31  C   UNL     1     -11.766  15.477  72.340  1.00  0.00    -0.570 A  
HETATM   32  H   UNL     1     -14.087  15.160  74.615  1.00  0.00     0.000 HD 
HETATM   33  C   UNL     1     -12.892  14.981  72.986  1.00  0.00    -0.471 A  
ENDBRANCH  25  26
BRANCH  25  34
HETATM   34  N   UNL     1     -10.206  13.608  69.004  1.00  0.00    -0.431 N  
HETATM   35  H   UNL     1      -9.550  13.645  69.785  1.00  0.00     0.000 HD 
BRANCH  34  36
HETATM   36  C   UNL     1      -9.760  13.936  67.754  1.00  0.00    -0.225 C  
HETATM   37  O   UNL     1      -9.032  13.178  67.118  1.00  0.00    -0.211 OA 
BRANCH  36  38
HETATM   38  N   UNL     1     -10.194  15.158  67.256  1.00  0.00    -0.241 N  
HETATM   39  C   UNL     1      -9.986  16.344  68.080  1.00  0.00    -0.242 C  
HETATM   40  N   UNL     1     -10.449  17.768  66.151  1.00  0.00    -0.349 N  
HETATM   41  C   UNL     1      -9.533  17.532  67.253  1.00  0.00    -0.253 C  
HETATM   42  C   UNL     1     -10.882  16.694  65.378  1.00  0.00    -0.173 C  
HETATM   43  O   UNL     1     -11.479  14.376  65.498  1.00  0.00    -0.327 OA 
HETATM   44  C   UNL     1     -10.869  15.296  66.040  1.00  0.00    -0.330 C  
HETATM   45  O   UNL     1     -11.300  16.804  64.232  1.00  0.00    -1.170 OA 
BRANCH  40  46
HETATM   46  C   UNL     1     -10.729  19.130  65.711  1.00  0.00    -0.307 C  
HETATM   47  C   UNL     1      -9.893  20.194  66.396  1.00  0.00    -0.560 C  
ENDBRANCH  40  46
ENDBRANCH  36  38
ENDBRANCH  34  36
ENDBRANCH  25  34
ENDBRANCH  24  25
ENDBRANCH   6  21
TORSDOF 10
ENDMDL
MODEL       11
REMARK 921   NORMALIZED FREE ENERGY PREDICTED BY IDOCK:   -7.33 KCAL/MOL
REMARK 922        TOTAL FREE ENERGY PREDICTED BY IDOCK:  -13.91 KCAL/MOL
REMARK 923 INTER-LIGAND FREE ENERGY PREDICTED BY IDOCK:  -11.53 KCAL/MOL
REMARK 924 INTRA-LIGAND FREE ENERGY PREDICTED BY IDOCK:   -2.38 KCAL/MOL
REMARK 927      BINDING AFFINITY PREDICTED BY RF-SCORE:    0.00 PKD
ROOT
HETATM    1  C   UNL     1     -12.075  14.077  68.862  1.00  0.00    -0.316 C  
HETATM    2  S   UNL     1     -10.674  14.661  69.845  1.00  0.00     0.022 SA 
HETATM    3  C   UNL     1     -10.690  16.307  69.102  1.00  0.00    -0.305 C  
HETATM    4  C   UNL     1     -10.800  16.333  67.580  1.00  0.00    -0.293 C  
HETATM    5  CA  UNL     1     -11.247  15.282  66.832  1.00  0.00    -0.256 C  
HETATM    6  CA  UNL     1     -12.161  12.520  68.675  1.00  0.00    -0.093 C  
HETATM    7  O   UNL     1     -12.161  12.386  66.048  1.00  0.00    -0.636 OA 
HETATM    8  N   UNL     1     -11.717  14.160  67.460  1.00  0.00    -0.366 N  
HETATM    9  C   UNL     1     -11.142  15.319  65.317  1.00  0.00    -0.376 C  
HETATM   10  OXT UNL     1     -10.445  16.116  64.706  1.00  0.00    -0.592 OA 
HETATM   11  O   UNL     1     -11.939  14.472  64.636  1.00  0.00    -0.425 OA 
HETATM   12  C   UNL     1     -12.052  12.886  67.143  1.00  0.00    -0.219 C  
ENDROOT
BRANCH   4  13
HETATM   13  C   UNL     1     -10.218  17.637  67.033  1.00  0.00    -0.332 C  
BRANCH  13  14
HETATM   14  S   UNL     1      -8.720  18.240  67.853  1.00  0.00    -0.270 SA 
BRANCH  14  15
HETATM   15  C   UNL     1      -7.673  18.678  66.566  1.00  0.00    -0.258 A  
HETATM   16  N   UNL     1      -7.427  18.019  65.459  1.00  0.00    -0.488 NA 
HETATM   17  C   UNL     1      -6.845  20.868  67.544  1.00  0.00    -0.360 C  
HETATM   18  N   UNL     1      -6.487  18.761  64.783  1.00  0.00    -0.468 NA 
HETATM   19  N   UNL     1      -6.917  19.815  66.572  1.00  0.00    -0.212 NA 
HETATM   20  N   UNL     1      -6.167  19.857  65.456  1.00  0.00    -0.207 NA 
ENDBRANCH  14  15
ENDBRANCH  13  14
ENDBRANCH   4  13
BRANCH   6  21
HETATM   21  N   UNL     1     -11.030  11.755  69.273  1.00  0.00    -0.383 N  
HETATM   22  H   UNL     1     -10.079  12.014  69.009  1.00  0.00     0.000 HD 
HETATM   23  O   UNL     1     -12.297  10.457  70.654  1.00  0.00    -0.301 OA 
HETATM   24  C   UNL     1     -11.199  10.717  70.165  1.00  0.00    -0.302 C  
BRANCH  24  25
HETATM   25  CA  UNL     1      -9.950   9.813  70.355  1.00  0.00    -0.233 C  
BRANCH  25  26
HETATM   26  C   UNL     1     -10.300   8.548  71.126  1.00  0.00    -0.273 A  
HETATM   27  C   UNL     1     -11.199   6.285  71.218  1.00  0.00    -0.355 A  
HETATM   28  C   UNL     1     -10.004   8.458  72.495  1.00  0.00    -0.356 A  
HETATM   29  O   UNL     1     -11.171   5.058  73.228  1.00  0.00    -0.309 OA 
HETATM   30  C   UNL     1     -10.901   7.442  70.496  1.00  0.00    -0.259 A  
HETATM   31  C   UNL     1     -10.296   7.295  73.217  1.00  0.00    -0.389 A  
HETATM   32  H   UNL     1     -11.573   4.321  72.785  1.00  0.00     0.000 HD 
HETATM   33  C   UNL     1     -10.886   6.217  72.568  1.00  0.00    -0.240 A  
ENDBRANCH  25  26
BRANCH  25  34
HETATM   34  N   UNL     1      -9.339   9.456  69.077  1.00  0.00    -0.150 N  
HETATM   35  H   UNL     1      -9.945   9.254  68.282  1.00  0.00     0.000 HD 
BRANCH  34  36
HETATM   36  C   UNL     1      -7.984   9.383  68.905  1.00  0.00    -0.087 C  
HETATM   37  O   UNL     1      -7.424   8.309  68.705  1.00  0.00    -0.092 OA 
BRANCH  36  38
HETATM   38  N   UNL     1      -7.300  10.592  68.957  1.00  0.00    -0.092 N  
HETATM   39  C   UNL     1      -7.306  11.432  67.764  1.00  0.00    -0.098 C  
HETATM   40  N   UNL     1      -6.496  13.318  69.087  1.00  0.00    -0.102 N  
HETATM   41  C   UNL     1      -7.484  12.898  68.109  1.00  0.00    -0.126 C  
HETATM   42  C   UNL     1      -6.251  12.519  70.200  1.00  0.00    -0.032 C  
HETATM   43  O   UNL     1      -6.124  10.236  70.917  1.00  0.00    -0.194 OA 
HETATM   44  C   UNL     1      -6.563  11.009  70.069  1.00  0.00    -0.134 C  
HETATM   45  O   UNL     1      -5.773  12.937  71.248  1.00  0.00    -0.352 OA 
BRANCH  40  46
HETATM   46  C   UNL     1      -5.938  14.665  69.031  1.00  0.00    -0.089 C  
HETATM   47  C   UNL     1      -6.050  15.333  67.674  1.00  0.00    -0.139 C  
ENDBRANCH  40  46
ENDBRANCH  36  38
ENDBRANCH  34  36
ENDBRANCH  25  34
ENDBRANCH  24  25
ENDBRANCH   6  21
TORSDOF 10
ENDMDL
MODEL       12
REMARK 921   NORMALIZED FREE ENERGY PREDICTED BY IDOCK:   -7.33 KCAL/MOL
REMARK 922        TOTAL FREE ENERGY PREDICTED BY IDOCK:  -13.91 KCAL/MOL
REMARK 923 INTER-LIGAND FREE ENERGY PREDICTED BY IDOCK:  -11.67 KCAL/MOL
REMARK 924 INTRA-LIGAND FREE ENERGY PREDICTED BY IDOCK:   -2.23 KCAL/MOL
REMARK 927      BINDING AFFINITY PREDICTED BY RF-SCORE:    0.00 PKD
ROOT
HETATM    1  C   UNL     1      -9.676   9.189  69.305  1.00  0.00    -0.164 C  
HETATM    2  S   UNL     1      -8.047   9.974  69.292  1.00  0.00    -0.154 SA 
HETATM    3  C   UNL     1      -7.251   8.605  70.161  1.00  0.00    -0.052 C  
HETATM    4  C   UNL     1      -7.997   8.091  71.388  1.00  0.00    -0.109 C  
HETATM    5  CA  UNL     1      -9.322   8.325  71.627  1.00  0.00    -0.192 C  
HETATM    6  CA  UNL     1     -10.895  10.170  69.181  1.00  0.00    -0.226 C  
HETATM    7  O   UNL     1     -12.205   9.533  71.372  1.00  0.00    -0.322 OA 
HETATM    8  N   UNL     1     -10.071   8.976  70.684  1.00  0.00    -0.211 N  
HETATM    9  C   UNL     1      -9.939   7.947  72.962  1.00  0.00    -0.296 C  
HETATM   10  OXT UNL     1      -9.285   7.677  73.959  1.00  0.00    -0.263 OA 
HETATM   11  O   UNL     1     -11.281   7.826  72.993  1.00  0.00    -0.405 OA 
HETATM   12  C   UNL     1     -11.289   9.560  70.583  1.00  0.00    -0.301 C  
ENDROOT
BRANCH   4  13
HETATM   13  C   UNL     1      -7.023   7.409  72.349  1.00  0.00    -0.063 C  
BRANCH  13  14
HETATM   14  S   UNL     1      -6.503   5.736  71.894  1.00  0.00    -0.054 SA 
BRANCH  14  15
HETATM   15  C   UNL     1      -7.941   4.970  71.357  1.00  0.00    -0.111 A  
HETATM   16  N   UNL     1      -8.410   4.887  70.136  1.00  0.00    -0.079 NA 
HETATM   17  C   UNL     1      -8.749   4.159  73.622  1.00  0.00    -0.094 C  
HETATM   18  N   UNL     1      -9.608   4.221  70.238  1.00  0.00    -0.183 NA 
HETATM   19  N   UNL     1      -8.819   4.353  72.202  1.00  0.00    -0.115 NA 
HETATM   20  N   UNL     1      -9.868   3.893  71.497  1.00  0.00    -0.186 NA 
ENDBRANCH  14  15
ENDBRANCH  13  14
ENDBRANCH   4  13
BRANCH   6  21
HETATM   21  N   UNL     1     -10.533  11.616  69.147  1.00  0.00    -0.405 N  
HETATM   22  H   UNL     1      -9.666  11.906  69.599  1.00  0.00     0.000 HD 
HETATM   23  O   UNL     1     -12.273  12.287  67.836  1.00  0.00    -0.409 OA 
HETATM   24  C   UNL     1     -11.307  12.581  68.537  1.00  0.00    -0.297 C  
BRANCH  24  25
HETATM   25  CA  UNL     1     -10.970  14.040  68.949  1.00  0.00    -0.259 C  
BRANCH  25  26
HETATM   26  C   UNL     1     -11.707  14.436  70.221  1.00  0.00    -0.355 A  
HETATM   27  C   UNL     1     -13.335  13.975  71.975  1.00  0.00    -0.514 A  
HETATM   28  C   UNL     1     -11.406  15.650  70.855  1.00  0.00    -0.417 A  
HETATM   29  O   UNL     1     -13.655  15.490  73.749  1.00  0.00    -0.573 OA 
HETATM   30  C   UNL     1     -12.682  13.601  70.799  1.00  0.00    -0.338 A  
HETATM   31  C   UNL     1     -12.055  16.022  72.038  1.00  0.00    -0.606 A  
HETATM   32  H   UNL     1     -14.307  14.912  74.126  1.00  0.00     0.000 HD 
HETATM   33  C   UNL     1     -13.010  15.176  72.590  1.00  0.00    -0.400 A  
ENDBRANCH  25  26
BRANCH  25  34
HETATM   34  N   UNL     1      -9.533  14.234  69.134  1.00  0.00    -0.405 N  
HETATM   35  H   UNL     1      -9.156  14.243  70.082  1.00  0.00     0.000 HD 
BRANCH  34  36
HETATM   36  C   UNL     1      -8.674  14.404  68.084  1.00  0.00    -0.175 C  
HETATM   37  O   UNL     1      -8.055  13.456  67.606  1.00  0.00    -0.148 OA 
BRANCH  36  38
HETATM   38  N   UNL     1      -8.563  15.699  67.593  1.00  0.00    -0.164 N  
HETATM   39  C   UNL     1      -9.131  15.983  66.279  1.00  0.00    -0.344 C  
HETATM   40  N   UNL     1      -8.971  18.378  66.726  1.00  0.00    -0.280 N  
HETATM   41  C   UNL     1      -9.845  17.320  66.252  1.00  0.00    -0.285 C  
HETATM   42  C   UNL     1      -8.221  18.180  67.882  1.00  0.00    -0.249 C  
HETATM   43  O   UNL     1      -7.022  16.512  69.115  1.00  0.00    -0.203 OA 
HETATM   44  C   UNL     1      -7.888  16.720  68.267  1.00  0.00    -0.194 C  
HETATM   45  O   UNL     1      -7.788  19.091  68.578  1.00  0.00    -0.314 OA 
BRANCH  40  46
HETATM   46  C   UNL     1      -9.049  19.711  66.138  1.00  0.00    -0.332 C  
HETATM   47  C   UNL     1     -10.462  20.215  65.915  1.00  0.00    -0.427 C  
ENDBRANCH  40  46
ENDBRANCH  36  38
ENDBRANCH  34  36
ENDBRANCH  25  34
ENDBRANCH  24  25
ENDBRANCH   6  21
TORSDOF 10
ENDMDL
MODEL       13
REMARK 921   NORMALIZED FREE ENERGY PREDICTED BY IDOCK:   -7.27 KCAL/MOL
REMARK 922        TOTAL FREE ENERGY PREDICTED BY IDOCK:  -13.82 KCAL/MOL
REMARK 923 INTER-LIGAND FREE ENERGY PREDICTED BY IDOCK:  -10.35 KCAL/MOL
REMARK 924 INTRA-LIGAND FREE ENERGY PREDICTED BY IDOCK:   -3.47 KCAL/MOL
REMARK 927      BINDING AFFINITY PREDICTED BY RF-SCORE:    0.00 PKD
ROOT
HETATM    1  C   UNL     1     -11.840  14.720  68.643  1.00  0.00    -0.300 C  
HETATM    2  S   UNL     1     -10.266  15.319  69.301  1.00  0.00    -0.262 SA 
HETATM    3  C   UNL     1     -10.360  16.889  68.412  1.00  0.00    -0.338 C  
HETATM    4  C   UNL     1     -10.741  16.782  66.939  1.00  0.00    -0.139 C  
HETATM    5  CA  UNL     1     -11.351  15.691  66.389  1.00  0.00     0.065 C  
HETATM    6  CA  UNL     1     -12.010  13.159  68.628  1.00  0.00    -0.284 C  
HETATM    7  O   UNL     1     -12.489  12.786  66.068  1.00  0.00    -0.540 OA 
HETATM    8  N   UNL     1     -11.738  14.656  67.197  1.00  0.00    -0.385 N  
HETATM    9  C   UNL     1     -11.519  15.585  64.883  1.00  0.00    -0.279 C  
HETATM   10  OXT UNL     1     -10.917  16.286  64.083  1.00  0.00    -0.649 OA 
HETATM   11  O   UNL     1     -12.454  14.721  64.440  1.00  0.00    -0.599 OA 
HETATM   12  C   UNL     1     -12.166  13.378  67.072  1.00  0.00    -0.268 C  
ENDROOT
BRANCH   4  13
HETATM   13  C   UNL     1     -10.223  17.999  66.172  1.00  0.00    -0.363 C  
BRANCH  13  14
HETATM   14  S   UNL     1      -9.317  19.225  67.150  1.00  0.00    -0.326 SA 
BRANCH  14  15
HETATM   15  C   UNL     1      -7.686  19.051  66.650  1.00  0.00    -0.247 A  
HETATM   16  N   UNL     1      -7.223  18.461  65.574  1.00  0.00    -0.542 NA 
HETATM   17  C   UNL     1      -6.610  20.240  68.617  1.00  0.00    -0.280 C  
HETATM   18  N   UNL     1      -5.854  18.549  65.657  1.00  0.00    -0.187 NA 
HETATM   19  N   UNL     1      -6.627  19.513  67.380  1.00  0.00    -0.196 NA 
HETATM   20  N   UNL     1      -5.480  19.187  66.759  1.00  0.00    -0.159 NA 
ENDBRANCH  14  15
ENDBRANCH  13  14
ENDBRANCH   4  13
BRANCH   6  21
HETATM   21  N   UNL     1     -10.816  12.396  69.090  1.00  0.00    -0.423 N  
HETATM   22  H   UNL     1      -9.921  12.881  69.134  1.00  0.00     0.000 HD 
HETATM   23  O   UNL     1     -11.922  10.466  69.592  1.00  0.00    -0.222 OA 
HETATM   24  C   UNL     1     -10.858  11.068  69.462  1.00  0.00    -0.216 C  
BRANCH  24  25
HETATM   25  CA  UNL     1      -9.473  10.367  69.525  1.00  0.00    -0.139 C  
BRANCH  25  26
HETATM   26  C   UNL     1      -9.587   8.981  70.144  1.00  0.00    -0.217 A  
HETATM   27  C   UNL     1      -9.783   6.560  69.935  1.00  0.00    -0.176 A  
HETATM   28  C   UNL     1      -9.565   8.832  71.538  1.00  0.00    -0.354 A  
HETATM   29  O   UNL     1      -9.808   5.185  71.846  1.00  0.00    -0.166 OA 
HETATM   30  C   UNL     1      -9.696   7.824  69.348  1.00  0.00    -0.169 A  
HETATM   31  C   UNL     1      -9.644   7.565  72.126  1.00  0.00    -0.190 A  
HETATM   32  H   UNL     1      -9.878   4.416  71.293  1.00  0.00     0.000 HD 
HETATM   33  C   UNL     1      -9.746   6.440  71.317  1.00  0.00    -0.174 A  
ENDBRANCH  25  26
BRANCH  25  34
HETATM   34  N   UNL     1      -8.855  10.267  68.205  1.00  0.00    -0.122 N  
HETATM   35  H   UNL     1      -9.414   9.918  67.426  1.00  0.00     0.000 HD 
BRANCH  34  36
HETATM   36  C   UNL     1      -7.555  10.623  67.973  1.00  0.00    -0.091 C  
HETATM   37  O   UNL     1      -6.731   9.804  67.573  1.00  0.00    -0.069 OA 
BRANCH  36  38
HETATM   38  N   UNL     1      -7.241  11.956  68.204  1.00  0.00    -0.078 N  
HETATM   39  C   UNL     1      -6.333  12.264  69.304  1.00  0.00    -0.103 C  
HETATM   40  N   UNL     1      -6.024  14.520  68.422  1.00  0.00    -0.095 N  
HETATM   41  C   UNL     1      -5.338  13.344  68.928  1.00  0.00    -0.073 C  
HETATM   42  C   UNL     1      -7.048  14.367  67.490  1.00  0.00    -0.175 C  
HETATM   43  O   UNL     1      -8.858  12.926  66.864  1.00  0.00    -0.213 OA 
HETATM   44  C   UNL     1      -7.795  13.012  67.476  1.00  0.00    -0.178 C  
HETATM   45  O   UNL     1      -7.403  15.249  66.718  1.00  0.00    -0.098 OA 
BRANCH  40  46
HETATM   46  C   UNL     1      -5.501  15.852  68.703  1.00  0.00    -0.102 C  
HETATM   47  C   UNL     1      -6.399  16.706  69.576  1.00  0.00    -0.227 C  
ENDBRANCH  40  46
ENDBRANCH  36  38
ENDBRANCH  34  36
ENDBRANCH  25  34
ENDBRANCH  24  25
ENDBRANCH   6  21
TORSDOF 10
ENDMDL
MODEL       14
REMARK 921   NORMALIZED FREE ENERGY PREDICTED BY IDOCK:   -7.26 KCAL/MOL
REMARK 922        TOTAL FREE ENERGY PREDICTED BY IDOCK:  -13.80 KCAL/MOL
REMARK 923 INTER-LIGAND FREE ENERGY PREDICTED BY IDOCK:  -12.22 KCAL/MOL
REMARK 924 INTRA-LIGAND FREE ENERGY PREDICTED BY IDOCK:   -1.58 KCAL/MOL
REMARK 927      BINDING AFFINITY PREDICTED BY RF-SCORE:    0.00 PKD
ROOT
HETATM    1  C   UNL     1     -11.844  14.378  67.878  1.00  0.00    -0.349 C  
HETATM    2  S   UNL     1     -10.469  13.969  68.980  1.00  0.00    -0.094 SA 
HETATM    3  C   UNL     1     -10.068  15.698  69.312  1.00  0.00    -0.258 C  
HETATM    4  C   UNL     1     -10.004  16.600  68.083  1.00  0.00    -0.259 C  
HETATM    5  CA  UNL     1     -10.570  16.287  66.880  1.00  0.00    -0.270 C  
HETATM    6  CA  UNL     1     -12.223  13.266  66.836  1.00  0.00    -0.257 C  
HETATM    7  O   UNL     1     -11.963  14.637  64.606  1.00  0.00    -0.431 OA 
HETATM    8  N   UNL     1     -11.325  15.151  66.766  1.00  0.00    -0.296 N  
HETATM    9  C   UNL     1     -10.295  17.145  65.657  1.00  0.00    -0.183 C  
HETATM   10  OXT UNL     1      -9.387  17.962  65.593  1.00  0.00    -0.388 OA 
HETATM   11  O   UNL     1     -11.168  17.037  64.636  1.00  0.00    -0.968 OA 
HETATM   12  C   UNL     1     -11.874  14.393  65.787  1.00  0.00    -0.364 C  
ENDROOT
BRANCH   4  13
HETATM   13  C   UNL     1      -9.112  17.809  68.364  1.00  0.00    -0.278 C  
BRANCH  13  14
HETATM   14  S   UNL     1      -7.424  17.440  68.903  1.00  0.00    -0.197 SA 
BRANCH  14  15
HETATM   15  C   UNL     1      -6.667  18.974  69.028  1.00  0.00    -0.299 A  
HETATM   16  N   UNL     1      -6.343  19.634  70.114  1.00  0.00    -0.274 NA 
HETATM   17  C   UNL     1      -6.461  19.445  66.543  1.00  0.00    -0.187 C  
HETATM   18  N   UNL     1      -5.811  20.827  69.683  1.00  0.00    -0.371 NA 
HETATM   19  N   UNL     1      -6.329  19.732  67.943  1.00  0.00    -0.220 NA 
HETATM   20  N   UNL     1      -5.801  20.896  68.359  1.00  0.00    -0.337 NA 
ENDBRANCH  14  15
ENDBRANCH  13  14
ENDBRANCH   4  13
BRANCH   6  21
HETATM   21  N   UNL     1     -11.343  12.063  66.858  1.00  0.00    -0.326 N  
HETATM   22  H   UNL     1     -10.562  12.025  66.204  1.00  0.00     0.000 HD 
HETATM   23  O   UNL     1     -12.343  11.044  68.636  1.00  0.00    -0.539 OA 
HETATM   24  C   UNL     1     -11.530  10.999  67.715  1.00  0.00    -0.261 C  
BRANCH  24  25
HETATM   25  CA  UNL     1     -10.770   9.703  67.317  1.00  0.00    -0.214 C  
BRANCH  25  26
HETATM   26  C   UNL     1      -9.467  10.029  66.601  1.00  0.00    -0.215 A  
HETATM   27  C   UNL     1      -7.183  10.879  66.610  1.00  0.00    -0.139 A  
HETATM   28  C   UNL     1      -9.326   9.737  65.236  1.00  0.00    -0.315 A  
HETATM   29  O   UNL     1      -5.874  10.833  64.653  1.00  0.00    -0.344 OA 
HETATM   30  C   UNL     1      -8.375  10.603  67.281  1.00  0.00    -0.120 A  
HETATM   31  C   UNL     1      -8.127  10.007  64.565  1.00  0.00    -0.156 A  
HETATM   32  H   UNL     1      -5.147  11.217  65.129  1.00  0.00     0.000 HD 
HETATM   33  C   UNL     1      -7.064  10.570  65.262  1.00  0.00    -0.047 A  
ENDBRANCH  25  26
BRANCH  25  34
HETATM   34  N   UNL     1     -10.497   8.856  68.476  1.00  0.00    -0.272 N  
HETATM   35  H   UNL     1     -10.117   9.286  69.319  1.00  0.00     0.000 HD 
BRANCH  34  36
HETATM   36  C   UNL     1     -10.731   7.509  68.473  1.00  0.00    -0.073 C  
HETATM   37  O   UNL     1     -10.821   6.880  67.422  1.00  0.00    -0.287 OA 
BRANCH  36  38
HETATM   38  N   UNL     1     -10.841   6.910  69.721  1.00  0.00    -0.246 N  
HETATM   39  C   UNL     1     -10.564   5.480  69.820  1.00  0.00    -0.318 C  
HETATM   40  N   UNL     1     -10.420   5.674  72.250  1.00  0.00    -0.206 N  
HETATM   41  C   UNL     1      -9.766   5.147  71.066  1.00  0.00    -0.183 C  
HETATM   42  C   UNL     1     -10.903   6.981  72.241  1.00  0.00    -0.230 C  
HETATM   43  O   UNL     1     -11.925   8.626  70.831  1.00  0.00    -0.276 OA 
HETATM   44  C   UNL     1     -11.260   7.593  70.866  1.00  0.00    -0.268 C  
HETATM   45  O   UNL     1     -11.090   7.645  73.254  1.00  0.00    -0.382 OA 
BRANCH  40  46
HETATM   46  C   UNL     1     -10.366   4.936  73.507  1.00  0.00    -0.202 C  
HETATM   47  C   UNL     1     -11.058   3.587  73.470  1.00  0.00    -0.317 C  
ENDBRANCH  40  46
ENDBRANCH  36  38
ENDBRANCH  34  36
ENDBRANCH  25  34
ENDBRANCH  24  25
ENDBRANCH   6  21
TORSDOF 10
ENDMDL
MODEL       15
REMARK 921   NORMALIZED FREE ENERGY PREDICTED BY IDOCK:   -7.25 KCAL/MOL
REMARK 922        TOTAL FREE ENERGY PREDICTED BY IDOCK:  -13.78 KCAL/MOL
REMARK 923 INTER-LIGAND FREE ENERGY PREDICTED BY IDOCK:  -11.08 KCAL/MOL
REMARK 924 INTRA-LIGAND FREE ENERGY PREDICTED BY IDOCK:   -2.70 KCAL/MOL
REMARK 927      BINDING AFFINITY PREDICTED BY RF-SCORE:    0.00 PKD
ROOT
HETATM    1  C   UNL     1      -7.607   9.427  68.087  1.00  0.00    -0.083 C  
HETATM    2  S   UNL     1      -7.620  10.017  69.797  1.00  0.00    -0.175 SA 
HETATM    3  C   UNL     1      -7.520   8.354  70.494  1.00  0.00    -0.065 C  
HETATM    4  C   UNL     1      -8.475   7.333  69.883  1.00  0.00    -0.140 C  
HETATM    5  CA  UNL     1      -9.080   7.490  68.668  1.00  0.00    -0.134 C  
HETATM    6  CA  UNL     1      -8.243  10.404  67.036  1.00  0.00    -0.123 C  
HETATM    7  O   UNL     1     -10.078   8.822  66.010  1.00  0.00    -0.228 OA 
HETATM    8  N   UNL     1      -8.759   8.569  67.890  1.00  0.00    -0.137 N  
HETATM    9  C   UNL     1     -10.163   6.523  68.221  1.00  0.00    -0.172 C  
HETATM   10  OXT UNL     1     -10.735   5.750  68.976  1.00  0.00    -0.274 OA 
HETATM   11  O   UNL     1     -10.425   6.480  66.900  1.00  0.00    -0.234 OA 
HETATM   12  C   UNL     1      -9.222   9.192  66.780  1.00  0.00    -0.155 C  
ENDROOT
BRANCH   4  13
HETATM   13  C   UNL     1      -8.746   6.205  70.878  1.00  0.00    -0.136 C  
BRANCH  13  14
HETATM   14  S   UNL     1      -9.458   6.705  72.466  1.00  0.00    -0.146 SA 
BRANCH  14  15
HETATM   15  C   UNL     1     -11.118   6.973  72.127  1.00  0.00    -0.245 A  
HETATM   16  N   UNL     1     -12.109   6.118  72.195  1.00  0.00    -0.289 NA 
HETATM   17  C   UNL     1     -10.932   9.421  71.483  1.00  0.00    -0.359 C  
HETATM   18  N   UNL     1     -13.226   6.805  71.780  1.00  0.00    -0.248 NA 
HETATM   19  N   UNL     1     -11.608   8.173  71.697  1.00  0.00    -0.266 NA 
HETATM   20  N   UNL     1     -12.929   8.060  71.471  1.00  0.00    -0.321 NA 
ENDBRANCH  14  15
ENDBRANCH  13  14
ENDBRANCH   4  13
BRANCH   6  21
HETATM   21  N   UNL     1      -8.834  11.645  67.612  1.00  0.00    -0.154 N  
HETATM   22  H   UNL     1      -9.754  11.583  68.050  1.00  0.00     0.000 HD 
HETATM   23  O   UNL     1      -7.036  12.992  67.227  1.00  0.00    -0.142 OA 
HETATM   24  C   UNL     1      -8.205  12.872  67.586  1.00  0.00    -0.177 C  
BRANCH  24  25
HETATM   25  CA  UNL     1      -9.134  14.085  67.871  1.00  0.00    -0.188 C  
BRANCH  25  26
HETATM   26  C   UNL     1      -8.358  15.393  67.824  1.00  0.00    -0.156 A  
HETATM   27  C   UNL     1      -7.570  17.365  66.626  1.00  0.00    -0.291 A  
HETATM   28  C   UNL     1      -7.722  15.873  68.979  1.00  0.00    -0.209 A  
HETATM   29  O   UNL     1      -6.306  19.018  67.729  1.00  0.00    -0.205 OA 
HETATM   30  C   UNL     1      -8.273  16.159  66.645  1.00  0.00    -0.321 A  
HETATM   31  C   UNL     1      -7.024  17.086  68.962  1.00  0.00    -0.229 A  
HETATM   32  H   UNL     1      -6.263  19.522  66.925  1.00  0.00     0.000 HD 
HETATM   33  C   UNL     1      -6.960  17.823  67.786  1.00  0.00    -0.187 A  
ENDBRANCH  25  26
BRANCH  25  34
HETATM   34  N   UNL     1     -10.253  14.143  66.934  1.00  0.00    -0.264 N  
HETATM   35  H   UNL     1     -10.056  14.245  65.939  1.00  0.00     0.000 HD 
BRANCH  34  36
HETATM   36  C   UNL     1     -11.557  14.065  67.341  1.00  0.00    -0.368 C  
HETATM   37  O   UNL     1     -12.475  13.995  66.529  1.00  0.00    -0.442 OA 
BRANCH  36  38
HETATM   38  N   UNL     1     -11.764  14.055  68.715  1.00  0.00    -0.330 N  
HETATM   39  C   UNL     1     -11.779  15.336  69.413  1.00  0.00    -0.341 C  
HETATM   40  N   UNL     1     -12.774  14.261  71.367  1.00  0.00    -0.332 N  
HETATM   41  C   UNL     1     -12.872  15.393  70.462  1.00  0.00    -0.376 C  
HETATM   42  C   UNL     1     -12.576  12.984  70.849  1.00  0.00    -0.280 C  
HETATM   43  O   UNL     1     -11.471  11.790  69.089  1.00  0.00    -0.248 OA 
HETATM   44  C   UNL     1     -11.898  12.881  69.462  1.00  0.00    -0.320 C  
HETATM   45  O   UNL     1     -12.875  11.955  71.442  1.00  0.00    -0.389 OA 
BRANCH  40  46
HETATM   46  C   UNL     1     -13.108  14.421  72.778  1.00  0.00    -0.505 C  
HETATM   47  C   UNL     1     -13.193  15.863  73.242  1.00  0.00    -0.698 C  
ENDBRANCH  40  46
ENDBRANCH  36  38
ENDBRANCH  34  36
ENDBRANCH  25  34
ENDBRANCH  24  25
ENDBRANCH   6  21
TORSDOF 10
ENDMDL
MODEL       16
REMARK 921   NORMALIZED FREE ENERGY PREDICTED BY IDOCK:   -7.24 KCAL/MOL
REMARK 922        TOTAL FREE ENERGY PREDICTED BY IDOCK:  -13.77 KCAL/MOL
REMARK 923 INTER-LIGAND FREE ENERGY PREDICTED BY IDOCK:  -11.73 KCAL/MOL
REMARK 924 INTRA-LIGAND FREE ENERGY PREDICTED BY IDOCK:   -2.04 KCAL/MOL
REMARK 927      BINDING AFFINITY PREDICTED BY RF-SCORE:    0.00 PKD
ROOT
HETATM    1  C   UNL     1     -12.032  14.089  68.970  1.00  0.00    -0.357 C  
HETATM    2  S   UNL     1     -10.614  14.624  69.957  1.00  0.00     0.167 SA 
HETATM    3  C   UNL     1     -10.595  16.283  69.243  1.00  0.00    -0.293 C  
HETATM    4  C   UNL     1     -10.711  16.339  67.723  1.00  0.00    -0.325 C  
HETATM    5  CA  UNL     1     -11.184  15.311  66.958  1.00  0.00    -0.275 C  
HETATM    6  CA  UNL     1     -12.153  12.538  68.756  1.00  0.00    -0.110 C  
HETATM    7  O   UNL     1     -12.167  12.451  66.126  1.00  0.00    -0.635 OA 
HETATM    8  N   UNL     1     -11.677  14.189  67.568  1.00  0.00    -0.366 N  
HETATM    9  C   UNL     1     -11.085  15.373  65.443  1.00  0.00    -0.326 C  
HETATM   10  OXT UNL     1     -10.372  16.165  64.843  1.00  0.00    -0.563 OA 
HETATM   11  O   UNL     1     -11.903  14.557  64.751  1.00  0.00    -0.399 OA 
HETATM   12  C   UNL     1     -12.042  12.929  67.230  1.00  0.00    -0.212 C  
ENDROOT
BRANCH   4  13
HETATM   13  C   UNL     1     -10.101  17.638  67.196  1.00  0.00    -0.328 C  
BRANCH  13  14
HETATM   14  S   UNL     1      -8.513  18.118  67.920  1.00  0.00    -0.259 SA 
BRANCH  14  15
HETATM   15  C   UNL     1      -7.584  18.673  66.589  1.00  0.00    -0.241 A  
HETATM   16  N   UNL     1      -7.286  18.033  65.484  1.00  0.00    -0.507 NA 
HETATM   17  C   UNL     1      -7.041  20.977  67.503  1.00  0.00    -0.301 C  
HETATM   18  N   UNL     1      -6.485  18.886  64.762  1.00  0.00    -0.497 NA 
HETATM   19  N   UNL     1      -6.997  19.905  66.549  1.00  0.00    -0.222 NA 
HETATM   20  N   UNL     1      -6.300  20.031  65.406  1.00  0.00    -0.233 NA 
ENDBRANCH  14  15
ENDBRANCH  13  14
ENDBRANCH   4  13
BRANCH   6  21
HETATM   21  N   UNL     1     -11.037  11.738  69.335  1.00  0.00    -0.399 N  
HETATM   22  H   UNL     1     -10.082  11.975  69.065  1.00  0.00     0.000 HD 
HETATM   23  O   UNL     1     -12.325  10.455  70.711  1.00  0.00    -0.311 OA 
HETATM   24  C   UNL     1     -11.226  10.693  70.216  1.00  0.00    -0.285 C  
BRANCH  24  25
HETATM   25  CA  UNL     1      -9.998   9.756  70.385  1.00  0.00    -0.233 C  
BRANCH  25  26
HETATM   26  C   UNL     1     -10.297   8.632  71.367  1.00  0.00    -0.331 A  
HETATM   27  C   UNL     1     -11.459   6.575  71.968  1.00  0.00    -0.342 A  
HETATM   28  C   UNL     1      -9.639   8.590  72.605  1.00  0.00    -0.294 A  
HETATM   29  O   UNL     1     -11.040   5.512  74.026  1.00  0.00    -0.400 OA 
HETATM   30  C   UNL     1     -11.212   7.606  71.059  1.00  0.00    -0.283 A  
HETATM   31  C   UNL     1      -9.882   7.553  73.513  1.00  0.00    -0.372 A  
HETATM   32  H   UNL     1     -11.658   4.828  73.800  1.00  0.00     0.000 HD 
HETATM   33  C   UNL     1     -10.786   6.551  73.181  1.00  0.00    -0.257 A  
ENDBRANCH  25  26
BRANCH  25  34
HETATM   34  N   UNL     1      -9.567   9.191  69.108  1.00  0.00    -0.158 N  
HETATM   35  H   UNL     1     -10.227   8.626  68.573  1.00  0.00     0.000 HD 
BRANCH  34  36
HETATM   36  C   UNL     1      -8.312   9.391  68.603  1.00  0.00    -0.117 C  
HETATM   37  O   UNL     1      -7.350   9.582  69.342  1.00  0.00    -0.075 OA 
BRANCH  36  38
HETATM   38  N   UNL     1      -8.202   9.347  67.218  1.00  0.00    -0.116 N  
HETATM   39  C   UNL     1      -7.248   8.407  66.639  1.00  0.00    -0.077 C  
HETATM   40  N   UNL     1      -8.291   8.695  64.450  1.00  0.00    -0.161 N  
HETATM   41  C   UNL     1      -7.812   7.718  65.411  1.00  0.00    -0.114 C  
HETATM   42  C   UNL     1      -9.073   9.761  64.889  1.00  0.00    -0.229 C  
HETATM   43  O   UNL     1      -9.375  11.277  66.719  1.00  0.00    -0.171 OA 
HETATM   44  C   UNL     1      -8.911  10.195  66.364  1.00  0.00    -0.144 C  
HETATM   45  O   UNL     1      -9.842  10.384  64.166  1.00  0.00    -0.319 OA 
BRANCH  40  46
HETATM   46  C   UNL     1      -8.158   8.442  63.020  1.00  0.00    -0.163 C  
HETATM   47  C   UNL     1      -7.508   7.115  62.677  1.00  0.00    -0.098 C  
ENDBRANCH  40  46
ENDBRANCH  36  38
ENDBRANCH  34  36
ENDBRANCH  25  34
ENDBRANCH  24  25
ENDBRANCH   6  21
TORSDOF 10
ENDMDL
MODEL       17
REMARK 921   NORMALIZED FREE ENERGY PREDICTED BY IDOCK:   -7.19 KCAL/MOL
REMARK 922        TOTAL FREE ENERGY PREDICTED BY IDOCK:  -13.68 KCAL/MOL
REMARK 923 INTER-LIGAND FREE ENERGY PREDICTED BY IDOCK:  -12.03 KCAL/MOL
REMARK 924 INTRA-LIGAND FREE ENERGY PREDICTED BY IDOCK:   -1.65 KCAL/MOL
REMARK 927      BINDING AFFINITY PREDICTED BY RF-SCORE:    0.00 PKD
ROOT
HETATM    1  C   UNL     1      -9.423  10.193  69.455  1.00  0.00    -0.214 C  
HETATM    2  S   UNL     1     -10.702  10.091  70.730  1.00  0.00    -0.074 SA 
HETATM    3  C   UNL     1     -10.630   8.288  70.822  1.00  0.00    -0.210 C  
HETATM    4  C   UNL     1     -10.636   7.568  69.478  1.00  0.00    -0.239 C  
HETATM    5  CA  UNL     1     -10.321   8.167  68.291  1.00  0.00    -0.197 C  
HETATM    6  CA  UNL     1      -9.460  11.490  68.571  1.00  0.00    -0.174 C  
HETATM    7  O   UNL     1      -9.669  10.399  66.186  1.00  0.00    -0.190 OA 
HETATM    8  N   UNL     1      -9.882   9.464  68.288  1.00  0.00    -0.156 N  
HETATM    9  C   UNL     1     -10.539   7.433  66.979  1.00  0.00    -0.344 C  
HETATM   10  OXT UNL     1     -11.225   6.427  66.872  1.00  0.00    -0.368 OA 
HETATM   11  O   UNL     1      -9.856   7.892  65.912  1.00  0.00     0.067 OA 
HETATM   12  C   UNL     1      -9.660  10.457  67.394  1.00  0.00    -0.154 C  
ENDROOT
BRANCH   4  13
HETATM   13  C   UNL     1     -11.168   6.144  69.646  1.00  0.00    -0.418 C  
BRANCH  13  14
HETATM   14  S   UNL     1      -9.954   4.900  70.154  1.00  0.00    -0.257 SA 
BRANCH  14  15
HETATM   15  C   UNL     1     -10.272   4.644  71.820  1.00  0.00    -0.172 A  
HETATM   16  N   UNL     1     -11.179   5.220  72.571  1.00  0.00    -0.238 NA 
HETATM   17  C   UNL     1      -8.470   2.907  72.237  1.00  0.00    -0.074 C  
HETATM   18  N   UNL     1     -10.996   4.712  73.836  1.00  0.00    -0.293 NA 
HETATM   19  N   UNL     1      -9.551   3.781  72.595  1.00  0.00    -0.128 NA 
HETATM   20  N   UNL     1     -10.002   3.834  73.860  1.00  0.00    -0.112 NA 
ENDBRANCH  14  15
ENDBRANCH  13  14
ENDBRANCH   4  13
BRANCH   6  21
HETATM   21  N   UNL     1     -10.591  12.415  68.864  1.00  0.00    -0.380 N  
HETATM   22  H   UNL     1     -11.529  12.021  68.938  1.00  0.00     0.000 HD 
HETATM   23  O   UNL     1      -9.327  14.294  69.128  1.00  0.00    -0.042 OA 
HETATM   24  C   UNL     1     -10.438  13.774  69.040  1.00  0.00    -0.098 C  
BRANCH  24  25
HETATM   25  CA  UNL     1     -11.753  14.595  68.939  1.00  0.00    -0.309 C  
BRANCH  25  26
HETATM   26  C   UNL     1     -12.242  15.020  70.316  1.00  0.00    -0.390 A  
HETATM   27  C   UNL     1     -13.873  14.926  72.125  1.00  0.00    -0.576 A  
HETATM   28  C   UNL     1     -11.472  15.900  71.092  1.00  0.00    -0.471 A  
HETATM   29  O   UNL     1     -13.525  16.121  74.124  1.00  0.00    -0.838 OA 
HETATM   30  C   UNL     1     -13.451  14.536  70.853  1.00  0.00    -0.266 A  
HETATM   31  C   UNL     1     -11.892  16.284  72.370  1.00  0.00    -0.606 A  
HETATM   32  H   UNL     1     -14.342  15.782  74.470  1.00  0.00     0.000 HD 
HETATM   33  C   UNL     1     -13.087  15.787  72.877  1.00  0.00    -0.521 A  
ENDBRANCH  25  26
BRANCH  25  34
HETATM   34  N   UNL     1     -11.594  15.773  68.089  1.00  0.00    -0.311 N  
HETATM   35  H   UNL     1     -11.843  16.687  68.465  1.00  0.00     0.000 HD 
BRANCH  34  36
HETATM   36  C   UNL     1     -11.125  15.695  66.807  1.00  0.00    -0.169 C  
HETATM   37  O   UNL     1     -11.544  14.846  66.024  1.00  0.00    -0.323 OA 
BRANCH  36  38
HETATM   38  N   UNL     1     -10.167  16.638  66.453  1.00  0.00    -0.304 N  
HETATM   39  C   UNL     1     -10.628  17.968  66.069  1.00  0.00    -0.251 C  
HETATM   40  N   UNL     1      -8.354  18.826  66.306  1.00  0.00    -0.279 N  
HETATM   41  C   UNL     1      -9.746  19.058  66.647  1.00  0.00    -0.341 C  
HETATM   42  C   UNL     1      -7.817  17.550  66.452  1.00  0.00    -0.294 C  
HETATM   43  O   UNL     1      -8.349  15.222  66.252  1.00  0.00    -0.106 OA 
HETATM   44  C   UNL     1      -8.800  16.357  66.391  1.00  0.00    -0.311 C  
HETATM   45  O   UNL     1      -6.620  17.327  66.588  1.00  0.00    -0.188 OA 
BRANCH  40  46
HETATM   46  C   UNL     1      -7.468  19.954  66.038  1.00  0.00    -0.324 C  
HETATM   47  C   UNL     1      -6.994  20.686  67.279  1.00  0.00    -0.384 C  
ENDBRANCH  40  46
ENDBRANCH  36  38
ENDBRANCH  34  36
ENDBRANCH  25  34
ENDBRANCH  24  25
ENDBRANCH   6  21
TORSDOF 10
ENDMDL
MODEL       18
REMARK 921   NORMALIZED FREE ENERGY PREDICTED BY IDOCK:   -7.18 KCAL/MOL
REMARK 922        TOTAL FREE ENERGY PREDICTED BY IDOCK:  -13.67 KCAL/MOL
REMARK 923 INTER-LIGAND FREE ENERGY PREDICTED BY IDOCK:  -11.71 KCAL/MOL
REMARK 924 INTRA-LIGAND FREE ENERGY PREDICTED BY IDOCK:   -1.96 KCAL/MOL
REMARK 927      BINDING AFFINITY PREDICTED BY RF-SCORE:    0.00 PKD
ROOT
HETATM    1  C   UNL     1     -12.034  13.832  68.759  1.00  0.00    -0.365 C  
HETATM    2  S   UNL     1     -10.624  14.351  69.766  1.00  0.00     0.185 SA 
HETATM    3  C   UNL     1     -10.635  16.038  69.120  1.00  0.00    -0.260 C  
HETATM    4  C   UNL     1     -10.754  16.154  67.604  1.00  0.00    -0.318 C  
HETATM    5  CA  UNL     1     -11.210  15.151  66.798  1.00  0.00    -0.285 C  
HETATM    6  CA  UNL     1     -12.128  12.290  68.481  1.00  0.00    -0.070 C  
HETATM    7  O   UNL     1     -12.144  12.311  65.850  1.00  0.00    -0.609 OA 
HETATM    8  N   UNL     1     -11.683  13.996  67.361  1.00  0.00    -0.367 N  
HETATM    9  C   UNL     1     -11.113  15.277  65.287  1.00  0.00    -0.376 C  
HETATM   10  OXT UNL     1     -10.415  16.104  64.720  1.00  0.00    -0.592 OA 
HETATM   11  O   UNL     1     -11.918  14.475  64.562  1.00  0.00    -0.440 OA 
HETATM   12  C   UNL     1     -12.026  12.745  66.973  1.00  0.00    -0.295 C  
ENDROOT
BRANCH   4  13
HETATM   13  C   UNL     1     -10.167  17.484  67.131  1.00  0.00    -0.323 C  
BRANCH  13  14
HETATM   14  S   UNL     1      -8.588  17.964  67.876  1.00  0.00    -0.258 SA 
BRANCH  14  15
HETATM   15  C   UNL     1      -7.651  18.542  66.562  1.00  0.00    -0.246 A  
HETATM   16  N   UNL     1      -7.213  17.875  65.520  1.00  0.00    -0.464 NA 
HETATM   17  C   UNL     1      -7.433  20.946  67.343  1.00  0.00    -0.285 C  
HETATM   18  N   UNL     1      -6.473  18.771  64.785  1.00  0.00    -0.468 NA 
HETATM   19  N   UNL     1      -7.207  19.831  66.469  1.00  0.00    -0.230 NA 
HETATM   20  N   UNL     1      -6.462  19.967  65.358  1.00  0.00    -0.248 NA 
ENDBRANCH  14  15
ENDBRANCH  13  14
ENDBRANCH   4  13
BRANCH   6  21
HETATM   21  N   UNL     1     -10.998  11.486  69.027  1.00  0.00    -0.224 N  
HETATM   22  H   UNL     1     -10.087  11.566  68.575  1.00  0.00     0.000 HD 
HETATM   23  O   UNL     1     -12.132  10.616  70.803  1.00  0.00    -0.311 OA 
HETATM   24  C   UNL     1     -11.117  10.640  70.110  1.00  0.00    -0.268 C  
BRANCH  24  25
HETATM   25  CA  UNL     1      -9.959   9.618  70.267  1.00  0.00    -0.270 C  
BRANCH  25  26
HETATM   26  C   UNL     1     -10.378   8.442  71.139  1.00  0.00    -0.264 A  
HETATM   27  C   UNL     1     -11.554   6.331  71.453  1.00  0.00    -0.338 A  
HETATM   28  C   UNL     1      -9.932   8.362  72.466  1.00  0.00    -0.356 A  
HETATM   29  O   UNL     1     -11.445   5.186  73.507  1.00  0.00    -0.473 OA 
HETATM   30  C   UNL     1     -11.194   7.408  70.641  1.00  0.00    -0.292 A  
HETATM   31  C   UNL     1     -10.287   7.278  73.277  1.00  0.00    -0.389 A  
HETATM   32  H   UNL     1     -11.994   4.497  73.153  1.00  0.00     0.000 HD 
HETATM   33  C   UNL     1     -11.090   6.269  72.759  1.00  0.00    -0.251 A  
ENDBRANCH  25  26
BRANCH  25  34
HETATM   34  N   UNL     1      -9.489   9.127  68.973  1.00  0.00    -0.150 N  
HETATM   35  H   UNL     1     -10.027   9.354  68.137  1.00  0.00     0.000 HD 
BRANCH  34  36
HETATM   36  C   UNL     1      -8.355   8.374  68.840  1.00  0.00    -0.119 C  
HETATM   37  O   UNL     1      -7.262   8.797  69.207  1.00  0.00    -0.060 OA 
BRANCH  36  38
HETATM   38  N   UNL     1      -8.526   7.112  68.284  1.00  0.00    -0.124 N  
HETATM   39  C   UNL     1      -7.677   6.030  68.770  1.00  0.00    -0.095 C  
HETATM   40  N   UNL     1      -9.153   4.395  67.716  1.00  0.00    -0.119 N  
HETATM   41  C   UNL     1      -8.453   4.739  68.941  1.00  0.00    -0.081 C  
HETATM   42  C   UNL     1      -9.867   5.379  67.036  1.00  0.00    -0.162 C  
HETATM   43  O   UNL     1      -9.845   7.709  66.479  1.00  0.00    -0.216 OA 
HETATM   44  C   UNL     1      -9.425   6.846  67.247  1.00  0.00    -0.137 C  
HETATM   45  O   UNL     1     -10.788   5.141  66.264  1.00  0.00    -0.296 OA 
BRANCH  40  46
HETATM   46  C   UNL     1      -9.303   2.998  67.326  1.00  0.00    -0.160 C  
HETATM   47  C   UNL     1      -9.382   2.028  68.490  1.00  0.00    -0.244 C  
ENDBRANCH  40  46
ENDBRANCH  36  38
ENDBRANCH  34  36
ENDBRANCH  25  34
ENDBRANCH  24  25
ENDBRANCH   6  21
TORSDOF 10
ENDMDL
MODEL       19
REMARK 921   NORMALIZED FREE ENERGY PREDICTED BY IDOCK:   -7.14 KCAL/MOL
REMARK 922        TOTAL FREE ENERGY PREDICTED BY IDOCK:  -13.61 KCAL/MOL
REMARK 923 INTER-LIGAND FREE ENERGY PREDICTED BY IDOCK:  -11.84 KCAL/MOL
REMARK 924 INTRA-LIGAND FREE ENERGY PREDICTED BY IDOCK:   -1.77 KCAL/MOL
REMARK 927      BINDING AFFINITY PREDICTED BY RF-SCORE:    0.00 PKD
ROOT
HETATM    1  C   UNL     1      -9.064  10.674  67.329  1.00  0.00    -0.143 C  
HETATM    2  S   UNL     1     -10.733  11.234  66.916  1.00  0.00    -0.284 SA 
HETATM    3  C   UNL     1     -10.146  12.655  65.967  1.00  0.00    -0.262 C  
HETATM    4  C   UNL     1      -9.056  13.482  66.640  1.00  0.00    -0.182 C  
HETATM    5  CA  UNL     1      -8.280  13.026  67.667  1.00  0.00    -0.171 C  
HETATM    6  CA  UNL     1      -8.955   9.787  68.620  1.00  0.00    -0.130 C  
HETATM    7  O   UNL     1      -7.223  11.211  69.996  1.00  0.00    -0.019 OA 
HETATM    8  N   UNL     1      -8.400  11.725  68.076  1.00  0.00    -0.146 N  
HETATM    9  C   UNL     1      -7.354  13.975  68.409  1.00  0.00    -0.113 C  
HETATM   10  OXT UNL     1      -7.431  15.193  68.335  1.00  0.00    -0.109 OA 
HETATM   11  O   UNL     1      -6.350  13.413  69.111  1.00  0.00    -0.091 OA 
HETATM   12  C   UNL     1      -8.005  10.948  69.112  1.00  0.00    -0.112 C  
ENDROOT
BRANCH   4  13
HETATM   13  C   UNL     1      -9.064  14.909  66.091  1.00  0.00    -0.167 C  
BRANCH  13  14
HETATM   14  S   UNL     1     -10.696  15.659  65.860  1.00  0.00    -0.311 SA 
BRANCH  14  15
HETATM   15  C   UNL     1     -10.493  17.290  66.353  1.00  0.00    -0.263 A  
HETATM   16  N   UNL     1     -10.414  18.362  65.602  1.00  0.00    -0.619 NA 
HETATM   17  C   UNL     1     -10.388  16.868  68.853  1.00  0.00    -0.333 C  
HETATM   18  N   UNL     1     -10.205  19.411  66.467  1.00  0.00    -0.410 NA 
HETATM   19  N   UNL     1     -10.353  17.664  67.659  1.00  0.00    -0.354 NA 
HETATM   20  N   UNL     1     -10.164  18.993  67.725  1.00  0.00    -0.379 NA 
ENDBRANCH  14  15
ENDBRANCH  13  14
ENDBRANCH   4  13
BRANCH   6  21
HETATM   21  N   UNL     1     -10.235   9.598  69.359  1.00  0.00    -0.197 N  
HETATM   22  H   UNL     1     -11.104   9.591  68.825  1.00  0.00     0.000 HD 
HETATM   23  O   UNL     1      -9.302   9.265  71.413  1.00  0.00    -0.263 OA 
HETATM   24  C   UNL     1     -10.309   9.432  70.727  1.00  0.00    -0.298 C  
BRANCH  24  25
HETATM   25  CA  UNL     1     -11.723   9.648  71.333  1.00  0.00    -0.404 C  
BRANCH  25  26
HETATM   26  C   UNL     1     -12.177  11.091  71.164  1.00  0.00    -0.415 A  
HETATM   27  C   UNL     1     -12.108  13.227  69.993  1.00  0.00    -0.385 A  
HETATM   28  C   UNL     1     -13.144  11.626  72.028  1.00  0.00    -0.433 A  
HETATM   29  O   UNL     1     -13.495  15.010  70.657  1.00  0.00    -0.637 OA 
HETATM   30  C   UNL     1     -11.665  11.912  70.141  1.00  0.00    -0.337 A  
HETATM   31  C   UNL     1     -13.593  12.942  71.876  1.00  0.00    -0.382 A  
HETATM   32  H   UNL     1     -13.141  15.547  69.959  1.00  0.00     0.000 HD 
HETATM   33  C   UNL     1     -13.074  13.729  70.854  1.00  0.00    -0.152 A  
ENDBRANCH  25  26
BRANCH  25  34
HETATM   34  N   UNL     1     -12.710   8.749  70.740  1.00  0.00    -0.473 N  
HETATM   35  H   UNL     1     -13.221   9.057  69.912  1.00  0.00     0.000 HD 
BRANCH  34  36
HETATM   36  C   UNL     1     -12.976   7.509  71.252  1.00  0.00    -0.278 C  
HETATM   37  O   UNL     1     -14.122   7.168  71.535  1.00  0.00    -0.395 OA 
BRANCH  36  38
HETATM   38  N   UNL     1     -11.879   6.672  71.414  1.00  0.00    -0.323 N  
HETATM   39  C   UNL     1     -11.372   6.463  72.766  1.00  0.00    -0.191 C  
HETATM   40  N   UNL     1     -10.075   4.546  71.986  1.00  0.00    -0.193 N  
HETATM   41  C   UNL     1     -10.994   5.015  73.008  1.00  0.00    -0.295 C  
HETATM   42  C   UNL     1     -10.338   4.829  70.647  1.00  0.00    -0.114 C  
HETATM   43  O   UNL     1     -11.246   6.504  69.195  1.00  0.00    -0.318 OA 
HETATM   44  C   UNL     1     -11.208   6.071  70.345  1.00  0.00    -0.310 C  
HETATM   45  O   UNL     1      -9.892   4.174  69.713  1.00  0.00    -0.215 OA 
BRANCH  40  46
HETATM   46  C   UNL     1      -9.021   3.598  72.327  1.00  0.00    -0.100 C  
HETATM   47  C   UNL     1      -9.516   2.203  72.655  1.00  0.00    -0.135 C  
ENDBRANCH  40  46
ENDBRANCH  36  38
ENDBRANCH  34  36
ENDBRANCH  25  34
ENDBRANCH  24  25
ENDBRANCH   6  21
TORSDOF 10
ENDMDL
MODEL       20
REMARK 921   NORMALIZED FREE ENERGY PREDICTED BY IDOCK:   -7.11 KCAL/MOL
REMARK 922        TOTAL FREE ENERGY PREDICTED BY IDOCK:  -13.56 KCAL/MOL
REMARK 923 INTER-LIGAND FREE ENERGY PREDICTED BY IDOCK:  -11.60 KCAL/MOL
REMARK 924 INTRA-LIGAND FREE ENERGY PREDICTED BY IDOCK:   -1.96 KCAL/MOL
REMARK 927      BINDING AFFINITY PREDICTED BY RF-SCORE:    0.00 PKD
ROOT
HETATM    1  C   UNL     1     -11.496  13.241  67.687  1.00  0.00    -0.321 C  
HETATM    2  S   UNL     1      -9.790  13.399  68.266  1.00  0.00    -0.224 SA 
HETATM    3  C   UNL     1      -9.791  15.201  68.138  1.00  0.00    -0.218 C  
HETATM    4  C   UNL     1     -10.359  15.761  66.838  1.00  0.00    -0.295 C  
HETATM    5  CA  UNL     1     -11.165  15.053  65.992  1.00  0.00    -0.310 C  
HETATM    6  CA  UNL     1     -11.864  11.852  67.054  1.00  0.00    -0.113 C  
HETATM    7  O   UNL     1     -12.694  12.646  64.687  1.00  0.00    -0.643 OA 
HETATM    8  N   UNL     1     -11.579  13.798  66.350  1.00  0.00    -0.344 N  
HETATM    9  C   UNL     1     -11.527  15.614  64.628  1.00  0.00    -0.303 C  
HETATM   10  OXT UNL     1     -10.943  16.552  64.104  1.00  0.00    -0.770 OA 
HETATM   11  O   UNL     1     -12.611  15.086  64.027  1.00  0.00    -0.817 OA 
HETATM   12  C   UNL     1     -12.179  12.727  65.778  1.00  0.00    -0.408 C  
ENDROOT
BRANCH   4  13
HETATM   13  C   UNL     1      -9.787  17.153  66.571  1.00  0.00    -0.296 C  
BRANCH  13  14
HETATM   14  S   UNL     1      -7.986  17.255  66.425  1.00  0.00    -0.304 SA 
BRANCH  14  15
HETATM   15  C   UNL     1      -7.603  18.849  66.931  1.00  0.00    -0.229 A  
HETATM   16  N   UNL     1      -8.155  19.976  66.551  1.00  0.00    -0.315 NA 
HETATM   17  C   UNL     1      -5.723  18.248  68.526  1.00  0.00    -0.176 C  
HETATM   18  N   UNL     1      -7.465  20.971  67.205  1.00  0.00    -0.350 NA 
HETATM   19  N   UNL     1      -6.602  19.133  67.816  1.00  0.00    -0.213 NA 
HETATM   20  N   UNL     1      -6.513  20.465  67.977  1.00  0.00    -0.278 NA 
ENDBRANCH  14  15
ENDBRANCH  13  14
ENDBRANCH   4  13
BRANCH   6  21
HETATM   21  N   UNL     1     -10.730  10.890  66.955  1.00  0.00    -0.265 N  
HETATM   22  H   UNL     1     -10.091  10.978  66.165  1.00  0.00     0.000 HD 
HETATM   23  O   UNL     1     -11.122   9.823  68.931  1.00  0.00    -0.191 OA 
HETATM   24  C   UNL     1     -10.498   9.888  67.874  1.00  0.00    -0.236 C  
BRANCH  24  25
HETATM   25  CA  UNL     1      -9.531   8.773  67.389  1.00  0.00    -0.146 C  
BRANCH  25  26
HETATM   26  C   UNL     1      -8.501   9.326  66.413  1.00  0.00    -0.128 A  
HETATM   27  C   UNL     1      -7.659   9.635  64.147  1.00  0.00    -0.128 A  
HETATM   28  C   UNL     1      -7.426  10.092  66.889  1.00  0.00    -0.095 A  
HETATM   29  O   UNL     1      -5.726  10.917  63.745  1.00  0.00    -0.369 OA 
HETATM   30  C   UNL     1      -8.605   9.105  65.026  1.00  0.00    -0.204 A  
HETATM   31  C   UNL     1      -6.482  10.628  66.007  1.00  0.00    -0.129 A  
HETATM   32  H   UNL     1      -5.815  10.761  62.813  1.00  0.00     0.000 HD 
HETATM   33  C   UNL     1      -6.612  10.399  64.642  1.00  0.00    -0.035 A  
ENDBRANCH  25  26
BRANCH  25  34
HETATM   34  N   UNL     1      -8.849   8.122  68.506  1.00  0.00    -0.134 N  
HETATM   35  H   UNL     1      -8.417   8.704  69.224  1.00  0.00     0.000 HD 
BRANCH  34  36
HETATM   36  C   UNL     1      -8.769   6.763  68.626  1.00  0.00    -0.125 C  
HETATM   37  O   UNL     1      -8.218   6.078  67.768  1.00  0.00    -0.111 OA 
BRANCH  36  38
HETATM   38  N   UNL     1      -9.332   6.220  69.775  1.00  0.00    -0.145 N  
HETATM   39  C   UNL     1      -8.456   5.491  70.686  1.00  0.00    -0.121 C  
HETATM   40  N   UNL     1     -10.170   5.596  72.422  1.00  0.00    -0.188 N  
HETATM   41  C   UNL     1      -8.762   5.809  72.137  1.00  0.00    -0.133 C  
HETATM   42  C   UNL     1     -11.129   6.085  71.538  1.00  0.00    -0.276 C  
HETATM   43  O   UNL     1     -11.562   6.463  69.212  1.00  0.00    -0.354 OA 
HETATM   44  C   UNL     1     -10.696   6.289  70.067  1.00  0.00    -0.285 C  
HETATM   45  O   UNL     1     -12.289   6.323  71.855  1.00  0.00    -0.312 OA 
BRANCH  40  46
HETATM   46  C   UNL     1     -10.585   5.087  73.724  1.00  0.00    -0.279 C  
HETATM   47  C   UNL     1     -10.605   3.574  73.827  1.00  0.00    -0.283 C  
ENDBRANCH  40  46
ENDBRANCH  36  38
ENDBRANCH  34  36
ENDBRANCH  25  34
ENDBRANCH  24  25
ENDBRANCH   6  21
TORSDOF 10
ENDMDL
MODEL       21
REMARK 921   NORMALIZED FREE ENERGY PREDICTED BY IDOCK:   -7.09 KCAL/MOL
REMARK 922        TOTAL FREE ENERGY PREDICTED BY IDOCK:  -13.52 KCAL/MOL
REMARK 923 INTER-LIGAND FREE ENERGY PREDICTED BY IDOCK:  -11.82 KCAL/MOL
REMARK 924 INTRA-LIGAND FREE ENERGY PREDICTED BY IDOCK:   -1.71 KCAL/MOL
REMARK 927      BINDING AFFINITY PREDICTED BY RF-SCORE:    0.00 PKD
ROOT
HETATM    1  C   UNL     1     -10.275   8.552  69.257  1.00  0.00    -0.208 C  
HETATM    2  S   UNL     1     -10.592   9.076  67.555  1.00  0.00    -0.175 SA 
HETATM    3  C   UNL     1      -9.739   7.655  66.837  1.00  0.00    -0.213 C  
HETATM    4  C   UNL     1      -8.377   7.337  67.446  1.00  0.00    -0.119 C  
HETATM    5  CA  UNL     1      -7.967   7.786  68.669  1.00  0.00    -0.122 C  
HETATM    6  CA  UNL     1     -10.300   9.701  70.328  1.00  0.00    -0.280 C  
HETATM    7  O   UNL     1      -7.895   9.406  71.354  1.00  0.00    -0.325 OA 
HETATM    8  N   UNL     1      -8.840   8.487  69.457  1.00  0.00    -0.139 N  
HETATM    9  C   UNL     1      -6.528   7.589  69.116  1.00  0.00    -0.040 C  
HETATM   10  OXT UNL     1      -5.620   7.282  68.358  1.00  0.00    -0.020 OA 
HETATM   11  O   UNL     1      -6.291   7.678  70.439  1.00  0.00    -0.037 OA 
HETATM   12  C   UNL     1      -8.810   9.244  70.579  1.00  0.00    -0.241 C  
ENDROOT
BRANCH   4  13
HETATM   13  C   UNL     1      -7.516   6.573  66.440  1.00  0.00    -0.085 C  
BRANCH  13  14
HETATM   14  S   UNL     1      -7.666   4.769  66.479  1.00  0.00    -0.092 SA 
BRANCH  14  15
HETATM   15  C   UNL     1      -8.841   4.410  65.281  1.00  0.00    -0.135 A  
HETATM   16  N   UNL     1     -10.134   4.258  65.431  1.00  0.00    -0.228 NA 
HETATM   17  C   UNL     1      -7.261   4.273  63.300  1.00  0.00    -0.049 C  
HETATM   18  N   UNL     1     -10.621   3.934  64.187  1.00  0.00    -0.258 NA 
HETATM   19  N   UNL     1      -8.529   4.202  63.967  1.00  0.00    -0.099 NA 
HETATM   20  N   UNL     1      -9.648   3.894  63.287  1.00  0.00    -0.144 NA 
ENDBRANCH  14  15
ENDBRANCH  13  14
ENDBRANCH   4  13
BRANCH   6  21
HETATM   21  N   UNL     1     -10.507  11.069  69.773  1.00  0.00    -0.450 N  
HETATM   22  H   UNL     1      -9.689  11.589  69.457  1.00  0.00     0.000 HD 
HETATM   23  O   UNL     1     -12.784  11.045  69.869  1.00  0.00    -0.212 OA 
HETATM   24  C   UNL     1     -11.744  11.667  69.664  1.00  0.00    -0.350 C  
BRANCH  24  25
HETATM   25  CA  UNL     1     -11.705  13.204  69.441  1.00  0.00    -0.327 C  
BRANCH  25  26
HETATM   26  C   UNL     1     -12.099  13.953  70.707  1.00  0.00    -0.404 A  
HETATM   27  C   UNL     1     -11.870  15.845  72.225  1.00  0.00    -0.617 A  
HETATM   28  C   UNL     1     -13.113  13.445  71.533  1.00  0.00    -0.427 A  
HETATM   29  O   UNL     1     -13.247  16.037  74.126  1.00  0.00    -0.892 OA 
HETATM   30  C   UNL     1     -11.483  15.166  71.069  1.00  0.00    -0.372 A  
HETATM   31  C   UNL     1     -13.506  14.130  72.689  1.00  0.00    -0.634 A  
HETATM   32  H   UNL     1     -12.823  16.856  74.352  1.00  0.00     0.000 HD 
HETATM   33  C   UNL     1     -12.884  15.328  73.020  1.00  0.00    -0.469 A  
ENDBRANCH  25  26
BRANCH  25  34
HETATM   34  N   UNL     1     -10.389  13.655  68.993  1.00  0.00    -0.421 N  
HETATM   35  H   UNL     1      -9.631  13.709  69.674  1.00  0.00     0.000 HD 
BRANCH  34  36
HETATM   36  C   UNL     1     -10.134  14.005  67.696  1.00  0.00    -0.241 C  
HETATM   37  O   UNL     1     -10.389  13.242  66.768  1.00  0.00    -0.253 OA 
BRANCH  36  38
HETATM   38  N   UNL     1      -9.591  15.269  67.505  1.00  0.00    -0.206 N  
HETATM   39  C   UNL     1     -10.193  16.126  66.489  1.00  0.00    -0.297 C  
HETATM   40  N   UNL     1      -9.017  18.055  67.415  1.00  0.00    -0.244 N  
HETATM   41  C   UNL     1     -10.305  17.563  66.959  1.00  0.00    -0.324 C  
HETATM   42  C   UNL     1      -8.240  17.262  68.255  1.00  0.00    -0.237 C  
HETATM   43  O   UNL     1      -7.637  14.988  68.711  1.00  0.00    -0.120 OA 
HETATM   44  C   UNL     1      -8.466  15.733  68.193  1.00  0.00    -0.162 C  
HETATM   45  O   UNL     1      -7.375  17.705  69.001  1.00  0.00    -0.254 OA 
BRANCH  40  46
HETATM   46  C   UNL     1      -8.644  19.447  67.191  1.00  0.00    -0.294 C  
HETATM   47  C   UNL     1      -9.818  20.400  67.081  1.00  0.00    -0.601 C  
ENDBRANCH  40  46
ENDBRANCH  36  38
ENDBRANCH  34  36
ENDBRANCH  25  34
ENDBRANCH  24  25
ENDBRANCH   6  21
TORSDOF 10
ENDMDL
MODEL       22
REMARK 921   NORMALIZED FREE ENERGY PREDICTED BY IDOCK:   -7.08 KCAL/MOL
REMARK 922        TOTAL FREE ENERGY PREDICTED BY IDOCK:  -13.51 KCAL/MOL
REMARK 923 INTER-LIGAND FREE ENERGY PREDICTED BY IDOCK:  -11.79 KCAL/MOL
REMARK 924 INTRA-LIGAND FREE ENERGY PREDICTED BY IDOCK:   -1.72 KCAL/MOL
REMARK 927      BINDING AFFINITY PREDICTED BY RF-SCORE:    0.00 PKD
ROOT
HETATM    1  C   UNL     1      -9.526   9.965  69.603  1.00  0.00    -0.231 C  
HETATM    2  S   UNL     1     -10.809   9.756  70.860  1.00  0.00    -0.289 SA 
HETATM    3  C   UNL     1     -10.662   7.956  70.877  1.00  0.00    -0.221 C  
HETATM    4  C   UNL     1     -10.626   7.292  69.504  1.00  0.00    -0.244 C  
HETATM    5  CA  UNL     1     -10.328   7.954  68.347  1.00  0.00    -0.199 C  
HETATM    6  CA  UNL     1      -9.610  11.295  68.773  1.00  0.00    -0.151 C  
HETATM    7  O   UNL     1      -9.755  10.298  66.343  1.00  0.00    -0.183 OA 
HETATM    8  N   UNL     1      -9.944   9.267  68.402  1.00  0.00    -0.169 N  
HETATM    9  C   UNL     1     -10.504   7.268  67.003  1.00  0.00    -0.328 C  
HETATM   10  OXT UNL     1     -11.146   6.239  66.847  1.00  0.00    -0.361 OA 
HETATM   11  O   UNL     1      -9.834   7.799  65.962  1.00  0.00    -0.012 OA 
HETATM   12  C   UNL     1      -9.758  10.305  67.552  1.00  0.00    -0.169 C  
ENDROOT
BRANCH   4  13
HETATM   13  C   UNL     1     -11.099   5.842  69.608  1.00  0.00    -0.343 C  
BRANCH  13  14
HETATM   14  S   UNL     1      -9.889   4.659  70.251  1.00  0.00    -0.243 SA 
BRANCH  14  15
HETATM   15  C   UNL     1      -8.547   4.799  69.193  1.00  0.00    -0.080 A  
HETATM   16  N   UNL     1      -7.448   5.494  69.362  1.00  0.00    -0.069 NA 
HETATM   17  C   UNL     1      -9.431   3.309  67.338  1.00  0.00    -0.154 C  
HETATM   18  N   UNL     1      -6.711   5.317  68.214  1.00  0.00    -0.053 NA 
HETATM   19  N   UNL     1      -8.490   4.187  67.972  1.00  0.00    -0.093 NA 
HETATM   20  N   UNL     1      -7.341   4.523  67.359  1.00  0.00    -0.073 NA 
ENDBRANCH  14  15
ENDBRANCH  13  14
ENDBRANCH   4  13
BRANCH   6  21
HETATM   21  N   UNL     1     -10.782  12.159  69.093  1.00  0.00    -0.417 N  
HETATM   22  H   UNL     1     -11.703  11.723  69.142  1.00  0.00     0.000 HD 
HETATM   23  O   UNL     1      -9.601  14.076  69.448  1.00  0.00     0.231 OA 
HETATM   24  C   UNL     1     -10.687  13.515  69.328  1.00  0.00     0.001 C  
BRANCH  24  25
HETATM   25  CA  UNL     1     -12.035  14.283  69.248  1.00  0.00    -0.335 C  
BRANCH  25  26
HETATM   26  C   UNL     1     -12.412  14.872  70.601  1.00  0.00    -0.411 A  
HETATM   27  C   UNL     1     -13.991  15.171  72.433  1.00  0.00    -0.616 A  
HETATM   28  C   UNL     1     -11.486  15.655  71.306  1.00  0.00    -0.469 A  
HETATM   29  O   UNL     1     -13.399  16.414  74.343  1.00  0.00    -0.735 OA 
HETATM   30  C   UNL     1     -13.672  14.635  71.184  1.00  0.00    -0.374 A  
HETATM   31  C   UNL     1     -11.804  16.186  72.561  1.00  0.00    -0.630 A  
HETATM   32  H   UNL     1     -14.252  16.241  74.722  1.00  0.00     0.000 HD 
HETATM   33  C   UNL     1     -13.053  15.932  73.115  1.00  0.00    -0.572 A  
ENDBRANCH  25  26
BRANCH  25  34
HETATM   34  N   UNL     1     -11.997  15.344  68.244  1.00  0.00    -0.501 N  
HETATM   35  H   UNL     1     -12.303  16.281  68.508  1.00  0.00     0.000 HD 
BRANCH  34  36
HETATM   36  C   UNL     1     -11.567  15.129  66.964  1.00  0.00    -0.174 C  
HETATM   37  O   UNL     1     -12.164  14.363  66.211  1.00  0.00    -0.412 OA 
BRANCH  36  38
HETATM   38  N   UNL     1     -10.435  15.836  66.577  1.00  0.00    -0.299 N  
HETATM   39  C   UNL     1     -10.615  17.200  66.092  1.00  0.00    -0.201 C  
HETATM   40  N   UNL     1      -8.220  17.606  66.339  1.00  0.00    -0.266 N  
HETATM   41  C   UNL     1      -9.543  18.132  66.623  1.00  0.00    -0.306 C  
HETATM   42  C   UNL     1      -7.950  16.262  66.585  1.00  0.00    -0.289 C  
HETATM   43  O   UNL     1      -8.933  14.077  66.525  1.00  0.00    -0.202 OA 
HETATM   44  C   UNL     1      -9.151  15.286  66.574  1.00  0.00    -0.300 C  
HETATM   45  O   UNL     1      -6.824  15.816  66.771  1.00  0.00    -0.229 OA 
BRANCH  40  46
HETATM   46  C   UNL     1      -7.123  18.513  66.023  1.00  0.00    -0.271 C  
HETATM   47  C   UNL     1      -7.536  19.964  65.865  1.00  0.00    -0.342 C  
ENDBRANCH  40  46
ENDBRANCH  36  38
ENDBRANCH  34  36
ENDBRANCH  25  34
ENDBRANCH  24  25
ENDBRANCH   6  21
TORSDOF 10
ENDMDL
MODEL       23
REMARK 921   NORMALIZED FREE ENERGY PREDICTED BY IDOCK:   -7.06 KCAL/MOL
REMARK 922        TOTAL FREE ENERGY PREDICTED BY IDOCK:  -13.48 KCAL/MOL
REMARK 923 INTER-LIGAND FREE ENERGY PREDICTED BY IDOCK:  -11.87 KCAL/MOL
REMARK 924 INTRA-LIGAND FREE ENERGY PREDICTED BY IDOCK:   -1.61 KCAL/MOL
REMARK 927      BINDING AFFINITY PREDICTED BY RF-SCORE:    0.00 PKD
ROOT
HETATM    1  C   UNL     1     -11.740  14.001  68.081  1.00  0.00    -0.352 C  
HETATM    2  S   UNL     1     -10.121  14.484  68.728  1.00  0.00    -0.226 SA 
HETATM    3  C   UNL     1     -10.286  16.199  68.185  1.00  0.00    -0.269 C  
HETATM    4  C   UNL     1     -10.778  16.384  66.754  1.00  0.00    -0.180 C  
HETATM    5  CA  UNL     1     -11.426  15.415  66.040  1.00  0.00    -0.002 C  
HETATM    6  CA  UNL     1     -11.907  12.473  67.764  1.00  0.00    -0.313 C  
HETATM    7  O   UNL     1     -12.579  12.615  65.224  1.00  0.00    -0.630 OA 
HETATM    8  N   UNL     1     -11.748  14.232  66.649  1.00  0.00    -0.384 N  
HETATM    9  C   UNL     1     -11.708  15.612  64.561  1.00  0.00    -0.220 C  
HETATM   10  OXT UNL     1     -11.171  16.471  63.877  1.00  0.00    -0.908 OA 
HETATM   11  O   UNL     1     -12.672  14.839  64.023  1.00  0.00    -0.786 OA 
HETATM   12  C   UNL     1     -12.182  12.998  66.301  1.00  0.00    -0.320 C  
ENDROOT
BRANCH   4  13
HETATM   13  C   UNL     1     -10.323  17.739  66.212  1.00  0.00    -0.358 C  
BRANCH  13  14
HETATM   14  S   UNL     1      -9.113  18.629  67.222  1.00  0.00    -0.281 SA 
BRANCH  14  15
HETATM   15  C   UNL     1      -7.794  18.912  66.163  1.00  0.00    -0.250 A  
HETATM   16  N   UNL     1      -7.616  19.915  65.336  1.00  0.00    -0.349 NA 
HETATM   17  C   UNL     1      -6.458  16.832  66.735  1.00  0.00    -0.191 C  
HETATM   18  N   UNL     1      -6.435  19.656  64.681  1.00  0.00    -0.378 NA 
HETATM   19  N   UNL     1      -6.737  18.055  66.039  1.00  0.00    -0.262 NA 
HETATM   20  N   UNL     1      -5.893  18.521  65.101  1.00  0.00    -0.232 NA 
ENDBRANCH  14  15
ENDBRANCH  13  14
ENDBRANCH   4  13
BRANCH   6  21
HETATM   21  N   UNL     1     -10.679  11.653  67.972  1.00  0.00    -0.199 N  
HETATM   22  H   UNL     1      -9.779  12.130  67.993  1.00  0.00     0.000 HD 
HETATM   23  O   UNL     1     -11.748   9.663  68.286  1.00  0.00     0.301 OA 
HETATM   24  C   UNL     1     -10.697  10.284  68.137  1.00  0.00    -0.246 C  
BRANCH  24  25
HETATM   25  CA  UNL     1      -9.321   9.588  67.942  1.00  0.00    -0.132 C  
BRANCH  25  26
HETATM   26  C   UNL     1      -8.802   9.786  66.525  1.00  0.00    -0.154 A  
HETATM   27  C   UNL     1      -6.999  10.289  64.964  1.00  0.00    -0.112 A  
HETATM   28  C   UNL     1      -9.663   9.608  65.432  1.00  0.00    -0.365 A  
HETATM   29  O   UNL     1      -7.369  10.238  62.640  1.00  0.00    -0.135 OA 
HETATM   30  C   UNL     1      -7.459  10.129  66.272  1.00  0.00    -0.112 A  
HETATM   31  C   UNL     1      -9.199   9.762  64.121  1.00  0.00    -0.277 A  
HETATM   32  H   UNL     1      -6.460  10.465  62.489  1.00  0.00     0.000 HD 
HETATM   33  C   UNL     1      -7.868  10.095  63.900  1.00  0.00    -0.149 A  
ENDBRANCH  25  26
BRANCH  25  34
HETATM   34  N   UNL     1      -8.329  10.070  68.901  1.00  0.00    -0.122 N  
HETATM   35  H   UNL     1      -7.703  10.825  68.623  1.00  0.00     0.000 HD 
BRANCH  34  36
HETATM   36  C   UNL     1      -8.209   9.546  70.159  1.00  0.00    -0.177 C  
HETATM   37  O   UNL     1      -7.227   9.785  70.857  1.00  0.00    -0.310 OA 
BRANCH  36  38
HETATM   38  N   UNL     1      -9.264   8.752  70.589  1.00  0.00    -0.179 N  
HETATM   39  C   UNL     1     -10.094   9.251  71.680  1.00  0.00    -0.162 C  
HETATM   40  N   UNL     1     -11.787   7.568  71.165  1.00  0.00    -0.293 N  
HETATM   41  C   UNL     1     -11.566   8.977  71.439  1.00  0.00    -0.326 C  
HETATM   42  C   UNL     1     -10.951   6.905  70.270  1.00  0.00    -0.281 C  
HETATM   43  O   UNL     1      -8.684   6.793  69.504  1.00  0.00    -0.132 OA 
HETATM   44  C   UNL     1      -9.530   7.482  70.071  1.00  0.00    -0.161 C  
HETATM   45  O   UNL     1     -11.268   5.885  69.671  1.00  0.00    -0.395 OA 
BRANCH  40  46
HETATM   46  C   UNL     1     -13.003   6.913  71.635  1.00  0.00    -0.307 C  
HETATM   47  C   UNL     1     -14.212   7.824  71.720  1.00  0.00    -0.558 C  
ENDBRANCH  40  46
ENDBRANCH  36  38
ENDBRANCH  34  36
ENDBRANCH  25  34
ENDBRANCH  24  25
ENDBRANCH   6  21
TORSDOF 10
ENDMDL
MODEL       24
REMARK 921   NORMALIZED FREE ENERGY PREDICTED BY IDOCK:   -7.04 KCAL/MOL
REMARK 922        TOTAL FREE ENERGY PREDICTED BY IDOCK:  -13.45 KCAL/MOL
REMARK 923 INTER-LIGAND FREE ENERGY PREDICTED BY IDOCK:  -11.79 KCAL/MOL
REMARK 924 INTRA-LIGAND FREE ENERGY PREDICTED BY IDOCK:   -1.66 KCAL/MOL
REMARK 927      BINDING AFFINITY PREDICTED BY RF-SCORE:    0.00 PKD
ROOT
HETATM    1  C   UNL     1     -11.022   7.056  71.820  1.00  0.00    -0.234 C  
HETATM    2  S   UNL     1     -11.272   6.828  70.043  1.00  0.00    -0.331 SA 
HETATM    3  C   UNL     1     -10.527   5.182  70.032  1.00  0.00    -0.235 C  
HETATM    4  C   UNL     1      -9.204   5.061  70.781  1.00  0.00    -0.192 C  
HETATM    5  CA  UNL     1      -8.776   5.957  71.719  1.00  0.00    -0.139 C  
HETATM    6  CA  UNL     1     -10.968   8.548  72.304  1.00  0.00    -0.355 C  
HETATM    7  O   UNL     1      -8.610   8.553  73.471  1.00  0.00    -0.341 OA 
HETATM    8  N   UNL     1      -9.600   6.983  72.096  1.00  0.00    -0.147 N  
HETATM    9  C   UNL     1      -7.365   5.870  72.275  1.00  0.00    -0.094 C  
HETATM   10  OXT UNL     1      -6.474   5.211  71.760  1.00  0.00    -0.033 OA 
HETATM   11  O   UNL     1      -7.139   6.496  73.447  1.00  0.00    -0.077 OA 
HETATM   12  C   UNL     1      -9.524   8.141  72.794  1.00  0.00    -0.279 C  
ENDROOT
BRANCH   4  13
HETATM   13  C   UNL     1      -8.395   3.886  70.233  1.00  0.00    -0.060 C  
BRANCH  13  14
HETATM   14  S   UNL     1      -7.921   3.996  68.489  1.00  0.00    -0.072 SA 
BRANCH  14  15
HETATM   15  C   UNL     1      -7.696   5.673  68.210  1.00  0.00    -0.089 A  
HETATM   16  N   UNL     1      -6.807   6.474  68.747  1.00  0.00    -0.067 NA 
HETATM   17  C   UNL     1      -9.580   5.987  66.539  1.00  0.00    -0.154 C  
HETATM   18  N   UNL     1      -7.071   7.724  68.237  1.00  0.00    -0.082 NA 
HETATM   19  N   UNL     1      -8.487   6.404  67.370  1.00  0.00    -0.109 NA 
HETATM   20  N   UNL     1      -8.097   7.691  67.397  1.00  0.00    -0.118 NA 
ENDBRANCH  14  15
ENDBRANCH  13  14
ENDBRANCH   4  13
BRANCH   6  21
HETATM   21  N   UNL     1     -11.055   9.562  71.215  1.00  0.00    -0.361 N  
HETATM   22  H   UNL     1     -10.200   9.809  70.717  1.00  0.00     0.000 HD 
HETATM   23  O   UNL     1     -13.319   9.824  71.285  1.00  0.00    -0.378 OA 
HETATM   24  C   UNL     1     -12.229  10.185  70.846  1.00  0.00    -0.356 C  
BRANCH  24  25
HETATM   25  CA  UNL     1     -12.042  11.467  69.988  1.00  0.00    -0.340 C  
BRANCH  25  26
HETATM   26  C   UNL     1     -12.522  12.703  70.737  1.00  0.00    -0.357 A  
HETATM   27  C   UNL     1     -12.818  15.116  70.902  1.00  0.00    -0.479 A  
HETATM   28  C   UNL     1     -13.164  12.566  71.977  1.00  0.00    -0.524 A  
HETATM   29  O   UNL     1     -13.917  16.071  72.752  1.00  0.00    -0.526 OA 
HETATM   30  C   UNL     1     -12.357  13.997  70.207  1.00  0.00    -0.425 A  
HETATM   31  C   UNL     1     -13.633  13.687  72.670  1.00  0.00    -0.596 A  
HETATM   32  H   UNL     1     -13.800  16.935  72.377  1.00  0.00     0.000 HD 
HETATM   33  C   UNL     1     -13.461  14.952  72.121  1.00  0.00    -0.393 A  
ENDBRANCH  25  26
BRANCH  25  34
HETATM   34  N   UNL     1     -10.651  11.649  69.579  1.00  0.00    -0.441 N  
HETATM   35  H   UNL     1      -9.935  11.734  70.301  1.00  0.00     0.000 HD 
BRANCH  34  36
HETATM   36  C   UNL     1     -10.273  11.709  68.267  1.00  0.00    -0.199 C  
HETATM   37  O   UNL     1      -9.816  10.726  67.689  1.00  0.00    -0.167 OA 
BRANCH  36  38
HETATM   38  N   UNL     1     -10.455  12.935  67.639  1.00  0.00    -0.222 N  
HETATM   39  C   UNL     1      -9.716  14.083  68.155  1.00  0.00    -0.220 C  
HETATM   40  N   UNL     1     -10.231  15.331  66.120  1.00  0.00    -0.286 N  
HETATM   41  C   UNL     1      -9.171  14.950  67.036  1.00  0.00    -0.234 C  
HETATM   42  C   UNL     1     -11.133  14.366  65.677  1.00  0.00    -0.321 C  
HETATM   43  O   UNL     1     -12.311  12.397  66.367  1.00  0.00    -0.539 OA 
HETATM   44  C   UNL     1     -11.349  13.131  66.583  1.00  0.00    -0.325 C  
HETATM   45  O   UNL     1     -11.780  14.463  64.641  1.00  0.00    -0.393 OA 
BRANCH  40  46
HETATM   46  C   UNL     1     -10.216  16.646  65.489  1.00  0.00    -0.202 C  
HETATM   47  C   UNL     1      -9.644  17.750  66.356  1.00  0.00    -0.293 C  
ENDBRANCH  40  46
ENDBRANCH  36  38
ENDBRANCH  34  36
ENDBRANCH  25  34
ENDBRANCH  24  25
ENDBRANCH   6  21
TORSDOF 10
ENDMDL
MODEL       25
REMARK 921   NORMALIZED FREE ENERGY PREDICTED BY IDOCK:   -6.96 KCAL/MOL
REMARK 922        TOTAL FREE ENERGY PREDICTED BY IDOCK:  -13.32 KCAL/MOL
REMARK 923 INTER-LIGAND FREE ENERGY PREDICTED BY IDOCK:  -10.79 KCAL/MOL
REMARK 924 INTRA-LIGAND FREE ENERGY PREDICTED BY IDOCK:   -2.53 KCAL/MOL
REMARK 927      BINDING AFFINITY PREDICTED BY RF-SCORE:    0.00 PKD
ROOT
HETATM    1  C   UNL     1     -11.684  13.024  66.498  1.00  0.00    -0.382 C  
HETATM    2  S   UNL     1     -10.115  12.620  65.692  1.00  0.00    -0.253 SA 
HETATM    3  C   UNL     1     -10.252  10.855  66.050  1.00  0.00    -0.254 C  
HETATM    4  C   UNL     1     -10.647  10.510  67.483  1.00  0.00    -0.306 C  
HETATM    5  CA  UNL     1     -11.239  11.391  68.342  1.00  0.00    -0.263 C  
HETATM    6  CA  UNL     1     -11.821  14.506  66.995  1.00  0.00    -0.385 C  
HETATM    7  O   UNL     1     -12.319  14.080  69.542  1.00  0.00    -0.332 OA 
HETATM    8  N   UNL     1     -11.595  12.634  67.892  1.00  0.00    -0.328 N  
HETATM    9  C   UNL     1     -11.421  11.030  69.806  1.00  0.00    -0.311 C  
HETATM   10  OXT UNL     1     -10.843  10.101  70.352  1.00  0.00    -0.292 OA 
HETATM   11  O   UNL     1     -12.342  11.736  70.491  1.00  0.00    -0.334 OA 
HETATM   12  C   UNL     1     -11.998  13.821  68.405  1.00  0.00    -0.360 C  
ENDROOT
BRANCH   4  13
HETATM   13  C   UNL     1     -10.163   9.104  67.837  1.00  0.00    -0.216 C  
BRANCH  13  14
HETATM   14  S   UNL     1      -8.446   8.725  67.406  1.00  0.00    -0.115 SA 
BRANCH  14  15
HETATM   15  C   UNL     1      -7.530   9.963  68.161  1.00  0.00    -0.080 A  
HETATM   16  N   UNL     1      -7.542  10.330  69.420  1.00  0.00    -0.122 NA 
HETATM   17  C   UNL     1      -6.283  10.756  66.098  1.00  0.00    -0.134 C  
HETATM   18  N   UNL     1      -6.673  11.392  69.509  1.00  0.00    -0.125 NA 
HETATM   19  N   UNL     1      -6.660  10.769  67.482  1.00  0.00    -0.058 NA 
HETATM   20  N   UNL     1      -6.133  11.669  68.330  1.00  0.00    -0.049 NA 
ENDBRANCH  14  15
ENDBRANCH  13  14
ENDBRANCH   4  13
BRANCH   6  21
HETATM   21  N   UNL     1     -10.606  15.347  66.796  1.00  0.00    -0.305 N  
HETATM   22  H   UNL     1      -9.895  15.348  67.527  1.00  0.00     0.000 HD 
HETATM   23  O   UNL     1     -11.119  16.049  64.688  1.00  0.00    -0.548 OA 
HETATM   24  C   UNL     1     -10.392  16.124  65.677  1.00  0.00    -0.382 C  
BRANCH  24  25
HETATM   25  CA  UNL     1      -9.288  17.206  65.838  1.00  0.00    -0.025 C  
BRANCH  25  26
HETATM   26  C   UNL     1      -9.630  18.176  66.960  1.00  0.00    -0.287 A  
HETATM   27  C   UNL     1     -10.237  20.402  67.745  1.00  0.00    -0.392 A  
HETATM   28  C   UNL     1      -9.691  17.720  68.285  1.00  0.00    -0.320 A  
HETATM   29  O   UNL     1     -10.651  20.802  70.028  1.00  0.00    -0.423 OA 
HETATM   30  C   UNL     1      -9.910  19.532  66.703  1.00  0.00    -0.494 A  
HETATM   31  C   UNL     1     -10.027  18.591  69.328  1.00  0.00    -0.092 A  
HETATM   32  H   UNL     1     -10.841  21.712  69.835  1.00  0.00     0.000 HD 
HETATM   33  C   UNL     1     -10.303  19.923  69.046  1.00  0.00    -0.129 A  
ENDBRANCH  25  26
BRANCH  25  34
HETATM   34  N   UNL     1      -7.977  16.610  66.085  1.00  0.00    -0.295 N  
HETATM   35  H   UNL     1      -7.917  15.605  66.250  1.00  0.00     0.000 HD 
BRANCH  34  36
HETATM   36  C   UNL     1      -6.826  17.349  66.104  1.00  0.00    -0.243 C  
HETATM   37  O   UNL     1      -6.347  17.809  65.071  1.00  0.00     0.023 OA 
BRANCH  36  38
HETATM   38  N   UNL     1      -6.256  17.552  67.355  1.00  0.00    -0.133 N  
HETATM   39  C   UNL     1      -5.987  18.925  67.769  1.00  0.00    -0.200 C  
HETATM   40  N   UNL     1      -5.683  18.173  70.072  1.00  0.00    -0.243 N  
HETATM   41  C   UNL     1      -6.340  19.153  69.226  1.00  0.00    -0.289 C  
HETATM   42  C   UNL     1      -5.701  16.829  69.706  1.00  0.00    -0.206 C  
HETATM   43  O   UNL     1      -5.638  15.369  67.807  1.00  0.00    -0.143 OA 
HETATM   44  C   UNL     1      -5.875  16.508  68.203  1.00  0.00    -0.120 C  
HETATM   45  O   UNL     1      -5.553  15.906  70.498  1.00  0.00    -0.163 OA 
BRANCH  40  46
HETATM   46  C   UNL     1      -5.212  18.550  71.400  1.00  0.00    -0.241 C  
HETATM   47  C   UNL     1      -5.555  19.971  71.805  1.00  0.00    -0.436 C  
ENDBRANCH  40  46
ENDBRANCH  36  38
ENDBRANCH  34  36
ENDBRANCH  25  34
ENDBRANCH  24  25
ENDBRANCH   6  21
TORSDOF 10
ENDMDL
MODEL       26
REMARK 921   NORMALIZED FREE ENERGY PREDICTED BY IDOCK:   -6.92 KCAL/MOL
REMARK 922        TOTAL FREE ENERGY PREDICTED BY IDOCK:  -13.25 KCAL/MOL
REMARK 923 INTER-LIGAND FREE ENERGY PREDICTED BY IDOCK:  -11.48 KCAL/MOL
REMARK 924 INTRA-LIGAND FREE ENERGY PREDICTED BY IDOCK:   -1.78 KCAL/MOL
REMARK 927      BINDING AFFINITY PREDICTED BY RF-SCORE:    0.00 PKD
ROOT
HETATM    1  C   UNL     1      -7.952  10.591  67.933  1.00  0.00    -0.106 C  
HETATM    2  S   UNL     1      -8.966  10.401  69.419  1.00  0.00    -0.101 SA 
HETATM    3  C   UNL     1      -8.424   8.703  69.713  1.00  0.00    -0.129 C  
HETATM    4  C   UNL     1      -8.437   7.794  68.488  1.00  0.00    -0.129 C  
HETATM    5  CA  UNL     1      -8.459   8.252  67.201  1.00  0.00    -0.123 C  
HETATM    6  CA  UNL     1      -8.445  11.684  66.919  1.00  0.00    -0.168 C  
HETATM    7  O   UNL     1      -8.709  10.205  64.760  1.00  0.00    -0.161 OA 
HETATM    8  N   UNL     1      -8.372   9.597  66.963  1.00  0.00    -0.117 N  
HETATM    9  C   UNL     1      -8.668   7.286  66.047  1.00  0.00    -0.151 C  
HETATM   10  OXT UNL     1      -9.082   6.144  66.186  1.00  0.00    -0.154 OA 
HETATM   11  O   UNL     1      -8.286   7.712  64.828  1.00  0.00    -0.122 OA 
HETATM   12  C   UNL     1      -8.542  10.457  65.931  1.00  0.00    -0.158 C  
ENDROOT
BRANCH   4  13
HETATM   13  C   UNL     1      -8.558   6.333  68.920  1.00  0.00    -0.125 C  
BRANCH  13  14
HETATM   14  S   UNL     1      -8.796   6.047  70.692  1.00  0.00    -0.143 SA 
BRANCH  14  15
HETATM   15  C   UNL     1     -10.436   6.462  70.977  1.00  0.00    -0.223 A  
HETATM   16  N   UNL     1     -11.451   6.377  70.152  1.00  0.00    -0.413 NA 
HETATM   17  C   UNL     1     -10.165   7.252  73.373  1.00  0.00    -0.347 C  
HETATM   18  N   UNL     1     -12.535   6.874  70.837  1.00  0.00    -0.337 NA 
HETATM   19  N   UNL     1     -10.880   6.985  72.158  1.00  0.00    -0.219 NA 
HETATM   20  N   UNL     1     -12.195   7.251  72.062  1.00  0.00    -0.295 NA 
ENDBRANCH  14  15
ENDBRANCH  13  14
ENDBRANCH   4  13
BRANCH   6  21
HETATM   21  N   UNL     1      -9.721  12.355  67.296  1.00  0.00    -0.198 N  
HETATM   22  H   UNL     1     -10.598  11.917  67.014  1.00  0.00     0.000 HD 
HETATM   23  O   UNL     1      -8.780  14.036  68.515  1.00  0.00    -0.181 OA 
HETATM   24  C   UNL     1      -9.780  13.538  68.004  1.00  0.00    -0.228 C  
BRANCH  24  25
HETATM   25  CA  UNL     1     -11.154  14.261  67.947  1.00  0.00    -0.278 C  
BRANCH  25  26
HETATM   26  C   UNL     1     -11.908  14.113  69.261  1.00  0.00    -0.381 A  
HETATM   27  C   UNL     1     -13.209  15.055  71.093  1.00  0.00    -0.498 A  
HETATM   28  C   UNL     1     -12.034  12.849  69.857  1.00  0.00    -0.377 A  
HETATM   29  O   UNL     1     -14.043  13.678  72.811  1.00  0.00    -0.711 OA 
HETATM   30  C   UNL     1     -12.508  15.216  69.897  1.00  0.00    -0.269 A  
HETATM   31  C   UNL     1     -12.742  12.686  71.052  1.00  0.00    -0.316 A  
HETATM   32  H   UNL     1     -14.445  14.434  73.223  1.00  0.00     0.000 HD 
HETATM   33  C   UNL     1     -13.329  13.793  71.656  1.00  0.00    -0.354 A  
ENDBRANCH  25  26
BRANCH  25  34
HETATM   34  N   UNL     1     -11.008  15.679  67.622  1.00  0.00    -0.317 N  
HETATM   35  H   UNL     1     -11.435  16.370  68.238  1.00  0.00     0.000 HD 
BRANCH  34  36
HETATM   36  C   UNL     1     -10.320  16.113  66.523  1.00  0.00    -0.308 C  
HETATM   37  O   UNL     1     -10.431  15.549  65.437  1.00  0.00    -0.349 OA 
BRANCH  36  38
HETATM   38  N   UNL     1      -9.513  17.228  66.713  1.00  0.00    -0.255 N  
HETATM   39  C   UNL     1      -8.067  17.044  66.644  1.00  0.00    -0.262 C  
HETATM   40  N   UNL     1      -7.767  19.461  66.463  1.00  0.00    -0.263 N  
HETATM   41  C   UNL     1      -7.391  18.177  65.897  1.00  0.00    -0.205 C  
HETATM   42  C   UNL     1      -9.105  19.716  66.753  1.00  0.00    -0.355 C  
HETATM   43  O   UNL     1     -11.118  18.677  67.534  1.00  0.00    -0.303 OA 
HETATM   44  C   UNL     1     -10.015  18.494  67.024  1.00  0.00    -0.344 C  
HETATM   45  O   UNL     1      -9.581  20.841  66.838  1.00  0.00    -0.353 OA 
BRANCH  40  46
HETATM   46  C   UNL     1      -6.800  20.552  66.511  1.00  0.00    -0.255 C  
HETATM   47  C   UNL     1      -6.282  20.868  67.901  1.00  0.00    -0.393 C  
ENDBRANCH  40  46
ENDBRANCH  36  38
ENDBRANCH  34  36
ENDBRANCH  25  34
ENDBRANCH  24  25
ENDBRANCH   6  21
TORSDOF 10
ENDMDL
MODEL       27
REMARK 921   NORMALIZED FREE ENERGY PREDICTED BY IDOCK:   -6.92 KCAL/MOL
REMARK 922        TOTAL FREE ENERGY PREDICTED BY IDOCK:  -13.25 KCAL/MOL
REMARK 923 INTER-LIGAND FREE ENERGY PREDICTED BY IDOCK:  -10.69 KCAL/MOL
REMARK 924 INTRA-LIGAND FREE ENERGY PREDICTED BY IDOCK:   -2.56 KCAL/MOL
REMARK 927      BINDING AFFINITY PREDICTED BY RF-SCORE:    0.00 PKD
ROOT
HETATM    1  C   UNL     1      -6.679  10.265  67.884  1.00  0.00    -0.066 C  
HETATM    2  S   UNL     1      -7.763  10.445  69.320  1.00  0.00    -0.150 SA 
HETATM    3  C   UNL     1      -7.818   8.669  69.646  1.00  0.00    -0.094 C  
HETATM    4  C   UNL     1      -8.073   7.790  68.426  1.00  0.00    -0.124 C  
HETATM    5  CA  UNL     1      -7.887   8.205  67.138  1.00  0.00    -0.101 C  
HETATM    6  CA  UNL     1      -6.743  11.439  66.844  1.00  0.00    -0.145 C  
HETATM    7  O   UNL     1      -7.378  10.085  64.680  1.00  0.00    -0.136 OA 
HETATM    8  N   UNL     1      -7.355   9.443  66.899  1.00  0.00    -0.090 N  
HETATM    9  C   UNL     1      -8.348   7.338  65.979  1.00  0.00    -0.140 C  
HETATM   10  OXT UNL     1      -9.118   6.396  66.102  1.00  0.00    -0.156 OA 
HETATM   11  O   UNL     1      -7.794   7.593  64.777  1.00  0.00    -0.115 OA 
HETATM   12  C   UNL     1      -7.190  10.292  65.857  1.00  0.00    -0.131 C  
ENDROOT
BRANCH   4  13
HETATM   13  C   UNL     1      -8.683   6.456  68.856  1.00  0.00    -0.126 C  
BRANCH  13  14
HETATM   14  S   UNL     1      -8.947   6.243  70.635  1.00  0.00    -0.144 SA 
BRANCH  14  15
HETATM   15  C   UNL     1     -10.623   6.531  70.857  1.00  0.00    -0.230 A  
HETATM   16  N   UNL     1     -11.576   6.520  69.957  1.00  0.00    -0.417 NA 
HETATM   17  C   UNL     1     -10.554   6.972  73.355  1.00  0.00    -0.364 C  
HETATM   18  N   UNL     1     -12.729   6.857  70.626  1.00  0.00    -0.104 NA 
HETATM   19  N   UNL     1     -11.173   6.852  72.066  1.00  0.00    -0.248 NA 
HETATM   20  N   UNL     1     -12.492   7.065  71.914  1.00  0.00    -0.329 NA 
ENDBRANCH  14  15
ENDBRANCH  13  14
ENDBRANCH   4  13
BRANCH   6  21
HETATM   21  N   UNL     1      -7.746  12.497  67.156  1.00  0.00    -0.313 N  
HETATM   22  H   UNL     1      -8.725  12.225  67.232  1.00  0.00     0.000 HD 
HETATM   23  O   UNL     1      -6.252  14.197  67.433  1.00  0.00    -0.336 OA 
HETATM   24  C   UNL     1      -7.420  13.823  67.347  1.00  0.00    -0.125 C  
BRANCH  24  25
HETATM   25  CA  UNL     1      -8.621  14.806  67.265  1.00  0.00    -0.212 C  
BRANCH  25  26
HETATM   26  C   UNL     1      -8.157  16.251  67.384  1.00  0.00    -0.178 A  
HETATM   27  C   UNL     1      -7.348  18.321  66.384  1.00  0.00    -0.283 A  
HETATM   28  C   UNL     1      -8.143  16.881  68.637  1.00  0.00    -0.253 A  
HETATM   29  O   UNL     1      -6.975  20.232  67.708  1.00  0.00    -0.263 OA 
HETATM   30  C   UNL     1      -7.755  16.992  66.256  1.00  0.00    -0.346 A  
HETATM   31  C   UNL     1      -7.743  18.216  68.764  1.00  0.00    -0.277 A  
HETATM   32  H   UNL     1      -6.710  20.717  66.935  1.00  0.00     0.000 HD 
HETATM   33  C   UNL     1      -7.355  18.925  67.633  1.00  0.00    -0.221 A  
ENDBRANCH  25  26
BRANCH  25  34
HETATM   34  N   UNL     1      -9.380  14.633  66.029  1.00  0.00    -0.487 N  
HETATM   35  H   UNL     1      -8.873  14.584  65.144  1.00  0.00     0.000 HD 
BRANCH  34  36
HETATM   36  C   UNL     1     -10.743  14.534  66.011  1.00  0.00    -0.305 C  
HETATM   37  O   UNL     1     -11.413  15.104  65.154  1.00  0.00    -0.352 OA 
BRANCH  36  38
HETATM   38  N   UNL     1     -11.307  13.746  67.007  1.00  0.00    -0.314 N  
HETATM   39  C   UNL     1     -11.574  12.344  66.699  1.00  0.00    -0.385 C  
HETATM   40  N   UNL     1     -11.866  11.876  69.078  1.00  0.00    -0.310 N  
HETATM   41  C   UNL     1     -11.213  11.435  67.858  1.00  0.00    -0.288 C  
HETATM   42  C   UNL     1     -11.849  13.227  69.414  1.00  0.00    -0.329 C  
HETATM   43  O   UNL     1     -11.924  15.428  68.470  1.00  0.00    -0.316 OA 
HETATM   44  C   UNL     1     -11.683  14.241  68.258  1.00  0.00    -0.342 C  
HETATM   45  O   UNL     1     -11.994  13.647  70.556  1.00  0.00    -0.322 OA 
BRANCH  40  46
HETATM   46  C   UNL     1     -12.330  10.897  70.055  1.00  0.00    -0.313 C  
HETATM   47  C   UNL     1     -11.220  10.166  70.784  1.00  0.00    -0.414 C  
ENDBRANCH  40  46
ENDBRANCH  36  38
ENDBRANCH  34  36
ENDBRANCH  25  34
ENDBRANCH  24  25
ENDBRANCH   6  21
TORSDOF 10
ENDMDL
MODEL       28
REMARK 921   NORMALIZED FREE ENERGY PREDICTED BY IDOCK:   -6.90 KCAL/MOL
REMARK 922        TOTAL FREE ENERGY PREDICTED BY IDOCK:  -13.23 KCAL/MOL
REMARK 923 INTER-LIGAND FREE ENERGY PREDICTED BY IDOCK:  -10.66 KCAL/MOL
REMARK 924 INTRA-LIGAND FREE ENERGY PREDICTED BY IDOCK:   -2.57 KCAL/MOL
REMARK 927      BINDING AFFINITY PREDICTED BY RF-SCORE:    0.00 PKD
ROOT
HETATM    1  C   UNL     1      -7.859  12.122  67.281  1.00  0.00    -0.176 C  
HETATM    2  S   UNL     1      -7.589  12.481  69.032  1.00  0.00     0.233 SA 
HETATM    3  C   UNL     1      -6.881  10.855  69.376  1.00  0.00    -0.114 C  
HETATM    4  C   UNL     1      -7.658   9.673  68.805  1.00  0.00    -0.076 C  
HETATM    5  CA  UNL     1      -8.572   9.779  67.796  1.00  0.00    -0.125 C  
HETATM    6  CA  UNL     1      -8.976  12.977  66.584  1.00  0.00    -0.124 C  
HETATM    7  O   UNL     1     -10.530  11.047  65.699  1.00  0.00    -0.254 OA 
HETATM    8  N   UNL     1      -8.756  10.987  67.178  1.00  0.00    -0.133 N  
HETATM    9  C   UNL     1      -9.441   8.591  67.419  1.00  0.00    -0.150 C  
HETATM   10  OXT UNL     1      -9.577   7.601  68.124  1.00  0.00    -0.146 OA 
HETATM   11  O   UNL     1     -10.010   8.623  66.199  1.00  0.00    -0.260 OA 
HETATM   12  C   UNL     1      -9.634  11.566  66.325  1.00  0.00    -0.218 C  
ENDROOT
BRANCH   4  13
HETATM   13  C   UNL     1      -7.360   8.409  69.612  1.00  0.00    -0.072 C  
BRANCH  13  14
HETATM   14  S   UNL     1      -7.728   8.495  71.383  1.00  0.00    -0.115 SA 
BRANCH  14  15
HETATM   15  C   UNL     1      -9.439   8.408  71.471  1.00  0.00    -0.203 A  
HETATM   16  N   UNL     1     -10.303   9.395  71.492  1.00  0.00    -0.289 NA 
HETATM   17  C   UNL     1      -9.638   5.880  71.561  1.00  0.00    -0.153 C  
HETATM   18  N   UNL     1     -11.540   8.808  71.617  1.00  0.00    -0.296 NA 
HETATM   19  N   UNL     1     -10.124   7.230  71.563  1.00  0.00    -0.186 NA 
HETATM   20  N   UNL     1     -11.440   7.486  71.665  1.00  0.00    -0.254 NA 
ENDBRANCH  14  15
ENDBRANCH  13  14
ENDBRANCH   4  13
BRANCH   6  21
HETATM   21  N   UNL     1      -9.705  13.910  67.490  1.00  0.00    -0.228 N  
HETATM   22  H   UNL     1      -9.389  13.988  68.457  1.00  0.00     0.000 HD 
HETATM   23  O   UNL     1     -11.115  14.755  65.911  1.00  0.00    -0.329 OA 
HETATM   24  C   UNL     1     -10.783  14.673  67.091  1.00  0.00    -0.292 C  
BRANCH  24  25
HETATM   25  CA  UNL     1     -11.629  15.260  68.254  1.00  0.00    -0.341 C  
BRANCH  25  26
HETATM   26  C   UNL     1     -12.008  14.179  69.257  1.00  0.00    -0.382 A  
HETATM   27  C   UNL     1     -12.239  11.835  69.883  1.00  0.00    -0.293 A  
HETATM   28  C   UNL     1     -12.457  14.538  70.537  1.00  0.00    -0.408 A  
HETATM   29  O   UNL     1     -12.964  11.231  72.040  1.00  0.00    -0.445 OA 
HETATM   30  C   UNL     1     -11.902  12.810  68.943  1.00  0.00    -0.351 A  
HETATM   31  C   UNL     1     -12.788  13.560  71.481  1.00  0.00    -0.440 A  
HETATM   32  H   UNL     1     -12.882  10.313  71.812  1.00  0.00     0.000 HD 
HETATM   33  C   UNL     1     -12.669  12.216  71.146  1.00  0.00    -0.253 A  
ENDBRANCH  25  26
BRANCH  25  34
HETATM   34  N   UNL     1     -10.930  16.344  68.940  1.00  0.00    -0.323 N  
HETATM   35  H   UNL     1     -11.478  17.104  69.343  1.00  0.00     0.000 HD 
BRANCH  34  36
HETATM   36  C   UNL     1      -9.569  16.378  69.064  1.00  0.00    -0.264 C  
HETATM   37  O   UNL     1      -8.971  15.562  69.759  1.00  0.00    -0.240 OA 
BRANCH  36  38
HETATM   38  N   UNL     1      -8.920  17.376  68.347  1.00  0.00    -0.271 N  
HETATM   39  C   UNL     1      -7.642  17.048  67.723  1.00  0.00    -0.170 C  
HETATM   40  N   UNL     1      -7.783  19.073  66.365  1.00  0.00    -0.264 N  
HETATM   41  C   UNL     1      -7.524  17.644  66.334  1.00  0.00    -0.288 C  
HETATM   42  C   UNL     1      -8.877  19.555  67.078  1.00  0.00    -0.306 C  
HETATM   43  O   UNL     1     -10.180  19.182  69.055  1.00  0.00    -0.358 OA 
HETATM   44  C   UNL     1      -9.400  18.684  68.246  1.00  0.00    -0.328 C  
HETATM   45  O   UNL     1      -9.415  20.633  66.854  1.00  0.00    -0.355 OA 
BRANCH  40  46
HETATM   46  C   UNL     1      -7.051  19.969  65.477  1.00  0.00    -0.310 C  
HETATM   47  C   UNL     1      -5.932  19.304  64.699  1.00  0.00    -0.310 C  
ENDBRANCH  40  46
ENDBRANCH  36  38
ENDBRANCH  34  36
ENDBRANCH  25  34
ENDBRANCH  24  25
ENDBRANCH   6  21
TORSDOF 10
ENDMDL
MODEL       29
REMARK 921   NORMALIZED FREE ENERGY PREDICTED BY IDOCK:   -6.87 KCAL/MOL
REMARK 922        TOTAL FREE ENERGY PREDICTED BY IDOCK:  -13.19 KCAL/MOL
REMARK 923 INTER-LIGAND FREE ENERGY PREDICTED BY IDOCK:  -10.33 KCAL/MOL
REMARK 924 INTRA-LIGAND FREE ENERGY PREDICTED BY IDOCK:   -2.85 KCAL/MOL
REMARK 927      BINDING AFFINITY PREDICTED BY RF-SCORE:    0.00 PKD
ROOT
HETATM    1  C   UNL     1      -8.067   9.495  67.547  1.00  0.00    -0.110 C  
HETATM    2  S   UNL     1      -7.441  10.123  69.123  1.00  0.00    -0.110 SA 
HETATM    3  C   UNL     1      -6.724   8.536  69.604  1.00  0.00    -0.040 C  
HETATM    4  C   UNL     1      -7.632   7.326  69.410  1.00  0.00    -0.097 C  
HETATM    5  CA  UNL     1      -8.727   7.320  68.594  1.00  0.00    -0.127 C  
HETATM    6  CA  UNL     1      -9.277  10.290  66.941  1.00  0.00    -0.150 C  
HETATM    7  O   UNL     1     -11.030   8.341  66.726  1.00  0.00    -0.047 OA 
HETATM    8  N   UNL     1      -8.998   8.417  67.821  1.00  0.00    -0.136 N  
HETATM    9  C   UNL     1      -9.687   6.142  68.607  1.00  0.00    -0.128 C  
HETATM   10  OXT UNL     1      -9.706   5.294  69.487  1.00  0.00    -0.148 OA 
HETATM   11  O   UNL     1     -10.489   6.006  67.533  1.00  0.00    -0.182 OA 
HETATM   12  C   UNL     1     -10.013   8.899  67.065  1.00  0.00    -0.233 C  
ENDROOT
BRANCH   4  13
HETATM   13  C   UNL     1      -7.213   6.198  70.353  1.00  0.00    -0.086 C  
BRANCH  13  14
HETATM   14  S   UNL     1      -7.265   6.585  72.121  1.00  0.00    -0.087 SA 
BRANCH  14  15
HETATM   15  C   UNL     1      -8.906   6.354  72.564  1.00  0.00    -0.133 A  
HETATM   16  N   UNL     1      -9.478   5.268  73.024  1.00  0.00    -0.139 NA 
HETATM   17  C   UNL     1      -9.728   8.691  72.014  1.00  0.00    -0.321 C  
HETATM   18  N   UNL     1     -10.808   5.581  73.177  1.00  0.00    -0.264 NA 
HETATM   19  N   UNL     1      -9.855   7.330  72.449  1.00  0.00    -0.153 NA 
HETATM   20  N   UNL     1     -11.048   6.837  72.826  1.00  0.00    -0.263 NA 
ENDBRANCH  14  15
ENDBRANCH  13  14
ENDBRANCH   4  13
BRANCH   6  21
HETATM   21  N   UNL     1      -9.783  11.404  67.792  1.00  0.00    -0.172 N  
HETATM   22  H   UNL     1      -9.176  11.761  68.530  1.00  0.00     0.000 HD 
HETATM   23  O   UNL     1     -11.743  11.718  66.672  1.00  0.00    -0.548 OA 
HETATM   24  C   UNL     1     -11.027  11.979  67.636  1.00  0.00    -0.238 C  
BRANCH  24  25
HETATM   25  CA  UNL     1     -11.507  12.827  68.845  1.00  0.00    -0.305 C  
BRANCH  25  26
HETATM   26  C   UNL     1     -12.121  11.946  69.925  1.00  0.00    -0.344 A  
HETATM   27  C   UNL     1     -13.286  11.671  72.047  1.00  0.00    -0.443 A  
HETATM   28  C   UNL     1     -12.121  10.552  69.773  1.00  0.00    -0.285 A  
HETATM   29  O   UNL     1     -13.874   9.529  72.829  1.00  0.00    -0.733 OA 
HETATM   30  C   UNL     1     -12.714  12.496  71.077  1.00  0.00    -0.316 A  
HETATM   31  C   UNL     1     -12.700   9.725  70.743  1.00  0.00    -0.251 A  
HETATM   32  H   UNL     1     -14.273   9.918  73.598  1.00  0.00     0.000 HD 
HETATM   33  C   UNL     1     -13.283  10.295  71.868  1.00  0.00    -0.445 A  
ENDBRANCH  25  26
BRANCH  25  34
HETATM   34  N   UNL     1     -10.422  13.622  69.417  1.00  0.00    -0.429 N  
HETATM   35  H   UNL     1      -9.619  13.138  69.819  1.00  0.00     0.000 HD 
BRANCH  34  36
HETATM   36  C   UNL     1     -10.442  14.989  69.433  1.00  0.00    -0.247 C  
HETATM   37  O   UNL     1     -11.094  15.607  70.271  1.00  0.00    -0.287 OA 
BRANCH  36  38
HETATM   38  N   UNL     1      -9.674  15.618  68.462  1.00  0.00    -0.198 N  
HETATM   39  C   UNL     1     -10.226  16.805  67.817  1.00  0.00    -0.303 C  
HETATM   40  N   UNL     1      -8.016  17.355  66.934  1.00  0.00    -0.213 N  
HETATM   41  C   UNL     1      -9.176  17.884  67.630  1.00  0.00    -0.258 C  
HETATM   42  C   UNL     1      -7.481  16.131  67.326  1.00  0.00    -0.185 C  
HETATM   43  O   UNL     1      -8.083  13.966  68.158  1.00  0.00    -0.130 OA 
HETATM   44  C   UNL     1      -8.433  15.138  68.034  1.00  0.00    -0.148 C  
HETATM   45  O   UNL     1      -6.324  15.792  67.108  1.00  0.00    -0.305 OA 
BRANCH  40  46
HETATM   46  C   UNL     1      -7.280  18.195  65.996  1.00  0.00    -0.270 C  
HETATM   47  C   UNL     1      -7.570  19.678  66.123  1.00  0.00    -0.326 C  
ENDBRANCH  40  46
ENDBRANCH  36  38
ENDBRANCH  34  36
ENDBRANCH  25  34
ENDBRANCH  24  25
ENDBRANCH   6  21
TORSDOF 10
ENDMDL
MODEL       30
REMARK 921   NORMALIZED FREE ENERGY PREDICTED BY IDOCK:   -6.86 KCAL/MOL
REMARK 922        TOTAL FREE ENERGY PREDICTED BY IDOCK:  -13.16 KCAL/MOL
REMARK 923 INTER-LIGAND FREE ENERGY PREDICTED BY IDOCK:  -10.12 KCAL/MOL
REMARK 924 INTRA-LIGAND FREE ENERGY PREDICTED BY IDOCK:   -3.05 KCAL/MOL
REMARK 927      BINDING AFFINITY PREDICTED BY RF-SCORE:    0.00 PKD
ROOT
HETATM    1  C   UNL     1     -12.237  14.643  68.442  1.00  0.00    -0.094 C  
HETATM    2  S   UNL     1     -11.133  14.845  69.860  1.00  0.00    -0.240 SA 
HETATM    3  C   UNL     1     -10.879  16.608  69.559  1.00  0.00    -0.285 C  
HETATM    4  C   UNL     1     -10.572  16.984  68.113  1.00  0.00    -0.369 C  
HETATM    5  CA  UNL     1     -10.841  16.178  67.043  1.00  0.00    -0.194 C  
HETATM    6  CA  UNL     1     -12.331  13.185  67.867  1.00  0.00     0.145 C  
HETATM    7  O   UNL     1     -11.625  13.641  65.374  1.00  0.00    -0.311 OA 
HETATM    8  N   UNL     1     -11.509  14.999  67.240  1.00  0.00    -0.333 N  
HETATM    9  C   UNL     1     -10.327  16.542  65.661  1.00  0.00    -0.322 C  
HETATM   10  OXT UNL     1      -9.459  17.378  65.459  1.00  0.00    -0.379 OA 
HETATM   11  O   UNL     1     -10.943  15.955  64.615  1.00  0.00    -0.528 OA 
HETATM   12  C   UNL     1     -11.796  13.870  66.549  1.00  0.00    -0.414 C  
ENDROOT
BRANCH   4  13
HETATM   13  C   UNL     1      -9.810  18.309  68.065  1.00  0.00    -0.330 C  
BRANCH  13  14
HETATM   14  S   UNL     1      -8.197  18.325  68.887  1.00  0.00    -0.078 SA 
BRANCH  14  15
HETATM   15  C   UNL     1      -7.243  17.223  67.983  1.00  0.00    -0.190 A  
HETATM   16  N   UNL     1      -7.095  15.934  68.169  1.00  0.00    -0.114 NA 
HETATM   17  C   UNL     1      -6.298  18.891  66.320  1.00  0.00    -0.185 C  
HETATM   18  N   UNL     1      -6.195  15.518  67.217  1.00  0.00    -0.322 NA 
HETATM   19  N   UNL     1      -6.465  17.601  66.925  1.00  0.00    -0.157 NA 
HETATM   20  N   UNL     1      -5.802  16.530  66.455  1.00  0.00    -0.134 NA 
ENDBRANCH  14  15
ENDBRANCH  13  14
ENDBRANCH   4  13
BRANCH   6  21
HETATM   21  N   UNL     1     -11.437  12.193  68.528  1.00  0.00    -0.274 N  
HETATM   22  H   UNL     1     -11.000  12.452  69.413  1.00  0.00     0.000 HD 
HETATM   23  O   UNL     1     -11.780  10.501  67.039  1.00  0.00    -0.032 OA 
HETATM   24  C   UNL     1     -11.168  10.944  68.008  1.00  0.00    -0.314 C  
BRANCH  24  25
HETATM   25  CA  UNL     1      -9.931  10.236  68.626  1.00  0.00    -0.173 C  
BRANCH  25  26
HETATM   26  C   UNL     1      -8.635  10.801  68.062  1.00  0.00    -0.128 A  
HETATM   27  C   UNL     1      -7.088  11.153  66.212  1.00  0.00    -0.049 A  
HETATM   28  C   UNL     1      -7.780  11.549  68.885  1.00  0.00    -0.088 A  
HETATM   29  O   UNL     1      -5.131  12.430  66.505  1.00  0.00    -0.349 OA 
HETATM   30  C   UNL     1      -8.273  10.612  66.714  1.00  0.00    -0.130 A  
HETATM   31  C   UNL     1      -6.596  12.097  68.380  1.00  0.00    -0.059 A  
HETATM   32  H   UNL     1      -4.905  12.295  65.593  1.00  0.00     0.000 HD 
HETATM   33  C   UNL     1      -6.265  11.899  67.044  1.00  0.00    -0.145 A  
ENDBRANCH  25  26
BRANCH  25  34
HETATM   34  N   UNL     1      -9.918  10.339  70.084  1.00  0.00    -0.423 N  
HETATM   35  H   UNL     1      -9.132  10.806  70.536  1.00  0.00     0.000 HD 
BRANCH  34  36
HETATM   36  C   UNL     1     -10.920   9.834  70.865  1.00  0.00    -0.341 C  
HETATM   37  O   UNL     1     -11.941  10.479  71.089  1.00  0.00    -0.352 OA 
BRANCH  36  38
HETATM   38  N   UNL     1     -10.713   8.555  71.366  1.00  0.00    -0.234 N  
HETATM   39  C   UNL     1     -11.828   7.614  71.322  1.00  0.00    -0.292 C  
HETATM   40  N   UNL     1     -10.291   5.769  71.765  1.00  0.00    -0.214 N  
HETATM   41  C   UNL     1     -11.377   6.225  70.915  1.00  0.00    -0.325 C  
HETATM   42  C   UNL     1      -9.233   6.629  72.045  1.00  0.00    -0.142 C  
HETATM   43  O   UNL     1      -8.701   8.931  72.445  1.00  0.00    -0.400 OA 
HETATM   44  C   UNL     1      -9.514   8.148  71.959  1.00  0.00    -0.215 C  
HETATM   45  O   UNL     1      -8.118   6.250  72.386  1.00  0.00    -0.104 OA 
BRANCH  40  46
HETATM   46  C   UNL     1     -10.189   4.360  72.129  1.00  0.00    -0.177 C  
HETATM   47  C   UNL     1     -10.875   4.000  73.433  1.00  0.00    -0.326 C  
ENDBRANCH  40  46
ENDBRANCH  36  38
ENDBRANCH  34  36
ENDBRANCH  25  34
ENDBRANCH  24  25
ENDBRANCH   6  21
TORSDOF 10
ENDMDL
MODEL       31
REMARK 921   NORMALIZED FREE ENERGY PREDICTED BY IDOCK:   -6.85 KCAL/MOL
REMARK 922        TOTAL FREE ENERGY PREDICTED BY IDOCK:  -13.15 KCAL/MOL
REMARK 923 INTER-LIGAND FREE ENERGY PREDICTED BY IDOCK:  -11.38 KCAL/MOL
REMARK 924 INTRA-LIGAND FREE ENERGY PREDICTED BY IDOCK:   -1.77 KCAL/MOL
REMARK 927      BINDING AFFINITY PREDICTED BY RF-SCORE:    0.00 PKD
ROOT
HETATM    1  C   UNL     1     -11.107   7.888  70.751  1.00  0.00    -0.256 C  
HETATM    2  S   UNL     1     -10.993   7.469  68.995  1.00  0.00     0.124 SA 
HETATM    3  C   UNL     1     -10.907   5.692  69.306  1.00  0.00    -0.239 C  
HETATM    4  C   UNL     1      -9.933   5.268  70.401  1.00  0.00    -0.303 C  
HETATM    5  CA  UNL     1      -9.447   6.115  71.356  1.00  0.00    -0.156 C  
HETATM    6  CA  UNL     1     -10.638   9.338  71.127  1.00  0.00    -0.332 C  
HETATM    7  O   UNL     1      -8.783   8.762  72.901  1.00  0.00    -0.379 OA 
HETATM    8  N   UNL     1      -9.914   7.401  71.417  1.00  0.00    -0.186 N  
HETATM    9  C   UNL     1      -8.336   5.663  72.288  1.00  0.00    -0.119 C  
HETATM   10  OXT UNL     1      -7.645   4.675  72.089  1.00  0.00    -0.079 OA 
HETATM   11  O   UNL     1      -8.185   6.362  73.430  1.00  0.00    -0.113 OA 
HETATM   12  C   UNL     1      -9.596   8.567  72.027  1.00  0.00    -0.301 C  
ENDROOT
BRANCH   4  13
HETATM   13  C   UNL     1      -9.493   3.821  70.182  1.00  0.00    -0.189 C  
BRANCH  13  14
HETATM   14  S   UNL     1      -9.101   3.361  68.475  1.00  0.00    -0.166 SA 
BRANCH  14  15
HETATM   15  C   UNL     1      -7.805   4.396  68.038  1.00  0.00    -0.080 A  
HETATM   16  N   UNL     1      -6.683   4.609  68.682  1.00  0.00    -0.049 NA 
HETATM   17  C   UNL     1      -8.808   5.293  65.887  1.00  0.00    -0.145 C  
HETATM   18  N   UNL     1      -6.004   5.555  67.951  1.00  0.00    -0.017 NA 
HETATM   19  N   UNL     1      -7.818   5.180  66.919  1.00  0.00    -0.099 NA 
HETATM   20  N   UNL     1      -6.691   5.911  66.874  1.00  0.00    -0.056 NA 
ENDBRANCH  14  15
ENDBRANCH  13  14
ENDBRANCH   4  13
BRANCH   6  21
HETATM   21  N   UNL     1     -10.095  10.134  69.990  1.00  0.00    -0.379 N  
HETATM   22  H   UNL     1      -9.092  10.097  69.810  1.00  0.00     0.000 HD 
HETATM   23  O   UNL     1     -12.105  10.886  69.218  1.00  0.00    -0.332 OA 
HETATM   24  C   UNL     1     -10.877  10.919  69.167  1.00  0.00    -0.235 C  
BRANCH  24  25
HETATM   25  CA  UNL     1     -10.090  11.955  68.318  1.00  0.00    -0.203 C  
BRANCH  25  26
HETATM   26  C   UNL     1     -10.675  12.073  66.917  1.00  0.00    -0.282 A  
HETATM   27  C   UNL     1     -10.645  11.535  64.540  1.00  0.00    -0.387 A  
HETATM   28  C   UNL     1     -11.841  12.823  66.706  1.00  0.00    -0.452 A  
HETATM   29  O   UNL     1     -12.333  12.331  63.105  1.00  0.00    -0.698 OA 
HETATM   30  C   UNL     1     -10.084  11.427  65.814  1.00  0.00    -0.289 A  
HETATM   31  C   UNL     1     -12.407  12.926  65.431  1.00  0.00    -0.538 A  
HETATM   32  H   UNL     1     -11.923  11.886  62.373  1.00  0.00     0.000 HD 
HETATM   33  C   UNL     1     -11.806  12.274  64.360  1.00  0.00    -0.388 A  
ENDBRANCH  25  26
BRANCH  25  34
HETATM   34  N   UNL     1     -10.065  13.270  68.953  1.00  0.00    -0.430 N  
HETATM   35  H   UNL     1     -10.738  13.472  69.692  1.00  0.00     0.000 HD 
BRANCH  34  36
HETATM   36  C   UNL     1      -9.173  14.243  68.593  1.00  0.00    -0.167 C  
HETATM   37  O   UNL     1      -7.962  14.040  68.624  1.00  0.00    -0.138 OA 
BRANCH  36  38
HETATM   38  N   UNL     1      -9.724  15.450  68.183  1.00  0.00    -0.210 N  
HETATM   39  C   UNL     1     -10.410  16.263  69.182  1.00  0.00    -0.272 C  
HETATM   40  N   UNL     1     -10.352  18.177  67.668  1.00  0.00    -0.380 N  
HETATM   41  C   UNL     1     -10.089  17.737  69.026  1.00  0.00    -0.294 C  
HETATM   42  C   UNL     1      -9.910  17.403  66.598  1.00  0.00    -0.297 C  
HETATM   43  O   UNL     1      -9.574  15.137  65.896  1.00  0.00    -0.316 OA 
HETATM   44  C   UNL     1      -9.706  15.891  66.857  1.00  0.00    -0.230 C  
HETATM   45  O   UNL     1      -9.714  17.844  65.473  1.00  0.00    -0.327 OA 
BRANCH  40  46
HETATM   46  C   UNL     1     -10.864  19.521  67.420  1.00  0.00    -0.414 C  
HETATM   47  C   UNL     1      -9.790  20.579  67.259  1.00  0.00    -0.581 C  
ENDBRANCH  40  46
ENDBRANCH  36  38
ENDBRANCH  34  36
ENDBRANCH  25  34
ENDBRANCH  24  25
ENDBRANCH   6  21
TORSDOF 10
ENDMDL
MODEL       32
REMARK 921   NORMALIZED FREE ENERGY PREDICTED BY IDOCK:   -6.83 KCAL/MOL
REMARK 922        TOTAL FREE ENERGY PREDICTED BY IDOCK:  -13.12 KCAL/MOL
REMARK 923 INTER-LIGAND FREE ENERGY PREDICTED BY IDOCK:  -10.60 KCAL/MOL
REMARK 924 INTRA-LIGAND FREE ENERGY PREDICTED BY IDOCK:   -2.52 KCAL/MOL
REMARK 927      BINDING AFFINITY PREDICTED BY RF-SCORE:    0.00 PKD
ROOT
HETATM    1  C   UNL     1     -11.775  14.203  68.537  1.00  0.00    -0.345 C  
HETATM    2  S   UNL     1     -10.239  14.905  69.184  1.00  0.00    -0.224 SA 
HETATM    3  C   UNL     1     -10.493  16.502  68.378  1.00  0.00    -0.307 C  
HETATM    4  C   UNL     1     -10.908  16.432  66.911  1.00  0.00    -0.118 C  
HETATM    5  CA  UNL     1     -11.438  15.319  66.323  1.00  0.00    -0.079 C  
HETATM    6  CA  UNL     1     -11.812  12.636  68.448  1.00  0.00    -0.301 C  
HETATM    7  O   UNL     1     -12.333  12.345  65.886  1.00  0.00    -0.638 OA 
HETATM    8  N   UNL     1     -11.711  14.218  67.088  1.00  0.00    -0.386 N  
HETATM    9  C   UNL     1     -11.641  15.271  64.818  1.00  0.00    -0.322 C  
HETATM   10  OXT UNL     1     -11.125  16.059  64.039  1.00  0.00    -0.444 OA 
HETATM   11  O   UNL     1     -12.511  14.351  64.357  1.00  0.00    -0.635 OA 
HETATM   12  C   UNL     1     -12.032  12.914  66.910  1.00  0.00    -0.335 C  
ENDROOT
BRANCH   4  13
HETATM   13  C   UNL     1     -10.518  17.724  66.193  1.00  0.00    -0.301 C  
BRANCH  13  14
HETATM   14  S   UNL     1      -9.461  18.860  67.125  1.00  0.00    -0.312 SA 
BRANCH  14  15
HETATM   15  C   UNL     1      -7.863  18.430  66.671  1.00  0.00    -0.248 A  
HETATM   16  N   UNL     1      -7.321  18.463  65.478  1.00  0.00    -0.531 NA 
HETATM   17  C   UNL     1      -7.039  17.747  68.971  1.00  0.00    -0.229 C  
HETATM   18  N   UNL     1      -6.044  17.977  65.632  1.00  0.00    -0.225 NA 
HETATM   19  N   UNL     1      -6.939  17.950  67.554  1.00  0.00    -0.191 NA 
HETATM   20  N   UNL     1      -5.803  17.658  66.897  1.00  0.00    -0.141 NA 
ENDBRANCH  14  15
ENDBRANCH  13  14
ENDBRANCH   4  13
BRANCH   6  21
HETATM   21  N   UNL     1     -10.544  11.958  68.841  1.00  0.00    -0.326 N  
HETATM   22  H   UNL     1      -9.889  12.466  69.436  1.00  0.00     0.000 HD 
HETATM   23  O   UNL     1     -11.012   9.950  67.869  1.00  0.00    -0.272 OA 
HETATM   24  C   UNL     1     -10.208  10.680  68.444  1.00  0.00    -0.173 C  
BRANCH  24  25
HETATM   25  CA  UNL     1      -8.708  10.317  68.622  1.00  0.00    -0.133 C  
BRANCH  25  26
HETATM   26  C   UNL     1      -7.828  11.556  68.522  1.00  0.00    -0.140 A  
HETATM   27  C   UNL     1      -7.093  13.563  67.351  1.00  0.00    -0.098 A  
HETATM   28  C   UNL     1      -6.936  11.866  69.560  1.00  0.00     0.058 A  
HETATM   29  O   UNL     1      -5.480  14.989  68.303  1.00  0.00    -0.102 OA 
HETATM   30  C   UNL     1      -7.897  12.423  67.415  1.00  0.00    -0.174 A  
HETATM   31  C   UNL     1      -6.135  13.012  69.499  1.00  0.00    -0.115 A  
HETATM   32  H   UNL     1      -5.543  15.564  67.550  1.00  0.00     0.000 HD 
HETATM   33  C   UNL     1      -6.227  13.853  68.396  1.00  0.00    -0.101 A  
ENDBRANCH  25  26
BRANCH  25  34
HETATM   34  N   UNL     1      -8.461   9.639  69.892  1.00  0.00    -0.181 N  
HETATM   35  H   UNL     1      -8.417  10.196  70.746  1.00  0.00     0.000 HD 
BRANCH  34  36
HETATM   36  C   UNL     1      -8.286   8.286  69.981  1.00  0.00    -0.119 C  
HETATM   37  O   UNL     1      -7.390   7.717  69.362  1.00  0.00    -0.081 OA 
BRANCH  36  38
HETATM   38  N   UNL     1      -9.167   7.614  70.818  1.00  0.00    -0.157 N  
HETATM   39  C   UNL     1     -10.140   6.715  70.205  1.00  0.00    -0.179 C  
HETATM   40  N   UNL     1     -10.602   5.724  72.389  1.00  0.00    -0.211 N  
HETATM   41  C   UNL     1     -10.299   5.432  70.999  1.00  0.00    -0.236 C  
HETATM   42  C   UNL     1      -9.867   6.697  73.060  1.00  0.00    -0.168 C  
HETATM   43  O   UNL     1      -8.777   8.810  72.759  1.00  0.00    -0.398 OA 
HETATM   44  C   UNL     1      -9.206   7.801  72.202  1.00  0.00    -0.149 C  
HETATM   45  O   UNL     1      -9.751   6.743  74.279  1.00  0.00    -0.253 OA 
BRANCH  40  46
HETATM   46  C   UNL     1     -11.500   4.854  73.140  1.00  0.00    -0.278 C  
HETATM   47  C   UNL     1     -10.955   3.463  73.397  1.00  0.00    -0.306 C  
ENDBRANCH  40  46
ENDBRANCH  36  38
ENDBRANCH  34  36
ENDBRANCH  25  34
ENDBRANCH  24  25
ENDBRANCH   6  21
TORSDOF 10
ENDMDL
MODEL       33
REMARK 921   NORMALIZED FREE ENERGY PREDICTED BY IDOCK:   -6.79 KCAL/MOL
REMARK 922        TOTAL FREE ENERGY PREDICTED BY IDOCK:  -13.05 KCAL/MOL
REMARK 923 INTER-LIGAND FREE ENERGY PREDICTED BY IDOCK:  -10.90 KCAL/MOL
REMARK 924 INTRA-LIGAND FREE ENERGY PREDICTED BY IDOCK:   -2.15 KCAL/MOL
REMARK 927      BINDING AFFINITY PREDICTED BY RF-SCORE:    0.00 PKD
ROOT
HETATM    1  C   UNL     1     -11.379  10.886  67.862  1.00  0.00    -0.308 C  
HETATM    2  S   UNL     1      -9.720  10.318  67.418  1.00  0.00    -0.164 SA 
HETATM    3  C   UNL     1      -9.977   8.665  68.100  1.00  0.00    -0.178 C  
HETATM    4  C   UNL     1     -10.605   8.624  69.489  1.00  0.00    -0.218 C  
HETATM    5  CA  UNL     1     -11.291   9.666  70.046  1.00  0.00    -0.195 C  
HETATM    6  CA  UNL     1     -11.537  12.440  68.019  1.00  0.00    -0.347 C  
HETATM    7  O   UNL     1     -12.444  12.550  70.486  1.00  0.00    -0.277 OA 
HETATM    8  N   UNL     1     -11.525  10.792  69.302  1.00  0.00    -0.275 N  
HETATM    9  C   UNL     1     -11.714   9.615  71.504  1.00  0.00    -0.400 C  
HETATM   10  OXT UNL     1     -11.263   8.817  72.312  1.00  0.00    -0.354 OA 
HETATM   11  O   UNL     1     -12.703  10.451  71.874  1.00  0.00    -0.420 OA 
HETATM   12  C   UNL     1     -11.959  12.060  69.492  1.00  0.00    -0.283 C  
ENDROOT
BRANCH   4  13
HETATM   13  C   UNL     1     -10.235   7.319  70.195  1.00  0.00    -0.203 C  
BRANCH  13  14
HETATM   14  S   UNL     1      -8.477   7.085  70.556  1.00  0.00    -0.134 SA 
BRANCH  14  15
HETATM   15  C   UNL     1      -8.275   7.716  72.138  1.00  0.00    -0.106 A  
HETATM   16  N   UNL     1      -7.728   8.853  72.495  1.00  0.00    -0.349 NA 
HETATM   17  C   UNL     1      -9.318   5.779  73.402  1.00  0.00    -0.134 C  
HETATM   18  N   UNL     1      -7.764   8.871  73.870  1.00  0.00    -0.343 NA 
HETATM   19  N   UNL     1      -8.660   7.046  73.265  1.00  0.00    -0.123 NA 
HETATM   20  N   UNL     1      -8.329   7.770  74.348  1.00  0.00    -0.231 NA 
ENDBRANCH  14  15
ENDBRANCH  13  14
ENDBRANCH   4  13
BRANCH   6  21
HETATM   21  N   UNL     1     -10.275  13.217  67.853  1.00  0.00    -0.228 N  
HETATM   22  H   UNL     1      -9.615  13.236  68.629  1.00  0.00     0.000 HD 
HETATM   23  O   UNL     1     -10.617  13.801  65.676  1.00  0.00    -0.283 OA 
HETATM   24  C   UNL     1      -9.954  13.910  66.705  1.00  0.00    -0.279 C  
BRANCH  24  25
HETATM   25  CA  UNL     1      -8.816  14.955  66.874  1.00  0.00    -0.258 C  
BRANCH  25  26
HETATM   26  C   UNL     1      -9.370  16.305  67.306  1.00  0.00    -0.231 A  
HETATM   27  C   UNL     1      -9.946  17.921  69.037  1.00  0.00    -0.276 A  
HETATM   28  C   UNL     1      -9.797  17.228  66.339  1.00  0.00    -0.310 A  
HETATM   29  O   UNL     1     -10.805  20.038  68.470  1.00  0.00    -0.289 OA 
HETATM   30  C   UNL     1      -9.450  16.671  68.663  1.00  0.00    -0.249 A  
HETATM   31  C   UNL     1     -10.288  18.484  66.714  1.00  0.00    -0.435 A  
HETATM   32  H   UNL     1     -10.848  20.269  69.391  1.00  0.00     0.000 HD 
HETATM   33  C   UNL     1     -10.351  18.820  68.061  1.00  0.00    -0.387 A  
ENDBRANCH  25  26
BRANCH  25  34
HETATM   34  N   UNL     1      -7.808  14.508  67.833  1.00  0.00    -0.133 N  
HETATM   35  H   UNL     1      -8.109  13.980  68.652  1.00  0.00     0.000 HD 
BRANCH  34  36
HETATM   36  C   UNL     1      -6.475  14.770  67.673  1.00  0.00    -0.139 C  
HETATM   37  O   UNL     1      -5.698  13.904  67.280  1.00  0.00    -0.315 OA 
BRANCH  36  38
HETATM   38  N   UNL     1      -6.072  16.067  67.968  1.00  0.00    -0.118 N  
HETATM   39  C   UNL     1      -5.812  16.971  66.853  1.00  0.00    -0.190 C  
HETATM   40  N   UNL     1      -5.850  18.873  68.385  1.00  0.00    -0.208 N  
HETATM   41  C   UNL     1      -6.351  18.364  67.120  1.00  0.00    -0.174 C  
HETATM   42  C   UNL     1      -5.869  18.052  69.509  1.00  0.00    -0.236 C  
HETATM   43  O   UNL     1      -5.602  15.777  70.214  1.00  0.00    -0.156 OA 
HETATM   44  C   UNL     1      -5.849  16.524  69.269  1.00  0.00    -0.154 C  
HETATM   45  O   UNL     1      -5.863  18.473  70.660  1.00  0.00    -0.155 OA 
BRANCH  40  46
HETATM   46  C   UNL     1      -5.550  20.292  68.535  1.00  0.00    -0.250 C  
HETATM   47  C   UNL     1      -6.054  21.162  67.399  1.00  0.00    -0.407 C  
ENDBRANCH  40  46
ENDBRANCH  36  38
ENDBRANCH  34  36
ENDBRANCH  25  34
ENDBRANCH  24  25
ENDBRANCH   6  21
TORSDOF 10
ENDMDL
MODEL       34
REMARK 921   NORMALIZED FREE ENERGY PREDICTED BY IDOCK:   -6.77 KCAL/MOL
REMARK 922        TOTAL FREE ENERGY PREDICTED BY IDOCK:  -13.03 KCAL/MOL
REMARK 923 INTER-LIGAND FREE ENERGY PREDICTED BY IDOCK:  -10.98 KCAL/MOL
REMARK 924 INTRA-LIGAND FREE ENERGY PREDICTED BY IDOCK:   -2.05 KCAL/MOL
REMARK 927      BINDING AFFINITY PREDICTED BY RF-SCORE:    0.00 PKD
ROOT
HETATM    1  C   UNL     1      -9.901  11.644  66.918  1.00  0.00    -0.198 C  
HETATM    2  S   UNL     1     -11.191  11.886  68.162  1.00  0.00    -0.283 SA 
HETATM    3  C   UNL     1     -11.170  13.685  68.001  1.00  0.00    -0.267 C  
HETATM    4  C   UNL     1      -9.785  14.323  68.000  1.00  0.00    -0.223 C  
HETATM    5  CA  UNL     1      -8.632  13.637  67.740  1.00  0.00    -0.182 C  
HETATM    6  CA  UNL     1      -9.100  10.299  67.036  1.00  0.00    -0.139 C  
HETATM    7  O   UNL     1      -6.657  11.253  67.243  1.00  0.00    -0.076 OA 
HETATM    8  N   UNL     1      -8.701  12.323  67.365  1.00  0.00    -0.171 N  
HETATM    9  C   UNL     1      -7.281  14.300  67.950  1.00  0.00    -0.158 C  
HETATM   10  OXT UNL     1      -7.125  15.331  68.588  1.00  0.00    -0.109 OA 
HETATM   11  O   UNL     1      -6.232  13.745  67.314  1.00  0.00    -0.311 OA 
HETATM   12  C   UNL     1      -7.866  11.267  67.211  1.00  0.00    -0.141 C  
ENDROOT
BRANCH   4  13
HETATM   13  C   UNL     1      -9.875  15.778  68.458  1.00  0.00    -0.209 C  
BRANCH  13  14
HETATM   14  S   UNL     1     -10.628  16.933  67.285  1.00  0.00    -0.220 SA 
BRANCH  14  15
HETATM   15  C   UNL     1      -9.297  17.682  66.504  1.00  0.00    -0.272 A  
HETATM   16  N   UNL     1      -8.301  17.112  65.870  1.00  0.00    -0.530 NA 
HETATM   17  C   UNL     1      -9.921  20.087  67.021  1.00  0.00    -0.445 C  
HETATM   18  N   UNL     1      -7.476  18.136  65.470  1.00  0.00    -0.509 NA 
HETATM   19  N   UNL     1      -9.106  19.035  66.485  1.00  0.00    -0.326 NA 
HETATM   20  N   UNL     1      -7.958  19.314  65.844  1.00  0.00    -0.449 NA 
ENDBRANCH  14  15
ENDBRANCH  13  14
ENDBRANCH   4  13
BRANCH   6  21
HETATM   21  N   UNL     1      -9.470   9.451  68.205  1.00  0.00    -0.133 N  
HETATM   22  H   UNL     1      -9.106   9.709  69.122  1.00  0.00     0.000 HD 
HETATM   23  O   UNL     1     -10.881   8.059  67.078  1.00  0.00    -0.283 OA 
HETATM   24  C   UNL     1     -10.277   8.336  68.112  1.00  0.00    -0.210 C  
BRANCH  24  25
HETATM   25  CA  UNL     1     -10.216   7.386  69.340  1.00  0.00    -0.201 C  
BRANCH  25  26
HETATM   26  C   UNL     1     -11.225   7.798  70.403  1.00  0.00    -0.246 A  
HETATM   27  C   UNL     1     -12.182   9.460  71.906  1.00  0.00    -0.440 A  
HETATM   28  C   UNL     1     -12.184   6.878  70.852  1.00  0.00    -0.404 A  
HETATM   29  O   UNL     1     -14.046   8.939  73.247  1.00  0.00    -1.211 OA 
HETATM   30  C   UNL     1     -11.238   9.098  70.944  1.00  0.00    -0.359 A  
HETATM   31  C   UNL     1     -13.135   7.243  71.811  1.00  0.00    -0.365 A  
HETATM   32  H   UNL     1     -14.042   9.821  73.598  1.00  0.00     0.000 HD 
HETATM   33  C   UNL     1     -13.128   8.534  72.324  1.00  0.00    -0.334 A  
ENDBRANCH  25  26
BRANCH  25  34
HETATM   34  N   UNL     1     -10.443   5.994  68.960  1.00  0.00    -0.227 N  
HETATM   35  H   UNL     1     -11.396   5.686  68.768  1.00  0.00     0.000 HD 
BRANCH  34  36
HETATM   36  C   UNL     1      -9.425   5.087  68.852  1.00  0.00    -0.140 C  
HETATM   37  O   UNL     1      -9.030   4.452  69.826  1.00  0.00    -0.087 OA 
BRANCH  36  38
HETATM   38  N   UNL     1      -8.888   4.926  67.580  1.00  0.00    -0.103 N  
HETATM   39  C   UNL     1      -9.399   3.836  66.756  1.00  0.00    -0.190 C  
HETATM   40  N   UNL     1      -8.360   4.837  64.785  1.00  0.00    -0.125 N  
HETATM   41  C   UNL     1      -9.585   4.262  65.312  1.00  0.00    -0.185 C  
HETATM   42  C   UNL     1      -7.658   5.769  65.546  1.00  0.00    -0.083 C  
HETATM   43  O   UNL     1      -7.063   6.331  67.798  1.00  0.00    -0.076 OA 
HETATM   44  C   UNL     1      -7.849   5.715  67.081  1.00  0.00    -0.101 C  
HETATM   45  O   UNL     1      -6.883   6.590  65.072  1.00  0.00    -0.045 OA 
BRANCH  40  46
HETATM   46  C   UNL     1      -7.992   4.624  63.390  1.00  0.00    -0.083 C  
HETATM   47  C   UNL     1      -9.168   4.568  62.434  1.00  0.00    -0.126 C  
ENDBRANCH  40  46
ENDBRANCH  36  38
ENDBRANCH  34  36
ENDBRANCH  25  34
ENDBRANCH  24  25
ENDBRANCH   6  21
TORSDOF 10
ENDMDL
MODEL       35
REMARK 921   NORMALIZED FREE ENERGY PREDICTED BY IDOCK:   -6.77 KCAL/MOL
REMARK 922        TOTAL FREE ENERGY PREDICTED BY IDOCK:  -13.03 KCAL/MOL
REMARK 923 INTER-LIGAND FREE ENERGY PREDICTED BY IDOCK:  -10.99 KCAL/MOL
REMARK 924 INTRA-LIGAND FREE ENERGY PREDICTED BY IDOCK:   -2.04 KCAL/MOL
REMARK 927      BINDING AFFINITY PREDICTED BY RF-SCORE:    0.00 PKD
ROOT
HETATM    1  C   UNL     1     -11.487  12.905  66.397  1.00  0.00    -0.341 C  
HETATM    2  S   UNL     1      -9.864  12.530  65.692  1.00  0.00    -0.167 SA 
HETATM    3  C   UNL     1      -9.960  10.775  66.109  1.00  0.00    -0.232 C  
HETATM    4  C   UNL     1     -10.420  10.468  67.531  1.00  0.00    -0.284 C  
HETATM    5  CA  UNL     1     -11.088  11.358  68.323  1.00  0.00    -0.244 C  
HETATM    6  CA  UNL     1     -11.701  14.399  66.830  1.00  0.00    -0.397 C  
HETATM    7  O   UNL     1     -12.322  14.047  69.362  1.00  0.00    -0.333 OA 
HETATM    8  N   UNL     1     -11.461  12.570  67.808  1.00  0.00    -0.300 N  
HETATM    9  C   UNL     1     -11.337  11.043  69.788  1.00  0.00    -0.292 C  
HETATM   10  OXT UNL     1     -10.758  10.156  70.399  1.00  0.00    -0.291 OA 
HETATM   11  O   UNL     1     -12.317  11.740  70.396  1.00  0.00    -0.321 OA 
HETATM   12  C   UNL     1     -11.931  13.759  68.254  1.00  0.00    -0.357 C  
ENDROOT
BRANCH   4  13
HETATM   13  C   UNL     1      -9.909   9.094  67.964  1.00  0.00    -0.168 C  
BRANCH  13  14
HETATM   14  S   UNL     1     -11.012   7.697  67.631  1.00  0.00     0.143 SA 
BRANCH  14  15
HETATM   15  C   UNL     1     -10.791   6.647  68.969  1.00  0.00    -0.277 A  
HETATM   16  N   UNL     1     -11.162   6.828  70.214  1.00  0.00    -0.309 NA 
HETATM   17  C   UNL     1      -9.565   4.797  67.739  1.00  0.00    -0.154 C  
HETATM   18  N   UNL     1     -10.712   5.726  70.903  1.00  0.00    -0.264 NA 
HETATM   19  N   UNL     1     -10.139   5.450  68.881  1.00  0.00    -0.183 NA 
HETATM   20  N   UNL     1     -10.083   4.881  70.097  1.00  0.00    -0.260 NA 
ENDBRANCH  14  15
ENDBRANCH  13  14
ENDBRANCH   4  13
BRANCH   6  21
HETATM   21  N   UNL     1     -10.506  15.276  66.664  1.00  0.00    -0.284 N  
HETATM   22  H   UNL     1      -9.771  15.226  67.368  1.00  0.00     0.000 HD 
HETATM   23  O   UNL     1     -11.103  16.147  64.643  1.00  0.00    -0.598 OA 
HETATM   24  C   UNL     1     -10.343  16.150  65.609  1.00  0.00    -0.382 C  
BRANCH  24  25
HETATM   25  CA  UNL     1      -9.251  17.233  65.826  1.00  0.00     0.180 C  
BRANCH  25  26
HETATM   26  C   UNL     1      -9.626  18.171  66.965  1.00  0.00    -0.287 A  
HETATM   27  C   UNL     1     -10.199  20.386  67.804  1.00  0.00    -0.392 A  
HETATM   28  C   UNL     1      -9.788  17.666  68.264  1.00  0.00    -0.324 A  
HETATM   29  O   UNL     1     -10.740  20.712  70.073  1.00  0.00    -0.547 OA 
HETATM   30  C   UNL     1      -9.839  19.546  66.749  1.00  0.00    -0.486 A  
HETATM   31  C   UNL     1     -10.155  18.507  69.320  1.00  0.00    -0.042 A  
HETATM   32  H   UNL     1     -10.883  21.636  69.907  1.00  0.00     0.000 HD 
HETATM   33  C   UNL     1     -10.364  19.859  69.077  1.00  0.00    -0.129 A  
ENDBRANCH  25  26
BRANCH  25  34
HETATM   34  N   UNL     1      -7.942  16.638  66.090  1.00  0.00    -0.295 N  
HETATM   35  H   UNL     1      -7.883  15.633  66.252  1.00  0.00     0.000 HD 
BRANCH  34  36
HETATM   36  C   UNL     1      -6.793  17.379  66.129  1.00  0.00    -0.243 C  
HETATM   37  O   UNL     1      -6.277  17.809  65.100  1.00  0.00    -0.002 OA 
BRANCH  36  38
HETATM   38  N   UNL     1      -6.268  17.618  67.392  1.00  0.00    -0.143 N  
HETATM   39  C   UNL     1      -6.022  19.004  67.778  1.00  0.00    -0.200 C  
HETATM   40  N   UNL     1      -5.794  18.316  70.110  1.00  0.00    -0.220 N  
HETATM   41  C   UNL     1      -6.427  19.268  69.216  1.00  0.00    -0.306 C  
HETATM   42  C   UNL     1      -5.793  16.963  69.780  1.00  0.00    -0.217 C  
HETATM   43  O   UNL     1      -5.654  15.453  67.925  1.00  0.00    -0.127 OA 
HETATM   44  C   UNL     1      -5.912  16.601  68.281  1.00  0.00    -0.121 C  
HETATM   45  O   UNL     1      -5.667  16.062  70.601  1.00  0.00    -0.112 OA 
BRANCH  40  46
HETATM   46  C   UNL     1      -5.372  18.732  71.443  1.00  0.00    -0.259 C  
HETATM   47  C   UNL     1      -5.620  20.196  71.749  1.00  0.00    -0.425 C  
ENDBRANCH  40  46
ENDBRANCH  36  38
ENDBRANCH  34  36
ENDBRANCH  25  34
ENDBRANCH  24  25
ENDBRANCH   6  21
TORSDOF 10
ENDMDL
MODEL       36
REMARK 921   NORMALIZED FREE ENERGY PREDICTED BY IDOCK:   -6.73 KCAL/MOL
REMARK 922        TOTAL FREE ENERGY PREDICTED BY IDOCK:  -12.97 KCAL/MOL
REMARK 923 INTER-LIGAND FREE ENERGY PREDICTED BY IDOCK:  -10.57 KCAL/MOL
REMARK 924 INTRA-LIGAND FREE ENERGY PREDICTED BY IDOCK:   -2.39 KCAL/MOL
REMARK 927      BINDING AFFINITY PREDICTED BY RF-SCORE:    0.00 PKD
ROOT
HETATM    1  C   UNL     1     -12.062  13.731  67.606  1.00  0.00    -0.298 C  
HETATM    2  S   UNL     1     -10.931  13.898  69.007  1.00  0.00    -0.228 SA 
HETATM    3  C   UNL     1     -11.125  15.692  69.098  1.00  0.00    -0.284 C  
HETATM    4  C   UNL     1     -11.026  16.426  67.765  1.00  0.00    -0.261 C  
HETATM    5  CA  UNL     1     -11.179  15.821  66.550  1.00  0.00     0.023 C  
HETATM    6  CA  UNL     1     -11.854  12.449  66.724  1.00  0.00    -0.315 C  
HETATM    7  O   UNL     1     -11.468  13.577  64.379  1.00  0.00    -0.368 OA 
HETATM    8  N   UNL     1     -11.533  14.500  66.496  1.00  0.00    -0.354 N  
HETATM    9  C   UNL     1     -10.873  16.581  65.271  1.00  0.00    -0.221 C  
HETATM   10  OXT UNL     1     -10.244  17.629  65.239  1.00  0.00    -0.434 OA 
HETATM   11  O   UNL     1     -11.412  16.093  64.136  1.00  0.00    -0.635 OA 
HETATM   12  C   UNL     1     -11.598  13.505  65.579  1.00  0.00    -0.320 C  
ENDROOT
BRANCH   4  13
HETATM   13  C   UNL     1     -10.604  17.878  67.994  1.00  0.00    -0.356 C  
BRANCH  13  14
HETATM   14  S   UNL     1      -8.917  18.126  68.601  1.00  0.00    -0.230 SA 
BRANCH  14  15
HETATM   15  C   UNL     1      -8.096  18.875  67.294  1.00  0.00    -0.262 A  
HETATM   16  N   UNL     1      -8.313  20.057  66.769  1.00  0.00    -0.316 NA 
HETATM   17  C   UNL     1      -6.472  16.989  66.799  1.00  0.00    -0.223 C  
HETATM   18  N   UNL     1      -7.430  20.170  65.721  1.00  0.00    -0.294 NA 
HETATM   19  N   UNL     1      -7.086  18.271  66.600  1.00  0.00    -0.201 NA 
HETATM   20  N   UNL     1      -6.678  19.082  65.609  1.00  0.00    -0.276 NA 
ENDBRANCH  14  15
ENDBRANCH  13  14
ENDBRANCH   4  13
BRANCH   6  21
HETATM   21  N   UNL     1     -10.703  11.593  67.128  1.00  0.00    -0.235 N  
HETATM   22  H   UNL     1     -10.409  11.610  68.105  1.00  0.00     0.000 HD 
HETATM   23  O   UNL     1     -10.411  10.581  65.107  1.00  0.00    -0.304 OA 
HETATM   24  C   UNL     1     -10.015  10.778  66.253  1.00  0.00    -0.222 C  
BRANCH  24  25
HETATM   25  CA  UNL     1      -8.634  10.288  66.771  1.00  0.00    -0.127 C  
BRANCH  25  26
HETATM   26  C   UNL     1      -7.889  11.405  67.488  1.00  0.00    -0.126 A  
HETATM   27  C   UNL     1      -6.511  12.211  69.330  1.00  0.00    -0.111 A  
HETATM   28  C   UNL     1      -7.859  12.695  66.936  1.00  0.00     0.047 A  
HETATM   29  O   UNL     1      -5.779  14.448  69.397  1.00  0.00    -0.089 OA 
HETATM   30  C   UNL     1      -7.202  11.177  68.696  1.00  0.00    -0.098 A  
HETATM   31  C   UNL     1      -7.161  13.729  67.568  1.00  0.00    -0.172 A  
HETATM   32  H   UNL     1      -5.319  14.274  70.209  1.00  0.00     0.000 HD 
HETATM   33  C   UNL     1      -6.487  13.475  68.757  1.00  0.00    -0.098 A  
ENDBRANCH  25  26
BRANCH  25  34
HETATM   34  N   UNL     1      -8.766   9.135  67.659  1.00  0.00    -0.120 N  
HETATM   35  H   UNL     1      -8.129   9.051  68.451  1.00  0.00     0.000 HD 
BRANCH  34  36
HETATM   36  C   UNL     1      -9.710   8.165  67.468  1.00  0.00    -0.161 C  
HETATM   37  O   UNL     1      -9.907   7.677  66.358  1.00  0.00    -0.191 OA 
BRANCH  36  38
HETATM   38  N   UNL     1     -10.408   7.767  68.601  1.00  0.00    -0.202 N  
HETATM   39  C   UNL     1     -10.884   6.389  68.661  1.00  0.00    -0.314 C  
HETATM   40  N   UNL     1     -11.289   6.630  71.057  1.00  0.00    -0.297 N  
HETATM   41  C   UNL     1     -10.691   5.785  70.039  1.00  0.00    -0.330 C  
HETATM   42  C   UNL     1     -11.068   8.005  71.023  1.00  0.00    -0.253 C  
HETATM   43  O   UNL     1     -10.780   9.854  69.527  1.00  0.00    -0.216 OA 
HETATM   44  C   UNL     1     -10.725   8.632  69.652  1.00  0.00    -0.200 C  
HETATM   45  O   UNL     1     -11.165   8.734  72.003  1.00  0.00    -0.341 OA 
BRANCH  40  46
HETATM   46  C   UNL     1     -11.918   6.031  72.229  1.00  0.00    -0.204 C  
HETATM   47  C   UNL     1     -10.944   5.425  73.221  1.00  0.00    -0.358 C  
ENDBRANCH  40  46
ENDBRANCH  36  38
ENDBRANCH  34  36
ENDBRANCH  25  34
ENDBRANCH  24  25
ENDBRANCH   6  21
TORSDOF 10
ENDMDL
MODEL       37
REMARK 921   NORMALIZED FREE ENERGY PREDICTED BY IDOCK:   -6.72 KCAL/MOL
REMARK 922        TOTAL FREE ENERGY PREDICTED BY IDOCK:  -12.95 KCAL/MOL
REMARK 923 INTER-LIGAND FREE ENERGY PREDICTED BY IDOCK:  -10.98 KCAL/MOL
REMARK 924 INTRA-LIGAND FREE ENERGY PREDICTED BY IDOCK:   -1.97 KCAL/MOL
REMARK 927      BINDING AFFINITY PREDICTED BY RF-SCORE:    0.00 PKD
ROOT
HETATM    1  C   UNL     1     -11.295  11.276  67.580  1.00  0.00    -0.288 C  
HETATM    2  S   UNL     1      -9.635  10.761  67.081  1.00  0.00    -0.162 SA 
HETATM    3  C   UNL     1      -9.838   9.083  67.718  1.00  0.00    -0.168 C  
HETATM    4  C   UNL     1     -10.431   8.986  69.120  1.00  0.00    -0.239 C  
HETATM    5  CA  UNL     1     -11.128   9.994  69.723  1.00  0.00    -0.274 C  
HETATM    6  CA  UNL     1     -11.485  12.820  67.788  1.00  0.00    -0.326 C  
HETATM    7  O   UNL     1     -12.336  12.834  70.277  1.00  0.00    -0.287 OA 
HETATM    8  N   UNL     1     -11.405  11.135  69.019  1.00  0.00    -0.248 N  
HETATM    9  C   UNL     1     -11.515   9.889  71.188  1.00  0.00    -0.383 C  
HETATM   10  OXT UNL     1     -11.027   9.078  71.961  1.00  0.00    -0.358 OA 
HETATM   11  O   UNL     1     -12.515  10.690  71.606  1.00  0.00    -0.373 OA 
HETATM   12  C   UNL     1     -11.864  12.387  69.257  1.00  0.00    -0.304 C  
ENDROOT
BRANCH   4  13
HETATM   13  C   UNL     1     -10.015   7.669  69.776  1.00  0.00    -0.184 C  
BRANCH  13  14
HETATM   14  S   UNL     1     -11.143   6.274  69.536  1.00  0.00    -0.421 SA 
BRANCH  14  15
HETATM   15  C   UNL     1     -10.246   4.904  70.048  1.00  0.00    -0.243 A  
HETATM   16  N   UNL     1     -10.045   4.475  71.270  1.00  0.00    -0.182 NA 
HETATM   17  C   UNL     1      -9.507   4.115  67.751  1.00  0.00    -0.175 C  
HETATM   18  N   UNL     1      -9.225   3.377  71.153  1.00  0.00    -0.111 NA 
HETATM   19  N   UNL     1      -9.581   4.080  69.184  1.00  0.00    -0.180 NA 
HETATM   20  N   UNL     1      -8.934   3.130  69.882  1.00  0.00    -0.092 NA 
ENDBRANCH  14  15
ENDBRANCH  13  14
ENDBRANCH   4  13
BRANCH   6  21
HETATM   21  N   UNL     1     -10.247  13.631  67.616  1.00  0.00    -0.236 N  
HETATM   22  H   UNL     1      -9.534  13.583  68.344  1.00  0.00     0.000 HD 
HETATM   23  O   UNL     1     -10.743  14.426  65.538  1.00  0.00    -0.303 OA 
HETATM   24  C   UNL     1     -10.012  14.443  66.525  1.00  0.00    -0.283 C  
BRANCH  24  25
HETATM   25  CA  UNL     1      -8.876  15.484  66.723  1.00  0.00    -0.265 C  
BRANCH  25  26
HETATM   26  C   UNL     1      -9.427  16.807  67.234  1.00  0.00    -0.231 A  
HETATM   27  C   UNL     1     -10.140  18.260  69.057  1.00  0.00    -0.283 A  
HETATM   28  C   UNL     1      -9.708  17.845  66.333  1.00  0.00    -0.321 A  
HETATM   29  O   UNL     1     -10.852  20.464  68.632  1.00  0.00    -0.142 OA 
HETATM   30  C   UNL     1      -9.649  17.033  68.607  1.00  0.00    -0.275 A  
HETATM   31  C   UNL     1     -10.193  19.077  66.785  1.00  0.00    -0.465 A  
HETATM   32  H   UNL     1     -10.992  20.599  69.561  1.00  0.00     0.000 HD 
HETATM   33  C   UNL     1     -10.398  19.274  68.145  1.00  0.00    -0.397 A  
ENDBRANCH  25  26
BRANCH  25  34
HETATM   34  N   UNL     1      -7.845  14.995  67.635  1.00  0.00    -0.152 N  
HETATM   35  H   UNL     1      -8.119  14.386  68.406  1.00  0.00     0.000 HD 
BRANCH  34  36
HETATM   36  C   UNL     1      -6.525  15.323  67.495  1.00  0.00    -0.129 C  
HETATM   37  O   UNL     1      -5.665  14.459  67.345  1.00  0.00    -0.342 OA 
BRANCH  36  38
HETATM   38  N   UNL     1      -6.231  16.681  67.519  1.00  0.00    -0.145 N  
HETATM   39  C   UNL     1      -5.739  17.296  66.290  1.00  0.00    -0.131 C  
HETATM   40  N   UNL     1      -6.176  19.511  67.221  1.00  0.00    -0.186 N  
HETATM   41  C   UNL     1      -6.357  18.661  66.057  1.00  0.00    -0.217 C  
HETATM   42  C   UNL     1      -6.436  18.999  68.490  1.00  0.00    -0.243 C  
HETATM   43  O   UNL     1      -6.289  17.004  69.809  1.00  0.00    -0.234 OA 
HETATM   44  C   UNL     1      -6.327  17.467  68.671  1.00  0.00    -0.179 C  
HETATM   45  O   UNL     1      -6.708  19.694  69.462  1.00  0.00    -0.340 OA 
BRANCH  40  46
HETATM   46  C   UNL     1      -5.951  20.942  67.055  1.00  0.00    -0.249 C  
HETATM   47  C   UNL     1      -5.337  21.329  65.723  1.00  0.00    -0.229 C  
ENDBRANCH  40  46
ENDBRANCH  36  38
ENDBRANCH  34  36
ENDBRANCH  25  34
ENDBRANCH  24  25
ENDBRANCH   6  21
TORSDOF 10
ENDMDL
MODEL       38
REMARK 921   NORMALIZED FREE ENERGY PREDICTED BY IDOCK:   -6.71 KCAL/MOL
REMARK 922        TOTAL FREE ENERGY PREDICTED BY IDOCK:  -12.93 KCAL/MOL
REMARK 923 INTER-LIGAND FREE ENERGY PREDICTED BY IDOCK:  -11.37 KCAL/MOL
REMARK 924 INTRA-LIGAND FREE ENERGY PREDICTED BY IDOCK:   -1.56 KCAL/MOL
REMARK 927      BINDING AFFINITY PREDICTED BY RF-SCORE:    0.00 PKD
ROOT
HETATM    1  C   UNL     1      -7.338  11.227  67.725  1.00  0.00    -0.094 C  
HETATM    2  S   UNL     1      -6.758  11.474  69.420  1.00  0.00    -0.097 SA 
HETATM    3  C   UNL     1      -6.668   9.705  69.771  1.00  0.00    -0.062 C  
HETATM    4  C   UNL     1      -7.886   8.893  69.343  1.00  0.00    -0.098 C  
HETATM    5  CA  UNL     1      -8.804   9.324  68.428  1.00  0.00    -0.129 C  
HETATM    6  CA  UNL     1      -8.131  12.431  67.105  1.00  0.00    -0.167 C  
HETATM    7  O   UNL     1     -10.378  11.213  66.481  1.00  0.00    -0.227 OA 
HETATM    8  N   UNL     1      -8.597  10.508  67.772  1.00  0.00    -0.118 N  
HETATM    9  C   UNL     1     -10.087   8.543  68.202  1.00  0.00    -0.200 C  
HETATM   10  OXT UNL     1     -10.499   7.681  68.966  1.00  0.00    -0.212 OA 
HETATM   11  O   UNL     1     -10.739   8.775  67.046  1.00  0.00    -0.262 OA 
HETATM   12  C   UNL     1      -9.289  11.365  66.985  1.00  0.00    -0.174 C  
ENDROOT
BRANCH   4  13
HETATM   13  C   UNL     1      -7.987   7.616  70.178  1.00  0.00    -0.109 C  
BRANCH  13  14
HETATM   14  S   UNL     1      -7.245   7.688  71.828  1.00  0.00    -0.067 SA 
BRANCH  14  15
HETATM   15  C   UNL     1      -8.475   7.114  72.877  1.00  0.00    -0.113 A  
HETATM   16  N   UNL     1      -9.272   7.810  73.652  1.00  0.00    -0.279 NA 
HETATM   17  C   UNL     1      -8.173   4.637  72.417  1.00  0.00    -0.114 C  
HETATM   18  N   UNL     1     -10.040   6.888  74.324  1.00  0.00    -0.317 NA 
HETATM   19  N   UNL     1      -8.752   5.788  73.049  1.00  0.00    -0.124 NA 
HETATM   20  N   UNL     1      -9.727   5.651  73.965  1.00  0.00    -0.160 NA 
ENDBRANCH  14  15
ENDBRANCH  13  14
ENDBRANCH   4  13
BRANCH   6  21
HETATM   21  N   UNL     1      -8.355  13.576  68.032  1.00  0.00    -0.156 N  
HETATM   22  H   UNL     1      -8.188  13.431  69.027  1.00  0.00     0.000 HD 
HETATM   23  O   UNL     1      -8.838  15.120  66.425  1.00  0.00    -0.285 OA 
HETATM   24  C   UNL     1      -8.776  14.823  67.616  1.00  0.00    -0.178 C  
BRANCH  24  25
HETATM   25  CA  UNL     1      -9.321  15.735  68.748  1.00  0.00    -0.218 C  
BRANCH  25  26
HETATM   26  C   UNL     1      -9.369  17.191  68.305  1.00  0.00    -0.265 A  
HETATM   27  C   UNL     1     -10.552  19.088  67.335  1.00  0.00    -0.559 A  
HETATM   28  C   UNL     1      -8.252  18.018  68.495  1.00  0.00    -0.311 A  
HETATM   29  O   UNL     1      -9.519  21.198  67.178  1.00  0.00    -0.681 OA 
HETATM   30  C   UNL     1     -10.524  17.747  67.720  1.00  0.00    -0.402 A  
HETATM   31  C   UNL     1      -8.284  19.365  68.116  1.00  0.00    -0.359 A  
HETATM   32  H   UNL     1     -10.308  21.557  66.788  1.00  0.00     0.000 HD 
HETATM   33  C   UNL     1      -9.438  19.888  67.545  1.00  0.00    -0.359 A  
ENDBRANCH  25  26
BRANCH  25  34
HETATM   34  N   UNL     1     -10.648  15.313  69.194  1.00  0.00    -0.239 N  
HETATM   35  H   UNL     1     -11.057  15.764  70.012  1.00  0.00     0.000 HD 
BRANCH  34  36
HETATM   36  C   UNL     1     -11.361  14.337  68.555  1.00  0.00    -0.282 C  
HETATM   37  O   UNL     1     -11.399  14.273  67.329  1.00  0.00    -0.305 OA 
BRANCH  36  38
HETATM   38  N   UNL     1     -12.015  13.428  69.377  1.00  0.00    -0.321 N  
HETATM   39  C   UNL     1     -11.956  12.015  69.017  1.00  0.00    -0.264 C  
HETATM   40  N   UNL     1     -12.754  11.412  71.245  1.00  0.00    -0.415 N  
HETATM   41  C   UNL     1     -11.751  11.132  70.233  1.00  0.00    -0.341 C  
HETATM   42  C   UNL     1     -13.050  12.733  71.570  1.00  0.00    -0.286 C  
HETATM   43  O   UNL     1     -13.253  14.928  70.630  1.00  0.00    -0.353 OA 
HETATM   44  C   UNL     1     -12.772  13.806  70.490  1.00  0.00    -0.222 C  
HETATM   45  O   UNL     1     -13.544  13.078  72.636  1.00  0.00    -0.573 OA 
BRANCH  40  46
HETATM   46  C   UNL     1     -13.277  10.333  72.075  1.00  0.00    -0.411 C  
HETATM   47  C   UNL     1     -12.511   9.029  71.963  1.00  0.00    -0.460 C  
ENDBRANCH  40  46
ENDBRANCH  36  38
ENDBRANCH  34  36
ENDBRANCH  25  34
ENDBRANCH  24  25
ENDBRANCH   6  21
TORSDOF 10
ENDMDL
MODEL       39
REMARK 921   NORMALIZED FREE ENERGY PREDICTED BY IDOCK:   -6.71 KCAL/MOL
REMARK 922        TOTAL FREE ENERGY PREDICTED BY IDOCK:  -12.92 KCAL/MOL
REMARK 923 INTER-LIGAND FREE ENERGY PREDICTED BY IDOCK:  -10.89 KCAL/MOL
REMARK 924 INTRA-LIGAND FREE ENERGY PREDICTED BY IDOCK:   -2.03 KCAL/MOL
REMARK 927      BINDING AFFINITY PREDICTED BY RF-SCORE:    0.00 PKD
ROOT
HETATM    1  C   UNL     1      -7.998   8.880  68.521  1.00  0.00    -0.104 C  
HETATM    2  S   UNL     1      -7.896   9.525  70.208  1.00  0.00    -0.176 SA 
HETATM    3  C   UNL     1      -7.659   7.891  70.941  1.00  0.00    -0.078 C  
HETATM    4  C   UNL     1      -8.612   6.809  70.444  1.00  0.00    -0.146 C  
HETATM    5  CA  UNL     1      -9.324   6.898  69.281  1.00  0.00    -0.144 C  
HETATM    6  CA  UNL     1      -8.767   9.792  67.500  1.00  0.00    -0.125 C  
HETATM    7  O   UNL     1     -10.604   8.097  66.681  1.00  0.00    -0.272 OA 
HETATM    8  N   UNL     1      -9.121   7.965  68.448  1.00  0.00    -0.136 N  
HETATM    9  C   UNL     1     -10.394   5.870  68.956  1.00  0.00    -0.233 C  
HETATM   10  OXT UNL     1     -10.863   5.097  69.779  1.00  0.00    -0.141 OA 
HETATM   11  O   UNL     1     -10.763   5.772  67.664  1.00  0.00    -0.251 OA 
HETATM   12  C   UNL     1      -9.705   8.530  67.364  1.00  0.00    -0.170 C  
ENDROOT
BRANCH   4  13
HETATM   13  C   UNL     1      -8.745   5.703  71.491  1.00  0.00    -0.132 C  
BRANCH  13  14
HETATM   14  S   UNL     1      -7.496   4.395  71.424  1.00  0.00    -0.062 SA 
BRANCH  14  15
HETATM   15  C   UNL     1      -7.941   3.445  70.067  1.00  0.00    -0.046 A  
HETATM   16  N   UNL     1      -7.555   3.577  68.821  1.00  0.00    -0.053 NA 
HETATM   17  C   UNL     1      -9.504   1.853  71.276  1.00  0.00    -0.135 C  
HETATM   18  N   UNL     1      -8.227   2.608  68.115  1.00  0.00    -0.061 NA 
HETATM   19  N   UNL     1      -8.822   2.404  70.140  1.00  0.00    -0.073 NA 
HETATM   20  N   UNL     1      -9.006   1.888  68.911  1.00  0.00    -0.091 NA 
ENDBRANCH  14  15
ENDBRANCH  13  14
ENDBRANCH   4  13
BRANCH   6  21
HETATM   21  N   UNL     1      -9.366  11.024  68.089  1.00  0.00    -0.166 N  
HETATM   22  H   UNL     1      -8.983  11.373  68.967  1.00  0.00     0.000 HD 
HETATM   23  O   UNL     1     -10.810  11.453  66.378  1.00  0.00    -0.269 OA 
HETATM   24  C   UNL     1     -10.409  11.716  67.510  1.00  0.00    -0.197 C  
BRANCH  24  25
HETATM   25  CA  UNL     1     -11.133  12.711  68.457  1.00  0.00    -0.266 C  
BRANCH  25  26
HETATM   26  C   UNL     1     -11.844  11.977  69.585  1.00  0.00    -0.401 A  
HETATM   27  C   UNL     1     -12.485   9.918  70.720  1.00  0.00    -0.344 A  
HETATM   28  C   UNL     1     -12.506  12.704  70.586  1.00  0.00    -0.323 A  
HETATM   29  O   UNL     1     -13.717   9.983  72.726  1.00  0.00    -0.560 OA 
HETATM   30  C   UNL     1     -11.841  10.572  69.668  1.00  0.00    -0.306 A  
HETATM   31  C   UNL     1     -13.145  12.050  71.644  1.00  0.00    -0.422 A  
HETATM   32  H   UNL     1     -13.701   9.034  72.767  1.00  0.00     0.000 HD 
HETATM   33  C   UNL     1     -13.123  10.661  71.704  1.00  0.00    -0.450 A  
ENDBRANCH  25  26
BRANCH  25  34
HETATM   34  N   UNL     1     -10.211  13.697  69.016  1.00  0.00    -0.431 N  
HETATM   35  H   UNL     1     -10.209  13.851  70.025  1.00  0.00     0.000 HD 
BRANCH  34  36
HETATM   36  C   UNL     1      -9.350  14.422  68.239  1.00  0.00    -0.206 C  
HETATM   37  O   UNL     1      -8.204  14.034  68.026  1.00  0.00    -0.134 OA 
BRANCH  36  38
HETATM   38  N   UNL     1      -9.859  15.599  67.705  1.00  0.00    -0.226 N  
HETATM   39  C   UNL     1      -9.800  16.803  68.526  1.00  0.00    -0.257 C  
HETATM   40  N   UNL     1     -10.275  18.170  66.559  1.00  0.00    -0.373 N  
HETATM   41  C   UNL     1      -9.406  18.021  67.712  1.00  0.00    -0.263 C  
HETATM   42  C   UNL     1     -10.570  17.058  65.775  1.00  0.00    -0.211 C  
HETATM   43  O   UNL     1     -10.971  14.698  65.887  1.00  0.00    -0.316 OA 
HETATM   44  C   UNL     1     -10.474  15.670  66.452  1.00  0.00    -0.305 C  
HETATM   45  O   UNL     1     -10.931  17.124  64.606  1.00  0.00    -1.005 OA 
BRANCH  40  46
HETATM   46  C   UNL     1     -10.647  19.500  66.089  1.00  0.00    -0.487 C  
HETATM   47  C   UNL     1      -9.860  20.630  66.724  1.00  0.00    -0.342 C  
ENDBRANCH  40  46
ENDBRANCH  36  38
ENDBRANCH  34  36
ENDBRANCH  25  34
ENDBRANCH  24  25
ENDBRANCH   6  21
TORSDOF 10
ENDMDL
MODEL       40
REMARK 921   NORMALIZED FREE ENERGY PREDICTED BY IDOCK:   -6.70 KCAL/MOL
REMARK 922        TOTAL FREE ENERGY PREDICTED BY IDOCK:  -12.91 KCAL/MOL
REMARK 923 INTER-LIGAND FREE ENERGY PREDICTED BY IDOCK:  -11.00 KCAL/MOL
REMARK 924 INTRA-LIGAND FREE ENERGY PREDICTED BY IDOCK:   -1.91 KCAL/MOL
REMARK 927      BINDING AFFINITY PREDICTED BY RF-SCORE:    0.00 PKD
ROOT
HETATM    1  C   UNL     1     -11.957  14.649  68.331  1.00  0.00    -0.254 C  
HETATM    2  S   UNL     1     -10.724  14.562  69.651  1.00  0.00    -0.031 SA 
HETATM    3  C   UNL     1     -10.433  16.345  69.655  1.00  0.00    -0.278 C  
HETATM    4  C   UNL     1     -10.242  16.977  68.280  1.00  0.00    -0.326 C  
HETATM    5  CA  UNL     1     -10.636  16.389  67.111  1.00  0.00    -0.276 C  
HETATM    6  CA  UNL     1     -12.156  13.326  67.510  1.00  0.00    -0.264 C  
HETATM    7  O   UNL     1     -11.659  14.223  65.088  1.00  0.00    -0.329 OA 
HETATM    8  N   UNL     1     -11.326  15.208  67.151  1.00  0.00    -0.323 N  
HETATM    9  C   UNL     1     -10.235  16.993  65.776  1.00  0.00    -0.245 C  
HETATM   10  OXT UNL     1      -9.357  17.835  65.650  1.00  0.00    -0.406 OA 
HETATM   11  O   UNL     1     -10.963  16.624  64.704  1.00  0.00    -0.793 OA 
HETATM   12  C   UNL     1     -11.716  14.233  66.296  1.00  0.00    -0.393 C  
ENDROOT
BRANCH   4  13
HETATM   13  C   UNL     1      -9.440  18.272  68.404  1.00  0.00    -0.323 C  
BRANCH  13  14
HETATM   14  S   UNL     1      -7.874  18.151  69.304  1.00  0.00     0.277 SA 
BRANCH  14  15
HETATM   15  C   UNL     1      -6.848  17.252  68.263  1.00  0.00    -0.184 A  
HETATM   16  N   UNL     1      -6.308  17.631  67.130  1.00  0.00    -0.146 NA 
HETATM   17  C   UNL     1      -6.802  15.106  69.617  1.00  0.00    -0.188 C  
HETATM   18  N   UNL     1      -5.617  16.538  66.661  1.00  0.00    -0.320 NA 
HETATM   19  N   UNL     1      -6.487  15.957  68.505  1.00  0.00    -0.109 NA 
HETATM   20  N   UNL     1      -5.723  15.511  67.493  1.00  0.00    -0.313 NA 
ENDBRANCH  14  15
ENDBRANCH  13  14
ENDBRANCH   4  13
BRANCH   6  21
HETATM   21  N   UNL     1     -11.243  12.210  67.891  1.00  0.00    -0.252 N  
HETATM   22  H   UNL     1     -10.397  12.071  67.340  1.00  0.00     0.000 HD 
HETATM   23  O   UNL     1     -12.389  11.563  69.753  1.00  0.00    -0.240 OA 
HETATM   24  C   UNL     1     -11.483  11.358  68.948  1.00  0.00    -0.298 C  
BRANCH  24  25
HETATM   25  CA  UNL     1     -10.642  10.051  68.932  1.00  0.00    -0.218 C  
BRANCH  25  26
HETATM   26  C   UNL     1     -10.696   9.347  70.281  1.00  0.00    -0.299 A  
HETATM   27  C   UNL     1     -11.899   8.082  71.982  1.00  0.00    -0.376 A  
HETATM   28  C   UNL     1      -9.545   9.278  71.081  1.00  0.00    -0.305 A  
HETATM   29  O   UNL     1     -10.806   7.347  73.933  1.00  0.00    -0.540 OA 
HETATM   30  C   UNL     1     -11.876   8.737  70.749  1.00  0.00    -0.209 A  
HETATM   31  C   UNL     1      -9.567   8.615  72.313  1.00  0.00    -0.348 A  
HETATM   32  H   UNL     1     -11.610   6.938  74.231  1.00  0.00     0.000 HD 
HETATM   33  C   UNL     1     -10.744   8.018  72.748  1.00  0.00    -0.362 A  
ENDBRANCH  25  26
BRANCH  25  34
HETATM   34  N   UNL     1     -11.083   9.135  67.882  1.00  0.00    -0.489 N  
HETATM   35  H   UNL     1     -12.059   8.838  67.867  1.00  0.00     0.000 HD 
BRANCH  34  36
HETATM   36  C   UNL     1     -10.237   8.662  66.918  1.00  0.00    -0.296 C  
HETATM   37  O   UNL     1     -10.121   9.232  65.836  1.00  0.00    -0.293 OA 
BRANCH  36  38
HETATM   38  N   UNL     1      -9.519   7.519  67.248  1.00  0.00    -0.144 N  
HETATM   39  C   UNL     1      -8.130   7.435  66.811  1.00  0.00    -0.123 C  
HETATM   40  N   UNL     1      -7.757   5.574  68.348  1.00  0.00    -0.084 N  
HETATM   41  C   UNL     1      -7.236   6.849  67.887  1.00  0.00    -0.095 C  
HETATM   42  C   UNL     1      -9.114   5.453  68.636  1.00  0.00    -0.115 C  
HETATM   43  O   UNL     1     -11.284   6.194  67.941  1.00  0.00    -0.304 OA 
HETATM   44  C   UNL     1     -10.078   6.430  67.922  1.00  0.00    -0.148 C  
HETATM   45  O   UNL     1      -9.578   4.602  69.386  1.00  0.00    -0.153 OA 
BRANCH  40  46
HETATM   46  C   UNL     1      -6.842   4.504  68.729  1.00  0.00    -0.051 C  
HETATM   47  C   UNL     1      -6.654   3.436  67.669  1.00  0.00    -0.038 C  
ENDBRANCH  40  46
ENDBRANCH  36  38
ENDBRANCH  34  36
ENDBRANCH  25  34
ENDBRANCH  24  25
ENDBRANCH   6  21
TORSDOF 10
ENDMDL
MODEL       41
REMARK 921   NORMALIZED FREE ENERGY PREDICTED BY IDOCK:   -6.67 KCAL/MOL
REMARK 922        TOTAL FREE ENERGY PREDICTED BY IDOCK:  -12.86 KCAL/MOL
REMARK 923 INTER-LIGAND FREE ENERGY PREDICTED BY IDOCK:  -11.22 KCAL/MOL
REMARK 924 INTRA-LIGAND FREE ENERGY PREDICTED BY IDOCK:   -1.64 KCAL/MOL
REMARK 927      BINDING AFFINITY PREDICTED BY RF-SCORE:    0.00 PKD
ROOT
HETATM    1  C   UNL     1      -6.077  10.735  68.036  1.00  0.00    -0.050 C  
HETATM    2  S   UNL     1      -6.930  10.704  69.630  1.00  0.00    -0.136 SA 
HETATM    3  C   UNL     1      -6.566   8.959  69.921  1.00  0.00    -0.042 C  
HETATM    4  C   UNL     1      -6.827   8.032  68.738  1.00  0.00    -0.062 C  
HETATM    5  CA  UNL     1      -6.940   8.461  67.446  1.00  0.00    -0.071 C  
HETATM    6  CA  UNL     1      -6.547  11.859  67.045  1.00  0.00    -0.128 C  
HETATM    7  O   UNL     1      -7.229  10.378  64.980  1.00  0.00    -0.129 OA 
HETATM    8  N   UNL     1      -6.719   9.780  67.153  1.00  0.00    -0.074 N  
HETATM    9  C   UNL     1      -7.392   7.504  66.357  1.00  0.00    -0.083 C  
HETATM   10  OXT UNL     1      -7.922   6.425  66.580  1.00  0.00    -0.106 OA 
HETATM   11  O   UNL     1      -7.103   7.854  65.088  1.00  0.00    -0.058 OA 
HETATM   12  C   UNL     1      -6.901  10.632  66.117  1.00  0.00    -0.135 C  
ENDROOT
BRANCH   4  13
HETATM   13  C   UNL     1      -7.072   6.606  69.231  1.00  0.00    -0.084 C  
BRANCH  13  14
HETATM   14  S   UNL     1      -7.919   6.453  70.824  1.00  0.00    -0.113 SA 
BRANCH  14  15
HETATM   15  C   UNL     1      -9.583   6.357  70.418  1.00  0.00    -0.165 A  
HETATM   16  N   UNL     1     -10.127   6.306  69.226  1.00  0.00    -0.166 NA 
HETATM   17  C   UNL     1     -10.502   6.376  72.783  1.00  0.00    -0.214 C  
HETATM   18  N   UNL     1     -11.486   6.288  69.434  1.00  0.00    -0.394 NA 
HETATM   19  N   UNL     1     -10.581   6.353  71.350  1.00  0.00    -0.224 NA 
HETATM   20  N   UNL     1     -11.773   6.319  70.728  1.00  0.00    -0.297 NA 
ENDBRANCH  14  15
ENDBRANCH  13  14
ENDBRANCH   4  13
BRANCH   6  21
HETATM   21  N   UNL     1      -7.682  12.690  67.536  1.00  0.00    -0.150 N  
HETATM   22  H   UNL     1      -8.503  12.213  67.909  1.00  0.00     0.000 HD 
HETATM   23  O   UNL     1      -6.673  14.712  67.232  1.00  0.00    -0.280 OA 
HETATM   24  C   UNL     1      -7.683  14.069  67.512  1.00  0.00    -0.182 C  
BRANCH  24  25
HETATM   25  CA  UNL     1      -9.082  14.721  67.690  1.00  0.00    -0.185 C  
BRANCH  25  26
HETATM   26  C   UNL     1      -9.952  14.498  66.460  1.00  0.00    -0.290 A  
HETATM   27  C   UNL     1     -11.169  13.025  64.947  1.00  0.00    -0.329 A  
HETATM   28  C   UNL     1     -10.384  15.594  65.700  1.00  0.00    -0.408 A  
HETATM   29  O   UNL     1     -12.405  13.905  63.147  1.00  0.00    -1.122 OA 
HETATM   30  C   UNL     1     -10.358  13.207  66.068  1.00  0.00    -0.292 A  
HETATM   31  C   UNL     1     -11.204  15.412  64.580  1.00  0.00    -0.374 A  
HETATM   32  H   UNL     1     -12.672  13.028  62.900  1.00  0.00     0.000 HD 
HETATM   33  C   UNL     1     -11.594  14.128  64.219  1.00  0.00    -0.309 A  
ENDBRANCH  25  26
BRANCH  25  34
HETATM   34  N   UNL     1      -9.769  14.217  68.876  1.00  0.00    -0.372 N  
HETATM   35  H   UNL     1      -9.310  13.505  69.445  1.00  0.00     0.000 HD 
BRANCH  34  36
HETATM   36  C   UNL     1     -11.005  14.664  69.255  1.00  0.00    -0.260 C  
HETATM   37  O   UNL     1     -11.350  15.826  69.060  1.00  0.00    -0.305 OA 
BRANCH  36  38
HETATM   38  N   UNL     1     -11.834  13.722  69.851  1.00  0.00    -0.316 N  
HETATM   39  C   UNL     1     -11.799  12.357  69.336  1.00  0.00    -0.304 C  
HETATM   40  N   UNL     1     -12.977  11.573  71.326  1.00  0.00    -0.358 N  
HETATM   41  C   UNL     1     -11.842  11.332  70.453  1.00  0.00    -0.350 C  
HETATM   42  C   UNL     1     -13.245  12.869  71.760  1.00  0.00    -0.384 C  
HETATM   43  O   UNL     1     -13.169  15.163  71.072  1.00  0.00    -0.408 OA 
HETATM   44  C   UNL     1     -12.736  14.030  70.873  1.00  0.00    -0.350 C  
HETATM   45  O   UNL     1     -13.884  13.131  72.772  1.00  0.00    -0.648 OA 
BRANCH  40  46
HETATM   46  C   UNL     1     -13.687  10.451  71.930  1.00  0.00    -0.031 C  
HETATM   47  C   UNL     1     -12.824   9.232  72.192  1.00  0.00    -0.485 C  
ENDBRANCH  40  46
ENDBRANCH  36  38
ENDBRANCH  34  36
ENDBRANCH  25  34
ENDBRANCH  24  25
ENDBRANCH   6  21
TORSDOF 10
ENDMDL
MODEL       42
REMARK 921   NORMALIZED FREE ENERGY PREDICTED BY IDOCK:   -6.63 KCAL/MOL
REMARK 922        TOTAL FREE ENERGY PREDICTED BY IDOCK:  -12.80 KCAL/MOL
REMARK 923 INTER-LIGAND FREE ENERGY PREDICTED BY IDOCK:  -10.68 KCAL/MOL
REMARK 924 INTRA-LIGAND FREE ENERGY PREDICTED BY IDOCK:   -2.12 KCAL/MOL
REMARK 927      BINDING AFFINITY PREDICTED BY RF-SCORE:    0.00 PKD
ROOT
HETATM    1  C   UNL     1     -11.354  13.242  67.616  1.00  0.00    -0.296 C  
HETATM    2  S   UNL     1      -9.601  13.376  68.041  1.00  0.00    -0.222 SA 
HETATM    3  C   UNL     1      -9.589  15.178  67.915  1.00  0.00    -0.203 C  
HETATM    4  C   UNL     1     -10.263  15.748  66.671  1.00  0.00    -0.290 C  
HETATM    5  CA  UNL     1     -11.151  15.052  65.900  1.00  0.00    -0.334 C  
HETATM    6  CA  UNL     1     -11.796  11.860  67.018  1.00  0.00    -0.113 C  
HETATM    7  O   UNL     1     -12.822  12.668  64.734  1.00  0.00    -0.730 OA 
HETATM    8  N   UNL     1     -11.548  13.803  66.293  1.00  0.00    -0.336 N  
HETATM    9  C   UNL     1     -11.625  15.621  64.574  1.00  0.00    -0.262 C  
HETATM   10  OXT UNL     1     -11.077  16.551  64.000  1.00  0.00    -0.829 OA 
HETATM   11  O   UNL     1     -12.765  15.108  64.071  1.00  0.00    -0.746 OA 
HETATM   12  C   UNL     1     -12.211  12.741  65.776  1.00  0.00    -0.408 C  
ENDROOT
BRANCH   4  13
HETATM   13  C   UNL     1      -9.699  17.133  66.355  1.00  0.00    -0.292 C  
BRANCH  13  14
HETATM   14  S   UNL     1      -7.895  17.251  66.260  1.00  0.00    -0.286 SA 
BRANCH  14  15
HETATM   15  C   UNL     1      -7.492  18.540  67.317  1.00  0.00    -0.218 A  
HETATM   16  N   UNL     1      -7.482  18.543  68.628  1.00  0.00    -0.295 NA 
HETATM   17  C   UNL     1      -6.993  20.281  65.540  1.00  0.00    -0.271 C  
HETATM   18  N   UNL     1      -7.140  19.822  68.999  1.00  0.00    -0.343 NA 
HETATM   19  N   UNL     1      -7.145  19.786  66.879  1.00  0.00    -0.209 NA 
HETATM   20  N   UNL     1      -6.935  20.589  67.936  1.00  0.00    -0.305 NA 
ENDBRANCH  14  15
ENDBRANCH  13  14
ENDBRANCH   4  13
BRANCH   6  21
HETATM   21  N   UNL     1     -10.688  10.883  66.817  1.00  0.00    -0.264 N  
HETATM   22  H   UNL     1     -10.135  10.949  65.963  1.00  0.00     0.000 HD 
HETATM   23  O   UNL     1     -10.879   9.855  68.843  1.00  0.00    -0.218 OA 
HETATM   24  C   UNL     1     -10.370   9.894  67.725  1.00  0.00    -0.221 C  
BRANCH  24  25
HETATM   25  CA  UNL     1      -9.471   8.759  67.162  1.00  0.00    -0.162 C  
BRANCH  25  26
HETATM   26  C   UNL     1      -8.451   9.307  66.173  1.00  0.00    -0.135 A  
HETATM   27  C   UNL     1      -6.395  10.519  65.679  1.00  0.00    -0.126 A  
HETATM   28  C   UNL     1      -8.609   9.067  64.800  1.00  0.00    -0.201 A  
HETATM   29  O   UNL     1      -5.620  10.723  63.465  1.00  0.00    -0.311 OA 
HETATM   30  C   UNL     1      -7.327  10.039  66.601  1.00  0.00    -0.103 A  
HETATM   31  C   UNL     1      -7.671   9.542  63.877  1.00  0.00    -0.123 A  
HETATM   32  H   UNL     1      -4.867  11.212  63.773  1.00  0.00     0.000 HD 
HETATM   33  C   UNL     1      -6.568  10.258  64.327  1.00  0.00    -0.071 A  
ENDBRANCH  25  26
BRANCH  25  34
HETATM   34  N   UNL     1      -8.782   8.034  68.228  1.00  0.00    -0.130 N  
HETATM   35  H   UNL     1      -8.041   8.507  68.745  1.00  0.00     0.000 HD 
BRANCH  34  36
HETATM   36  C   UNL     1      -9.093   6.744  68.558  1.00  0.00    -0.129 C  
HETATM   37  O   UNL     1      -9.440   6.444  69.698  1.00  0.00    -0.147 OA 
BRANCH  36  38
HETATM   38  N   UNL     1      -9.005   5.816  67.528  1.00  0.00    -0.109 N  
HETATM   39  C   UNL     1     -10.126   4.901  67.336  1.00  0.00    -0.150 C  
HETATM   40  N   UNL     1      -9.261   4.302  65.132  1.00  0.00    -0.143 N  
HETATM   41  C   UNL     1     -10.447   4.705  65.867  1.00  0.00    -0.268 C  
HETATM   42  C   UNL     1      -8.061   4.975  65.347  1.00  0.00    -0.116 C  
HETATM   43  O   UNL     1      -6.756   6.053  67.043  1.00  0.00    -0.054 OA 
HETATM   44  C   UNL     1      -7.879   5.679  66.712  1.00  0.00    -0.101 C  
HETATM   45  O   UNL     1      -7.143   5.006  64.536  1.00  0.00    -0.052 OA 
BRANCH  40  46
HETATM   46  C   UNL     1      -9.372   3.366  64.019  1.00  0.00    -0.129 C  
HETATM   47  C   UNL     1     -10.666   3.475  63.236  1.00  0.00    -0.226 C  
ENDBRANCH  40  46
ENDBRANCH  36  38
ENDBRANCH  34  36
ENDBRANCH  25  34
ENDBRANCH  24  25
ENDBRANCH   6  21
TORSDOF 10
ENDMDL
MODEL       43
REMARK 921   NORMALIZED FREE ENERGY PREDICTED BY IDOCK:   -6.61 KCAL/MOL
REMARK 922        TOTAL FREE ENERGY PREDICTED BY IDOCK:  -12.78 KCAL/MOL
REMARK 923 INTER-LIGAND FREE ENERGY PREDICTED BY IDOCK:  -10.76 KCAL/MOL
REMARK 924 INTRA-LIGAND FREE ENERGY PREDICTED BY IDOCK:   -2.01 KCAL/MOL
REMARK 927      BINDING AFFINITY PREDICTED BY RF-SCORE:    0.00 PKD
ROOT
HETATM    1  C   UNL     1      -9.305  11.443  66.330  1.00  0.00    -0.212 C  
HETATM    2  S   UNL     1     -11.103  11.356  66.153  1.00  0.00    -0.130 SA 
HETATM    3  C   UNL     1     -11.256  13.092  65.676  1.00  0.00    -0.283 C  
HETATM    4  C   UNL     1     -10.480  14.077  66.545  1.00  0.00    -0.281 C  
HETATM    5  CA  UNL     1      -9.443  13.719  67.360  1.00  0.00    -0.224 C  
HETATM    6  CA  UNL     1      -8.672  10.364  67.279  1.00  0.00    -0.125 C  
HETATM    7  O   UNL     1      -7.434  11.940  68.983  1.00  0.00    -0.093 OA 
HETATM    8  N   UNL     1      -8.992  12.427  67.348  1.00  0.00    -0.177 N  
HETATM    9  C   UNL     1      -8.853  14.723  68.335  1.00  0.00    -0.181 C  
HETATM   10  OXT UNL     1      -9.402  15.771  68.644  1.00  0.00    -0.190 OA 
HETATM   11  O   UNL     1      -7.618  14.456  68.802  1.00  0.00    -0.123 OA 
HETATM   12  C   UNL     1      -8.178  11.631  68.081  1.00  0.00    -0.151 C  
ENDROOT
BRANCH   4  13
HETATM   13  C   UNL     1     -11.117  15.464  66.465  1.00  0.00    -0.227 C  
BRANCH  13  14
HETATM   14  S   UNL     1     -10.550  16.519  65.107  1.00  0.00    -0.080 SA 
BRANCH  14  15
HETATM   15  C   UNL     1     -10.011  17.955  65.876  1.00  0.00    -0.111 A  
HETATM   16  N   UNL     1     -10.711  19.015  66.201  1.00  0.00    -0.385 NA 
HETATM   17  C   UNL     1      -7.566  17.312  66.098  1.00  0.00    -0.282 C  
HETATM   18  N   UNL     1      -9.815  19.904  66.745  1.00  0.00    -0.395 NA 
HETATM   19  N   UNL     1      -8.708  18.172  66.226  1.00  0.00    -0.450 NA 
HETATM   20  N   UNL     1      -8.588  19.399  66.761  1.00  0.00    -0.296 NA 
ENDBRANCH  14  15
ENDBRANCH  13  14
ENDBRANCH   4  13
BRANCH   6  21
HETATM   21  N   UNL     1      -9.655   9.472  67.956  1.00  0.00    -0.136 N  
HETATM   22  H   UNL     1     -10.579   9.368  67.537  1.00  0.00     0.000 HD 
HETATM   23  O   UNL     1      -8.248   8.725  69.586  1.00  0.00    -0.107 OA 
HETATM   24  C   UNL     1      -9.382   8.779  69.117  1.00  0.00    -0.149 C  
BRANCH  24  25
HETATM   25  CA  UNL     1     -10.635   8.238  69.860  1.00  0.00    -0.232 C  
BRANCH  25  26
HETATM   26  C   UNL     1     -10.363   6.868  70.467  1.00  0.00    -0.224 A  
HETATM   27  C   UNL     1     -10.065   5.411  72.398  1.00  0.00    -0.225 A  
HETATM   28  C   UNL     1     -10.191   5.754  69.632  1.00  0.00    -0.299 A  
HETATM   29  O   UNL     1      -9.708   3.100  72.119  1.00  0.00    -0.139 OA 
HETATM   30  C   UNL     1     -10.298   6.678  71.861  1.00  0.00    -0.219 A  
HETATM   31  C   UNL     1      -9.964   4.482  70.171  1.00  0.00    -0.278 A  
HETATM   32  H   UNL     1      -9.672   2.991  73.061  1.00  0.00     0.000 HD 
HETATM   33  C   UNL     1      -9.910   4.323  71.551  1.00  0.00    -0.189 A  
ENDBRANCH  25  26
BRANCH  25  34
HETATM   34  N   UNL     1     -11.087   9.156  70.902  1.00  0.00    -0.267 N  
HETATM   35  H   UNL     1     -10.392   9.586  71.513  1.00  0.00     0.000 HD 
BRANCH  34  36
HETATM   36  C   UNL     1     -12.406   9.462  71.089  1.00  0.00    -0.308 C  
HETATM   37  O   UNL     1     -13.234   8.590  71.338  1.00  0.00    -0.299 OA 
BRANCH  36  38
HETATM   38  N   UNL     1     -12.736  10.809  70.996  1.00  0.00    -0.390 N  
HETATM   39  C   UNL     1     -13.517  11.398  72.079  1.00  0.00    -0.183 C  
HETATM   40  N   UNL     1     -12.961  13.633  71.266  1.00  0.00    -0.339 N  
HETATM   41  C   UNL     1     -13.019  12.783  72.443  1.00  0.00    -0.061 C  
HETATM   42  C   UNL     1     -12.399  13.139  70.092  1.00  0.00    -0.213 C  
HETATM   43  O   UNL     1     -12.169  11.148  68.779  1.00  0.00    -0.555 OA 
HETATM   44  C   UNL     1     -12.409  11.604  69.894  1.00  0.00    -0.159 C  
HETATM   45  O   UNL     1     -11.939  13.849  69.206  1.00  0.00    -0.321 OA 
BRANCH  40  46
HETATM   46  C   UNL     1     -13.270  15.054  71.374  1.00  0.00    -0.421 C  
HETATM   47  C   UNL     1     -13.555  15.528  72.786  1.00  0.00    -0.653 C  
ENDBRANCH  40  46
ENDBRANCH  36  38
ENDBRANCH  34  36
ENDBRANCH  25  34
ENDBRANCH  24  25
ENDBRANCH   6  21
TORSDOF 10
ENDMDL
MODEL       44
REMARK 921   NORMALIZED FREE ENERGY PREDICTED BY IDOCK:   -6.61 KCAL/MOL
REMARK 922        TOTAL FREE ENERGY PREDICTED BY IDOCK:  -12.78 KCAL/MOL
REMARK 923 INTER-LIGAND FREE ENERGY PREDICTED BY IDOCK:   -9.94 KCAL/MOL
REMARK 924 INTRA-LIGAND FREE ENERGY PREDICTED BY IDOCK:   -2.83 KCAL/MOL
REMARK 927      BINDING AFFINITY PREDICTED BY RF-SCORE:    0.00 PKD
ROOT
HETATM    1  C   UNL     1      -7.803   8.298  67.082  1.00  0.00    -0.097 C  
HETATM    2  S   UNL     1      -6.858   9.042  68.433  1.00  0.00    -0.065 SA 
HETATM    3  C   UNL     1      -6.503   7.452  69.214  1.00  0.00    -0.036 C  
HETATM    4  C   UNL     1      -7.699   6.516  69.357  1.00  0.00    -0.101 C  
HETATM    5  CA  UNL     1      -8.851   6.638  68.633  1.00  0.00    -0.122 C  
HETATM    6  CA  UNL     1      -8.842   9.249  66.388  1.00  0.00    -0.146 C  
HETATM    7  O   UNL     1     -11.036   7.837  66.729  1.00  0.00    -0.145 OA 
HETATM    8  N   UNL     1      -8.932   7.587  67.650  1.00  0.00    -0.127 N  
HETATM    9  C   UNL     1     -10.063   5.787  68.972  1.00  0.00    -0.191 C  
HETATM   10  OXT UNL     1     -10.187   5.171  70.020  1.00  0.00    -0.251 OA 
HETATM   11  O   UNL     1     -10.997   5.656  68.008  1.00  0.00    -0.172 OA 
HETATM   12  C   UNL     1      -9.878   8.160  66.869  1.00  0.00    -0.247 C  
ENDROOT
BRANCH   4  13
HETATM   13  C   UNL     1      -7.463   5.532  70.503  1.00  0.00    -0.080 C  
BRANCH  13  14
HETATM   14  S   UNL     1      -7.188   6.268  72.134  1.00  0.00    -0.092 SA 
BRANCH  14  15
HETATM   15  C   UNL     1      -8.757   6.405  72.814  1.00  0.00    -0.125 A  
HETATM   16  N   UNL     1      -9.396   5.539  73.563  1.00  0.00    -0.137 NA 
HETATM   17  C   UNL     1      -9.323   8.696  71.881  1.00  0.00    -0.287 C  
HETATM   18  N   UNL     1     -10.630   6.094  73.808  1.00  0.00    -0.271 NA 
HETATM   19  N   UNL     1      -9.569   7.484  72.610  1.00  0.00    -0.158 NA 
HETATM   20  N   UNL     1     -10.746   7.280  73.227  1.00  0.00    -0.368 NA 
ENDBRANCH  14  15
ENDBRANCH  13  14
ENDBRANCH   4  13
BRANCH   6  21
HETATM   21  N   UNL     1      -8.951  10.606  66.995  1.00  0.00    -0.137 N  
HETATM   22  H   UNL     1      -8.194  10.926  67.598  1.00  0.00     0.000 HD 
HETATM   23  O   UNL     1     -10.884  11.205  65.944  1.00  0.00    -0.240 OA 
HETATM   24  C   UNL     1     -10.020  11.452  66.783  1.00  0.00    -0.208 C  
BRANCH  24  25
HETATM   25  CA  UNL     1     -10.131  12.624  67.796  1.00  0.00    -0.220 C  
BRANCH  25  26
HETATM   26  C   UNL     1     -11.035  12.255  68.965  1.00  0.00    -0.250 A  
HETATM   27  C   UNL     1     -12.009  10.606  70.471  1.00  0.00    -0.446 A  
HETATM   28  C   UNL     1     -11.724  13.260  69.661  1.00  0.00    -0.369 A  
HETATM   29  O   UNL     1     -13.441  11.269  72.219  1.00  0.00    -0.604 OA 
HETATM   30  C   UNL     1     -11.188  10.921  69.387  1.00  0.00    -0.335 A  
HETATM   31  C   UNL     1     -12.541  12.945  70.752  1.00  0.00    -0.314 A  
HETATM   32  H   UNL     1     -13.529  10.364  72.492  1.00  0.00     0.000 HD 
HETATM   33  C   UNL     1     -12.670  11.619  71.151  1.00  0.00    -0.325 A  
ENDBRANCH  25  26
BRANCH  25  34
HETATM   34  N   UNL     1      -8.821  13.034  68.298  1.00  0.00    -0.232 N  
HETATM   35  H   UNL     1      -8.468  12.606  69.155  1.00  0.00     0.000 HD 
BRANCH  34  36
HETATM   36  C   UNL     1      -8.051  13.968  67.664  1.00  0.00    -0.174 C  
HETATM   37  O   UNL     1      -6.959  13.674  67.183  1.00  0.00    -0.105 OA 
BRANCH  36  38
HETATM   38  N   UNL     1      -8.588  15.247  67.589  1.00  0.00    -0.163 N  
HETATM   39  C   UNL     1      -8.615  15.902  66.285  1.00  0.00    -0.313 C  
HETATM   40  N   UNL     1     -10.183  17.563  67.148  1.00  0.00    -0.314 N  
HETATM   41  C   UNL     1      -9.916  16.645  66.055  1.00  0.00    -0.324 C  
HETATM   42  C   UNL     1     -10.023  17.128  68.462  1.00  0.00    -0.309 C  
HETATM   43  O   UNL     1      -8.677  15.715  69.853  1.00  0.00    -0.102 OA 
HETATM   44  C   UNL     1      -9.044  15.955  68.704  1.00  0.00    -0.206 C  
HETATM   45  O   UNL     1     -10.583  17.643  69.422  1.00  0.00    -0.171 OA 
BRANCH  40  46
HETATM   46  C   UNL     1     -10.830  18.844  66.888  1.00  0.00    -0.267 C  
HETATM   47  C   UNL     1      -9.937  19.872  66.221  1.00  0.00    -0.596 C  
ENDBRANCH  40  46
ENDBRANCH  36  38
ENDBRANCH  34  36
ENDBRANCH  25  34
ENDBRANCH  24  25
ENDBRANCH   6  21
TORSDOF 10
ENDMDL
MODEL       45
REMARK 921   NORMALIZED FREE ENERGY PREDICTED BY IDOCK:   -6.61 KCAL/MOL
REMARK 922        TOTAL FREE ENERGY PREDICTED BY IDOCK:  -12.78 KCAL/MOL
REMARK 923 INTER-LIGAND FREE ENERGY PREDICTED BY IDOCK:  -10.14 KCAL/MOL
REMARK 924 INTRA-LIGAND FREE ENERGY PREDICTED BY IDOCK:   -2.64 KCAL/MOL
REMARK 927      BINDING AFFINITY PREDICTED BY RF-SCORE:    0.00 PKD
ROOT
HETATM    1  C   UNL     1     -12.126  14.273  69.025  1.00  0.00    -0.285 C  
HETATM    2  S   UNL     1     -10.974  14.823  70.305  1.00  0.00    -0.026 SA 
HETATM    3  C   UNL     1     -10.810  16.482  69.609  1.00  0.00    -0.322 C  
HETATM    4  C   UNL     1     -10.580  16.536  68.102  1.00  0.00    -0.329 C  
HETATM    5  CA  UNL     1     -10.858  15.503  67.253  1.00  0.00    -0.313 C  
HETATM    6  CA  UNL     1     -12.181  12.721  68.792  1.00  0.00     0.041 C  
HETATM    7  O   UNL     1     -11.599  12.633  66.228  1.00  0.00    -0.343 OA 
HETATM    8  N   UNL     1     -11.465  14.376  67.738  1.00  0.00    -0.318 N  
HETATM    9  C   UNL     1     -10.418  15.565  65.800  1.00  0.00    -0.361 C  
HETATM   10  OXT UNL     1      -9.596  16.364  65.374  1.00  0.00    -0.455 OA 
HETATM   11  O   UNL     1     -11.051  14.740  64.942  1.00  0.00    -0.374 OA 
HETATM   12  C   UNL     1     -11.731  13.113  67.331  1.00  0.00    -0.370 C  
ENDROOT
BRANCH   4  13
HETATM   13  C   UNL     1      -9.879  17.841  67.724  1.00  0.00    -0.295 C  
BRANCH  13  14
HETATM   14  S   UNL     1      -8.395  18.248  68.677  1.00  0.00    -0.244 SA 
BRANCH  14  15
HETATM   15  C   UNL     1      -7.119  17.466  67.840  1.00  0.00    -0.173 A  
HETATM   16  N   UNL     1      -6.452  17.891  66.794  1.00  0.00    -0.172 NA 
HETATM   17  C   UNL     1      -7.039  15.359  69.252  1.00  0.00    -0.179 C  
HETATM   18  N   UNL     1      -5.572  16.884  66.475  1.00  0.00    -0.349 NA 
HETATM   19  N   UNL     1      -6.652  16.227  68.177  1.00  0.00    -0.121 NA 
HETATM   20  N   UNL     1      -5.689  15.863  67.312  1.00  0.00    -0.329 NA 
ENDBRANCH  14  15
ENDBRANCH  13  14
ENDBRANCH   4  13
BRANCH   6  21
HETATM   21  N   UNL     1     -11.217  11.932  69.611  1.00  0.00    -0.455 N  
HETATM   22  H   UNL     1     -10.873  12.343  70.479  1.00  0.00     0.000 HD 
HETATM   23  O   UNL     1     -11.257  10.054  68.320  1.00  0.00    -0.229 OA 
HETATM   24  C   UNL     1     -10.766  10.677  69.258  1.00  0.00    -0.238 C  
BRANCH  24  25
HETATM   25  CA  UNL     1      -9.495  10.207  70.017  1.00  0.00    -0.036 C  
BRANCH  25  26
HETATM   26  C   UNL     1      -9.845   9.195  71.100  1.00  0.00    -0.371 A  
HETATM   27  C   UNL     1      -9.190   7.610  72.831  1.00  0.00    -0.242 A  
HETATM   28  C   UNL     1     -11.189   8.931  71.403  1.00  0.00    -0.382 A  
HETATM   29  O   UNL     1     -10.814   6.496  74.121  1.00  0.00    -0.411 OA 
HETATM   30  C   UNL     1      -8.848   8.522  71.831  1.00  0.00    -0.284 A  
HETATM   31  C   UNL     1     -11.532   8.022  72.411  1.00  0.00    -0.449 A  
HETATM   32  H   UNL     1     -10.128   6.054  74.606  1.00  0.00     0.000 HD 
HETATM   33  C   UNL     1     -10.527   7.375  73.120  1.00  0.00    -0.356 A  
ENDBRANCH  25  26
BRANCH  25  34
HETATM   34  N   UNL     1      -8.503   9.633  69.111  1.00  0.00    -0.134 N  
HETATM   35  H   UNL     1      -8.649   8.687  68.758  1.00  0.00     0.000 HD 
BRANCH  34  36
HETATM   36  C   UNL     1      -7.386  10.316  68.717  1.00  0.00    -0.086 C  
HETATM   37  O   UNL     1      -6.740  10.994  69.512  1.00  0.00    -0.098 OA 
BRANCH  36  38
HETATM   38  N   UNL     1      -7.031  10.179  67.381  1.00  0.00    -0.082 N  
HETATM   39  C   UNL     1      -5.763   9.525  67.074  1.00  0.00    -0.051 C  
HETATM   40  N   UNL     1      -6.453   9.275  64.745  1.00  0.00    -0.074 N  
HETATM   41  C   UNL     1      -5.886   8.585  65.890  1.00  0.00    -0.047 C  
HETATM   42  C   UNL     1      -7.570  10.088  64.919  1.00  0.00    -0.139 C  
HETATM   43  O   UNL     1      -8.603  11.604  66.460  1.00  0.00    -0.179 OA 
HETATM   44  C   UNL     1      -7.796  10.687  66.327  1.00  0.00    -0.150 C  
HETATM   45  O   UNL     1      -8.348  10.378  64.018  1.00  0.00    -0.166 OA 
BRANCH  40  46
HETATM   46  C   UNL     1      -6.008   8.943  63.396  1.00  0.00    -0.084 C  
HETATM   47  C   UNL     1      -6.688   7.729  62.794  1.00  0.00    -0.076 C  
ENDBRANCH  40  46
ENDBRANCH  36  38
ENDBRANCH  34  36
ENDBRANCH  25  34
ENDBRANCH  24  25
ENDBRANCH   6  21
TORSDOF 10
ENDMDL
MODEL       46
REMARK 921   NORMALIZED FREE ENERGY PREDICTED BY IDOCK:   -6.61 KCAL/MOL
REMARK 922        TOTAL FREE ENERGY PREDICTED BY IDOCK:  -12.77 KCAL/MOL
REMARK 923 INTER-LIGAND FREE ENERGY PREDICTED BY IDOCK:  -10.73 KCAL/MOL
REMARK 924 INTRA-LIGAND FREE ENERGY PREDICTED BY IDOCK:   -2.04 KCAL/MOL
REMARK 927      BINDING AFFINITY PREDICTED BY RF-SCORE:    0.00 PKD
ROOT
HETATM    1  C   UNL     1      -7.326  11.322  67.552  1.00  0.00    -0.105 C  
HETATM    2  S   UNL     1      -6.881  11.551  69.290  1.00  0.00    -0.096 SA 
HETATM    3  C   UNL     1      -6.811   9.778  69.627  1.00  0.00    -0.072 C  
HETATM    4  C   UNL     1      -7.989   8.967  69.095  1.00  0.00    -0.105 C  
HETATM    5  CA  UNL     1      -8.834   9.406  68.116  1.00  0.00    -0.124 C  
HETATM    6  CA  UNL     1      -8.073  12.531  66.885  1.00  0.00    -0.036 C  
HETATM    7  O   UNL     1     -10.259  11.313  66.074  1.00  0.00    -0.231 OA 
HETATM    8  N   UNL     1      -8.582  10.598  67.493  1.00  0.00    -0.122 N  
HETATM    9  C   UNL     1     -10.093   8.623  67.782  1.00  0.00    -0.211 C  
HETATM   10  OXT UNL     1     -10.559   7.752  68.501  1.00  0.00    -0.189 OA 
HETATM   11  O   UNL     1     -10.653   8.867  66.581  1.00  0.00    -0.216 OA 
HETATM   12  C   UNL     1      -9.213  11.463  66.663  1.00  0.00    -0.181 C  
ENDROOT
BRANCH   4  13
HETATM   13  C   UNL     1      -8.150   7.680  69.904  1.00  0.00    -0.124 C  
BRANCH  13  14
HETATM   14  S   UNL     1      -7.139   6.277  69.370  1.00  0.00    -0.075 SA 
BRANCH  14  15
HETATM   15  C   UNL     1      -8.016   5.587  68.067  1.00  0.00    -0.096 A  
HETATM   16  N   UNL     1      -7.838   5.770  66.781  1.00  0.00    -0.100 NA 
HETATM   17  C   UNL     1      -9.649   4.225  69.452  1.00  0.00    -0.197 C  
HETATM   18  N   UNL     1      -8.821   5.038  66.158  1.00  0.00    -0.122 NA 
HETATM   19  N   UNL     1      -9.076   4.744  68.243  1.00  0.00    -0.112 NA 
HETATM   20  N   UNL     1      -9.584   4.411  67.043  1.00  0.00    -0.185 NA 
ENDBRANCH  14  15
ENDBRANCH  13  14
ENDBRANCH   4  13
BRANCH   6  21
HETATM   21  N   UNL     1      -8.374  13.664  67.806  1.00  0.00    -0.166 N  
HETATM   22  H   UNL     1      -8.177  13.544  68.799  1.00  0.00     0.000 HD 
HETATM   23  O   UNL     1      -9.011  15.145  66.193  1.00  0.00    -0.279 OA 
HETATM   24  C   UNL     1      -8.903  14.867  67.386  1.00  0.00    -0.193 C  
BRANCH  24  25
HETATM   25  CA  UNL     1      -9.501  15.745  68.519  1.00  0.00    -0.201 C  
BRANCH  25  26
HETATM   26  C   UNL     1      -9.487  17.218  68.138  1.00  0.00    -0.278 A  
HETATM   27  C   UNL     1     -10.581  19.199  67.234  1.00  0.00    -0.573 A  
HETATM   28  C   UNL     1      -8.342  17.993  68.380  1.00  0.00    -0.305 A  
HETATM   29  O   UNL     1      -9.467  21.273  67.181  1.00  0.00    -0.642 OA 
HETATM   30  C   UNL     1     -10.609  17.843  67.561  1.00  0.00    -0.386 A  
HETATM   31  C   UNL     1      -8.317  19.355  68.058  1.00  0.00    -0.354 A  
HETATM   32  H   UNL     1     -10.234  21.677  66.796  1.00  0.00     0.000 HD 
HETATM   33  C   UNL     1      -9.441  19.946  67.494  1.00  0.00    -0.359 A  
ENDBRANCH  25  26
BRANCH  25  34
HETATM   34  N   UNL     1     -10.863  15.338  68.859  1.00  0.00    -0.236 N  
HETATM   35  H   UNL     1     -11.376  15.876  69.558  1.00  0.00     0.000 HD 
BRANCH  34  36
HETATM   36  C   UNL     1     -11.476  14.264  68.275  1.00  0.00    -0.304 C  
HETATM   37  O   UNL     1     -11.493  14.125  67.055  1.00  0.00    -0.319 OA 
BRANCH  36  38
HETATM   38  N   UNL     1     -12.055  13.349  69.146  1.00  0.00    -0.301 N  
HETATM   39  C   UNL     1     -11.989  11.935  68.794  1.00  0.00    -0.249 C  
HETATM   40  N   UNL     1     -12.625  11.336  71.074  1.00  0.00    -0.399 N  
HETATM   41  C   UNL     1     -11.685  11.068  70.001  1.00  0.00    -0.355 C  
HETATM   42  C   UNL     1     -12.928  12.654  71.407  1.00  0.00    -0.258 C  
HETATM   43  O   UNL     1     -13.241  14.835  70.465  1.00  0.00    -0.310 OA 
HETATM   44  C   UNL     1     -12.745  13.721  70.303  1.00  0.00    -0.144 C  
HETATM   45  O   UNL     1     -13.360  12.998  72.501  1.00  0.00    -0.519 OA 
BRANCH  40  46
HETATM   46  C   UNL     1     -13.069  10.254  71.946  1.00  0.00    -0.463 C  
HETATM   47  C   UNL     1     -12.141   9.055  71.977  1.00  0.00    -0.440 C  
ENDBRANCH  40  46
ENDBRANCH  36  38
ENDBRANCH  34  36
ENDBRANCH  25  34
ENDBRANCH  24  25
ENDBRANCH   6  21
TORSDOF 10
ENDMDL
MODEL       47
REMARK 921   NORMALIZED FREE ENERGY PREDICTED BY IDOCK:   -6.60 KCAL/MOL
REMARK 922        TOTAL FREE ENERGY PREDICTED BY IDOCK:  -12.75 KCAL/MOL
REMARK 923 INTER-LIGAND FREE ENERGY PREDICTED BY IDOCK:  -10.24 KCAL/MOL
REMARK 924 INTRA-LIGAND FREE ENERGY PREDICTED BY IDOCK:   -2.51 KCAL/MOL
REMARK 927      BINDING AFFINITY PREDICTED BY RF-SCORE:    0.00 PKD
ROOT
HETATM    1  C   UNL     1     -12.019  13.829  68.880  1.00  0.00    -0.359 C  
HETATM    2  S   UNL     1     -10.667  14.474  69.894  1.00  0.00     0.111 SA 
HETATM    3  C   UNL     1     -10.840  16.156  69.260  1.00  0.00    -0.310 C  
HETATM    4  C   UNL     1     -10.965  16.271  67.744  1.00  0.00    -0.281 C  
HETATM    5  CA  UNL     1     -11.321  15.234  66.929  1.00  0.00    -0.209 C  
HETATM    6  CA  UNL     1     -11.964  12.287  68.591  1.00  0.00    -0.227 C  
HETATM    7  O   UNL     1     -11.976  12.324  65.960  1.00  0.00    -0.570 OA 
HETATM    8  N   UNL     1     -11.682  14.035  67.484  1.00  0.00    -0.365 N  
HETATM    9  C   UNL     1     -11.234  15.379  65.420  1.00  0.00    -0.272 C  
HETATM   10  OXT UNL     1     -10.618  16.274  64.860  1.00  0.00    -0.650 OA 
HETATM   11  O   UNL     1     -11.957  14.509  64.688  1.00  0.00    -0.425 OA 
HETATM   12  C   UNL     1     -11.902  12.760  67.086  1.00  0.00    -0.350 C  
ENDROOT
BRANCH   4  13
HETATM   13  C   UNL     1     -10.509  17.655  67.282  1.00  0.00    -0.338 C  
BRANCH  13  14
HETATM   14  S   UNL     1      -9.604  18.639  68.502  1.00  0.00    -0.374 SA 
BRANCH  14  15
HETATM   15  C   UNL     1      -7.958  18.227  68.251  1.00  0.00    -0.300 A  
HETATM   16  N   UNL     1      -7.259  17.283  68.833  1.00  0.00    -0.241 NA 
HETATM   17  C   UNL     1      -7.437  19.994  66.506  1.00  0.00    -0.276 C  
HETATM   18  N   UNL     1      -5.985  17.392  68.326  1.00  0.00    -0.154 NA 
HETATM   19  N   UNL     1      -7.142  18.900  67.386  1.00  0.00    -0.206 NA 
HETATM   20  N   UNL     1      -5.904  18.379  67.444  1.00  0.00    -0.150 NA 
ENDBRANCH  14  15
ENDBRANCH  13  14
ENDBRANCH   4  13
BRANCH   6  21
HETATM   21  N   UNL     1     -10.762  11.591  69.134  1.00  0.00    -0.336 N  
HETATM   22  H   UNL     1     -10.300  11.993  69.950  1.00  0.00     0.000 HD 
HETATM   23  O   UNL     1     -10.835   9.805  67.718  1.00  0.00    -0.275 OA 
HETATM   24  C   UNL     1     -10.242  10.434  68.593  1.00  0.00    -0.181 C  
BRANCH  24  25
HETATM   25  CA  UNL     1      -8.794  10.099  69.045  1.00  0.00    -0.166 C  
BRANCH  25  26
HETATM   26  C   UNL     1      -7.844  11.248  68.737  1.00  0.00    -0.139 A  
HETATM   27  C   UNL     1      -5.761  12.455  69.118  1.00  0.00    -0.071 A  
HETATM   28  C   UNL     1      -8.164  12.171  67.730  1.00  0.00    -0.154 A  
HETATM   29  O   UNL     1      -5.210  14.344  67.824  1.00  0.00    -0.258 OA 
HETATM   30  C   UNL     1      -6.626  11.404  69.427  1.00  0.00    -0.119 A  
HETATM   31  C   UNL     1      -7.294  13.221  67.416  1.00  0.00    -0.125 A  
HETATM   32  H   UNL     1      -4.392  14.431  68.298  1.00  0.00     0.000 HD 
HETATM   33  C   UNL     1      -6.096  13.348  68.110  1.00  0.00    -0.112 A  
ENDBRANCH  25  26
BRANCH  25  34
HETATM   34  N   UNL     1      -8.730   9.777  70.468  1.00  0.00    -0.293 N  
HETATM   35  H   UNL     1      -8.025  10.236  71.045  1.00  0.00     0.000 HD 
BRANCH  34  36
HETATM   36  C   UNL     1      -9.580   8.883  71.058  1.00  0.00    -0.255 C  
HETATM   37  O   UNL     1     -10.306   9.213  71.992  1.00  0.00    -0.307 OA 
BRANCH  36  38
HETATM   38  N   UNL     1      -9.576   7.600  70.524  1.00  0.00    -0.168 N  
HETATM   39  C   UNL     1     -10.861   6.995  70.189  1.00  0.00    -0.256 C  
HETATM   40  N   UNL     1      -9.715   5.281  68.881  1.00  0.00    -0.137 N  
HETATM   41  C   UNL     1     -10.803   6.243  68.873  1.00  0.00    -0.333 C  
HETATM   42  C   UNL     1      -8.462   5.668  69.348  1.00  0.00    -0.106 C  
HETATM   43  O   UNL     1      -7.377   7.045  70.981  1.00  0.00    -0.074 OA 
HETATM   44  C   UNL     1      -8.413   6.844  70.351  1.00  0.00    -0.134 C  
HETATM   45  O   UNL     1      -7.416   5.109  69.037  1.00  0.00    -0.067 OA 
BRANCH  40  46
HETATM   46  C   UNL     1      -9.864   4.002  68.196  1.00  0.00     0.008 C  
HETATM   47  C   UNL     1      -9.584   4.053  66.706  1.00  0.00    -0.234 C  
ENDBRANCH  40  46
ENDBRANCH  36  38
ENDBRANCH  34  36
ENDBRANCH  25  34
ENDBRANCH  24  25
ENDBRANCH   6  21
TORSDOF 10
ENDMDL
MODEL       48
REMARK 921   NORMALIZED FREE ENERGY PREDICTED BY IDOCK:   -6.57 KCAL/MOL
REMARK 922        TOTAL FREE ENERGY PREDICTED BY IDOCK:  -12.70 KCAL/MOL
REMARK 923 INTER-LIGAND FREE ENERGY PREDICTED BY IDOCK:   -9.16 KCAL/MOL
REMARK 924 INTRA-LIGAND FREE ENERGY PREDICTED BY IDOCK:   -3.54 KCAL/MOL
REMARK 927      BINDING AFFINITY PREDICTED BY RF-SCORE:    0.00 PKD
ROOT
HETATM    1  C   UNL     1     -11.836  11.495  67.714  1.00  0.00    -0.154 C  
HETATM    2  S   UNL     1     -11.254  11.783  69.402  1.00  0.00    -0.202 SA 
HETATM    3  C   UNL     1     -12.010  13.421  69.507  1.00  0.00    -0.319 C  
HETATM    4  C   UNL     1     -11.773  14.326  68.302  1.00  0.00    -0.377 C  
HETATM    5  CA  UNL     1     -11.383  13.872  67.075  1.00  0.00    -0.326 C  
HETATM    6  CA  UNL     1     -11.002  10.455  66.886  1.00  0.00    -0.097 C  
HETATM    7  O   UNL     1     -10.341  11.951  64.825  1.00  0.00    -0.259 OA 
HETATM    8  N   UNL     1     -11.280  12.524  66.856  1.00  0.00    -0.285 N  
HETATM    9  C   UNL     1     -10.980  14.853  65.986  1.00  0.00    -0.334 C  
HETATM   10  OXT UNL     1     -10.724  16.029  66.196  1.00  0.00    -0.305 OA 
HETATM   11  O   UNL     1     -10.999  14.390  64.721  1.00  0.00    -0.387 OA 
HETATM   12  C   UNL     1     -10.774  11.684  65.923  1.00  0.00    -0.278 C  
ENDROOT
BRANCH   4  13
HETATM   13  C   UNL     1     -11.903  15.793  68.713  1.00  0.00    -0.309 C  
BRANCH  13  14
HETATM   14  S   UNL     1     -10.710  16.380  69.942  1.00  0.00    -0.247 SA 
BRANCH  14  15
HETATM   15  C   UNL     1      -9.254  16.594  69.059  1.00  0.00    -0.223 A  
HETATM   16  N   UNL     1      -8.313  15.713  68.818  1.00  0.00    -0.174 NA 
HETATM   17  C   UNL     1      -9.578  19.042  68.474  1.00  0.00    -0.386 C  
HETATM   18  N   UNL     1      -7.341  16.385  68.117  1.00  0.00    -0.144 NA 
HETATM   19  N   UNL     1      -8.885  17.786  68.504  1.00  0.00    -0.287 NA 
HETATM   20  N   UNL     1      -7.680  17.652  67.922  1.00  0.00    -0.211 NA 
ENDBRANCH  14  15
ENDBRANCH  13  14
ENDBRANCH   4  13
BRANCH   6  21
HETATM   21  N   UNL     1      -9.805   9.911  67.588  1.00  0.00    -0.158 N  
HETATM   22  H   UNL     1      -9.741  10.036  68.598  1.00  0.00     0.000 HD 
HETATM   23  O   UNL     1      -8.865   8.916  65.765  1.00  0.00    -0.162 OA 
HETATM   24  C   UNL     1      -8.781   9.247  66.946  1.00  0.00    -0.127 C  
BRANCH  24  25
HETATM   25  CA  UNL     1      -7.472   9.118  67.772  1.00  0.00    -0.085 C  
BRANCH  25  26
HETATM   26  C   UNL     1      -6.946  10.485  68.186  1.00  0.00    -0.073 A  
HETATM   27  C   UNL     1      -6.225  12.749  67.641  1.00  0.00    -0.153 A  
HETATM   28  C   UNL     1      -6.725  10.769  69.542  1.00  0.00    -0.108 A  
HETATM   29  O   UNL     1      -5.594  14.253  69.339  1.00  0.00    -0.086 OA 
HETATM   30  C   UNL     1      -6.691  11.496  67.239  1.00  0.00    -0.112 A  
HETATM   31  C   UNL     1      -6.265  12.028  69.946  1.00  0.00    -0.130 A  
HETATM   32  H   UNL     1      -5.430  14.923  68.687  1.00  0.00     0.000 HD 
HETATM   33  C   UNL     1      -6.025  13.008  68.990  1.00  0.00    -0.084 A  
ENDBRANCH  25  26
BRANCH  25  34
HETATM   34  N   UNL     1      -7.658   8.284  68.958  1.00  0.00    -0.088 N  
HETATM   35  H   UNL     1      -7.645   8.726  69.877  1.00  0.00     0.000 HD 
BRANCH  34  36
HETATM   36  C   UNL     1      -7.851   6.932  68.882  1.00  0.00    -0.111 C  
HETATM   37  O   UNL     1      -7.186   6.235  68.119  1.00  0.00    -0.080 OA 
BRANCH  36  38
HETATM   38  N   UNL     1      -8.825   6.410  69.724  1.00  0.00    -0.141 N  
HETATM   39  C   UNL     1      -8.389   5.568  70.833  1.00  0.00    -0.120 C  
HETATM   40  N   UNL     1     -10.591   5.783  71.865  1.00  0.00    -0.225 N  
HETATM   41  C   UNL     1      -9.161   5.865  72.104  1.00  0.00    -0.143 C  
HETATM   42  C   UNL     1     -11.134   6.393  70.737  1.00  0.00    -0.307 C  
HETATM   43  O   UNL     1     -10.686   6.890  68.436  1.00  0.00    -0.215 OA 
HETATM   44  C   UNL     1     -10.195   6.603  69.526  1.00  0.00    -0.183 C  
HETATM   45  O   UNL     1     -12.307   6.733  70.645  1.00  0.00    -0.359 OA 
BRANCH  40  46
HETATM   46  C   UNL     1     -11.478   5.273  72.905  1.00  0.00    -0.270 C  
HETATM   47  C   UNL     1     -10.775   4.503  74.005  1.00  0.00    -0.340 C  
ENDBRANCH  40  46
ENDBRANCH  36  38
ENDBRANCH  34  36
ENDBRANCH  25  34
ENDBRANCH  24  25
ENDBRANCH   6  21
TORSDOF 10
ENDMDL
MODEL       49
REMARK 921   NORMALIZED FREE ENERGY PREDICTED BY IDOCK:   -6.56 KCAL/MOL
REMARK 922        TOTAL FREE ENERGY PREDICTED BY IDOCK:  -12.69 KCAL/MOL
REMARK 923 INTER-LIGAND FREE ENERGY PREDICTED BY IDOCK:  -11.04 KCAL/MOL
REMARK 924 INTRA-LIGAND FREE ENERGY PREDICTED BY IDOCK:   -1.65 KCAL/MOL
REMARK 927      BINDING AFFINITY PREDICTED BY RF-SCORE:    0.00 PKD
ROOT
HETATM    1  C   UNL     1     -10.507   8.417  69.237  1.00  0.00    -0.215 C  
HETATM    2  S   UNL     1     -10.526   8.441  67.428  1.00  0.00    -0.253 SA 
HETATM    3  C   UNL     1     -10.178   6.674  67.285  1.00  0.00    -0.198 C  
HETATM    4  C   UNL     1      -9.047   6.159  68.170  1.00  0.00    -0.111 C  
HETATM    5  CA  UNL     1      -8.577   6.824  69.267  1.00  0.00    -0.129 C  
HETATM    6  CA  UNL     1     -10.192   9.793  69.923  1.00  0.00    -0.254 C  
HETATM    7  O   UNL     1      -8.101   9.108  71.363  1.00  0.00    -0.318 OA 
HETATM    8  N   UNL     1      -9.197   7.974  69.675  1.00  0.00    -0.152 N  
HETATM    9  C   UNL     1      -7.324   6.341  69.977  1.00  0.00    -0.082 C  
HETATM   10  OXT UNL     1      -6.536   5.542  69.493  1.00  0.00    -0.038 OA 
HETATM   11  O   UNL     1      -7.145   6.769  71.242  1.00  0.00    -0.072 OA 
HETATM   12  C   UNL     1      -8.970   9.000  70.529  1.00  0.00    -0.213 C  
ENDROOT
BRANCH   4  13
HETATM   13  C   UNL     1      -8.449   4.886  67.572  1.00  0.00    -0.104 C  
BRANCH  13  14
HETATM   14  S   UNL     1      -7.640   5.072  65.963  1.00  0.00    -0.087 SA 
BRANCH  14  15
HETATM   15  C   UNL     1      -8.802   4.515  64.831  1.00  0.00    -0.148 A  
HETATM   16  N   UNL     1      -9.919   3.869  65.064  1.00  0.00    -0.195 NA 
HETATM   17  C   UNL     1      -7.630   5.321  62.730  1.00  0.00    -0.064 C  
HETATM   18  N   UNL     1     -10.467   3.608  63.830  1.00  0.00    -0.253 NA 
HETATM   19  N   UNL     1      -8.665   4.669  63.481  1.00  0.00    -0.135 NA 
HETATM   20  N   UNL     1      -9.706   4.090  62.857  1.00  0.00    -0.145 NA 
ENDBRANCH  14  15
ENDBRANCH  13  14
ENDBRANCH   4  13
BRANCH   6  21
HETATM   21  N   UNL     1      -9.881  10.905  68.980  1.00  0.00    -0.289 N  
HETATM   22  H   UNL     1      -9.141  10.762  68.293  1.00  0.00     0.000 HD 
HETATM   23  O   UNL     1     -11.545  12.303  69.670  1.00  0.00    -0.294 OA 
HETATM   24  C   UNL     1     -10.540  12.117  68.987  1.00  0.00    -0.079 C  
BRANCH  24  25
HETATM   25  CA  UNL     1      -9.816  13.254  68.214  1.00  0.00    -0.231 C  
BRANCH  25  26
HETATM   26  C   UNL     1     -10.503  13.539  66.886  1.00  0.00    -0.271 A  
HETATM   27  C   UNL     1     -12.248  13.087  65.246  1.00  0.00    -0.513 A  
HETATM   28  C   UNL     1     -10.033  14.573  66.062  1.00  0.00    -0.343 A  
HETATM   29  O   UNL     1     -12.428  14.386  63.290  1.00  0.00    -1.099 OA 
HETATM   30  C   UNL     1     -11.623  12.799  66.460  1.00  0.00    -0.435 A  
HETATM   31  C   UNL     1     -10.664  14.866  64.848  1.00  0.00    -0.426 A  
HETATM   32  H   UNL     1     -13.184  13.878  63.021  1.00  0.00     0.000 HD 
HETATM   33  C   UNL     1     -11.771  14.123  64.455  1.00  0.00    -0.413 A  
ENDBRANCH  25  26
BRANCH  25  34
HETATM   34  N   UNL     1      -9.741  14.483  69.002  1.00  0.00    -0.360 N  
HETATM   35  H   UNL     1     -10.597  14.856  69.414  1.00  0.00     0.000 HD 
BRANCH  34  36
HETATM   36  C   UNL     1      -8.567  15.153  69.209  1.00  0.00    -0.211 C  
HETATM   37  O   UNL     1      -7.582  14.584  69.674  1.00  0.00    -0.052 OA 
BRANCH  36  38
HETATM   38  N   UNL     1      -8.562  16.494  68.847  1.00  0.00    -0.247 N  
HETATM   39  C   UNL     1      -7.273  17.127  68.587  1.00  0.00    -0.229 C  
HETATM   40  N   UNL     1      -8.409  19.007  67.520  1.00  0.00    -0.275 N  
HETATM   41  C   UNL     1      -7.330  18.045  67.381  1.00  0.00    -0.205 C  
HETATM   42  C   UNL     1      -9.664  18.572  67.939  1.00  0.00    -0.314 C  
HETATM   43  O   UNL     1     -10.754  17.002  69.385  1.00  0.00    -0.322 OA 
HETATM   44  C   UNL     1      -9.719  17.275  68.781  1.00  0.00    -0.280 C  
HETATM   45  O   UNL     1     -10.705  19.176  67.709  1.00  0.00    -0.424 OA 
BRANCH  40  46
HETATM   46  C   UNL     1      -8.252  20.363  67.007  1.00  0.00    -0.292 C  
HETATM   47  C   UNL     1      -6.981  20.587  66.210  1.00  0.00    -0.273 C  
ENDBRANCH  40  46
ENDBRANCH  36  38
ENDBRANCH  34  36
ENDBRANCH  25  34
ENDBRANCH  24  25
ENDBRANCH   6  21
TORSDOF 10
ENDMDL
MODEL       50
REMARK 921   NORMALIZED FREE ENERGY PREDICTED BY IDOCK:   -6.53 KCAL/MOL
REMARK 922        TOTAL FREE ENERGY PREDICTED BY IDOCK:  -12.65 KCAL/MOL
REMARK 923 INTER-LIGAND FREE ENERGY PREDICTED BY IDOCK:  -10.39 KCAL/MOL
REMARK 924 INTRA-LIGAND FREE ENERGY PREDICTED BY IDOCK:   -2.26 KCAL/MOL
REMARK 927      BINDING AFFINITY PREDICTED BY RF-SCORE:    0.00 PKD
ROOT
HETATM    1  C   UNL     1     -10.935   7.509  71.143  1.00  0.00    -0.246 C  
HETATM    2  S   UNL     1     -10.828   7.316  69.348  1.00  0.00    -0.144 SA 
HETATM    3  C   UNL     1     -10.360   5.574  69.447  1.00  0.00    -0.278 C  
HETATM    4  C   UNL     1      -9.264   5.251  70.458  1.00  0.00    -0.187 C  
HETATM    5  CA  UNL     1      -8.915   6.073  71.491  1.00  0.00    -0.143 C  
HETATM    6  CA  UNL     1     -10.758   8.976  71.671  1.00  0.00    -0.371 C  
HETATM    7  O   UNL     1      -8.734   8.619  73.314  1.00  0.00    -0.352 OA 
HETATM    8  N   UNL     1      -9.634   7.217  71.713  1.00  0.00    -0.152 N  
HETATM    9  C   UNL     1      -7.687   5.770  72.332  1.00  0.00    -0.102 C  
HETATM   10  OXT UNL     1      -6.818   4.977  72.000  1.00  0.00    -0.049 OA 
HETATM   11  O   UNL     1      -7.626   6.358  73.543  1.00  0.00    -0.093 OA 
HETATM   12  C   UNL     1      -9.533   8.351  72.446  1.00  0.00    -0.295 C  
ENDROOT
BRANCH   4  13
HETATM   13  C   UNL     1      -8.545   3.961  70.060  1.00  0.00    -0.065 C  
BRANCH  13  14
HETATM   14  S   UNL     1      -9.260   3.054  68.666  1.00  0.00    -0.172 SA 
BRANCH  14  15
HETATM   15  C   UNL     1      -8.302   3.511  67.319  1.00  0.00    -0.091 A  
HETATM   16  N   UNL     1      -7.009   3.366  67.155  1.00  0.00    -0.056 NA 
HETATM   17  C   UNL     1     -10.165   4.501  65.908  1.00  0.00    -0.263 C  
HETATM   18  N   UNL     1      -6.719   3.934  65.937  1.00  0.00    -0.044 NA 
HETATM   19  N   UNL     1      -8.811   4.138  66.218  1.00  0.00    -0.115 NA 
HETATM   20  N   UNL     1      -7.813   4.410  65.358  1.00  0.00    -0.089 NA 
ENDBRANCH  14  15
ENDBRANCH  13  14
ENDBRANCH   4  13
BRANCH   6  21
HETATM   21  N   UNL     1     -10.452   9.987  70.619  1.00  0.00    -0.385 N  
HETATM   22  H   UNL     1      -9.487  10.077  70.303  1.00  0.00     0.000 HD 
HETATM   23  O   UNL     1     -12.605  10.646  70.259  1.00  0.00    -0.324 OA 
HETATM   24  C   UNL     1     -11.404  10.807  70.051  1.00  0.00    -0.319 C  
BRANCH  24  25
HETATM   25  CA  UNL     1     -10.833  12.034  69.287  1.00  0.00    -0.076 C  
BRANCH  25  26
HETATM   26  C   UNL     1     -10.013  11.596  68.081  1.00  0.00    -0.198 A  
HETATM   27  C   UNL     1      -9.836  10.554  65.885  1.00  0.00    -0.291 A  
HETATM   28  C   UNL     1      -8.638  11.871  68.032  1.00  0.00    -0.168 A  
HETATM   29  O   UNL     1      -7.775  10.483  64.748  1.00  0.00    -0.288 OA 
HETATM   30  C   UNL     1     -10.603  10.932  66.988  1.00  0.00    -0.307 A  
HETATM   31  C   UNL     1      -7.871  11.498  66.923  1.00  0.00    -0.163 A  
HETATM   32  H   UNL     1      -8.192  10.039  64.019  1.00  0.00     0.000 HD 
HETATM   33  C   UNL     1      -8.480  10.848  65.856  1.00  0.00    -0.158 A  
ENDBRANCH  25  26
BRANCH  25  34
HETATM   34  N   UNL     1     -11.891  12.946  68.857  1.00  0.00    -0.314 N  
HETATM   35  H   UNL     1     -12.549  12.633  68.143  1.00  0.00     0.000 HD 
BRANCH  34  36
HETATM   36  C   UNL     1     -12.032  14.203  69.375  1.00  0.00    -0.337 C  
HETATM   37  O   UNL     1     -12.549  14.385  70.475  1.00  0.00    -0.328 OA 
BRANCH  36  38
HETATM   38  N   UNL     1     -11.544  15.241  68.591  1.00  0.00    -0.341 N  
HETATM   39  C   UNL     1     -11.117  16.463  69.264  1.00  0.00    -0.297 C  
HETATM   40  N   UNL     1      -9.973  17.185  67.231  1.00  0.00    -0.267 N  
HETATM   41  C   UNL     1      -9.837  17.017  68.667  1.00  0.00    -0.290 C  
HETATM   42  C   UNL     1     -10.535  16.163  66.472  1.00  0.00    -0.297 C  
HETATM   43  O   UNL     1     -12.212  14.451  66.522  1.00  0.00    -0.424 OA 
HETATM   44  C   UNL     1     -11.500  15.193  67.195  1.00  0.00    -0.250 C  
HETATM   45  O   UNL     1     -10.337  16.017  65.271  1.00  0.00    -0.471 OA 
BRANCH  40  46
HETATM   46  C   UNL     1      -9.320  18.304  66.560  1.00  0.00    -0.302 C  
HETATM   47  C   UNL     1      -9.845  19.668  66.964  1.00  0.00    -0.491 C  
ENDBRANCH  40  46
ENDBRANCH  36  38
ENDBRANCH  34  36
ENDBRANCH  25  34
ENDBRANCH  24  25
ENDBRANCH   6  21
TORSDOF 10
ENDMDL
MODEL       51
REMARK 921   NORMALIZED FREE ENERGY PREDICTED BY IDOCK:   -6.53 KCAL/MOL
REMARK 922        TOTAL FREE ENERGY PREDICTED BY IDOCK:  -12.64 KCAL/MOL
REMARK 923 INTER-LIGAND FREE ENERGY PREDICTED BY IDOCK:  -10.41 KCAL/MOL
REMARK 924 INTRA-LIGAND FREE ENERGY PREDICTED BY IDOCK:   -2.23 KCAL/MOL
REMARK 927      BINDING AFFINITY PREDICTED BY RF-SCORE:    0.00 PKD
ROOT
HETATM    1  C   UNL     1     -11.537  11.419  68.290  1.00  0.00    -0.306 C  
HETATM    2  S   UNL     1      -9.910  10.751  67.866  1.00  0.00    -0.170 SA 
HETATM    3  C   UNL     1     -10.375   9.052  68.269  1.00  0.00    -0.209 C  
HETATM    4  C   UNL     1     -11.107   8.875  69.595  1.00  0.00    -0.056 C  
HETATM    5  CA  UNL     1     -11.731   9.890  70.262  1.00  0.00    -0.216 C  
HETATM    6  CA  UNL     1     -11.557  12.941  68.674  1.00  0.00    -0.316 C  
HETATM    7  O   UNL     1     -12.635  12.783  71.069  1.00  0.00    -0.363 OA 
HETATM    8  N   UNL     1     -11.800  11.131  69.687  1.00  0.00    -0.318 N  
HETATM    9  C   UNL     1     -12.267   9.670  71.666  1.00  0.00    -0.402 C  
HETATM   10  OXT UNL     1     -11.957   8.719  72.368  1.00  0.00    -0.359 OA 
HETATM   11  O   UNL     1     -13.198  10.543  72.099  1.00  0.00    -0.458 OA 
HETATM   12  C   UNL     1     -12.125  12.396  70.043  1.00  0.00    -0.263 C  
ENDROOT
BRANCH   4  13
HETATM   13  C   UNL     1     -10.918   7.448  70.113  1.00  0.00    -0.255 C  
BRANCH  13  14
HETATM   14  S   UNL     1      -9.215   6.960  70.484  1.00  0.00    -0.155 SA 
BRANCH  14  15
HETATM   15  C   UNL     1      -8.942   7.530  72.079  1.00  0.00    -0.125 A  
HETATM   16  N   UNL     1      -8.400   8.663  72.455  1.00  0.00    -0.383 NA 
HETATM   17  C   UNL     1      -9.879   5.521  73.313  1.00  0.00    -0.164 C  
HETATM   18  N   UNL     1      -8.364   8.624  73.829  1.00  0.00    -0.328 NA 
HETATM   19  N   UNL     1      -9.254   6.807  73.195  1.00  0.00    -0.127 NA 
HETATM   20  N   UNL     1      -8.880   7.493  74.289  1.00  0.00    -0.223 NA 
ENDBRANCH  14  15
ENDBRANCH  13  14
ENDBRANCH   4  13
BRANCH   6  21
HETATM   21  N   UNL     1     -10.219  13.596  68.706  1.00  0.00    -0.370 N  
HETATM   22  H   UNL     1      -9.662  13.514  69.557  1.00  0.00     0.000 HD 
HETATM   23  O   UNL     1     -10.229  14.312  66.542  1.00  0.00    -0.265 OA 
HETATM   24  C   UNL     1      -9.693  14.308  67.648  1.00  0.00    -0.220 C  
BRANCH  24  25
HETATM   25  CA  UNL     1      -8.494  15.225  68.013  1.00  0.00    -0.147 C  
BRANCH  25  26
HETATM   26  C   UNL     1      -8.838  16.692  67.792  1.00  0.00    -0.206 A  
HETATM   27  C   UNL     1      -8.176  18.995  67.345  1.00  0.00    -0.297 A  
HETATM   28  C   UNL     1     -10.178  17.105  67.794  1.00  0.00    -0.324 A  
HETATM   29  O   UNL     1      -9.796  20.686  67.099  1.00  0.00    -0.507 OA 
HETATM   30  C   UNL     1      -7.839  17.658  67.562  1.00  0.00    -0.211 A  
HETATM   31  C   UNL     1     -10.517  18.444  67.569  1.00  0.00    -0.445 A  
HETATM   32  H   UNL     1      -9.108  21.323  66.942  1.00  0.00     0.000 HD 
HETATM   33  C   UNL     1      -9.511  19.375  67.340  1.00  0.00    -0.316 A  
ENDBRANCH  25  26
BRANCH  25  34
HETATM   34  N   UNL     1      -8.059  15.026  69.394  1.00  0.00    -0.322 N  
HETATM   35  H   UNL     1      -8.753  15.079  70.140  1.00  0.00     0.000 HD 
BRANCH  34  36
HETATM   36  C   UNL     1      -6.757  14.770  69.724  1.00  0.00    -0.173 C  
HETATM   37  O   UNL     1      -6.102  15.562  70.397  1.00  0.00    -0.124 OA 
BRANCH  36  38
HETATM   38  N   UNL     1      -6.240  13.564  69.266  1.00  0.00    -0.100 N  
HETATM   39  C   UNL     1      -6.241  12.428  70.182  1.00  0.00    -0.037 C  
HETATM   40  N   UNL     1      -5.807  10.918  68.312  1.00  0.00    -0.043 N  
HETATM   41  C   UNL     1      -6.636  11.142  69.483  1.00  0.00    -0.126 C  
HETATM   42  C   UNL     1      -5.567  11.970  67.432  1.00  0.00    -0.120 C  
HETATM   43  O   UNL     1      -5.218  14.339  67.341  1.00  0.00    -0.328 OA 
HETATM   44  C   UNL     1      -5.671  13.405  68.000  1.00  0.00    -0.122 C  
HETATM   45  O   UNL     1      -5.248  11.817  66.259  1.00  0.00    -0.325 OA 
BRANCH  40  46
HETATM   46  C   UNL     1      -5.422   9.563  67.936  1.00  0.00    -0.040 C  
HETATM   47  C   UNL     1      -6.104   8.472  68.739  1.00  0.00    -0.045 C  
ENDBRANCH  40  46
ENDBRANCH  36  38
ENDBRANCH  34  36
ENDBRANCH  25  34
ENDBRANCH  24  25
ENDBRANCH   6  21
TORSDOF 10
ENDMDL
MODEL       52
REMARK 921   NORMALIZED FREE ENERGY PREDICTED BY IDOCK:   -6.51 KCAL/MOL
REMARK 922        TOTAL FREE ENERGY PREDICTED BY IDOCK:  -12.60 KCAL/MOL
REMARK 923 INTER-LIGAND FREE ENERGY PREDICTED BY IDOCK:  -10.35 KCAL/MOL
REMARK 924 INTRA-LIGAND FREE ENERGY PREDICTED BY IDOCK:   -2.25 KCAL/MOL
REMARK 927      BINDING AFFINITY PREDICTED BY RF-SCORE:    0.00 PKD
ROOT
HETATM    1  C   UNL     1     -12.093  14.214  68.861  1.00  0.00    -0.304 C  
HETATM    2  S   UNL     1     -10.805  14.732  70.019  1.00  0.00    -0.050 SA 
HETATM    3  C   UNL     1     -10.762  16.426  69.395  1.00  0.00    -0.324 C  
HETATM    4  C   UNL     1     -10.719  16.560  67.877  1.00  0.00    -0.337 C  
HETATM    5  CA  UNL     1     -11.077  15.563  67.014  1.00  0.00    -0.238 C  
HETATM    6  CA  UNL     1     -12.143  12.675  68.557  1.00  0.00    -0.085 C  
HETATM    7  O   UNL     1     -11.878  12.728  65.940  1.00  0.00    -0.393 OA 
HETATM    8  N   UNL     1     -11.596  14.398  67.511  1.00  0.00    -0.355 N  
HETATM    9  C   UNL     1     -10.820  15.709  65.524  1.00  0.00    -0.346 C  
HETATM   10  OXT UNL     1     -10.073  16.549  65.045  1.00  0.00    -0.483 OA 
HETATM   11  O   UNL     1     -11.536  14.910  64.708  1.00  0.00    -0.395 OA 
HETATM   12  C   UNL     1     -11.884  13.149  67.074  1.00  0.00    -0.379 C  
ENDROOT
BRANCH   4  13
HETATM   13  C   UNL     1     -10.098  17.901  67.484  1.00  0.00    -0.342 C  
BRANCH  13  14
HETATM   14  S   UNL     1      -8.676  18.434  68.470  1.00  0.00    -0.291 SA 
BRANCH  14  15
HETATM   15  C   UNL     1      -7.322  17.730  67.687  1.00  0.00    -0.200 A  
HETATM   16  N   UNL     1      -7.012  17.764  66.413  1.00  0.00    -0.227 NA 
HETATM   17  C   UNL     1      -6.262  16.678  69.739  1.00  0.00    -0.209 C  
HETATM   18  N   UNL     1      -5.867  17.013  66.285  1.00  0.00    -0.297 NA 
HETATM   19  N   UNL     1      -6.380  16.989  68.343  1.00  0.00    -0.147 NA 
HETATM   20  N   UNL     1      -5.475  16.534  67.458  1.00  0.00    -0.136 NA 
ENDBRANCH  14  15
ENDBRANCH  13  14
ENDBRANCH   4  13
BRANCH   6  21
HETATM   21  N   UNL     1     -11.070  11.873  69.211  1.00  0.00    -0.368 N  
HETATM   22  H   UNL     1     -10.100  12.108  69.005  1.00  0.00     0.000 HD 
HETATM   23  O   UNL     1     -12.451  10.597  70.501  1.00  0.00    -0.316 OA 
HETATM   24  C   UNL     1     -11.320  10.831  70.080  1.00  0.00    -0.319 C  
BRANCH  24  25
HETATM   25  CA  UNL     1     -10.109   9.891  70.332  1.00  0.00    -0.195 C  
BRANCH  25  26
HETATM   26  C   UNL     1     -10.540   8.625  71.059  1.00  0.00    -0.278 A  
HETATM   27  C   UNL     1     -10.707   7.279  73.084  1.00  0.00    -0.411 A  
HETATM   28  C   UNL     1     -11.221   7.615  70.363  1.00  0.00    -0.258 A  
HETATM   29  O   UNL     1     -11.800   5.194  73.057  1.00  0.00    -0.466 OA 
HETATM   30  C   UNL     1     -10.289   8.441  72.432  1.00  0.00    -0.399 A  
HETATM   31  C   UNL     1     -11.645   6.453  71.018  1.00  0.00    -0.386 A  
HETATM   32  H   UNL     1     -11.626   5.089  73.984  1.00  0.00     0.000 HD 
HETATM   33  C   UNL     1     -11.389   6.300  72.375  1.00  0.00    -0.292 A  
ENDBRANCH  25  26
BRANCH  25  34
HETATM   34  N   UNL     1      -9.429   9.537  69.088  1.00  0.00    -0.157 N  
HETATM   35  H   UNL     1      -9.989   9.380  68.250  1.00  0.00     0.000 HD 
BRANCH  34  36
HETATM   36  C   UNL     1      -8.070   9.408  69.005  1.00  0.00    -0.106 C  
HETATM   37  O   UNL     1      -7.404  10.136  68.275  1.00  0.00    -0.079 OA 
BRANCH  36  38
HETATM   38  N   UNL     1      -7.505   8.420  69.803  1.00  0.00    -0.070 N  
HETATM   39  C   UNL     1      -6.543   8.832  70.820  1.00  0.00    -0.050 C  
HETATM   40  N   UNL     1      -6.738   6.646  71.891  1.00  0.00    -0.058 N  
HETATM   41  C   UNL     1      -6.744   8.080  72.121  1.00  0.00    -0.069 C  
HETATM   42  C   UNL     1      -7.475   6.119  70.834  1.00  0.00    -0.095 C  
HETATM   43  O   UNL     1      -8.177   6.570  68.587  1.00  0.00    -0.116 OA 
HETATM   44  C   UNL     1      -7.767   7.058  69.639  1.00  0.00    -0.110 C  
HETATM   45  O   UNL     1      -7.866   4.959  70.787  1.00  0.00    -0.075 OA 
BRANCH  40  46
HETATM   46  C   UNL     1      -6.163   5.747  72.886  1.00  0.00    -0.056 C  
HETATM   47  C   UNL     1      -7.111   5.365  74.006  1.00  0.00    -0.086 C  
ENDBRANCH  40  46
ENDBRANCH  36  38
ENDBRANCH  34  36
ENDBRANCH  25  34
ENDBRANCH  24  25
ENDBRANCH   6  21
TORSDOF 10
ENDMDL
MODEL       53
REMARK 921   NORMALIZED FREE ENERGY PREDICTED BY IDOCK:   -6.51 KCAL/MOL
REMARK 922        TOTAL FREE ENERGY PREDICTED BY IDOCK:  -12.60 KCAL/MOL
REMARK 923 INTER-LIGAND FREE ENERGY PREDICTED BY IDOCK:  -11.11 KCAL/MOL
REMARK 924 INTRA-LIGAND FREE ENERGY PREDICTED BY IDOCK:   -1.50 KCAL/MOL
REMARK 927      BINDING AFFINITY PREDICTED BY RF-SCORE:    0.00 PKD
ROOT
HETATM    1  C   UNL     1     -12.102  14.755  68.881  1.00  0.00    -0.205 C  
HETATM    2  S   UNL     1     -10.654  15.251  69.845  1.00  0.00    -0.256 SA 
HETATM    3  C   UNL     1     -10.453  16.811  68.955  1.00  0.00    -0.336 C  
HETATM    4  C   UNL     1     -10.536  16.709  67.436  1.00  0.00    -0.314 C  
HETATM    5  CA  UNL     1     -11.099  15.656  66.773  1.00  0.00    -0.169 C  
HETATM    6  CA  UNL     1     -12.378  13.210  68.833  1.00  0.00     0.118 C  
HETATM    7  O   UNL     1     -12.356  12.834  66.229  1.00  0.00    -0.521 OA 
HETATM    8  N   UNL     1     -11.715  14.663  67.487  1.00  0.00    -0.379 N  
HETATM    9  C   UNL     1     -10.966  15.539  65.264  1.00  0.00    -0.380 C  
HETATM   10  OXT UNL     1     -10.166  16.184  64.603  1.00  0.00    -0.294 OA 
HETATM   11  O   UNL     1     -11.852  14.737  64.641  1.00  0.00    -0.420 OA 
HETATM   12  C   UNL     1     -12.201  13.416  67.278  1.00  0.00    -0.233 C  
ENDROOT
BRANCH   4  13
HETATM   13  C   UNL     1      -9.787  17.874  66.789  1.00  0.00    -0.333 C  
BRANCH  13  14
HETATM   14  S   UNL     1      -7.987  17.700  66.687  1.00  0.00    -0.271 SA 
BRANCH  14  15
HETATM   15  C   UNL     1      -7.381  19.246  67.117  1.00  0.00    -0.208 A  
HETATM   16  N   UNL     1      -7.450  20.364  66.435  1.00  0.00    -0.237 NA 
HETATM   17  C   UNL     1      -6.372  18.596  69.352  1.00  0.00    -0.267 C  
HETATM   18  N   UNL     1      -6.776  21.301  67.182  1.00  0.00    -0.529 NA 
HETATM   19  N   UNL     1      -6.693  19.485  68.272  1.00  0.00    -0.257 NA 
HETATM   20  N   UNL     1      -6.307  20.772  68.304  1.00  0.00    -0.318 NA 
ENDBRANCH  14  15
ENDBRANCH  13  14
ENDBRANCH   4  13
BRANCH   6  21
HETATM   21  N   UNL     1     -11.361  12.371  69.527  1.00  0.00    -0.448 N  
HETATM   22  H   UNL     1     -10.696  12.834  70.147  1.00  0.00     0.000 HD 
HETATM   23  O   UNL     1     -12.132  10.359  68.781  1.00  0.00    -0.209 OA 
HETATM   24  C   UNL     1     -11.271  11.003  69.377  1.00  0.00    -0.268 C  
BRANCH  24  25
HETATM   25  CA  UNL     1      -9.929  10.384  69.857  1.00  0.00    -0.047 C  
BRANCH  25  26
HETATM   26  C   UNL     1     -10.158   9.376  70.974  1.00  0.00    -0.353 A  
HETATM   27  C   UNL     1      -9.318   7.898  72.720  1.00  0.00    -0.297 A  
HETATM   28  C   UNL     1     -11.465   9.007  71.328  1.00  0.00    -0.390 A  
HETATM   29  O   UNL     1     -10.801   6.686  74.089  1.00  0.00    -0.421 OA 
HETATM   30  C   UNL     1      -9.085   8.808  71.688  1.00  0.00    -0.314 A  
HETATM   31  C   UNL     1     -11.698   8.100  72.368  1.00  0.00    -0.461 A  
HETATM   32  H   UNL     1     -10.065   6.316  74.562  1.00  0.00     0.000 HD 
HETATM   33  C   UNL     1     -10.620   7.559  73.058  1.00  0.00    -0.368 A  
ENDBRANCH  25  26
BRANCH  25  34
HETATM   34  N   UNL     1      -9.203   9.746  68.761  1.00  0.00    -0.139 N  
HETATM   35  H   UNL     1      -8.768   8.837  68.923  1.00  0.00     0.000 HD 
BRANCH  34  36
HETATM   36  C   UNL     1      -9.083  10.321  67.526  1.00  0.00    -0.137 C  
HETATM   37  O   UNL     1      -9.090  11.542  67.388  1.00  0.00    -0.162 OA 
BRANCH  36  38
HETATM   38  N   UNL     1      -8.940   9.443  66.459  1.00  0.00    -0.144 N  
HETATM   39  C   UNL     1      -8.344   9.953  65.229  1.00  0.00    -0.149 C  
HETATM   40  N   UNL     1      -8.020   7.667  64.435  1.00  0.00    -0.138 N  
HETATM   41  C   UNL     1      -7.379   8.957  64.616  1.00  0.00    -0.101 C  
HETATM   42  C   UNL     1      -8.780   7.129  65.470  1.00  0.00    -0.021 C  
HETATM   43  O   UNL     1     -10.271   7.723  67.250  1.00  0.00    -0.217 OA 
HETATM   44  C   UNL     1      -9.392   8.121  66.487  1.00  0.00    -0.206 C  
HETATM   45  O   UNL     1      -9.015   5.932  65.592  1.00  0.00    -0.152 OA 
BRANCH  40  46
HETATM   46  C   UNL     1      -7.686   6.838  63.282  1.00  0.00    -0.106 C  
HETATM   47  C   UNL     1      -6.289   7.061  62.735  1.00  0.00    -0.048 C  
ENDBRANCH  40  46
ENDBRANCH  36  38
ENDBRANCH  34  36
ENDBRANCH  25  34
ENDBRANCH  24  25
ENDBRANCH   6  21
TORSDOF 10
ENDMDL
MODEL       54
REMARK 921   NORMALIZED FREE ENERGY PREDICTED BY IDOCK:   -6.50 KCAL/MOL
REMARK 922        TOTAL FREE ENERGY PREDICTED BY IDOCK:  -12.59 KCAL/MOL
REMARK 923 INTER-LIGAND FREE ENERGY PREDICTED BY IDOCK:  -10.20 KCAL/MOL
REMARK 924 INTRA-LIGAND FREE ENERGY PREDICTED BY IDOCK:   -2.40 KCAL/MOL
REMARK 927      BINDING AFFINITY PREDICTED BY RF-SCORE:    0.00 PKD
ROOT
HETATM    1  C   UNL     1     -11.638  12.435  67.422  1.00  0.00    -0.365 C  
HETATM    2  S   UNL     1     -10.194  11.346  67.422  1.00  0.00    -0.198 SA 
HETATM    3  C   UNL     1     -11.003  10.081  68.427  1.00  0.00    -0.217 C  
HETATM    4  C   UNL     1     -11.742  10.601  69.656  1.00  0.00    -0.368 C  
HETATM    5  CA  UNL     1     -12.131  11.900  69.817  1.00  0.00    -0.252 C  
HETATM    6  CA  UNL     1     -11.333  13.954  67.170  1.00  0.00    -0.327 C  
HETATM    7  O   UNL     1     -12.395  14.989  69.343  1.00  0.00    -0.226 OA 
HETATM    8  N   UNL     1     -11.942  12.791  68.795  1.00  0.00    -0.289 N  
HETATM    9  C   UNL     1     -12.686  12.375  71.149  1.00  0.00    -0.240 C  
HETATM   10  OXT UNL     1     -12.577  11.746  72.191  1.00  0.00     0.010 OA 
HETATM   11  O   UNL     1     -13.408  13.514  71.130  1.00  0.00    -0.207 OA 
HETATM   12  C   UNL     1     -11.988  14.130  68.595  1.00  0.00    -0.338 C  
ENDROOT
BRANCH   4  13
HETATM   13  C   UNL     1     -11.854   9.498  70.708  1.00  0.00    -0.277 C  
BRANCH  13  14
HETATM   14  S   UNL     1     -10.322   9.074  71.576  1.00  0.00    -0.342 SA 
BRANCH  14  15
HETATM   15  C   UNL     1     -10.625   7.526  72.251  1.00  0.00    -0.236 A  
HETATM   16  N   UNL     1     -11.539   6.652  71.902  1.00  0.00    -0.287 NA 
HETATM   17  C   UNL     1      -8.816   7.580  74.029  1.00  0.00    -0.244 C  
HETATM   18  N   UNL     1     -11.403   5.598  72.775  1.00  0.00    -0.303 NA 
HETATM   19  N   UNL     1      -9.922   7.020  73.307  1.00  0.00    -0.203 NA 
HETATM   20  N   UNL     1     -10.420   5.816  73.638  1.00  0.00    -0.247 NA 
ENDBRANCH  14  15
ENDBRANCH  13  14
ENDBRANCH   4  13
BRANCH   6  21
HETATM   21  N   UNL     1      -9.886  14.288  67.042  1.00  0.00    -0.248 N  
HETATM   22  H   UNL     1      -9.212  13.716  67.550  1.00  0.00     0.000 HD 
HETATM   23  O   UNL     1     -10.140  15.956  65.508  1.00  0.00    -0.336 OA 
HETATM   24  C   UNL     1      -9.410  15.330  66.273  1.00  0.00    -0.310 C  
BRANCH  24  25
HETATM   25  CA  UNL     1      -7.947  15.750  66.583  1.00  0.00    -0.197 C  
BRANCH  25  26
HETATM   26  C   UNL     1      -7.831  17.259  66.742  1.00  0.00    -0.278 A  
HETATM   27  C   UNL     1      -8.329  19.324  67.938  1.00  0.00    -0.338 A  
HETATM   28  C   UNL     1      -7.065  18.003  65.831  1.00  0.00    -0.302 A  
HETATM   29  O   UNL     1      -7.434  21.379  67.218  1.00  0.00    -0.760 OA 
HETATM   30  C   UNL     1      -8.461  17.941  67.801  1.00  0.00    -0.242 A  
HETATM   31  C   UNL     1      -6.927  19.388  65.973  1.00  0.00    -0.283 A  
HETATM   32  H   UNL     1      -7.863  21.820  67.940  1.00  0.00     0.000 HD 
HETATM   33  C   UNL     1      -7.556  20.034  67.031  1.00  0.00    -0.282 A  
ENDBRANCH  25  26
BRANCH  25  34
HETATM   34  N   UNL     1      -7.434  15.089  67.781  1.00  0.00    -0.142 N  
HETATM   35  H   UNL     1      -7.922  15.230  68.666  1.00  0.00     0.000 HD 
BRANCH  34  36
HETATM   36  C   UNL     1      -6.326  14.288  67.761  1.00  0.00    -0.154 C  
HETATM   37  O   UNL     1      -5.248  14.701  67.340  1.00  0.00    -0.330 OA 
BRANCH  36  38
HETATM   38  N   UNL     1      -6.498  13.001  68.256  1.00  0.00    -0.082 N  
HETATM   39  C   UNL     1      -6.846  11.946  67.310  1.00  0.00    -0.142 C  
HETATM   40  N   UNL     1      -6.279  10.258  68.982  1.00  0.00    -0.040 N  
HETATM   41  C   UNL     1      -6.094  10.661  67.599  1.00  0.00    -0.048 C  
HETATM   42  C   UNL     1      -6.154  11.207  69.994  1.00  0.00    -0.134 C  
HETATM   43  O   UNL     1      -6.571  13.509  70.512  1.00  0.00     0.134 OA 
HETATM   44  C   UNL     1      -6.413  12.684  69.614  1.00  0.00    -0.050 C  
HETATM   45  O   UNL     1      -5.890  10.930  71.158  1.00  0.00    -0.331 OA 
BRANCH  40  46
HETATM   46  C   UNL     1      -6.363   8.844  69.328  1.00  0.00    -0.042 C  
HETATM   47  C   UNL     1      -7.434   8.078  68.575  1.00  0.00    -0.102 C  
ENDBRANCH  40  46
ENDBRANCH  36  38
ENDBRANCH  34  36
ENDBRANCH  25  34
ENDBRANCH  24  25
ENDBRANCH   6  21
TORSDOF 10
ENDMDL
MODEL       55
REMARK 921   NORMALIZED FREE ENERGY PREDICTED BY IDOCK:   -6.43 KCAL/MOL
REMARK 922        TOTAL FREE ENERGY PREDICTED BY IDOCK:  -12.49 KCAL/MOL
REMARK 923 INTER-LIGAND FREE ENERGY PREDICTED BY IDOCK:   -9.28 KCAL/MOL
REMARK 924 INTRA-LIGAND FREE ENERGY PREDICTED BY IDOCK:   -3.21 KCAL/MOL
REMARK 927      BINDING AFFINITY PREDICTED BY RF-SCORE:    0.00 PKD
ROOT
HETATM    1  C   UNL     1     -11.108  10.368  67.311  1.00  0.00    -0.179 C  
HETATM    2  S   UNL     1     -10.614  11.293  68.784  1.00  0.00    -0.210 SA 
HETATM    3  C   UNL     1     -11.630  12.728  68.366  1.00  0.00    -0.325 C  
HETATM    4  C   UNL     1     -11.521  13.204  66.921  1.00  0.00    -0.384 C  
HETATM    5  CA  UNL     1     -11.039  12.435  65.901  1.00  0.00    -0.313 C  
HETATM    6  CA  UNL     1     -10.100   9.259  66.845  1.00  0.00    -0.256 C  
HETATM    7  O   UNL     1      -9.653  10.066  64.381  1.00  0.00    -0.296 OA 
HETATM    8  N   UNL     1     -10.713  11.127  66.139  1.00  0.00    -0.252 N  
HETATM    9  C   UNL     1     -10.782  13.046  64.534  1.00  0.00    -0.385 C  
HETATM   10  OXT UNL     1     -10.726  14.251  64.331  1.00  0.00    -0.327 OA 
HETATM   11  O   UNL     1     -10.701  12.191  63.496  1.00  0.00    -0.410 OA 
HETATM   12  C   UNL     1     -10.058  10.116  65.520  1.00  0.00    -0.268 C  
ENDROOT
BRANCH   4  13
HETATM   13  C   UNL     1     -11.898  14.682  66.825  1.00  0.00    -0.317 C  
BRANCH  13  14
HETATM   14  S   UNL     1     -11.055  15.791  67.982  1.00  0.00    -0.323 SA 
BRANCH  14  15
HETATM   15  C   UNL     1      -9.592  16.208  67.188  1.00  0.00    -0.229 A  
HETATM   16  N   UNL     1      -8.470  15.531  67.145  1.00  0.00    -0.195 NA 
HETATM   17  C   UNL     1     -10.353  18.436  66.242  1.00  0.00    -0.415 C  
HETATM   18  N   UNL     1      -7.590  16.309  66.430  1.00  0.00    -0.188 NA 
HETATM   19  N   UNL     1      -9.422  17.375  66.499  1.00  0.00    -0.265 NA 
HETATM   20  N   UNL     1      -8.162  17.438  66.034  1.00  0.00    -0.536 NA 
ENDBRANCH  14  15
ENDBRANCH  13  14
ENDBRANCH   4  13
BRANCH   6  21
HETATM   21  N   UNL     1      -8.844   9.181  67.644  1.00  0.00    -0.120 N  
HETATM   22  H   UNL     1      -8.816   9.655  68.546  1.00  0.00     0.000 HD 
HETATM   23  O   UNL     1      -7.728   7.777  66.236  1.00  0.00    -0.085 OA 
HETATM   24  C   UNL     1      -7.717   8.503  67.227  1.00  0.00    -0.097 C  
BRANCH  24  25
HETATM   25  CA  UNL     1      -6.417   8.869  67.996  1.00  0.00    -0.057 C  
BRANCH  25  26
HETATM   26  C   UNL     1      -6.255  10.378  68.113  1.00  0.00    -0.051 A  
HETATM   27  C   UNL     1      -6.296  12.611  67.137  1.00  0.00     0.005 A  
HETATM   28  C   UNL     1      -5.940  10.954  69.353  1.00  0.00    -0.048 A  
HETATM   29  O   UNL     1      -5.897  14.513  68.466  1.00  0.00    -0.084 OA 
HETATM   30  C   UNL     1      -6.433  11.228  67.005  1.00  0.00    -0.114 A  
HETATM   31  C   UNL     1      -5.810  12.341  69.487  1.00  0.00    -0.101 A  
HETATM   32  H   UNL     1      -6.024  15.071  67.708  1.00  0.00     0.000 HD 
HETATM   33  C   UNL     1      -5.996  13.157  68.377  1.00  0.00    -0.083 A  
ENDBRANCH  25  26
BRANCH  25  34
HETATM   34  N   UNL     1      -6.386   8.266  69.327  1.00  0.00    -0.038 N  
HETATM   35  H   UNL     1      -5.932   8.775  70.086  1.00  0.00     0.000 HD 
BRANCH  34  36
HETATM   36  C   UNL     1      -6.943   7.046  69.594  1.00  0.00    -0.062 C  
HETATM   37  O   UNL     1      -6.364   6.003  69.300  1.00  0.00    -0.037 OA 
BRANCH  36  38
HETATM   38  N   UNL     1      -8.181   7.069  70.225  1.00  0.00    -0.126 N  
HETATM   39  C   UNL     1      -9.262   6.285  69.637  1.00  0.00    -0.141 C  
HETATM   40  N   UNL     1     -10.552   6.515  71.697  1.00  0.00    -0.214 N  
HETATM   41  C   UNL     1     -10.082   5.574  70.696  1.00  0.00    -0.223 C  
HETATM   42  C   UNL     1      -9.668   7.452  72.225  1.00  0.00    -0.155 C  
HETATM   43  O   UNL     1      -7.803   8.846  71.658  1.00  0.00    -0.270 OA 
HETATM   44  C   UNL     1      -8.454   7.848  71.352  1.00  0.00    -0.119 C  
HETATM   45  O   UNL     1      -9.820   7.995  73.313  1.00  0.00    -0.291 OA 
BRANCH  40  46
HETATM   46  C   UNL     1     -11.862   6.335  72.313  1.00  0.00    -0.278 C  
HETATM   47  C   UNL     1     -12.977   7.124  71.654  1.00  0.00    -0.415 C  
ENDBRANCH  40  46
ENDBRANCH  36  38
ENDBRANCH  34  36
ENDBRANCH  25  34
ENDBRANCH  24  25
ENDBRANCH   6  21
TORSDOF 10
ENDMDL
MODEL       56
REMARK 921   NORMALIZED FREE ENERGY PREDICTED BY IDOCK:   -6.43 KCAL/MOL
REMARK 922        TOTAL FREE ENERGY PREDICTED BY IDOCK:  -12.48 KCAL/MOL
REMARK 923 INTER-LIGAND FREE ENERGY PREDICTED BY IDOCK:  -10.48 KCAL/MOL
REMARK 924 INTRA-LIGAND FREE ENERGY PREDICTED BY IDOCK:   -2.00 KCAL/MOL
REMARK 927      BINDING AFFINITY PREDICTED BY RF-SCORE:    0.00 PKD
ROOT
HETATM    1  C   UNL     1      -9.788  11.616  66.913  1.00  0.00    -0.198 C  
HETATM    2  S   UNL     1     -11.060  11.963  68.150  1.00  0.00    -0.265 SA 
HETATM    3  C   UNL     1     -10.912  13.754  67.968  1.00  0.00    -0.250 C  
HETATM    4  C   UNL     1      -9.485  14.293  67.963  1.00  0.00    -0.204 C  
HETATM    5  CA  UNL     1      -8.383  13.525  67.715  1.00  0.00    -0.181 C  
HETATM    6  CA  UNL     1      -9.083  10.220  67.049  1.00  0.00    -0.139 C  
HETATM    7  O   UNL     1      -6.579  11.002  67.252  1.00  0.00    -0.067 OA 
HETATM    8  N   UNL     1      -8.543  12.214  67.355  1.00  0.00    -0.166 N  
HETATM    9  C   UNL     1      -6.990  14.094  67.921  1.00  0.00    -0.165 C  
HETATM   10  OXT UNL     1      -6.762  15.119  68.547  1.00  0.00    -0.102 OA 
HETATM   11  O   UNL     1      -5.980  13.458  67.294  1.00  0.00    -0.341 OA 
HETATM   12  C   UNL     1      -7.784  11.101  67.216  1.00  0.00    -0.130 C  
ENDROOT
BRANCH   4  13
HETATM   13  C   UNL     1      -9.474  15.757  68.404  1.00  0.00    -0.196 C  
BRANCH  13  14
HETATM   14  S   UNL     1     -10.369  16.912  67.336  1.00  0.00    -0.305 SA 
BRANCH  14  15
HETATM   15  C   UNL     1      -9.138  17.773  66.507  1.00  0.00    -0.264 A  
HETATM   16  N   UNL     1      -8.052  17.299  65.947  1.00  0.00    -0.536 NA 
HETATM   17  C   UNL     1     -10.120  20.097  66.780  1.00  0.00    -0.457 C  
HETATM   18  N   UNL     1      -7.372  18.391  65.462  1.00  0.00    -0.531 NA 
HETATM   19  N   UNL     1      -9.145  19.131  66.361  1.00  0.00    -0.340 NA 
HETATM   20  N   UNL     1      -8.031  19.515  65.713  1.00  0.00    -0.427 NA 
ENDBRANCH  14  15
ENDBRANCH  13  14
ENDBRANCH   4  13
BRANCH   6  21
HETATM   21  N   UNL     1      -9.513   9.414  68.227  1.00  0.00    -0.137 N  
HETATM   22  H   UNL     1      -9.148   9.668  69.144  1.00  0.00     0.000 HD 
HETATM   23  O   UNL     1     -10.985   8.082  67.105  1.00  0.00    -0.191 OA 
HETATM   24  C   UNL     1     -10.380   8.344  68.142  1.00  0.00    -0.204 C  
BRANCH  24  25
HETATM   25  CA  UNL     1     -10.386   7.413  69.386  1.00  0.00    -0.210 C  
BRANCH  25  26
HETATM   26  C   UNL     1     -11.464   7.830  70.377  1.00  0.00    -0.171 A  
HETATM   27  C   UNL     1     -13.550   7.406  71.564  1.00  0.00    -0.454 A  
HETATM   28  C   UNL     1     -11.348   9.044  71.069  1.00  0.00    -0.362 A  
HETATM   29  O   UNL     1     -14.362   8.938  73.157  1.00  0.00    -1.143 OA 
HETATM   30  C   UNL     1     -12.581   7.013  70.639  1.00  0.00    -0.104 A  
HETATM   31  C   UNL     1     -12.316   9.435  72.001  1.00  0.00    -0.418 A  
HETATM   32  H   UNL     1     -15.107   8.373  73.323  1.00  0.00     0.000 HD 
HETATM   33  C   UNL     1     -13.405   8.607  72.244  1.00  0.00    -0.375 A  
ENDBRANCH  25  26
BRANCH  25  34
HETATM   34  N   UNL     1     -10.575   6.012  69.015  1.00  0.00    -0.258 N  
HETATM   35  H   UNL     1     -11.468   5.726  68.614  1.00  0.00     0.000 HD 
BRANCH  34  36
HETATM   36  C   UNL     1      -9.598   5.070  69.185  1.00  0.00    -0.154 C  
HETATM   37  O   UNL     1      -9.592   4.033  68.527  1.00  0.00    -0.156 OA 
BRANCH  36  38
HETATM   38  N   UNL     1      -8.622   5.371  70.127  1.00  0.00    -0.117 N  
HETATM   39  C   UNL     1      -7.243   5.492  69.666  1.00  0.00    -0.065 C  
HETATM   40  N   UNL     1      -6.633   6.569  71.771  1.00  0.00    -0.053 N  
HETATM   41  C   UNL     1      -6.530   6.657  70.326  1.00  0.00    -0.044 C  
HETATM   42  C   UNL     1      -7.864   6.278  72.354  1.00  0.00    -0.103 C  
HETATM   43  O   UNL     1      -9.867   5.001  72.041  1.00  0.00    -0.162 OA 
HETATM   44  C   UNL     1      -8.888   5.502  71.492  1.00  0.00    -0.136 C  
HETATM   45  O   UNL     1      -8.158   6.569  73.507  1.00  0.00    -0.110 OA 
BRANCH  40  46
HETATM   46  C   UNL     1      -5.525   7.007  72.613  1.00  0.00    -0.038 C  
HETATM   47  C   UNL     1      -5.457   8.506  72.828  1.00  0.00    -0.056 C  
ENDBRANCH  40  46
ENDBRANCH  36  38
ENDBRANCH  34  36
ENDBRANCH  25  34
ENDBRANCH  24  25
ENDBRANCH   6  21
TORSDOF 10
ENDMDL
MODEL       57
REMARK 921   NORMALIZED FREE ENERGY PREDICTED BY IDOCK:   -6.37 KCAL/MOL
REMARK 922        TOTAL FREE ENERGY PREDICTED BY IDOCK:  -12.38 KCAL/MOL
REMARK 923 INTER-LIGAND FREE ENERGY PREDICTED BY IDOCK:  -10.93 KCAL/MOL
REMARK 924 INTRA-LIGAND FREE ENERGY PREDICTED BY IDOCK:   -1.46 KCAL/MOL
REMARK 927      BINDING AFFINITY PREDICTED BY RF-SCORE:    0.00 PKD
ROOT
HETATM    1  C   UNL     1      -7.135   9.234  69.684  1.00  0.00    -0.061 C  
HETATM    2  S   UNL     1      -8.419   8.267  70.513  1.00  0.00    -0.135 SA 
HETATM    3  C   UNL     1      -7.548   6.701  70.285  1.00  0.00    -0.096 C  
HETATM    4  C   UNL     1      -6.999   6.459  68.883  1.00  0.00    -0.076 C  
HETATM    5  CA  UNL     1      -6.799   7.449  67.963  1.00  0.00    -0.070 C  
HETATM    6  CA  UNL     1      -7.611  10.603  69.080  1.00  0.00    -0.131 C  
HETATM    7  O   UNL     1      -6.897  10.258  66.572  1.00  0.00    -0.090 OA 
HETATM    8  N   UNL     1      -7.007   8.754  68.322  1.00  0.00    -0.072 N  
HETATM    9  C   UNL     1      -6.435   7.102  66.530  1.00  0.00    -0.051 C  
HETATM   10  OXT UNL     1      -6.556   5.983  66.052  1.00  0.00    -0.045 OA 
HETATM   11  O   UNL     1      -5.869   8.081  65.797  1.00  0.00    -0.037 OA 
HETATM   12  C   UNL     1      -7.118   9.964  67.724  1.00  0.00    -0.087 C  
ENDROOT
BRANCH   4  13
HETATM   13  C   UNL     1      -6.842   4.959  68.631  1.00  0.00    -0.051 C  
BRANCH  13  14
HETATM   14  S   UNL     1      -8.325   3.954  68.887  1.00  0.00    -0.074 SA 
BRANCH  14  15
HETATM   15  C   UNL     1      -9.260   4.198  67.470  1.00  0.00    -0.157 A  
HETATM   16  N   UNL     1      -9.156   3.590  66.313  1.00  0.00    -0.148 NA 
HETATM   17  C   UNL     1     -10.763   6.031  68.377  1.00  0.00    -0.280 C  
HETATM   18  N   UNL     1     -10.094   4.175  65.496  1.00  0.00    -0.208 NA 
HETATM   19  N   UNL     1     -10.255   5.130  67.382  1.00  0.00    -0.186 NA 
HETATM   20  N   UNL     1     -10.768   5.118  66.139  1.00  0.00    -0.265 NA 
ENDBRANCH  14  15
ENDBRANCH  13  14
ENDBRANCH   4  13
BRANCH   6  21
HETATM   21  N   UNL     1      -9.071  10.872  69.214  1.00  0.00    -0.395 N  
HETATM   22  H   UNL     1      -9.645  10.183  69.699  1.00  0.00     0.000 HD 
HETATM   23  O   UNL     1      -9.040  12.946  68.269  1.00  0.00    -0.199 OA 
HETATM   24  C   UNL     1      -9.687  12.002  68.717  1.00  0.00    -0.016 C  
BRANCH  24  25
HETATM   25  CA  UNL     1     -11.233  11.904  68.608  1.00  0.00    -0.257 C  
BRANCH  25  26
HETATM   26  C   UNL     1     -11.822  11.164  69.801  1.00  0.00    -0.422 A  
HETATM   27  C   UNL     1     -12.194   9.117  71.071  1.00  0.00    -0.302 A  
HETATM   28  C   UNL     1     -12.528  11.872  70.785  1.00  0.00    -0.384 A  
HETATM   29  O   UNL     1     -13.360   9.164  73.116  1.00  0.00    -0.844 OA 
HETATM   30  C   UNL     1     -11.660   9.774  69.961  1.00  0.00    -0.185 A  
HETATM   31  C   UNL     1     -13.057  11.214  71.902  1.00  0.00    -0.513 A  
HETATM   32  H   UNL     1     -13.238   8.226  73.208  1.00  0.00     0.000 HD 
HETATM   33  C   UNL     1     -12.878   9.842  72.036  1.00  0.00    -0.395 A  
ENDBRANCH  25  26
BRANCH  25  34
HETATM   34  N   UNL     1     -11.853  13.223  68.493  1.00  0.00    -0.342 N  
HETATM   35  H   UNL     1     -12.281  13.638  69.321  1.00  0.00     0.000 HD 
BRANCH  34  36
HETATM   36  C   UNL     1     -11.881  13.921  67.318  1.00  0.00    -0.407 C  
HETATM   37  O   UNL     1     -12.382  13.442  66.304  1.00  0.00    -0.401 OA 
BRANCH  36  38
HETATM   38  N   UNL     1     -11.326  15.194  67.356  1.00  0.00    -0.327 N  
HETATM   39  C   UNL     1     -11.654  16.049  68.492  1.00  0.00    -0.316 C  
HETATM   40  N   UNL     1      -9.817  17.545  67.898  1.00  0.00    -0.282 N  
HETATM   41  C   UNL     1     -10.443  16.816  68.987  1.00  0.00    -0.336 C  
HETATM   42  C   UNL     1      -9.601  16.905  66.681  1.00  0.00    -0.267 C  
HETATM   43  O   UNL     1     -10.544  15.292  65.181  1.00  0.00    -0.380 OA 
HETATM   44  C   UNL     1     -10.523  15.712  66.336  1.00  0.00    -0.305 C  
HETATM   45  O   UNL     1      -8.756  17.258  65.867  1.00  0.00    -0.528 OA 
BRANCH  40  46
HETATM   46  C   UNL     1      -9.212  18.849  68.143  1.00  0.00    -0.320 C  
HETATM   47  C   UNL     1     -10.097  19.818  68.903  1.00  0.00    -0.481 C  
ENDBRANCH  40  46
ENDBRANCH  36  38
ENDBRANCH  34  36
ENDBRANCH  25  34
ENDBRANCH  24  25
ENDBRANCH   6  21
TORSDOF 10
ENDMDL
MODEL       58
REMARK 921   NORMALIZED FREE ENERGY PREDICTED BY IDOCK:   -6.36 KCAL/MOL
REMARK 922        TOTAL FREE ENERGY PREDICTED BY IDOCK:  -12.38 KCAL/MOL
REMARK 923 INTER-LIGAND FREE ENERGY PREDICTED BY IDOCK:  -10.06 KCAL/MOL
REMARK 924 INTRA-LIGAND FREE ENERGY PREDICTED BY IDOCK:   -2.31 KCAL/MOL
REMARK 927      BINDING AFFINITY PREDICTED BY RF-SCORE:    0.00 PKD
ROOT
HETATM    1  C   UNL     1     -11.458  11.141  67.601  1.00  0.00    -0.250 C  
HETATM    2  S   UNL     1      -9.867  10.833  66.797  1.00  0.00    -0.199 SA 
HETATM    3  C   UNL     1      -9.838   9.088  67.264  1.00  0.00    -0.196 C  
HETATM    4  C   UNL     1     -10.186   8.797  68.720  1.00  0.00    -0.224 C  
HETATM    5  CA  UNL     1     -10.849   9.672  69.533  1.00  0.00    -0.231 C  
HETATM    6  CA  UNL     1     -11.725  12.633  68.009  1.00  0.00    -0.350 C  
HETATM    7  O   UNL     1     -12.159  12.321  70.585  1.00  0.00    -0.363 OA 
HETATM    8  N   UNL     1     -11.321  10.848  69.014  1.00  0.00    -0.257 N  
HETATM    9  C   UNL     1     -10.983   9.387  71.019  1.00  0.00    -0.338 C  
HETATM   10  OXT UNL     1     -10.317   8.550  71.612  1.00  0.00    -0.217 OA 
HETATM   11  O   UNL     1     -11.958  10.047  71.674  1.00  0.00    -0.376 OA 
HETATM   12  C   UNL     1     -11.826  12.022  69.461  1.00  0.00    -0.326 C  
ENDROOT
BRANCH   4  13
HETATM   13  C   UNL     1      -9.572   7.465  69.152  1.00  0.00    -0.156 C  
BRANCH  13  14
HETATM   14  S   UNL     1     -10.656   6.019  69.037  1.00  0.00    -0.320 SA 
BRANCH  14  15
HETATM   15  C   UNL     1     -10.232   5.283  67.547  1.00  0.00    -0.178 A  
HETATM   16  N   UNL     1     -10.779   5.460  66.368  1.00  0.00    -0.280 NA 
HETATM   17  C   UNL     1      -8.336   3.839  68.419  1.00  0.00    -0.086 C  
HETATM   18  N   UNL     1     -10.116   4.609  65.515  1.00  0.00    -0.199 NA 
HETATM   19  N   UNL     1      -9.236   4.355  67.428  1.00  0.00    -0.133 NA 
HETATM   20  N   UNL     1      -9.174   3.929  66.154  1.00  0.00    -0.150 NA 
ENDBRANCH  14  15
ENDBRANCH  13  14
ENDBRANCH   4  13
BRANCH   6  21
HETATM   21  N   UNL     1     -10.595  13.567  67.741  1.00  0.00    -0.243 N  
HETATM   22  H   UNL     1      -9.850  13.256  67.118  1.00  0.00     0.000 HD 
HETATM   23  O   UNL     1     -11.433  15.331  68.916  1.00  0.00    -0.293 OA 
HETATM   24  C   UNL     1     -10.502  14.828  68.292  1.00  0.00    -0.241 C  
BRANCH  24  25
HETATM   25  CA  UNL     1      -9.089  15.470  68.211  1.00  0.00    -0.186 C  
BRANCH  25  26
HETATM   26  C   UNL     1      -9.176  16.942  67.833  1.00  0.00    -0.234 A  
HETATM   27  C   UNL     1      -9.111  18.727  66.175  1.00  0.00    -0.152 A  
HETATM   28  C   UNL     1      -9.446  17.903  68.819  1.00  0.00    -0.264 A  
HETATM   29  O   UNL     1      -9.504  20.963  66.797  1.00  0.00    -0.660 OA 
HETATM   30  C   UNL     1      -9.011  17.373  66.503  1.00  0.00    -0.285 A  
HETATM   31  C   UNL     1      -9.552  19.259  68.489  1.00  0.00    -0.465 A  
HETATM   32  H   UNL     1      -9.393  21.235  65.894  1.00  0.00     0.000 HD 
HETATM   33  C   UNL     1      -9.390  19.656  67.167  1.00  0.00    -0.337 A  
ENDBRANCH  25  26
BRANCH  25  34
HETATM   34  N   UNL     1      -8.356  15.327  69.467  1.00  0.00    -0.346 N  
HETATM   35  H   UNL     1      -8.883  15.241  70.336  1.00  0.00     0.000 HD 
BRANCH  34  36
HETATM   36  C   UNL     1      -6.990  15.304  69.521  1.00  0.00    -0.191 C  
HETATM   37  O   UNL     1      -6.349  16.294  69.865  1.00  0.00    -0.198 OA 
BRANCH  36  38
HETATM   38  N   UNL     1      -6.389  14.098  69.181  1.00  0.00    -0.100 N  
HETATM   39  C   UNL     1      -6.335  13.051  70.196  1.00  0.00     0.053 C  
HETATM   40  N   UNL     1      -5.771  11.411  68.477  1.00  0.00    -0.042 N  
HETATM   41  C   UNL     1      -6.635  11.684  69.612  1.00  0.00    -0.096 C  
HETATM   42  C   UNL     1      -5.582  12.393  67.508  1.00  0.00    -0.130 C  
HETATM   43  O   UNL     1      -5.383  14.762  67.206  1.00  0.00    -0.296 OA 
HETATM   44  C   UNL     1      -5.787  13.863  67.942  1.00  0.00    -0.127 C  
HETATM   45  O   UNL     1      -5.232  12.156  66.358  1.00  0.00    -0.304 OA 
BRANCH  40  46
HETATM   46  C   UNL     1      -5.293  10.055  68.230  1.00  0.00    -0.035 C  
HETATM   47  C   UNL     1      -6.345   9.111  67.680  1.00  0.00    -0.059 C  
ENDBRANCH  40  46
ENDBRANCH  36  38
ENDBRANCH  34  36
ENDBRANCH  25  34
ENDBRANCH  24  25
ENDBRANCH   6  21
TORSDOF 10
ENDMDL
MODEL       59
REMARK 921   NORMALIZED FREE ENERGY PREDICTED BY IDOCK:   -6.35 KCAL/MOL
REMARK 922        TOTAL FREE ENERGY PREDICTED BY IDOCK:  -12.36 KCAL/MOL
REMARK 923 INTER-LIGAND FREE ENERGY PREDICTED BY IDOCK:  -10.45 KCAL/MOL
REMARK 924 INTRA-LIGAND FREE ENERGY PREDICTED BY IDOCK:   -1.91 KCAL/MOL
REMARK 927      BINDING AFFINITY PREDICTED BY RF-SCORE:    0.00 PKD
ROOT
HETATM    1  C   UNL     1      -9.293  12.102  66.564  1.00  0.00    -0.228 C  
HETATM    2  S   UNL     1     -11.095  11.946  66.552  1.00  0.00    -0.317 SA 
HETATM    3  C   UNL     1     -11.359  13.693  66.173  1.00  0.00    -0.312 C  
HETATM    4  C   UNL     1     -10.542  14.671  67.011  1.00  0.00    -0.280 C  
HETATM    5  CA  UNL     1      -9.420  14.324  67.708  1.00  0.00    -0.216 C  
HETATM    6  CA  UNL     1      -8.531  11.012  67.398  1.00  0.00    -0.132 C  
HETATM    7  O   UNL     1      -7.199  12.565  69.052  1.00  0.00    -0.084 OA 
HETATM    8  N   UNL     1      -8.923  13.054  67.593  1.00  0.00    -0.181 N  
HETATM    9  C   UNL     1      -8.779  15.310  68.670  1.00  0.00    -0.182 C  
HETATM   10  OXT UNL     1      -9.337  16.319  69.077  1.00  0.00    -0.238 OA 
HETATM   11  O   UNL     1      -7.496  15.076  69.006  1.00  0.00    -0.132 OA 
HETATM   12  C   UNL     1      -8.013  12.263  68.209  1.00  0.00    -0.163 C  
ENDROOT
BRANCH   4  13
HETATM   13  C   UNL     1     -11.238  16.032  67.056  1.00  0.00     0.033 C  
BRANCH  13  14
HETATM   14  S   UNL     1     -10.838  17.171  65.706  1.00  0.00     0.107 SA 
BRANCH  14  15
HETATM   15  C   UNL     1      -9.354  17.891  66.177  1.00  0.00    -0.132 A  
HETATM   16  N   UNL     1      -8.135  17.499  65.894  1.00  0.00    -0.555 NA 
HETATM   17  C   UNL     1     -10.329  19.809  67.523  1.00  0.00    -0.440 C  
HETATM   18  N   UNL     1      -7.299  18.378  66.542  1.00  0.00    -0.222 NA 
HETATM   19  N   UNL     1      -9.280  19.001  66.970  1.00  0.00    -0.292 NA 
HETATM   20  N   UNL     1      -7.989  19.297  67.204  1.00  0.00    -0.260 NA 
ENDBRANCH  14  15
ENDBRANCH  13  14
ENDBRANCH   4  13
BRANCH   6  21
HETATM   21  N   UNL     1      -9.410  10.050  68.121  1.00  0.00    -0.131 N  
HETATM   22  H   UNL     1     -10.239   9.700  67.641  1.00  0.00     0.000 HD 
HETATM   23  O   UNL     1      -8.106   9.854  69.980  1.00  0.00    -0.173 OA 
HETATM   24  C   UNL     1      -9.163   9.607  69.403  1.00  0.00    -0.189 C  
BRANCH  24  25
HETATM   25  CA  UNL     1     -10.377   8.940  70.106  1.00  0.00    -0.206 C  
BRANCH  25  26
HETATM   26  C   UNL     1     -11.352   9.986  70.628  1.00  0.00    -0.425 A  
HETATM   27  C   UNL     1     -13.190  10.652  72.083  1.00  0.00    -0.379 A  
HETATM   28  C   UNL     1     -11.290  11.303  70.147  1.00  0.00    -0.251 A  
HETATM   29  O   UNL     1     -13.956  12.878  72.113  1.00  0.00    -0.367 OA 
HETATM   30  C   UNL     1     -12.316   9.674  71.606  1.00  0.00    -0.489 A  
HETATM   31  C   UNL     1     -12.161  12.285  70.631  1.00  0.00    -0.378 A  
HETATM   32  H   UNL     1     -14.597  12.650  72.775  1.00  0.00     0.000 HD 
HETATM   33  C   UNL     1     -13.100  11.950  71.601  1.00  0.00    -0.328 A  
ENDBRANCH  25  26
BRANCH  25  34
HETATM   34  N   UNL     1     -11.077   8.015  69.218  1.00  0.00    -0.435 N  
HETATM   35  H   UNL     1     -11.506   8.381  68.367  1.00  0.00     0.000 HD 
BRANCH  34  36
HETATM   36  C   UNL     1     -11.180   6.678  69.483  1.00  0.00    -0.326 C  
HETATM   37  O   UNL     1     -11.869   6.263  70.411  1.00  0.00    -0.329 OA 
BRANCH  36  38
HETATM   38  N   UNL     1     -10.475   5.835  68.633  1.00  0.00    -0.219 N  
HETATM   39  C   UNL     1      -9.476   4.949  69.223  1.00  0.00    -0.142 C  
HETATM   40  N   UNL     1      -9.405   3.649  67.157  1.00  0.00    -0.189 N  
HETATM   41  C   UNL     1      -9.513   3.566  68.603  1.00  0.00    -0.141 C  
HETATM   42  C   UNL     1     -10.173   4.582  66.465  1.00  0.00    -0.191 C  
HETATM   43  O   UNL     1     -11.079   6.795  66.617  1.00  0.00    -0.243 OA 
HETATM   44  C   UNL     1     -10.633   5.837  67.245  1.00  0.00    -0.279 C  
HETATM   45  O   UNL     1     -10.468   4.477  65.281  1.00  0.00    -0.226 OA 
BRANCH  40  46
HETATM   46  C   UNL     1      -8.682   2.621  66.417  1.00  0.00    -0.122 C  
HETATM   47  C   UNL     1      -7.242   2.975  66.097  1.00  0.00    -0.066 C  
ENDBRANCH  40  46
ENDBRANCH  36  38
ENDBRANCH  34  36
ENDBRANCH  25  34
ENDBRANCH  24  25
ENDBRANCH   6  21
TORSDOF 10
ENDMDL
MODEL       60
REMARK 921   NORMALIZED FREE ENERGY PREDICTED BY IDOCK:   -6.33 KCAL/MOL
REMARK 922        TOTAL FREE ENERGY PREDICTED BY IDOCK:  -12.32 KCAL/MOL
REMARK 923 INTER-LIGAND FREE ENERGY PREDICTED BY IDOCK:  -10.68 KCAL/MOL
REMARK 924 INTRA-LIGAND FREE ENERGY PREDICTED BY IDOCK:   -1.65 KCAL/MOL
REMARK 927      BINDING AFFINITY PREDICTED BY RF-SCORE:    0.00 PKD
ROOT
HETATM    1  C   UNL     1      -8.157   9.974  67.965  1.00  0.00    -0.112 C  
HETATM    2  S   UNL     1      -7.923  10.263  69.735  1.00  0.00    -0.063 SA 
HETATM    3  C   UNL     1      -7.614   8.520  70.097  1.00  0.00    -0.068 C  
HETATM    4  C   UNL     1      -8.596   7.540  69.464  1.00  0.00    -0.133 C  
HETATM    5  CA  UNL     1      -9.401   7.847  68.403  1.00  0.00    -0.140 C  
HETATM    6  CA  UNL     1      -9.014  11.056  67.216  1.00  0.00    -0.138 C  
HETATM    7  O   UNL     1     -10.898   9.519  66.213  1.00  0.00     0.079 OA 
HETATM    8  N   UNL     1      -9.275   9.066  67.794  1.00  0.00    -0.140 N  
HETATM    9  C   UNL     1     -10.486   6.881  67.959  1.00  0.00    -0.211 C  
HETATM   10  OXT UNL     1     -10.880   5.945  68.640  1.00  0.00    -0.273 OA 
HETATM   11  O   UNL     1     -10.958   7.039  66.707  1.00  0.00    -0.317 OA 
HETATM   12  C   UNL     1      -9.950   9.825  66.898  1.00  0.00    -0.211 C  
ENDROOT
BRANCH   4  13
HETATM   13  C   UNL     1      -8.635   6.241  70.269  1.00  0.00    -0.138 C  
BRANCH  13  14
HETATM   14  S   UNL     1      -7.492   4.942  69.732  1.00  0.00    -0.056 SA 
BRANCH  14  15
HETATM   15  C   UNL     1      -8.140   4.389  68.243  1.00  0.00    -0.082 A  
HETATM   16  N   UNL     1      -9.111   3.530  68.049  1.00  0.00    -0.140 NA 
HETATM   17  C   UNL     1      -6.624   5.725  66.708  1.00  0.00    -0.056 C  
HETATM   18  N   UNL     1      -9.218   3.387  66.685  1.00  0.00    -0.166 NA 
HETATM   19  N   UNL     1      -7.663   4.787  67.027  1.00  0.00    -0.091 NA 
HETATM   20  N   UNL     1      -8.335   4.149  66.053  1.00  0.00    -0.108 NA 
ENDBRANCH  14  15
ENDBRANCH  13  14
ENDBRANCH   4  13
BRANCH   6  21
HETATM   21  N   UNL     1      -9.572  12.126  68.091  1.00  0.00    -0.204 N  
HETATM   22  H   UNL     1      -9.118  12.303  68.986  1.00  0.00     0.000 HD 
HETATM   23  O   UNL     1     -11.167  12.848  66.630  1.00  0.00    -0.283 OA 
HETATM   24  C   UNL     1     -10.670  12.890  67.753  1.00  0.00    -0.224 C  
BRANCH  24  25
HETATM   25  CA  UNL     1     -11.320  13.654  68.940  1.00  0.00    -0.290 C  
BRANCH  25  26
HETATM   26  C   UNL     1     -11.977  12.691  69.919  1.00  0.00    -0.365 A  
HETATM   27  C   UNL     1     -12.478  10.429  70.676  1.00  0.00    -0.437 A  
HETATM   28  C   UNL     1     -12.681  13.189  71.025  1.00  0.00    -0.361 A  
HETATM   29  O   UNL     1     -13.704  10.066  72.654  1.00  0.00    -0.628 OA 
HETATM   30  C   UNL     1     -11.882  11.295  69.758  1.00  0.00    -0.437 A  
HETATM   31  C   UNL     1     -13.272  12.321  71.950  1.00  0.00    -0.481 A  
HETATM   32  H   UNL     1     -13.626   9.127  72.531  1.00  0.00     0.000 HD 
HETATM   33  C   UNL     1     -13.159  10.948  71.769  1.00  0.00    -0.459 A  
ENDBRANCH  25  26
BRANCH  25  34
HETATM   34  N   UNL     1     -10.348  14.486  69.646  1.00  0.00    -0.435 N  
HETATM   35  H   UNL     1      -9.467  14.066  69.945  1.00  0.00     0.000 HD 
BRANCH  34  36
HETATM   36  C   UNL     1     -10.574  15.806  69.922  1.00  0.00    -0.328 C  
HETATM   37  O   UNL     1     -11.342  16.148  70.818  1.00  0.00    -0.385 OA 
BRANCH  36  38
HETATM   38  N   UNL     1      -9.875  16.717  69.140  1.00  0.00    -0.253 N  
HETATM   39  C   UNL     1     -10.645  17.668  68.345  1.00  0.00    -0.316 C  
HETATM   40  N   UNL     1      -8.634  19.007  67.994  1.00  0.00    -0.293 N  
HETATM   41  C   UNL     1     -10.033  19.055  68.378  1.00  0.00    -0.408 C  
HETATM   42  C   UNL     1      -7.807  18.029  68.540  1.00  0.00    -0.303 C  
HETATM   43  O   UNL     1      -7.779  15.748  69.276  1.00  0.00    -0.201 OA 
HETATM   44  C   UNL     1      -8.482  16.728  69.034  1.00  0.00    -0.156 C  
HETATM   45  O   UNL     1      -6.588  18.131  68.614  1.00  0.00    -0.215 OA 
BRANCH  40  46
HETATM   46  C   UNL     1      -8.045  20.102  67.231  1.00  0.00    -0.330 C  
HETATM   47  C   UNL     1      -7.557  19.711  65.849  1.00  0.00    -0.320 C  
ENDBRANCH  40  46
ENDBRANCH  36  38
ENDBRANCH  34  36
ENDBRANCH  25  34
ENDBRANCH  24  25
ENDBRANCH   6  21
TORSDOF 10
ENDMDL
MODEL       61
REMARK 921   NORMALIZED FREE ENERGY PREDICTED BY IDOCK:   -6.31 KCAL/MOL
REMARK 922        TOTAL FREE ENERGY PREDICTED BY IDOCK:  -12.30 KCAL/MOL
REMARK 923 INTER-LIGAND FREE ENERGY PREDICTED BY IDOCK:  -10.34 KCAL/MOL
REMARK 924 INTRA-LIGAND FREE ENERGY PREDICTED BY IDOCK:   -1.95 KCAL/MOL
REMARK 927      BINDING AFFINITY PREDICTED BY RF-SCORE:    0.00 PKD
ROOT
HETATM    1  C   UNL     1     -11.741  14.418  67.862  1.00  0.00    -0.356 C  
HETATM    2  S   UNL     1     -10.426  14.130  69.070  1.00  0.00    -0.129 SA 
HETATM    3  C   UNL     1     -10.200  15.889  69.415  1.00  0.00    -0.262 C  
HETATM    4  C   UNL     1     -10.117  16.788  68.186  1.00  0.00    -0.282 C  
HETATM    5  CA  UNL     1     -10.560  16.425  66.946  1.00  0.00    -0.252 C  
HETATM    6  CA  UNL     1     -11.943  13.275  66.804  1.00  0.00    -0.382 C  
HETATM    7  O   UNL     1     -11.628  14.655  64.587  1.00  0.00    -0.394 OA 
HETATM    8  N   UNL     1     -11.204  15.228  66.785  1.00  0.00    -0.288 N  
HETATM    9  C   UNL     1     -10.264  17.299  65.740  1.00  0.00    -0.198 C  
HETATM   10  OXT UNL     1      -9.426  18.190  65.737  1.00  0.00    -0.483 OA 
HETATM   11  O   UNL     1     -11.043  17.115  64.656  1.00  0.00    -1.036 OA 
HETATM   12  C   UNL     1     -11.611  14.424  65.774  1.00  0.00    -0.353 C  
ENDROOT
BRANCH   4  13
HETATM   13  C   UNL     1      -9.355  18.070  68.523  1.00  0.00    -0.304 C  
BRANCH  13  14
HETATM   14  S   UNL     1      -7.549  17.945  68.509  1.00  0.00    -0.293 SA 
BRANCH  14  15
HETATM   15  C   UNL     1      -7.027  19.360  67.692  1.00  0.00    -0.222 A  
HETATM   16  N   UNL     1      -7.183  20.611  68.053  1.00  0.00    -0.210 NA 
HETATM   17  C   UNL     1      -5.961  18.215  65.694  1.00  0.00    -0.217 C  
HETATM   18  N   UNL     1      -6.635  21.365  67.043  1.00  0.00    -0.558 NA 
HETATM   19  N   UNL     1      -6.379  19.334  66.490  1.00  0.00    -0.185 NA 
HETATM   20  N   UNL     1      -6.144  20.593  66.082  1.00  0.00    -0.208 NA 
ENDBRANCH  14  15
ENDBRANCH  13  14
ENDBRANCH   4  13
BRANCH   6  21
HETATM   21  N   UNL     1     -10.969  12.150  66.906  1.00  0.00    -0.256 N  
HETATM   22  H   UNL     1     -10.571  11.938  67.820  1.00  0.00     0.000 HD 
HETATM   23  O   UNL     1     -11.133  11.470  64.736  1.00  0.00    -0.296 OA 
HETATM   24  C   UNL     1     -10.578  11.382  65.829  1.00  0.00    -0.260 C  
BRANCH  24  25
HETATM   25  CA  UNL     1      -9.289  10.546  66.061  1.00  0.00    -0.178 C  
BRANCH  25  26
HETATM   26  C   UNL     1      -9.515   9.471  67.115  1.00  0.00    -0.187 A  
HETATM   27  C   UNL     1      -9.245   8.614  69.381  1.00  0.00    -0.150 A  
HETATM   28  C   UNL     1     -10.255   8.323  66.797  1.00  0.00    -0.375 A  
HETATM   29  O   UNL     1     -10.214   6.564  70.016  1.00  0.00    -0.177 OA 
HETATM   30  C   UNL     1      -9.013   9.604  68.425  1.00  0.00    -0.123 A  
HETATM   31  C   UNL     1     -10.493   7.334  67.757  1.00  0.00    -0.292 A  
HETATM   32  H   UNL     1      -9.871   6.672  70.894  1.00  0.00     0.000 HD 
HETATM   33  C   UNL     1      -9.991   7.493  69.044  1.00  0.00    -0.175 A  
ENDBRANCH  25  26
BRANCH  25  34
HETATM   34  N   UNL     1      -8.811   9.930  64.825  1.00  0.00    -0.185 N  
HETATM   35  H   UNL     1      -9.472   9.785  64.062  1.00  0.00     0.000 HD 
BRANCH  34  36
HETATM   36  C   UNL     1      -7.512   9.542  64.653  1.00  0.00    -0.113 C  
HETATM   37  O   UNL     1      -6.656  10.333  64.266  1.00  0.00    -0.127 OA 
BRANCH  36  38
HETATM   38  N   UNL     1      -7.230   8.215  64.956  1.00  0.00    -0.074 N  
HETATM   39  C   UNL     1      -6.418   7.941  66.136  1.00  0.00    -0.046 C  
HETATM   40  N   UNL     1      -7.083   5.593  66.052  1.00  0.00    -0.066 N  
HETATM   41  C   UNL     1      -6.942   6.751  66.917  1.00  0.00    -0.070 C  
HETATM   42  C   UNL     1      -7.684   5.739  64.804  1.00  0.00    -0.096 C  
HETATM   43  O   UNL     1      -7.912   7.257  62.963  1.00  0.00    -0.134 OA 
HETATM   44  C   UNL     1      -7.634   7.143  64.156  1.00  0.00    -0.109 C  
HETATM   45  O   UNL     1      -8.208   4.819  64.189  1.00  0.00    -0.105 OA 
BRANCH  40  46
HETATM   46  C   UNL     1      -6.815   4.256  66.569  1.00  0.00    -0.055 C  
HETATM   47  C   UNL     1      -7.887   3.718  67.498  1.00  0.00    -0.082 C  
ENDBRANCH  40  46
ENDBRANCH  36  38
ENDBRANCH  34  36
ENDBRANCH  25  34
ENDBRANCH  24  25
ENDBRANCH   6  21
TORSDOF 10
ENDMDL
MODEL       62
REMARK 921   NORMALIZED FREE ENERGY PREDICTED BY IDOCK:   -6.31 KCAL/MOL
REMARK 922        TOTAL FREE ENERGY PREDICTED BY IDOCK:  -12.29 KCAL/MOL
REMARK 923 INTER-LIGAND FREE ENERGY PREDICTED BY IDOCK:  -10.04 KCAL/MOL
REMARK 924 INTRA-LIGAND FREE ENERGY PREDICTED BY IDOCK:   -2.25 KCAL/MOL
REMARK 927      BINDING AFFINITY PREDICTED BY RF-SCORE:    0.00 PKD
ROOT
HETATM    1  C   UNL     1     -11.487  11.105  67.603  1.00  0.00    -0.250 C  
HETATM    2  S   UNL     1     -10.928  11.785  69.182  1.00  0.00    -0.175 SA 
HETATM    3  C   UNL     1     -11.608  13.425  68.849  1.00  0.00    -0.314 C  
HETATM    4  C   UNL     1     -11.302  13.987  67.464  1.00  0.00    -0.343 C  
HETATM    5  CA  UNL     1     -10.908  13.223  66.403  1.00  0.00    -0.288 C  
HETATM    6  CA  UNL     1     -10.685   9.856  67.089  1.00  0.00    -0.207 C  
HETATM    7  O   UNL     1      -9.911  10.757  64.742  1.00  0.00    -0.248 OA 
HETATM    8  N   UNL     1     -10.865  11.861  66.533  1.00  0.00    -0.266 N  
HETATM    9  C   UNL     1     -10.437  13.881  65.117  1.00  0.00    -0.393 C  
HETATM   10  OXT UNL     1     -10.130  15.062  65.033  1.00  0.00    -0.348 OA 
HETATM   11  O   UNL     1     -10.451  13.116  64.008  1.00  0.00    -0.405 OA 
HETATM   12  C   UNL     1     -10.379  10.793  65.856  1.00  0.00    -0.238 C  
ENDROOT
BRANCH   4  13
HETATM   13  C   UNL     1     -11.372  15.514  67.490  1.00  0.00    -0.232 C  
BRANCH  13  14
HETATM   14  S   UNL     1      -9.984  16.357  68.290  1.00  0.00    -0.252 SA 
BRANCH  14  15
HETATM   15  C   UNL     1      -9.914  17.891  67.527  1.00  0.00    -0.322 A  
HETATM   16  N   UNL     1     -10.739  18.902  67.657  1.00  0.00    -0.425 NA 
HETATM   17  C   UNL     1      -7.816  17.484  66.158  1.00  0.00    -0.246 C  
HETATM   18  N   UNL     1     -10.278  19.875  66.802  1.00  0.00    -0.446 NA 
HETATM   19  N   UNL     1      -8.948  18.233  66.623  1.00  0.00    -0.281 NA 
HETATM   20  N   UNL     1      -9.186  19.475  66.165  1.00  0.00    -0.385 NA 
ENDBRANCH  14  15
ENDBRANCH  13  14
ENDBRANCH   4  13
BRANCH   6  21
HETATM   21  N   UNL     1      -9.531   9.459  67.944  1.00  0.00    -0.132 N  
HETATM   22  H   UNL     1      -9.355   9.993  68.794  1.00  0.00     0.000 HD 
HETATM   23  O   UNL     1      -8.932   7.622  66.733  1.00  0.00    -0.131 OA 
HETATM   24  C   UNL     1      -8.688   8.408  67.646  1.00  0.00    -0.137 C  
BRANCH  24  25
HETATM   25  CA  UNL     1      -7.346   8.410  68.428  1.00  0.00    -0.094 C  
BRANCH  25  26
HETATM   26  C   UNL     1      -6.775   9.817  68.536  1.00  0.00    -0.052 A  
HETATM   27  C   UNL     1      -5.785  11.801  67.526  1.00  0.00    -0.084 A  
HETATM   28  C   UNL     1      -6.744  10.467  69.779  1.00  0.00    -0.117 A  
HETATM   29  O   UNL     1      -5.298  13.701  68.829  1.00  0.00    -0.070 OA 
HETATM   30  C   UNL     1      -6.289  10.505  67.408  1.00  0.00    -0.058 A  
HETATM   31  C   UNL     1      -6.246  11.769  69.896  1.00  0.00    -0.141 A  
HETATM   32  H   UNL     1      -4.978  14.151  68.056  1.00  0.00     0.000 HD 
HETATM   33  C   UNL     1      -5.776  12.426  68.765  1.00  0.00    -0.058 A  
ENDBRANCH  25  26
BRANCH  25  34
HETATM   34  N   UNL     1      -7.496   7.836  69.764  1.00  0.00    -0.087 N  
HETATM   35  H   UNL     1      -6.941   8.221  70.529  1.00  0.00     0.000 HD 
BRANCH  34  36
HETATM   36  C   UNL     1      -8.351   6.803  70.028  1.00  0.00    -0.135 C  
HETATM   37  O   UNL     1      -8.096   5.656  69.671  1.00  0.00    -0.099 OA 
BRANCH  36  38
HETATM   38  N   UNL     1      -9.503   7.134  70.731  1.00  0.00    -0.164 N  
HETATM   39  C   UNL     1      -9.381   8.077  71.838  1.00  0.00    -0.167 C  
HETATM   40  N   UNL     1     -11.805   8.375  71.853  1.00  0.00    -0.312 N  
HETATM   41  C   UNL     1     -10.529   9.068  71.862  1.00  0.00    -0.303 C  
HETATM   42  C   UNL     1     -12.007   7.324  70.963  1.00  0.00    -0.327 C  
HETATM   43  O   UNL     1     -10.897   5.485  69.900  1.00  0.00    -0.326 OA 
HETATM   44  C   UNL     1     -10.753   6.566  70.468  1.00  0.00    -0.254 C  
HETATM   45  O   UNL     1     -13.113   6.952  70.589  1.00  0.00    -0.044 OA 
BRANCH  40  46
HETATM   46  C   UNL     1     -12.937   8.917  72.596  1.00  0.00    -0.269 C  
HETATM   47  C   UNL     1     -13.524  10.185  72.006  1.00  0.00    -0.418 C  
ENDBRANCH  40  46
ENDBRANCH  36  38
ENDBRANCH  34  36
ENDBRANCH  25  34
ENDBRANCH  24  25
ENDBRANCH   6  21
TORSDOF 10
ENDMDL
MODEL       63
REMARK 921   NORMALIZED FREE ENERGY PREDICTED BY IDOCK:   -6.31 KCAL/MOL
REMARK 922        TOTAL FREE ENERGY PREDICTED BY IDOCK:  -12.29 KCAL/MOL
REMARK 923 INTER-LIGAND FREE ENERGY PREDICTED BY IDOCK:   -9.70 KCAL/MOL
REMARK 924 INTRA-LIGAND FREE ENERGY PREDICTED BY IDOCK:   -2.58 KCAL/MOL
REMARK 927      BINDING AFFINITY PREDICTED BY RF-SCORE:    0.00 PKD
ROOT
HETATM    1  C   UNL     1      -8.074  13.413  69.016  1.00  0.00     0.276 C  
HETATM    2  S   UNL     1      -7.064  13.824  67.572  1.00  0.00    -0.095 SA 
HETATM    3  C   UNL     1      -6.790  15.528  68.105  1.00  0.00    -0.124 C  
HETATM    4  C   UNL     1      -8.036  16.271  68.577  1.00  0.00    -0.184 C  
HETATM    5  CA  UNL     1      -9.191  15.652  68.962  1.00  0.00    -0.243 C  
HETATM    6  CA  UNL     1      -9.068  12.213  68.820  1.00  0.00     0.112 C  
HETATM    7  O   UNL     1     -11.334  13.408  69.419  1.00  0.00    -0.260 OA 
HETATM    8  N   UNL     1      -9.233  14.285  69.027  1.00  0.00    -0.034 N  
HETATM    9  C   UNL     1     -10.445  16.466  69.232  1.00  0.00    -0.303 C  
HETATM   10  OXT UNL     1     -10.586  17.628  68.880  1.00  0.00    -0.301 OA 
HETATM   11  O   UNL     1     -11.400  15.874  69.975  1.00  0.00    -0.305 OA 
HETATM   12  C   UNL     1     -10.157  13.304  69.157  1.00  0.00     0.276 C  
ENDROOT
BRANCH   4  13
HETATM   13  C   UNL     1      -7.838  17.779  68.424  1.00  0.00    -0.284 C  
BRANCH  13  14
HETATM   14  S   UNL     1      -7.730  18.395  66.725  1.00  0.00    -0.237 SA 
BRANCH  14  15
HETATM   15  C   UNL     1      -9.051  17.659  65.916  1.00  0.00     0.121 A  
HETATM   16  N   UNL     1      -9.143  16.434  65.459  1.00  0.00    -0.299 NA 
HETATM   17  C   UNL     1     -10.602  19.668  65.921  1.00  0.00    -0.466 C  
HETATM   18  N   UNL     1     -10.375  16.351  64.853  1.00  0.00    -0.529 NA 
HETATM   19  N   UNL     1     -10.208  18.321  65.618  1.00  0.00    -0.550 NA 
HETATM   20  N   UNL     1     -11.031  17.500  64.943  1.00  0.00    -0.827 NA 
ENDBRANCH  14  15
ENDBRANCH  13  14
ENDBRANCH   4  13
BRANCH   6  21
HETATM   21  N   UNL     1      -9.087  11.635  67.446  1.00  0.00    -0.166 N  
HETATM   22  H   UNL     1      -8.767  12.218  66.673  1.00  0.00     0.000 HD 
HETATM   23  O   UNL     1      -9.758   9.543  68.055  1.00  0.00    -0.143 OA 
HETATM   24  C   UNL     1      -9.515  10.354  67.164  1.00  0.00    -0.159 C  
BRANCH  24  25
HETATM   25  CA  UNL     1      -9.828  10.089  65.666  1.00  0.00    -0.295 C  
BRANCH  25  26
HETATM   26  C   UNL     1     -10.591  11.253  65.050  1.00  0.00    -0.353 A  
HETATM   27  C   UNL     1     -12.163  13.107  65.228  1.00  0.00    -0.502 A  
HETATM   28  C   UNL     1     -10.395  11.584  63.701  1.00  0.00    -0.467 A  
HETATM   29  O   UNL     1     -12.606  14.493  63.377  1.00  0.00    -1.028 OA 
HETATM   30  C   UNL     1     -11.486  12.033  65.808  1.00  0.00    -0.377 A  
HETATM   31  C   UNL     1     -11.068  12.665  63.122  1.00  0.00     0.041 A  
HETATM   32  H   UNL     1     -13.203  15.009  63.904  1.00  0.00     0.000 HD 
HETATM   33  C   UNL     1     -11.942  13.421  63.894  1.00  0.00    -0.465 A  
ENDBRANCH  25  26
BRANCH  25  34
HETATM   34  N   UNL     1      -8.613   9.834  64.894  1.00  0.00    -0.154 N  
HETATM   35  H   UNL     1      -8.596  10.090  63.907  1.00  0.00     0.000 HD 
BRANCH  34  36
HETATM   36  C   UNL     1      -7.499   9.266  65.445  1.00  0.00    -0.098 C  
HETATM   37  O   UNL     1      -6.514   9.941  65.733  1.00  0.00    -0.081 OA 
BRANCH  36  38
HETATM   38  N   UNL     1      -7.563   7.896  65.667  1.00  0.00    -0.081 N  
HETATM   39  C   UNL     1      -7.096   7.389  66.953  1.00  0.00    -0.083 C  
HETATM   40  N   UNL     1      -8.189   5.250  66.510  1.00  0.00    -0.108 N  
HETATM   41  C   UNL     1      -8.005   6.302  67.494  1.00  0.00    -0.109 C  
HETATM   42  C   UNL     1      -8.465   5.590  65.188  1.00  0.00    -0.147 C  
HETATM   43  O   UNL     1      -7.981   7.216  63.496  1.00  0.00    -0.125 OA 
HETATM   44  C   UNL     1      -7.994   6.981  64.702  1.00  0.00    -0.114 C  
HETATM   45  O   UNL     1      -9.020   4.840  64.394  1.00  0.00    -0.152 OA 
BRANCH  40  46
HETATM   46  C   UNL     1      -8.314   3.862  66.937  1.00  0.00    -0.100 C  
HETATM   47  C   UNL     1      -9.617   3.540  67.645  1.00  0.00    -0.180 C  
ENDBRANCH  40  46
ENDBRANCH  36  38
ENDBRANCH  34  36
ENDBRANCH  25  34
ENDBRANCH  24  25
ENDBRANCH   6  21
TORSDOF 10
ENDMDL
MODEL       64
REMARK 921   NORMALIZED FREE ENERGY PREDICTED BY IDOCK:   -6.29 KCAL/MOL
REMARK 922        TOTAL FREE ENERGY PREDICTED BY IDOCK:  -12.26 KCAL/MOL
REMARK 923 INTER-LIGAND FREE ENERGY PREDICTED BY IDOCK:  -10.72 KCAL/MOL
REMARK 924 INTRA-LIGAND FREE ENERGY PREDICTED BY IDOCK:   -1.55 KCAL/MOL
REMARK 927      BINDING AFFINITY PREDICTED BY RF-SCORE:    0.00 PKD
ROOT
HETATM    1  C   UNL     1      -8.914  11.950  66.634  1.00  0.00    -0.198 C  
HETATM    2  S   UNL     1     -10.714  11.821  66.511  1.00  0.00    -0.276 SA 
HETATM    3  C   UNL     1     -10.927  13.569  66.108  1.00  0.00    -0.284 C  
HETATM    4  C   UNL     1     -10.149  14.541  66.990  1.00  0.00    -0.254 C  
HETATM    5  CA  UNL     1      -9.077  14.180  67.756  1.00  0.00    -0.190 C  
HETATM    6  CA  UNL     1      -8.222  10.853  67.518  1.00  0.00    -0.116 C  
HETATM    7  O   UNL     1      -6.970  12.395  69.243  1.00  0.00    -0.074 OA 
HETATM    8  N   UNL     1      -8.593  12.902  67.679  1.00  0.00    -0.169 N  
HETATM    9  C   UNL     1      -8.481  15.162  68.751  1.00  0.00    -0.180 C  
HETATM   10  OXT UNL     1      -9.047  16.182  69.118  1.00  0.00    -0.243 OA 
HETATM   11  O   UNL     1      -7.225  14.910  69.167  1.00  0.00    -0.130 OA 
HETATM   12  C   UNL     1      -7.735  12.101  68.354  1.00  0.00    -0.134 C  
ENDROOT
BRANCH   4  13
HETATM   13  C   UNL     1     -10.824  15.912  66.985  1.00  0.00    -0.252 C  
BRANCH  13  14
HETATM   14  S   UNL     1     -10.367  17.016  65.625  1.00  0.00    -0.113 SA 
BRANCH  14  15
HETATM   15  C   UNL     1      -9.914  18.481  66.393  1.00  0.00    -0.379 A  
HETATM   16  N   UNL     1     -10.685  19.469  66.776  1.00  0.00    -0.474 NA 
HETATM   17  C   UNL     1      -7.414  18.052  66.474  1.00  0.00    -0.240 C  
HETATM   18  N   UNL     1      -9.841  20.425  67.291  1.00  0.00    -0.452 NA 
HETATM   19  N   UNL     1      -8.618  18.805  66.679  1.00  0.00    -0.293 NA 
HETATM   20  N   UNL     1      -8.577  20.030  67.233  1.00  0.00    -0.324 NA 
ENDBRANCH  14  15
ENDBRANCH  13  14
ENDBRANCH   4  13
BRANCH   6  21
HETATM   21  N   UNL     1      -9.159   9.909  68.191  1.00  0.00    -0.121 N  
HETATM   22  H   UNL     1      -9.936   9.532  67.648  1.00  0.00     0.000 HD 
HETATM   23  O   UNL     1      -8.037   9.797  70.172  1.00  0.00    -0.170 OA 
HETATM   24  C   UNL     1      -9.032   9.517  69.507  1.00  0.00    -0.181 C  
BRANCH  24  25
HETATM   25  CA  UNL     1     -10.303   8.863  70.116  1.00  0.00    -0.206 C  
BRANCH  25  26
HETATM   26  C   UNL     1     -11.251   9.917  70.671  1.00  0.00    -0.416 A  
HETATM   27  C   UNL     1     -12.204  12.160  70.637  1.00  0.00    -0.392 A  
HETATM   28  C   UNL     1     -12.100   9.601  71.742  1.00  0.00    -0.446 A  
HETATM   29  O   UNL     1     -13.911  12.766  72.142  1.00  0.00    -0.413 OA 
HETATM   30  C   UNL     1     -11.317  11.213  70.123  1.00  0.00    -0.295 A  
HETATM   31  C   UNL     1     -12.995  10.548  72.252  1.00  0.00    -0.188 A  
HETATM   32  H   UNL     1     -13.944  13.634  71.757  1.00  0.00     0.000 HD 
HETATM   33  C   UNL     1     -13.043  11.818  71.689  1.00  0.00    -0.338 A  
ENDBRANCH  25  26
BRANCH  25  34
HETATM   34  N   UNL     1     -11.008   8.035  69.140  1.00  0.00    -0.428 N  
HETATM   35  H   UNL     1     -11.624   8.487  68.465  1.00  0.00     0.000 HD 
BRANCH  34  36
HETATM   36  C   UNL     1     -10.872   6.675  69.097  1.00  0.00    -0.283 C  
HETATM   37  O   UNL     1     -11.119   6.041  68.074  1.00  0.00    -0.304 OA 
BRANCH  36  38
HETATM   38  N   UNL     1     -10.427   6.072  70.267  1.00  0.00    -0.222 N  
HETATM   39  C   UNL     1      -9.213   5.265  70.201  1.00  0.00    -0.139 C  
HETATM   40  N   UNL     1      -9.059   5.296  72.638  1.00  0.00    -0.135 N  
HETATM   41  C   UNL     1      -8.319   5.495  71.405  1.00  0.00    -0.126 C  
HETATM   42  C   UNL     1     -10.323   5.863  72.778  1.00  0.00    -0.196 C  
HETATM   43  O   UNL     1     -12.316   6.400  71.561  1.00  0.00    -0.281 OA 
HETATM   44  C   UNL     1     -11.115   6.152  71.481  1.00  0.00    -0.286 C  
HETATM   45  O   UNL     1     -10.846   6.105  73.859  1.00  0.00    -0.182 OA 
BRANCH  40  46
HETATM   46  C   UNL     1      -8.400   4.713  73.801  1.00  0.00    -0.105 C  
HETATM   47  C   UNL     1      -7.350   5.602  74.438  1.00  0.00    -0.085 C  
ENDBRANCH  40  46
ENDBRANCH  36  38
ENDBRANCH  34  36
ENDBRANCH  25  34
ENDBRANCH  24  25
ENDBRANCH   6  21
TORSDOF 10
ENDMDL
MODEL       65
REMARK 921   NORMALIZED FREE ENERGY PREDICTED BY IDOCK:   -6.28 KCAL/MOL
REMARK 922        TOTAL FREE ENERGY PREDICTED BY IDOCK:  -12.25 KCAL/MOL
REMARK 923 INTER-LIGAND FREE ENERGY PREDICTED BY IDOCK:  -10.50 KCAL/MOL
REMARK 924 INTRA-LIGAND FREE ENERGY PREDICTED BY IDOCK:   -1.75 KCAL/MOL
REMARK 927      BINDING AFFINITY PREDICTED BY RF-SCORE:    0.00 PKD
ROOT
HETATM    1  C   UNL     1     -11.767  14.410  68.083  1.00  0.00    -0.342 C  
HETATM    2  S   UNL     1     -10.365  14.051  69.168  1.00  0.00     0.036 SA 
HETATM    3  C   UNL     1      -9.938  15.793  69.385  1.00  0.00    -0.274 C  
HETATM    4  C   UNL     1      -9.900  16.618  68.103  1.00  0.00    -0.250 C  
HETATM    5  CA  UNL     1     -10.504  16.241  66.937  1.00  0.00    -0.302 C  
HETATM    6  CA  UNL     1     -12.186  13.242  67.120  1.00  0.00    -0.227 C  
HETATM    7  O   UNL     1     -11.977  14.474  64.805  1.00  0.00    -0.403 OA 
HETATM    8  N   UNL     1     -11.272  15.109  66.912  1.00  0.00    -0.321 N  
HETATM    9  C   UNL     1     -10.255  17.021  65.657  1.00  0.00    -0.176 C  
HETATM   10  OXT UNL     1      -9.342  17.822  65.519  1.00  0.00    -0.204 OA 
HETATM   11  O   UNL     1     -11.158  16.863  64.669  1.00  0.00    -0.934 OA 
HETATM   12  C   UNL     1     -11.857  14.300  65.996  1.00  0.00    -0.391 C  
ENDROOT
BRANCH   4  13
HETATM   13  C   UNL     1      -8.989  17.832  68.286  1.00  0.00    -0.277 C  
BRANCH  13  14
HETATM   14  S   UNL     1      -7.257  17.601  67.811  1.00  0.00    -0.193 SA 
BRANCH  14  15
HETATM   15  C   UNL     1      -6.385  17.753  69.280  1.00  0.00    -0.246 A  
HETATM   16  N   UNL     1      -5.964  18.849  69.865  1.00  0.00    -0.258 NA 
HETATM   17  C   UNL     1      -6.215  15.280  69.822  1.00  0.00    -0.155 C  
HETATM   18  N   UNL     1      -5.279  18.437  70.984  1.00  0.00    -0.285 NA 
HETATM   19  N   UNL     1      -5.986  16.682  70.027  1.00  0.00    -0.215 NA 
HETATM   20  N   UNL     1      -5.284  17.115  71.089  1.00  0.00    -0.284 NA 
ENDBRANCH  14  15
ENDBRANCH  13  14
ENDBRANCH   4  13
BRANCH   6  21
HETATM   21  N   UNL     1     -11.318  12.032  67.190  1.00  0.00    -0.315 N  
HETATM   22  H   UNL     1     -10.529  11.968  66.548  1.00  0.00     0.000 HD 
HETATM   23  O   UNL     1     -12.350  11.076  68.983  1.00  0.00    -0.481 OA 
HETATM   24  C   UNL     1     -11.526  10.996  68.076  1.00  0.00    -0.290 C  
BRANCH  24  25
HETATM   25  CA  UNL     1     -10.773   9.682  67.726  1.00  0.00    -0.257 C  
BRANCH  25  26
HETATM   26  C   UNL     1      -9.631   9.945  66.755  1.00  0.00    -0.231 A  
HETATM   27  C   UNL     1      -8.715   9.981  64.497  1.00  0.00    -0.214 A  
HETATM   28  C   UNL     1      -8.410  10.446  67.230  1.00  0.00    -0.122 A  
HETATM   29  O   UNL     1      -6.527  10.754  64.096  1.00  0.00    -0.361 OA 
HETATM   30  C   UNL     1      -9.770   9.718  65.372  1.00  0.00    -0.383 A  
HETATM   31  C   UNL     1      -7.355  10.717  66.351  1.00  0.00    -0.142 A  
HETATM   32  H   UNL     1      -6.641  10.598  63.167  1.00  0.00     0.000 HD 
HETATM   33  C   UNL     1      -7.521  10.488  64.990  1.00  0.00    -0.011 A  
ENDBRANCH  25  26
BRANCH  25  34
HETATM   34  N   UNL     1     -10.259   9.017  68.921  1.00  0.00    -0.203 N  
HETATM   35  H   UNL     1      -9.669   9.547  69.563  1.00  0.00     0.000 HD 
BRANCH  34  36
HETATM   36  C   UNL     1     -10.539   7.710  69.212  1.00  0.00    -0.201 C  
HETATM   37  O   UNL     1     -11.347   7.411  70.087  1.00  0.00    -0.255 OA 
BRANCH  36  38
HETATM   38  N   UNL     1      -9.867   6.762  68.451  1.00  0.00    -0.134 N  
HETATM   39  C   UNL     1     -10.635   5.637  67.928  1.00  0.00    -0.193 C  
HETATM   40  N   UNL     1      -8.808   5.098  66.399  1.00  0.00    -0.118 N  
HETATM   41  C   UNL     1     -10.242   5.302  66.502  1.00  0.00    -0.253 C  
HETATM   42  C   UNL     1      -7.942   6.003  67.009  1.00  0.00    -0.102 C  
HETATM   43  O   UNL     1      -7.699   7.406  68.936  1.00  0.00    -0.110 OA 
HETATM   44  C   UNL     1      -8.490   6.802  68.215  1.00  0.00    -0.125 C  
HETATM   45  O   UNL     1      -6.778   6.167  66.667  1.00  0.00    -0.056 OA 
BRANCH  40  46
HETATM   46  C   UNL     1      -8.274   4.099  65.481  1.00  0.00    -0.105 C  
HETATM   47  C   UNL     1      -9.205   2.932  65.215  1.00  0.00    -0.139 C  
ENDBRANCH  40  46
ENDBRANCH  36  38
ENDBRANCH  34  36
ENDBRANCH  25  34
ENDBRANCH  24  25
ENDBRANCH   6  21
TORSDOF 10
ENDMDL
MODEL       66
REMARK 921   NORMALIZED FREE ENERGY PREDICTED BY IDOCK:   -6.28 KCAL/MOL
REMARK 922        TOTAL FREE ENERGY PREDICTED BY IDOCK:  -12.25 KCAL/MOL
REMARK 923 INTER-LIGAND FREE ENERGY PREDICTED BY IDOCK:   -9.61 KCAL/MOL
REMARK 924 INTRA-LIGAND FREE ENERGY PREDICTED BY IDOCK:   -2.64 KCAL/MOL
REMARK 927      BINDING AFFINITY PREDICTED BY RF-SCORE:    0.00 PKD
ROOT
HETATM    1  C   UNL     1     -10.020  11.858  66.446  1.00  0.00    -0.213 C  
HETATM    2  S   UNL     1     -11.408  11.507  67.551  1.00  0.00    -0.285 SA 
HETATM    3  C   UNL     1     -11.575  13.228  68.076  1.00  0.00    -0.336 C  
HETATM    4  C   UNL     1     -10.272  13.922  68.455  1.00  0.00    -0.240 C  
HETATM    5  CA  UNL     1      -9.036  13.479  68.079  1.00  0.00    -0.189 C  
HETATM    6  CA  UNL     1      -9.084  10.637  66.136  1.00  0.00    -0.170 C  
HETATM    7  O   UNL     1      -6.780  11.625  66.934  1.00  0.00    -0.134 OA 
HETATM    8  N   UNL     1      -8.933  12.406  67.235  1.00  0.00    -0.182 N  
HETATM    9  C   UNL     1      -7.784  14.115  68.659  1.00  0.00    -0.135 C  
HETATM   10  OXT UNL     1      -7.784  14.833  69.648  1.00  0.00    -0.124 OA 
HETATM   11  O   UNL     1      -6.639  13.927  67.973  1.00  0.00    -0.109 OA 
HETATM   12  C   UNL     1      -7.979  11.557  66.786  1.00  0.00    -0.152 C  
ENDROOT
BRANCH   4  13
HETATM   13  C   UNL     1     -10.553  15.082  69.412  1.00  0.00    -0.256 C  
BRANCH  13  14
HETATM   14  S   UNL     1     -12.294  15.527  69.626  1.00  0.00    -0.082 SA 
BRANCH  14  15
HETATM   15  C   UNL     1     -12.764  14.737  71.075  1.00  0.00    -0.345 A  
HETATM   16  N   UNL     1     -13.318  13.556  71.213  1.00  0.00    -0.217 NA 
HETATM   17  C   UNL     1     -12.067  16.565  72.690  1.00  0.00    -0.341 C  
HETATM   18  N   UNL     1     -13.543  13.403  72.561  1.00  0.00    -0.653 NA 
HETATM   19  N   UNL     1     -12.630  15.301  72.311  1.00  0.00    -0.332 NA 
HETATM   20  N   UNL     1     -13.128  14.465  73.239  1.00  0.00    -0.579 NA 
ENDBRANCH  14  15
ENDBRANCH  13  14
ENDBRANCH   4  13
BRANCH   6  21
HETATM   21  N   UNL     1      -9.434   9.381  66.859  1.00  0.00    -0.149 N  
HETATM   22  H   UNL     1     -10.370   9.298  67.254  1.00  0.00     0.000 HD 
HETATM   23  O   UNL     1      -7.479   8.286  66.437  1.00  0.00    -0.078 OA 
HETATM   24  C   UNL     1      -8.560   8.327  67.022  1.00  0.00    -0.123 C  
BRANCH  24  25
HETATM   25  CA  UNL     1      -8.969   7.307  68.120  1.00  0.00    -0.132 C  
BRANCH  25  26
HETATM   26  C   UNL     1      -9.189   5.922  67.528  1.00  0.00    -0.108 A  
HETATM   27  C   UNL     1     -10.165   4.448  65.850  1.00  0.00    -0.252 A  
HETATM   28  C   UNL     1      -8.569   4.805  68.110  1.00  0.00    -0.106 A  
HETATM   29  O   UNL     1      -9.710   2.138  65.866  1.00  0.00    -0.333 OA 
HETATM   30  C   UNL     1      -9.990   5.725  66.387  1.00  0.00    -0.173 A  
HETATM   31  C   UNL     1      -8.739   3.527  67.568  1.00  0.00    -0.130 A  
HETATM   32  H   UNL     1     -10.251   2.025  65.093  1.00  0.00     0.000 HD 
HETATM   33  C   UNL     1      -9.531   3.362  66.438  1.00  0.00    -0.117 A  
ENDBRANCH  25  26
BRANCH  25  34
HETATM   34  N   UNL     1      -7.976   7.233  69.190  1.00  0.00    -0.117 N  
HETATM   35  H   UNL     1      -7.239   6.530  69.128  1.00  0.00     0.000 HD 
BRANCH  34  36
HETATM   36  C   UNL     1      -7.997   8.070  70.270  1.00  0.00    -0.104 C  
HETATM   37  O   UNL     1      -7.004   8.714  70.597  1.00  0.00    -0.039 OA 
BRANCH  36  38
HETATM   38  N   UNL     1      -9.205   8.150  70.952  1.00  0.00    -0.148 N  
HETATM   39  C   UNL     1      -9.842   9.458  71.062  1.00  0.00    -0.247 C  
HETATM   40  N   UNL     1     -11.925   8.388  71.753  1.00  0.00    -0.304 N  
HETATM   41  C   UNL     1     -11.342   9.372  70.859  1.00  0.00    -0.319 C  
HETATM   42  C   UNL     1     -11.317   7.143  71.890  1.00  0.00    -0.260 C  
HETATM   43  O   UNL     1      -9.181   6.058  71.940  1.00  0.00    -0.150 OA 
HETATM   44  C   UNL     1      -9.803   7.057  71.585  1.00  0.00    -0.163 C  
HETATM   45  O   UNL     1     -11.905   6.136  72.270  1.00  0.00    -0.319 OA 
BRANCH  40  46
HETATM   46  C   UNL     1     -13.251   8.608  72.321  1.00  0.00    -0.372 C  
HETATM   47  C   UNL     1     -14.381   8.549  71.312  1.00  0.00    -0.293 C  
ENDBRANCH  40  46
ENDBRANCH  36  38
ENDBRANCH  34  36
ENDBRANCH  25  34
ENDBRANCH  24  25
ENDBRANCH   6  21
TORSDOF 10
ENDMDL
MODEL       67
REMARK 921   NORMALIZED FREE ENERGY PREDICTED BY IDOCK:   -6.28 KCAL/MOL
REMARK 922        TOTAL FREE ENERGY PREDICTED BY IDOCK:  -12.24 KCAL/MOL
REMARK 923 INTER-LIGAND FREE ENERGY PREDICTED BY IDOCK:  -10.96 KCAL/MOL
REMARK 924 INTRA-LIGAND FREE ENERGY PREDICTED BY IDOCK:   -1.28 KCAL/MOL
REMARK 927      BINDING AFFINITY PREDICTED BY RF-SCORE:    0.00 PKD
ROOT
HETATM    1  C   UNL     1     -10.765   8.276  69.480  1.00  0.00    -0.174 C  
HETATM    2  S   UNL     1     -10.484   8.179  67.696  1.00  0.00    -0.205 SA 
HETATM    3  C   UNL     1     -10.082   6.418  67.738  1.00  0.00    -0.146 C  
HETATM    4  C   UNL     1      -9.104   6.000  68.831  1.00  0.00    -0.121 C  
HETATM    5  CA  UNL     1      -8.835   6.750  69.940  1.00  0.00    -0.141 C  
HETATM    6  CA  UNL     1     -10.596   9.705  70.109  1.00  0.00    -0.272 C  
HETATM    7  O   UNL     1      -8.759   9.182  71.918  1.00  0.00    -0.336 OA 
HETATM    8  N   UNL     1      -9.537   7.905  70.157  1.00  0.00    -0.175 N  
HETATM    9  C   UNL     1      -7.708   6.355  70.878  1.00  0.00    -0.101 C  
HETATM   10  OXT UNL     1      -6.835   5.551  70.587  1.00  0.00    -0.048 OA 
HETATM   11  O   UNL     1      -7.750   6.873  72.122  1.00  0.00    -0.092 OA 
HETATM   12  C   UNL     1      -9.475   8.992  70.962  1.00  0.00    -0.274 C  
ENDROOT
BRANCH   4  13
HETATM   13  C   UNL     1      -8.389   4.709  68.430  1.00  0.00    -0.090 C  
BRANCH  13  14
HETATM   14  S   UNL     1      -9.252   3.168  68.833  1.00  0.00    -0.164 SA 
BRANCH  14  15
HETATM   15  C   UNL     1      -9.267   3.121  70.547  1.00  0.00    -0.140 A  
HETATM   16  N   UNL     1     -10.203   3.542  71.363  1.00  0.00     0.045 NA 
HETATM   17  C   UNL     1      -6.991   2.047  70.869  1.00  0.00    -0.032 C  
HETATM   18  N   UNL     1      -9.720   3.326  72.633  1.00  0.00    -0.127 NA 
HETATM   19  N   UNL     1      -8.230   2.635  71.292  1.00  0.00    -0.057 NA 
HETATM   20  N   UNL     1      -8.514   2.775  72.598  1.00  0.00    -0.070 NA 
ENDBRANCH  14  15
ENDBRANCH  13  14
ENDBRANCH   4  13
BRANCH   6  21
HETATM   21  N   UNL     1     -10.155  10.760  69.153  1.00  0.00    -0.265 N  
HETATM   22  H   UNL     1      -9.288  10.612  68.638  1.00  0.00     0.000 HD 
HETATM   23  O   UNL     1     -11.985  12.101  69.386  1.00  0.00    -0.303 OA 
HETATM   24  C   UNL     1     -10.857  11.926  68.929  1.00  0.00    -0.221 C  
BRANCH  24  25
HETATM   25  CA  UNL     1     -10.047  13.046  68.218  1.00  0.00    -0.239 C  
BRANCH  25  26
HETATM   26  C   UNL     1     -10.736  13.491  66.936  1.00  0.00    -0.274 A  
HETATM   27  C   UNL     1     -10.654  14.366  64.662  1.00  0.00    -0.331 A  
HETATM   28  C   UNL     1     -12.132  13.404  66.824  1.00  0.00    -0.419 A  
HETATM   29  O   UNL     1     -12.624  14.624  63.400  1.00  0.00    -0.956 OA 
HETATM   30  C   UNL     1     -10.004  13.977  65.835  1.00  0.00    -0.325 A  
HETATM   31  C   UNL     1     -12.782  13.786  65.645  1.00  0.00    -0.523 A  
HETATM   32  H   UNL     1     -12.114  14.946  62.667  1.00  0.00     0.000 HD 
HETATM   33  C   UNL     1     -12.034  14.258  64.573  1.00  0.00    -0.462 A  
ENDBRANCH  25  26
BRANCH  25  34
HETATM   34  N   UNL     1      -9.836  14.200  69.089  1.00  0.00    -0.426 N  
HETATM   35  H   UNL     1      -9.119  14.144  69.813  1.00  0.00     0.000 HD 
BRANCH  34  36
HETATM   36  C   UNL     1     -10.563  15.351  68.972  1.00  0.00    -0.247 C  
HETATM   37  O   UNL     1     -11.735  15.406  69.338  1.00  0.00    -0.310 OA 
BRANCH  36  38
HETATM   38  N   UNL     1      -9.891  16.441  68.432  1.00  0.00    -0.226 N  
HETATM   39  C   UNL     1     -10.599  17.268  67.461  1.00  0.00    -0.329 C  
HETATM   40  N   UNL     1      -8.910  19.013  67.713  1.00  0.00    -0.289 N  
HETATM   41  C   UNL     1     -10.337  18.745  67.682  1.00  0.00    -0.420 C  
HETATM   42  C   UNL     1      -8.074  18.189  68.462  1.00  0.00    -0.302 C  
HETATM   43  O   UNL     1      -7.755  15.916  69.150  1.00  0.00    -0.195 OA 
HETATM   44  C   UNL     1      -8.560  16.745  68.729  1.00  0.00    -0.255 C  
HETATM   45  O   UNL     1      -6.976  18.534  68.882  1.00  0.00    -0.272 OA 
BRANCH  40  46
HETATM   46  C   UNL     1      -8.387  20.258  67.161  1.00  0.00    -0.336 C  
HETATM   47  C   UNL     1      -7.595  20.091  65.879  1.00  0.00    -0.316 C  
ENDBRANCH  40  46
ENDBRANCH  36  38
ENDBRANCH  34  36
ENDBRANCH  25  34
ENDBRANCH  24  25
ENDBRANCH   6  21
TORSDOF 10
ENDMDL
MODEL       68
REMARK 921   NORMALIZED FREE ENERGY PREDICTED BY IDOCK:   -6.26 KCAL/MOL
REMARK 922        TOTAL FREE ENERGY PREDICTED BY IDOCK:  -12.22 KCAL/MOL
REMARK 923 INTER-LIGAND FREE ENERGY PREDICTED BY IDOCK:  -10.16 KCAL/MOL
REMARK 924 INTRA-LIGAND FREE ENERGY PREDICTED BY IDOCK:   -2.06 KCAL/MOL
REMARK 927      BINDING AFFINITY PREDICTED BY RF-SCORE:    0.00 PKD
ROOT
HETATM    1  C   UNL     1     -11.962  13.546  67.226  1.00  0.00    -0.365 C  
HETATM    2  S   UNL     1     -10.637  13.298  68.431  1.00  0.00    -0.254 SA 
HETATM    3  C   UNL     1     -10.603  15.036  68.924  1.00  0.00    -0.242 C  
HETATM    4  C   UNL     1     -10.602  16.038  67.774  1.00  0.00    -0.309 C  
HETATM    5  CA  UNL     1     -10.991  15.736  66.501  1.00  0.00    -0.165 C  
HETATM    6  CA  UNL     1     -12.030  12.480  66.075  1.00  0.00    -0.392 C  
HETATM    7  O   UNL     1     -11.841  14.067  63.985  1.00  0.00    -0.390 OA 
HETATM    8  N   UNL     1     -11.503  14.495  66.230  1.00  0.00    -0.353 N  
HETATM    9  C   UNL     1     -10.777  16.734  65.376  1.00  0.00    -0.189 C  
HETATM   10  OXT UNL     1     -10.039  17.704  65.463  1.00  0.00    -0.566 OA 
HETATM   11  O   UNL     1     -11.521  16.560  64.265  1.00  0.00    -1.000 OA 
HETATM   12  C   UNL     1     -11.811  13.740  65.149  1.00  0.00    -0.352 C  
ENDROOT
BRANCH   4  13
HETATM   13  C   UNL     1      -9.984  17.360  68.230  1.00  0.00    -0.320 C  
BRANCH  13  14
HETATM   14  S   UNL     1      -8.187  17.361  68.447  1.00  0.00    -0.268 SA 
BRANCH  14  15
HETATM   15  C   UNL     1      -7.683  18.887  67.848  1.00  0.00    -0.261 A  
HETATM   16  N   UNL     1      -8.344  20.020  67.850  1.00  0.00    -0.288 NA 
HETATM   17  C   UNL     1      -5.395  18.175  67.011  1.00  0.00    -0.134 C  
HETATM   18  N   UNL     1      -7.531  20.930  67.215  1.00  0.00    -0.340 NA 
HETATM   19  N   UNL     1      -6.476  19.090  67.240  1.00  0.00    -0.189 NA 
HETATM   20  N   UNL     1      -6.390  20.370  66.837  1.00  0.00    -0.204 NA 
ENDBRANCH  14  15
ENDBRANCH  13  14
ENDBRANCH   4  13
BRANCH   6  21
HETATM   21  N   UNL     1     -10.944  11.460  66.102  1.00  0.00    -0.270 N  
HETATM   22  H   UNL     1     -10.571  11.178  67.008  1.00  0.00     0.000 HD 
HETATM   23  O   UNL     1     -10.923  11.044  63.861  1.00  0.00    -0.307 OA 
HETATM   24  C   UNL     1     -10.417  10.878  64.968  1.00  0.00    -0.261 C  
BRANCH  24  25
HETATM   25  CA  UNL     1      -9.056  10.158  65.180  1.00  0.00    -0.201 C  
BRANCH  25  26
HETATM   26  C   UNL     1      -8.627  10.215  66.639  1.00  0.00    -0.130 A  
HETATM   27  C   UNL     1      -8.794   9.442  68.945  1.00  0.00    -0.136 A  
HETATM   28  C   UNL     1      -7.608  11.095  67.036  1.00  0.00    -0.135 A  
HETATM   29  O   UNL     1      -7.381  10.315  70.613  1.00  0.00    -0.433 OA 
HETATM   30  C   UNL     1      -9.214   9.386  67.614  1.00  0.00    -0.142 A  
HETATM   31  C   UNL     1      -7.183  11.145  68.368  1.00  0.00    -0.083 A  
HETATM   32  H   UNL     1      -7.786   9.746  71.256  1.00  0.00     0.000 HD 
HETATM   33  C   UNL     1      -7.776  10.312  69.309  1.00  0.00    -0.130 A  
ENDBRANCH  25  26
BRANCH  25  34
HETATM   34  N   UNL     1      -9.103   8.767  64.735  1.00  0.00    -0.421 N  
HETATM   35  H   UNL     1     -10.010   8.310  64.646  1.00  0.00     0.000 HD 
BRANCH  34  36
HETATM   36  C   UNL     1      -7.976   8.055  64.433  1.00  0.00    -0.145 C  
HETATM   37  O   UNL     1      -7.444   8.139  63.329  1.00  0.00    -0.107 OA 
BRANCH  36  38
HETATM   38  N   UNL     1      -7.474   7.253  65.451  1.00  0.00    -0.082 N  
HETATM   39  C   UNL     1      -6.081   7.440  65.844  1.00  0.00    -0.038 C  
HETATM   40  N   UNL     1      -6.483   6.158  67.884  1.00  0.00    -0.047 N  
HETATM   41  C   UNL     1      -5.908   7.380  67.350  1.00  0.00    -0.034 C  
HETATM   42  C   UNL     1      -7.746   5.753  67.460  1.00  0.00    -0.097 C  
HETATM   43  O   UNL     1      -9.193   5.708  65.550  1.00  0.00    -0.118 OA 
HETATM   44  C   UNL     1      -8.216   6.244  66.070  1.00  0.00    -0.125 C  
HETATM   45  O   UNL     1      -8.475   5.010  68.105  1.00  0.00    -0.099 OA 
BRANCH  40  46
HETATM   46  C   UNL     1      -5.855   5.488  69.017  1.00  0.00    -0.023 C  
HETATM   47  C   UNL     1      -5.521   6.404  70.179  1.00  0.00    -0.014 C  
ENDBRANCH  40  46
ENDBRANCH  36  38
ENDBRANCH  34  36
ENDBRANCH  25  34
ENDBRANCH  24  25
ENDBRANCH   6  21
TORSDOF 10
ENDMDL
MODEL       69
REMARK 921   NORMALIZED FREE ENERGY PREDICTED BY IDOCK:   -6.26 KCAL/MOL
REMARK 922        TOTAL FREE ENERGY PREDICTED BY IDOCK:  -12.21 KCAL/MOL
REMARK 923 INTER-LIGAND FREE ENERGY PREDICTED BY IDOCK:   -9.88 KCAL/MOL
REMARK 924 INTRA-LIGAND FREE ENERGY PREDICTED BY IDOCK:   -2.33 KCAL/MOL
REMARK 927      BINDING AFFINITY PREDICTED BY RF-SCORE:    0.00 PKD
ROOT
HETATM    1  C   UNL     1      -9.960  11.384  65.908  1.00  0.00    -0.234 C  
HETATM    2  S   UNL     1     -11.304  11.104  67.085  1.00  0.00    -0.074 SA 
HETATM    3  C   UNL     1     -11.351  12.829  67.619  1.00  0.00    -0.310 C  
HETATM    4  C   UNL     1      -9.994  13.452  67.929  1.00  0.00    -0.236 C  
HETATM    5  CA  UNL     1      -8.805  12.945  67.487  1.00  0.00    -0.192 C  
HETATM    6  CA  UNL     1      -9.108  10.115  65.549  1.00  0.00    -0.178 C  
HETATM    7  O   UNL     1      -6.716  10.976  66.224  1.00  0.00    -0.134 OA 
HETATM    8  N   UNL     1      -8.805  11.870  66.639  1.00  0.00    -0.193 N  
HETATM    9  C   UNL     1      -7.492  13.510  68.000  1.00  0.00    -0.140 C  
HETATM   10  OXT UNL     1      -7.402  14.225  68.988  1.00  0.00    -0.124 OA 
HETATM   11  O   UNL     1      -6.397  13.264  67.255  1.00  0.00    -0.284 OA 
HETATM   12  C   UNL     1      -7.923  10.973  66.140  1.00  0.00    -0.129 C  
ENDROOT
BRANCH   4  13
HETATM   13  C   UNL     1     -10.161  14.622  68.900  1.00  0.00    -0.241 C  
BRANCH  13  14
HETATM   14  S   UNL     1     -11.488  15.790  68.510  1.00  0.00    -0.362 SA 
BRANCH  14  15
HETATM   15  C   UNL     1     -10.692  17.110  67.757  1.00  0.00    -0.329 A  
HETATM   16  N   UNL     1     -10.376  18.271  68.277  1.00  0.00    -0.372 NA 
HETATM   17  C   UNL     1     -10.409  16.060  65.464  1.00  0.00    -0.390 C  
HETATM   18  N   UNL     1      -9.799  18.993  67.259  1.00  0.00    -0.315 NA 
HETATM   19  N   UNL     1     -10.304  17.100  66.447  1.00  0.00    -0.323 NA 
HETATM   20  N   UNL     1      -9.754  18.287  66.137  1.00  0.00    -0.507 NA 
ENDBRANCH  14  15
ENDBRANCH  13  14
ENDBRANCH   4  13
BRANCH   6  21
HETATM   21  N   UNL     1      -9.486   8.878  66.289  1.00  0.00    -0.219 N  
HETATM   22  H   UNL     1     -10.420   8.826  66.696  1.00  0.00     0.000 HD 
HETATM   23  O   UNL     1      -7.569   7.722  65.857  1.00  0.00    -0.085 OA 
HETATM   24  C   UNL     1      -8.641   7.800  66.453  1.00  0.00    -0.145 C  
BRANCH  24  25
HETATM   25  CA  UNL     1      -9.068   6.804  67.567  1.00  0.00    -0.117 C  
BRANCH  25  26
HETATM   26  C   UNL     1      -9.216   5.393  67.014  1.00  0.00    -0.113 A  
HETATM   27  C   UNL     1      -9.612   3.857  65.164  1.00  0.00    -0.181 A  
HETATM   28  C   UNL     1      -9.054   4.288  67.862  1.00  0.00    -0.161 A  
HETATM   29  O   UNL     1      -9.532   1.527  65.495  1.00  0.00    -0.315 OA 
HETATM   30  C   UNL     1      -9.496   5.159  65.654  1.00  0.00    -0.129 A  
HETATM   31  C   UNL     1      -9.163   2.983  67.369  1.00  0.00    -0.225 A  
HETATM   32  H   UNL     1      -9.718   1.389  64.574  1.00  0.00     0.000 HD 
HETATM   33  C   UNL     1      -9.435   2.781  66.021  1.00  0.00     0.075 A  
ENDBRANCH  25  26
BRANCH  25  34
HETATM   34  N   UNL     1      -8.122   6.798  68.681  1.00  0.00    -0.119 N  
HETATM   35  H   UNL     1      -7.544   5.971  68.830  1.00  0.00     0.000 HD 
BRANCH  34  36
HETATM   36  C   UNL     1      -7.983   7.859  69.531  1.00  0.00    -0.116 C  
HETATM   37  O   UNL     1      -6.930   8.490  69.597  1.00  0.00    -0.046 OA 
BRANCH  36  38
HETATM   38  N   UNL     1      -9.101   8.179  70.291  1.00  0.00    -0.149 N  
HETATM   39  C   UNL     1      -9.408   9.591  70.495  1.00  0.00    -0.237 C  
HETATM   40  N   UNL     1     -11.645   8.994  71.273  1.00  0.00    -0.294 N  
HETATM   41  C   UNL     1     -10.896   9.865  70.384  1.00  0.00    -0.319 C  
HETATM   42  C   UNL     1     -11.339   7.636  71.320  1.00  0.00    -0.264 C  
HETATM   43  O   UNL     1      -9.515   6.087  71.188  1.00  0.00    -0.162 OA 
HETATM   44  C   UNL     1      -9.904   7.221  70.915  1.00  0.00    -0.184 C  
HETATM   45  O   UNL     1     -12.124   6.773  71.694  1.00  0.00    -0.326 OA 
BRANCH  40  46
HETATM   46  C   UNL     1     -12.851   9.482  71.932  1.00  0.00    -0.420 C  
HETATM   47  C   UNL     1     -13.124  10.959  71.723  1.00  0.00    -0.564 C  
ENDBRANCH  40  46
ENDBRANCH  36  38
ENDBRANCH  34  36
ENDBRANCH  25  34
ENDBRANCH  24  25
ENDBRANCH   6  21
TORSDOF 10
ENDMDL
MODEL       70
REMARK 921   NORMALIZED FREE ENERGY PREDICTED BY IDOCK:   -6.24 KCAL/MOL
REMARK 922        TOTAL FREE ENERGY PREDICTED BY IDOCK:  -12.18 KCAL/MOL
REMARK 923 INTER-LIGAND FREE ENERGY PREDICTED BY IDOCK:  -10.71 KCAL/MOL
REMARK 924 INTRA-LIGAND FREE ENERGY PREDICTED BY IDOCK:   -1.47 KCAL/MOL
REMARK 927      BINDING AFFINITY PREDICTED BY RF-SCORE:    0.00 PKD
ROOT
HETATM    1  C   UNL     1      -7.570   9.333  68.299  1.00  0.00    -0.083 C  
HETATM    2  S   UNL     1      -7.661   9.672  70.073  1.00  0.00    -0.163 SA 
HETATM    3  C   UNL     1      -7.030   8.044  70.535  1.00  0.00    -0.041 C  
HETATM    4  C   UNL     1      -7.670   6.867  69.806  1.00  0.00    -0.113 C  
HETATM    5  CA  UNL     1      -8.363   6.983  68.635  1.00  0.00    -0.122 C  
HETATM    6  CA  UNL     1      -8.528  10.194  67.401  1.00  0.00    -0.122 C  
HETATM    7  O   UNL     1      -9.863   8.271  66.200  1.00  0.00    -0.196 OA 
HETATM    8  N   UNL     1      -8.424   8.197  68.006  1.00  0.00    -0.132 N  
HETATM    9  C   UNL     1      -9.133   5.798  68.078  1.00  0.00    -0.110 C  
HETATM   10  OXT UNL     1      -9.404   4.800  68.730  1.00  0.00    -0.117 OA 
HETATM   11  O   UNL     1      -9.445   5.843  66.768  1.00  0.00    -0.132 OA 
HETATM   12  C   UNL     1      -9.114   8.784  66.999  1.00  0.00    -0.133 C  
ENDROOT
BRANCH   4  13
HETATM   13  C   UNL     1      -7.536   5.594  70.643  1.00  0.00    -0.090 C  
BRANCH  13  14
HETATM   14  S   UNL     1      -8.601   5.492  72.104  1.00  0.00    -0.126 SA 
BRANCH  14  15
HETATM   15  C   UNL     1      -8.170   4.006  72.845  1.00  0.00    -0.092 A  
HETATM   16  N   UNL     1      -6.973   3.569  73.155  1.00  0.00    -0.039 NA 
HETATM   17  C   UNL     1     -10.513   3.057  73.069  1.00  0.00    -0.160 C  
HETATM   18  N   UNL     1      -7.157   2.312  73.680  1.00  0.00    -0.027 NA 
HETATM   19  N   UNL     1      -9.083   3.048  73.186  1.00  0.00    -0.089 NA 
HETATM   20  N   UNL     1      -8.442   1.984  73.700  1.00  0.00    -0.058 NA 
ENDBRANCH  14  15
ENDBRANCH  13  14
ENDBRANCH   4  13
BRANCH   6  21
HETATM   21  N   UNL     1      -9.428  11.115  68.151  1.00  0.00    -0.173 N  
HETATM   22  H   UNL     1      -9.106  11.480  69.047  1.00  0.00     0.000 HD 
HETATM   23  O   UNL     1     -11.059  11.235  66.562  1.00  0.00    -0.285 OA 
HETATM   24  C   UNL     1     -10.673  11.500  67.699  1.00  0.00    -0.211 C  
BRANCH  24  25
HETATM   25  CA  UNL     1     -11.594  12.125  68.783  1.00  0.00    -0.327 C  
BRANCH  25  26
HETATM   26  C   UNL     1     -11.911  11.118  69.880  1.00  0.00    -0.439 A  
HETATM   27  C   UNL     1     -11.561   8.966  70.968  1.00  0.00    -0.347 A  
HETATM   28  C   UNL     1     -12.852  11.436  70.871  1.00  0.00    -0.323 A  
HETATM   29  O   UNL     1     -12.723   8.408  72.938  1.00  0.00    -0.647 OA 
HETATM   30  C   UNL     1     -11.267   9.868  69.944  1.00  0.00    -0.298 A  
HETATM   31  C   UNL     1     -13.141  10.535  71.902  1.00  0.00    -0.567 A  
HETATM   32  H   UNL     1     -12.276   7.571  72.967  1.00  0.00     0.000 HD 
HETATM   33  C   UNL     1     -12.486   9.309  71.943  1.00  0.00    -0.382 A  
ENDBRANCH  25  26
BRANCH  25  34
HETATM   34  N   UNL     1     -11.002  13.324  69.372  1.00  0.00    -0.447 N  
HETATM   35  H   UNL     1     -10.044  13.278  69.720  1.00  0.00     0.000 HD 
BRANCH  34  36
HETATM   36  C   UNL     1     -11.683  14.505  69.475  1.00  0.00    -0.314 C  
HETATM   37  O   UNL     1     -12.590  14.648  70.290  1.00  0.00    -0.342 OA 
BRANCH  36  38
HETATM   38  N   UNL     1     -11.273  15.518  68.618  1.00  0.00    -0.304 N  
HETATM   39  C   UNL     1     -10.865  16.789  69.208  1.00  0.00    -0.275 C  
HETATM   40  N   UNL     1      -9.843  17.447  67.090  1.00  0.00    -0.269 N  
HETATM   41  C   UNL     1      -9.637  17.359  68.524  1.00  0.00    -0.298 C  
HETATM   42  C   UNL     1     -10.398  16.365  66.410  1.00  0.00    -0.313 C  
HETATM   43  O   UNL     1     -11.999  14.596  66.624  1.00  0.00    -0.368 OA 
HETATM   44  C   UNL     1     -11.289  15.399  67.226  1.00  0.00    -0.220 C  
HETATM   45  O   UNL     1     -10.247  16.165  65.210  1.00  0.00    -0.520 OA 
BRANCH  40  46
HETATM   46  C   UNL     1      -9.267  18.553  66.333  1.00  0.00    -0.277 C  
HETATM   47  C   UNL     1     -10.049  19.849  66.426  1.00  0.00    -0.615 C  
ENDBRANCH  40  46
ENDBRANCH  36  38
ENDBRANCH  34  36
ENDBRANCH  25  34
ENDBRANCH  24  25
ENDBRANCH   6  21
TORSDOF 10
ENDMDL
MODEL       71
REMARK 921   NORMALIZED FREE ENERGY PREDICTED BY IDOCK:   -6.24 KCAL/MOL
REMARK 922        TOTAL FREE ENERGY PREDICTED BY IDOCK:  -12.18 KCAL/MOL
REMARK 923 INTER-LIGAND FREE ENERGY PREDICTED BY IDOCK:  -10.28 KCAL/MOL
REMARK 924 INTRA-LIGAND FREE ENERGY PREDICTED BY IDOCK:   -1.89 KCAL/MOL
REMARK 927      BINDING AFFINITY PREDICTED BY RF-SCORE:    0.00 PKD
ROOT
HETATM    1  C   UNL     1     -12.118  14.696  68.109  1.00  0.00    -0.164 C  
HETATM    2  S   UNL     1     -10.879  14.663  69.426  1.00  0.00    -0.217 SA 
HETATM    3  C   UNL     1     -10.716  16.461  69.477  1.00  0.00    -0.325 C  
HETATM    4  C   UNL     1     -10.573  17.141  68.119  1.00  0.00    -0.380 C  
HETATM    5  CA  UNL     1     -10.926  16.558  66.936  1.00  0.00     0.023 C  
HETATM    6  CA  UNL     1     -12.224  13.384  67.254  1.00  0.00    -0.233 C  
HETATM    7  O   UNL     1     -11.796  14.377  64.856  1.00  0.00    -0.377 OA 
HETATM    8  N   UNL     1     -11.531  15.329  66.944  1.00  0.00    -0.215 N  
HETATM    9  C   UNL     1     -10.571  17.223  65.617  1.00  0.00    -0.166 C  
HETATM   10  OXT UNL     1      -9.756  18.128  65.512  1.00  0.00    -0.274 OA 
HETATM   11  O   UNL     1     -11.273  16.831  64.536  1.00  0.00    -0.997 OA 
HETATM   12  C   UNL     1     -11.851  14.351  66.064  1.00  0.00    -0.372 C  
ENDROOT
BRANCH   4  13
HETATM   13  C   UNL     1      -9.865  18.487  68.276  1.00  0.00    -0.363 C  
BRANCH  13  14
HETATM   14  S   UNL     1      -8.140  18.414  68.823  1.00  0.00    -0.188 SA 
BRANCH  14  15
HETATM   15  C   UNL     1      -7.232  18.333  67.370  1.00  0.00    -0.200 A  
HETATM   16  N   UNL     1      -6.776  17.269  66.755  1.00  0.00    -0.191 NA 
HETATM   17  C   UNL     1      -7.101  20.828  66.922  1.00  0.00    -0.281 C  
HETATM   18  N   UNL     1      -6.074  17.735  65.668  1.00  0.00    -0.153 NA 
HETATM   19  N   UNL     1      -6.838  19.439  66.672  1.00  0.00    -0.191 NA 
HETATM   20  N   UNL     1      -6.105  19.059  65.611  1.00  0.00    -0.199 NA 
ENDBRANCH  14  15
ENDBRANCH  13  14
ENDBRANCH   4  13
BRANCH   6  21
HETATM   21  N   UNL     1     -11.233  12.327  67.606  1.00  0.00    -0.271 N  
HETATM   22  H   UNL     1     -10.275  12.436  67.276  1.00  0.00     0.000 HD 
HETATM   23  O   UNL     1     -12.628  11.093  68.921  1.00  0.00    -0.358 OA 
HETATM   24  C   UNL     1     -11.544  11.210  68.354  1.00  0.00    -0.306 C  
BRANCH  24  25
HETATM   25  CA  UNL     1     -10.500  10.062  68.271  1.00  0.00    -0.213 C  
BRANCH  25  26
HETATM   26  C   UNL     1      -9.644  10.187  67.019  1.00  0.00    -0.209 A  
HETATM   27  C   UNL     1      -9.343   9.973  64.610  1.00  0.00    -0.338 A  
HETATM   28  C   UNL     1      -8.335  10.683  67.112  1.00  0.00    -0.125 A  
HETATM   29  O   UNL     1      -7.323  10.618  63.586  1.00  0.00    -0.349 OA 
HETATM   30  C   UNL     1     -10.139   9.835  65.748  1.00  0.00    -0.308 A  
HETATM   31  C   UNL     1      -7.540  10.828  65.969  1.00  0.00    -0.130 A  
HETATM   32  H   UNL     1      -7.676  10.379  62.738  1.00  0.00     0.000 HD 
HETATM   33  C   UNL     1      -8.056  10.477  64.727  1.00  0.00    -0.078 A  
ENDBRANCH  25  26
BRANCH  25  34
HETATM   34  N   UNL     1      -9.640  10.025  69.452  1.00  0.00    -0.210 N  
HETATM   35  H   UNL     1      -8.921  10.740  69.559  1.00  0.00     0.000 HD 
BRANCH  34  36
HETATM   36  C   UNL     1      -9.764   9.067  70.420  1.00  0.00    -0.206 C  
HETATM   37  O   UNL     1     -10.268   9.323  71.511  1.00  0.00    -0.330 OA 
BRANCH  36  38
HETATM   38  N   UNL     1      -9.299   7.801  70.084  1.00  0.00    -0.154 N  
HETATM   39  C   UNL     1      -7.930   7.683  69.593  1.00  0.00    -0.124 C  
HETATM   40  N   UNL     1      -8.010   5.268  69.945  1.00  0.00    -0.082 N  
HETATM   41  C   UNL     1      -7.228   6.470  70.172  1.00  0.00    -0.080 C  
HETATM   42  C   UNL     1      -9.379   5.284  70.201  1.00  0.00    -0.153 C  
HETATM   43  O   UNL     1     -11.323   6.680  70.095  1.00  0.00    -0.327 OA 
HETATM   44  C   UNL     1     -10.095   6.653  70.137  1.00  0.00    -0.178 C  
HETATM   45  O   UNL     1     -10.039   4.278  70.435  1.00  0.00    -0.194 OA 
BRANCH  40  46
HETATM   46  C   UNL     1      -7.342   3.999  69.679  1.00  0.00    -0.049 C  
HETATM   47  C   UNL     1      -7.209   3.659  68.207  1.00  0.00    -0.051 C  
ENDBRANCH  40  46
ENDBRANCH  36  38
ENDBRANCH  34  36
ENDBRANCH  25  34
ENDBRANCH  24  25
ENDBRANCH   6  21
TORSDOF 10
ENDMDL
MODEL       72
REMARK 921   NORMALIZED FREE ENERGY PREDICTED BY IDOCK:   -6.21 KCAL/MOL
REMARK 922        TOTAL FREE ENERGY PREDICTED BY IDOCK:  -12.14 KCAL/MOL
REMARK 923 INTER-LIGAND FREE ENERGY PREDICTED BY IDOCK:   -9.52 KCAL/MOL
REMARK 924 INTRA-LIGAND FREE ENERGY PREDICTED BY IDOCK:   -2.62 KCAL/MOL
REMARK 927      BINDING AFFINITY PREDICTED BY RF-SCORE:    0.00 PKD
ROOT
HETATM    1  C   UNL     1     -11.395  11.913  67.249  1.00  0.00    -0.329 C  
HETATM    2  S   UNL     1      -9.796  11.135  66.920  1.00  0.00    -0.198 SA 
HETATM    3  C   UNL     1     -10.303   9.538  67.594  1.00  0.00    -0.244 C  
HETATM    4  C   UNL     1     -11.019   9.597  68.940  1.00  0.00    -0.153 C  
HETATM    5  CA  UNL     1     -11.603  10.726  69.442  1.00  0.00    -0.308 C  
HETATM    6  CA  UNL     1     -11.365  13.477  67.384  1.00  0.00    -0.311 C  
HETATM    7  O   UNL     1     -12.409  13.737  69.785  1.00  0.00    -0.319 OA 
HETATM    8  N   UNL     1     -11.645  11.860  68.676  1.00  0.00    -0.285 N  
HETATM    9  C   UNL     1     -12.123  10.751  70.869  1.00  0.00    -0.370 C  
HETATM   10  OXT UNL     1     -11.830   9.914  71.711  1.00  0.00    -0.362 OA 
HETATM   11  O   UNL     1     -13.021  11.710  71.167  1.00  0.00    -0.328 OA 
HETATM   12  C   UNL     1     -11.926  13.176  68.828  1.00  0.00    -0.280 C  
ENDROOT
BRANCH   4  13
HETATM   13  C   UNL     1     -10.865   8.267  69.678  1.00  0.00    -0.150 C  
BRANCH  13  14
HETATM   14  S   UNL     1     -10.441   6.837  68.651  1.00  0.00    -0.222 SA 
BRANCH  14  15
HETATM   15  C   UNL     1      -8.813   6.483  69.059  1.00  0.00    -0.130 A  
HETATM   16  N   UNL     1      -7.719   6.885  68.458  1.00  0.00    -0.111 NA 
HETATM   17  C   UNL     1      -9.289   5.003  71.064  1.00  0.00    -0.152 C  
HETATM   18  N   UNL     1      -6.679   6.292  69.135  1.00  0.00    -0.054 NA 
HETATM   19  N   UNL     1      -8.462   5.670  70.099  1.00  0.00    -0.117 NA 
HETATM   20  N   UNL     1      -7.124   5.546  70.137  1.00  0.00    -0.064 NA 
ENDBRANCH  14  15
ENDBRANCH  13  14
ENDBRANCH   4  13
BRANCH   6  21
HETATM   21  N   UNL     1     -10.007  14.086  67.296  1.00  0.00    -0.239 N  
HETATM   22  H   UNL     1      -9.363  13.943  68.074  1.00  0.00     0.000 HD 
HETATM   23  O   UNL     1     -10.230  14.910  65.182  1.00  0.00    -0.383 OA 
HETATM   24  C   UNL     1      -9.575  14.832  66.219  1.00  0.00    -0.312 C  
BRANCH  24  25
HETATM   25  CA  UNL     1      -8.310  15.691  66.490  1.00  0.00    -0.241 C  
BRANCH  25  26
HETATM   26  C   UNL     1      -8.665  17.165  66.627  1.00  0.00    -0.281 A  
HETATM   27  C   UNL     1     -10.230  18.937  67.223  1.00  0.00    -0.454 A  
HETATM   28  C   UNL     1      -7.716  18.147  66.307  1.00  0.00    -0.290 A  
HETATM   29  O   UNL     1      -9.597  21.200  67.081  1.00  0.00    -0.680 OA 
HETATM   30  C   UNL     1      -9.929  17.580  67.090  1.00  0.00    -0.314 A  
HETATM   31  C   UNL     1      -8.015  19.507  66.448  1.00  0.00    -0.323 A  
HETATM   32  H   UNL     1     -10.453  21.461  67.398  1.00  0.00     0.000 HD 
HETATM   33  C   UNL     1      -9.269  19.888  66.912  1.00  0.00    -0.370 A  
ENDBRANCH  25  26
BRANCH  25  34
HETATM   34  N   UNL     1      -7.596  15.245  67.685  1.00  0.00    -0.155 N  
HETATM   35  H   UNL     1      -8.105  15.188  68.568  1.00  0.00     0.000 HD 
BRANCH  34  36
HETATM   36  C   UNL     1      -6.273  14.901  67.665  1.00  0.00    -0.100 C  
HETATM   37  O   UNL     1      -5.431  15.637  67.159  1.00  0.00    -0.332 OA 
BRANCH  36  38
HETATM   38  N   UNL     1      -5.953  13.688  68.261  1.00  0.00    -0.095 N  
HETATM   39  C   UNL     1      -5.503  13.706  69.649  1.00  0.00    -0.091 C  
HETATM   40  N   UNL     1      -5.856  11.294  69.797  1.00  0.00    -0.078 N  
HETATM   41  C   UNL     1      -6.104  12.567  70.450  1.00  0.00    -0.014 C  
HETATM   42  C   UNL     1      -6.072  11.174  68.427  1.00  0.00    -0.045 C  
HETATM   43  O   UNL     1      -5.905  12.373  66.358  1.00  0.00     0.098 OA 
HETATM   44  C   UNL     1      -5.983  12.467  67.582  1.00  0.00    -0.128 C  
HETATM   45  O   UNL     1      -6.287  10.109  67.862  1.00  0.00    -0.060 OA 
BRANCH  40  46
HETATM   46  C   UNL     1      -5.612  10.097  70.594  1.00  0.00    -0.078 C  
HETATM   47  C   UNL     1      -6.868   9.396  71.072  1.00  0.00    -0.072 C  
ENDBRANCH  40  46
ENDBRANCH  36  38
ENDBRANCH  34  36
ENDBRANCH  25  34
ENDBRANCH  24  25
ENDBRANCH   6  21
TORSDOF 10
ENDMDL
MODEL       73
REMARK 921   NORMALIZED FREE ENERGY PREDICTED BY IDOCK:   -6.21 KCAL/MOL
REMARK 922        TOTAL FREE ENERGY PREDICTED BY IDOCK:  -12.13 KCAL/MOL
REMARK 923 INTER-LIGAND FREE ENERGY PREDICTED BY IDOCK:  -10.19 KCAL/MOL
REMARK 924 INTRA-LIGAND FREE ENERGY PREDICTED BY IDOCK:   -1.95 KCAL/MOL
REMARK 927      BINDING AFFINITY PREDICTED BY RF-SCORE:    0.00 PKD
ROOT
HETATM    1  C   UNL     1      -9.944  13.312  67.436  1.00  0.00    -0.233 C  
HETATM    2  S   UNL     1     -10.941  13.492  68.934  1.00  0.00    -0.231 SA 
HETATM    3  C   UNL     1     -10.758  15.288  68.979  1.00  0.00    -0.244 C  
HETATM    4  C   UNL     1      -9.337  15.804  68.772  1.00  0.00    -0.218 C  
HETATM    5  CA  UNL     1      -8.335  15.066  68.209  1.00  0.00    -0.145 C  
HETATM    6  CA  UNL     1      -9.283  11.902  67.236  1.00  0.00    -0.179 C  
HETATM    7  O   UNL     1      -6.757  12.614  67.054  1.00  0.00    -0.084 OA 
HETATM    8  N   UNL     1      -8.614  13.823  67.707  1.00  0.00    -0.171 N  
HETATM    9  C   UNL     1      -6.906  15.581  68.217  1.00  0.00    -0.116 C  
HETATM   10  OXT UNL     1      -6.522  16.501  68.924  1.00  0.00    -0.145 OA 
HETATM   11  O   UNL     1      -6.061  15.031  67.323  1.00  0.00    -0.318 OA 
HETATM   12  C   UNL     1      -7.941  12.733  67.269  1.00  0.00    -0.156 C  
ENDROOT
BRANCH   4  13
HETATM   13  C   UNL     1      -9.183  17.188  69.403  1.00  0.00     0.236 C  
BRANCH  13  14
HETATM   14  S   UNL     1     -10.001  18.549  68.535  1.00  0.00    -0.387 SA 
BRANCH  14  15
HETATM   15  C   UNL     1      -8.838  19.094  67.398  1.00  0.00    -0.293 A  
HETATM   16  N   UNL     1      -8.896  19.044  66.089  1.00  0.00    -0.460 NA 
HETATM   17  C   UNL     1      -7.115  19.932  69.062  1.00  0.00    -0.271 C  
HETATM   18  N   UNL     1      -7.703  19.559  65.640  1.00  0.00    -0.428 NA 
HETATM   19  N   UNL     1      -7.641  19.645  67.758  1.00  0.00    -0.270 NA 
HETATM   20  N   UNL     1      -6.929  19.926  66.652  1.00  0.00    -0.215 NA 
ENDBRANCH  14  15
ENDBRANCH  13  14
ENDBRANCH   4  13
BRANCH   6  21
HETATM   21  N   UNL     1      -9.513  10.939  68.350  1.00  0.00    -0.171 N  
HETATM   22  H   UNL     1      -9.051  11.114  69.242  1.00  0.00     0.000 HD 
HETATM   23  O   UNL     1     -11.032   9.636  67.257  1.00  0.00    -0.224 OA 
HETATM   24  C   UNL     1     -10.318   9.824  68.239  1.00  0.00    -0.198 C  
BRANCH  24  25
HETATM   25  CA  UNL     1     -10.112   8.762  69.354  1.00  0.00    -0.203 C  
BRANCH  25  26
HETATM   26  C   UNL     1     -11.225   8.832  70.391  1.00  0.00    -0.247 A  
HETATM   27  C   UNL     1     -12.723  10.107  71.830  1.00  0.00    -0.534 A  
HETATM   28  C   UNL     1     -11.824   7.653  70.857  1.00  0.00    -0.272 A  
HETATM   29  O   UNL     1     -14.329   9.018  73.163  1.00  0.00    -1.136 OA 
HETATM   30  C   UNL     1     -11.691  10.064  70.891  1.00  0.00    -0.462 A  
HETATM   31  C   UNL     1     -12.864   7.697  71.792  1.00  0.00    -0.357 A  
HETATM   32  H   UNL     1     -14.633   9.857  73.485  1.00  0.00     0.000 HD 
HETATM   33  C   UNL     1     -13.308   8.926  72.265  1.00  0.00    -0.449 A  
ENDBRANCH  25  26
BRANCH  25  34
HETATM   34  N   UNL     1     -10.036   7.409  68.807  1.00  0.00    -0.165 N  
HETATM   35  H   UNL     1     -10.834   7.043  68.287  1.00  0.00     0.000 HD 
BRANCH  34  36
HETATM   36  C   UNL     1      -8.935   6.613  68.966  1.00  0.00    -0.130 C  
HETATM   37  O   UNL     1      -7.999   6.655  68.172  1.00  0.00    -0.108 OA 
BRANCH  36  38
HETATM   38  N   UNL     1      -8.943   5.781  70.078  1.00  0.00    -0.137 N  
HETATM   39  C   UNL     1      -9.792   4.594  70.037  1.00  0.00    -0.224 C  
HETATM   40  N   UNL     1      -8.614   3.682  71.972  1.00  0.00    -0.089 N  
HETATM   41  C   UNL     1      -9.099   3.386  70.636  1.00  0.00    -0.115 C  
HETATM   42  C   UNL     1      -7.935   4.876  72.205  1.00  0.00    -0.110 C  
HETATM   43  O   UNL     1      -7.861   7.184  71.566  1.00  0.00    -0.092 OA 
HETATM   44  C   UNL     1      -8.229   6.055  71.247  1.00  0.00    -0.123 C  
HETATM   45  O   UNL     1      -7.157   5.046  73.136  1.00  0.00    -0.079 OA 
BRANCH  40  46
HETATM   46  C   UNL     1      -8.629   2.650  73.002  1.00  0.00    -0.071 C  
HETATM   47  C   UNL     1      -9.994   2.042  73.260  1.00  0.00    -0.162 C  
ENDBRANCH  40  46
ENDBRANCH  36  38
ENDBRANCH  34  36
ENDBRANCH  25  34
ENDBRANCH  24  25
ENDBRANCH   6  21
TORSDOF 10
ENDMDL
MODEL       74
REMARK 921   NORMALIZED FREE ENERGY PREDICTED BY IDOCK:   -6.19 KCAL/MOL
REMARK 922        TOTAL FREE ENERGY PREDICTED BY IDOCK:  -12.11 KCAL/MOL
REMARK 923 INTER-LIGAND FREE ENERGY PREDICTED BY IDOCK:   -9.33 KCAL/MOL
REMARK 924 INTRA-LIGAND FREE ENERGY PREDICTED BY IDOCK:   -2.78 KCAL/MOL
REMARK 927      BINDING AFFINITY PREDICTED BY RF-SCORE:    0.00 PKD
ROOT
HETATM    1  C   UNL     1      -8.376  10.326  69.660  1.00  0.00    -0.123 C  
HETATM    2  S   UNL     1      -7.611   9.806  68.107  1.00  0.00    -0.081 SA 
HETATM    3  C   UNL     1      -7.920  11.387  67.290  1.00  0.00    -0.149 C  
HETATM    4  C   UNL     1      -9.330  11.943  67.461  1.00  0.00    -0.177 C  
HETATM    5  CA  UNL     1     -10.192  11.543  68.442  1.00  0.00    -0.205 C  
HETATM    6  CA  UNL     1      -8.905   9.162  70.571  1.00  0.00    -0.224 C  
HETATM    7  O   UNL     1     -11.425   9.884  70.801  1.00  0.00    -0.298 OA 
HETATM    8  N   UNL     1      -9.763  10.662  69.398  1.00  0.00    -0.167 N  
HETATM    9  C   UNL     1     -11.640  12.001  68.425  1.00  0.00    -0.311 C  
HETATM   10  OXT UNL     1     -12.181  12.502  67.449  1.00  0.00    -0.430 OA 
HETATM   11  O   UNL     1     -12.314  11.918  69.589  1.00  0.00    -0.176 OA 
HETATM   12  C   UNL     1     -10.292   9.890  70.376  1.00  0.00    -0.260 C  
ENDROOT
BRANCH   4  13
HETATM   13  C   UNL     1      -9.665  12.891  66.309  1.00  0.00    -0.268 C  
BRANCH  13  14
HETATM   14  S   UNL     1      -9.241  14.632  66.568  1.00  0.00    -0.241 SA 
BRANCH  14  15
HETATM   15  C   UNL     1     -10.286  15.490  65.513  1.00  0.00    -0.394 A  
HETATM   16  N   UNL     1     -11.067  15.010  64.575  1.00  0.00    -0.290 NA 
HETATM   17  C   UNL     1      -9.774  17.824  66.366  1.00  0.00    -0.308 C  
HETATM   18  N   UNL     1     -11.659  16.102  63.984  1.00  0.00    -0.889 NA 
HETATM   19  N   UNL     1     -10.402  16.851  65.519  1.00  0.00    -0.614 NA 
HETATM   20  N   UNL     1     -11.256  17.230  64.552  1.00  0.00    -0.924 NA 
ENDBRANCH  14  15
ENDBRANCH  13  14
ENDBRANCH   4  13
BRANCH   6  21
HETATM   21  N   UNL     1      -8.766   7.798  69.985  1.00  0.00    -0.140 N  
HETATM   22  H   UNL     1      -9.152   7.630  69.056  1.00  0.00     0.000 HD 
HETATM   23  O   UNL     1      -7.516   6.917  71.676  1.00  0.00    -0.084 OA 
HETATM   24  C   UNL     1      -8.144   6.751  70.633  1.00  0.00    -0.119 C  
BRANCH  24  25
HETATM   25  CA  UNL     1      -8.450   5.347  70.041  1.00  0.00    -0.111 C  
BRANCH  25  26
HETATM   26  C   UNL     1      -8.685   4.325  71.145  1.00  0.00    -0.134 A  
HETATM   27  C   UNL     1      -7.879   2.584  72.648  1.00  0.00    -0.054 A  
HETATM   28  C   UNL     1      -9.957   4.200  71.724  1.00  0.00    -0.246 A  
HETATM   29  O   UNL     1      -9.319   1.595  74.226  1.00  0.00    -0.063 OA 
HETATM   30  C   UNL     1      -7.646   3.504  71.623  1.00  0.00    -0.053 A  
HETATM   31  C   UNL     1     -10.188   3.283  72.755  1.00  0.00    -0.240 A  
HETATM   32  H   UNL     1      -8.605   1.052  74.539  1.00  0.00     0.000 HD 
HETATM   33  C   UNL     1      -9.143   2.488  73.212  1.00  0.00    -0.084 A  
ENDBRANCH  25  26
BRANCH  25  34
HETATM   34  N   UNL     1      -9.604   5.376  69.144  1.00  0.00    -0.132 N  
HETATM   35  H   UNL     1     -10.516   5.625  69.526  1.00  0.00     0.000 HD 
BRANCH  34  36
HETATM   36  C   UNL     1      -9.506   5.083  67.812  1.00  0.00    -0.133 C  
HETATM   37  O   UNL     1      -9.877   3.999  67.369  1.00  0.00    -0.177 OA 
BRANCH  36  38
HETATM   38  N   UNL     1      -8.980   6.085  67.007  1.00  0.00    -0.112 N  
HETATM   39  C   UNL     1      -7.665   5.866  66.414  1.00  0.00    -0.099 C  
HETATM   40  N   UNL     1      -8.046   7.726  64.878  1.00  0.00    -0.142 N  
HETATM   41  C   UNL     1      -7.610   6.345  64.976  1.00  0.00    -0.091 C  
HETATM   42  C   UNL     1      -9.200   8.129  65.546  1.00  0.00     0.112 C  
HETATM   43  O   UNL     1     -10.465   7.775  67.550  1.00  0.00    -0.240 OA 
HETATM   44  C   UNL     1      -9.620   7.308  66.788  1.00  0.00    -0.185 C  
HETATM   45  O   UNL     1      -9.866   9.106  65.226  1.00  0.00    -0.087 OA 
BRANCH  40  46
HETATM   46  C   UNL     1      -7.425   8.624  63.910  1.00  0.00    -0.116 C  
HETATM   47  C   UNL     1      -6.176   9.321  64.416  1.00  0.00    -0.077 C  
ENDBRANCH  40  46
ENDBRANCH  36  38
ENDBRANCH  34  36
ENDBRANCH  25  34
ENDBRANCH  24  25
ENDBRANCH   6  21
TORSDOF 10
ENDMDL
MODEL       75
REMARK 921   NORMALIZED FREE ENERGY PREDICTED BY IDOCK:   -6.17 KCAL/MOL
REMARK 922        TOTAL FREE ENERGY PREDICTED BY IDOCK:  -12.07 KCAL/MOL
REMARK 923 INTER-LIGAND FREE ENERGY PREDICTED BY IDOCK:  -10.84 KCAL/MOL
REMARK 924 INTRA-LIGAND FREE ENERGY PREDICTED BY IDOCK:   -1.24 KCAL/MOL
REMARK 927      BINDING AFFINITY PREDICTED BY RF-SCORE:    0.00 PKD
ROOT
HETATM    1  C   UNL     1      -7.208   7.763  67.944  1.00  0.00    -0.090 C  
HETATM    2  S   UNL     1      -6.759   8.494  69.536  1.00  0.00    -0.041 SA 
HETATM    3  C   UNL     1      -7.060   6.967  70.453  1.00  0.00    -0.067 C  
HETATM    4  C   UNL     1      -8.368   6.256  70.122  1.00  0.00    -0.129 C  
HETATM    5  CA  UNL     1      -9.087   6.477  68.982  1.00  0.00    -0.132 C  
HETATM    6  CA  UNL     1      -7.679   8.782  66.847  1.00  0.00    -0.094 C  
HETATM    7  O   UNL     1     -10.052   7.786  66.301  1.00  0.00    -0.117 OA 
HETATM    8  N   UNL     1      -8.583   7.310  68.020  1.00  0.00    -0.125 N  
HETATM    9  C   UNL     1     -10.472   5.875  68.820  1.00  0.00    -0.249 C  
HETATM   10  OXT UNL     1     -11.121   5.409  69.746  1.00  0.00    -0.152 OA 
HETATM   11  O   UNL     1     -10.947   5.786  67.563  1.00  0.00    -0.241 OA 
HETATM   12  C   UNL     1      -9.009   7.934  66.896  1.00  0.00    -0.136 C  
ENDROOT
BRANCH   4  13
HETATM   13  C   UNL     1      -8.804   5.383  71.300  1.00  0.00    -0.130 C  
BRANCH  13  14
HETATM   14  S   UNL     1      -9.285   6.267  72.805  1.00  0.00    -0.136 SA 
BRANCH  14  15
HETATM   15  C   UNL     1     -10.792   6.988  72.417  1.00  0.00    -0.240 A  
HETATM   16  N   UNL     1     -11.995   6.491  72.574  1.00  0.00    -0.141 NA 
HETATM   17  C   UNL     1      -9.886   9.169  71.487  1.00  0.00    -0.265 C  
HETATM   18  N   UNL     1     -12.859   7.432  72.067  1.00  0.00    -0.236 NA 
HETATM   19  N   UNL     1     -10.904   8.221  71.840  1.00  0.00    -0.262 NA 
HETATM   20  N   UNL     1     -12.202   8.491  71.614  1.00  0.00    -0.306 NA 
ENDBRANCH  14  15
ENDBRANCH  13  14
ENDBRANCH   4  13
BRANCH   6  21
HETATM   21  N   UNL     1      -7.758  10.199  67.302  1.00  0.00    -0.095 N  
HETATM   22  H   UNL     1      -7.465  10.417  68.254  1.00  0.00     0.000 HD 
HETATM   23  O   UNL     1      -8.420  11.077  65.305  1.00  0.00    -0.120 OA 
HETATM   24  C   UNL     1      -8.207  11.232  66.505  1.00  0.00    -0.165 C  
BRANCH  24  25
HETATM   25  CA  UNL     1      -8.584  12.529  67.273  1.00  0.00    -0.191 C  
BRANCH  25  26
HETATM   26  C   UNL     1      -9.292  13.521  66.361  1.00  0.00    -0.191 A  
HETATM   27  C   UNL     1     -10.920  14.033  64.622  1.00  0.00    -0.401 A  
HETATM   28  C   UNL     1      -8.989  14.888  66.444  1.00  0.00    -0.254 A  
HETATM   29  O   UNL     1     -11.288  16.255  63.934  1.00  0.00    -1.415 OA 
HETATM   30  C   UNL     1     -10.271  13.105  65.438  1.00  0.00    -0.301 A  
HETATM   31  C   UNL     1      -9.646  15.819  65.631  1.00  0.00    -0.299 A  
HETATM   32  H   UNL     1     -11.948  15.957  63.319  1.00  0.00     0.000 HD 
HETATM   33  C   UNL     1     -10.611  15.382  64.732  1.00  0.00    -0.244 A  
ENDBRANCH  25  26
BRANCH  25  34
HETATM   34  N   UNL     1      -9.421  12.247  68.437  1.00  0.00    -0.298 N  
HETATM   35  H   UNL     1      -9.038  12.410  69.369  1.00  0.00     0.000 HD 
BRANCH  34  36
HETATM   36  C   UNL     1     -10.698  11.772  68.326  1.00  0.00    -0.214 C  
HETATM   37  O   UNL     1     -10.963  10.820  67.596  1.00  0.00    -0.263 OA 
BRANCH  36  38
HETATM   38  N   UNL     1     -11.656  12.421  69.094  1.00  0.00    -0.294 N  
HETATM   39  C   UNL     1     -12.375  11.639  70.094  1.00  0.00    -0.219 C  
HETATM   40  N   UNL     1     -13.172  13.699  71.136  1.00  0.00    -0.237 N  
HETATM   41  C   UNL     1     -12.555  12.409  71.388  1.00  0.00    -0.193 C  
HETATM   42  C   UNL     1     -12.704  14.488  70.088  1.00  0.00    -0.214 C  
HETATM   43  O   UNL     1     -11.813  14.376  67.867  1.00  0.00    -0.347 OA 
HETATM   44  C   UNL     1     -12.003  13.763  68.916  1.00  0.00    -0.359 C  
HETATM   45  O   UNL     1     -12.850  15.704  70.033  1.00  0.00    -0.212 OA 
BRANCH  40  46
HETATM   46  C   UNL     1     -14.106  14.266  72.102  1.00  0.00    -0.540 C  
HETATM   47  C   UNL     1     -13.462  15.152  73.150  1.00  0.00    -0.478 C  
ENDBRANCH  40  46
ENDBRANCH  36  38
ENDBRANCH  34  36
ENDBRANCH  25  34
ENDBRANCH  24  25
ENDBRANCH   6  21
TORSDOF 10
ENDMDL
MODEL       76
REMARK 921   NORMALIZED FREE ENERGY PREDICTED BY IDOCK:   -6.17 KCAL/MOL
REMARK 922        TOTAL FREE ENERGY PREDICTED BY IDOCK:  -12.07 KCAL/MOL
REMARK 923 INTER-LIGAND FREE ENERGY PREDICTED BY IDOCK:  -10.49 KCAL/MOL
REMARK 924 INTRA-LIGAND FREE ENERGY PREDICTED BY IDOCK:   -1.58 KCAL/MOL
REMARK 927      BINDING AFFINITY PREDICTED BY RF-SCORE:    0.00 PKD
ROOT
HETATM    1  C   UNL     1     -11.574  14.181  68.151  1.00  0.00    -0.331 C  
HETATM    2  S   UNL     1      -9.831  14.391  68.585  1.00  0.00    -0.214 SA 
HETATM    3  C   UNL     1      -9.793  16.124  68.077  1.00  0.00    -0.231 C  
HETATM    4  C   UNL     1     -10.429  16.419  66.722  1.00  0.00    -0.273 C  
HETATM    5  CA  UNL     1     -11.306  15.580  66.094  1.00  0.00    -0.010 C  
HETATM    6  CA  UNL     1     -12.017  12.705  67.851  1.00  0.00    -0.249 C  
HETATM    7  O   UNL     1     -12.977  13.013  65.421  1.00  0.00    -0.626 OA 
HETATM    8  N   UNL     1     -11.728  14.446  66.734  1.00  0.00    -0.386 N  
HETATM    9  C   UNL     1     -11.740  15.856  64.665  1.00  0.00    -0.117 C  
HETATM   10  OXT UNL     1     -11.167  16.638  63.921  1.00  0.00    -0.955 OA 
HETATM   11  O   UNL     1     -12.874  15.254  64.253  1.00  0.00    -0.482 OA 
HETATM   12  C   UNL     1     -12.391  13.303  66.438  1.00  0.00    -0.282 C  
ENDROOT
BRANCH   4  13
HETATM   13  C   UNL     1      -9.841  17.701  66.133  1.00  0.00    -0.242 C  
BRANCH  13  14
HETATM   14  S   UNL     1      -9.957  19.178  67.174  1.00  0.00    -0.382 SA 
BRANCH  14  15
HETATM   15  C   UNL     1      -8.364  19.414  67.765  1.00  0.00    -0.305 A  
HETATM   16  N   UNL     1      -7.927  19.287  68.995  1.00  0.00    -0.314 NA 
HETATM   17  C   UNL     1      -7.287  20.063  65.561  1.00  0.00    -0.247 C  
HETATM   18  N   UNL     1      -6.596  19.632  68.957  1.00  0.00    -0.308 NA 
HETATM   19  N   UNL     1      -7.325  19.811  66.974  1.00  0.00    -0.217 NA 
HETATM   20  N   UNL     1      -6.220  19.956  67.727  1.00  0.00    -0.203 NA 
ENDBRANCH  14  15
ENDBRANCH  13  14
ENDBRANCH   4  13
BRANCH   6  21
HETATM   21  N   UNL     1     -10.916  11.701  67.893  1.00  0.00    -0.211 N  
HETATM   22  H   UNL     1     -10.216  11.720  67.152  1.00  0.00     0.000 HD 
HETATM   23  O   UNL     1     -11.499  10.763  69.888  1.00  0.00    -0.268 OA 
HETATM   24  C   UNL     1     -10.794  10.746  68.882  1.00  0.00    -0.227 C  
BRANCH  24  25
HETATM   25  CA  UNL     1      -9.836   9.572  68.536  1.00  0.00    -0.158 C  
BRANCH  25  26
HETATM   26  C   UNL     1      -8.849   9.319  69.666  1.00  0.00    -0.159 A  
HETATM   27  C   UNL     1      -8.353   8.657  71.959  1.00  0.00    -0.169 A  
HETATM   28  C   UNL     1      -7.473   9.483  69.444  1.00  0.00    -0.088 A  
HETATM   29  O   UNL     1      -6.130   8.542  72.726  1.00  0.00    -0.076 OA 
HETATM   30  C   UNL     1      -9.277   8.899  70.941  1.00  0.00    -0.286 A  
HETATM   31  C   UNL     1      -6.547   9.232  70.463  1.00  0.00    -0.072 A  
HETATM   32  H   UNL     1      -6.437   8.257  73.578  1.00  0.00     0.000 HD 
HETATM   33  C   UNL     1      -6.997   8.815  71.710  1.00  0.00    -0.056 A  
ENDBRANCH  25  26
BRANCH  25  34
HETATM   34  N   UNL     1     -10.569   8.343  68.239  1.00  0.00    -0.391 N  
HETATM   35  H   UNL     1     -11.570   8.309  68.434  1.00  0.00     0.000 HD 
BRANCH  34  36
HETATM   36  C   UNL     1      -9.964   7.237  67.710  1.00  0.00    -0.166 C  
HETATM   37  O   UNL     1      -9.594   7.212  66.539  1.00  0.00    -0.177 OA 
BRANCH  36  38
HETATM   38  N   UNL     1      -9.787   6.168  68.579  1.00  0.00    -0.133 N  
HETATM   39  C   UNL     1      -8.712   5.224  68.292  1.00  0.00    -0.101 C  
HETATM   40  N   UNL     1      -8.903   4.316  70.550  1.00  0.00    -0.082 N  
HETATM   41  C   UNL     1      -7.974   4.811  69.550  1.00  0.00    -0.066 C  
HETATM   42  C   UNL     1     -10.074   5.024  70.808  1.00  0.00    -0.237 C  
HETATM   43  O   UNL     1     -11.769   6.353  69.758  1.00  0.00    -0.414 OA 
HETATM   44  C   UNL     1     -10.621   5.923  69.674  1.00  0.00    -0.313 C  
HETATM   45  O   UNL     1     -10.702   4.943  71.857  1.00  0.00    -0.163 OA 
BRANCH  40  46
HETATM   46  C   UNL     1      -8.512   3.225  71.436  1.00  0.00    -0.068 C  
HETATM   47  C   UNL     1      -7.706   2.130  70.764  1.00  0.00    -0.039 C  
ENDBRANCH  40  46
ENDBRANCH  36  38
ENDBRANCH  34  36
ENDBRANCH  25  34
ENDBRANCH  24  25
ENDBRANCH   6  21
TORSDOF 10
ENDMDL
MODEL       77
REMARK 921   NORMALIZED FREE ENERGY PREDICTED BY IDOCK:   -6.16 KCAL/MOL
REMARK 922        TOTAL FREE ENERGY PREDICTED BY IDOCK:  -12.06 KCAL/MOL
REMARK 923 INTER-LIGAND FREE ENERGY PREDICTED BY IDOCK:  -10.83 KCAL/MOL
REMARK 924 INTRA-LIGAND FREE ENERGY PREDICTED BY IDOCK:   -1.23 KCAL/MOL
REMARK 927      BINDING AFFINITY PREDICTED BY RF-SCORE:    0.00 PKD
ROOT
HETATM    1  C   UNL     1      -8.284  10.618  68.141  1.00  0.00    -0.116 C  
HETATM    2  S   UNL     1      -9.255  10.177  69.602  1.00  0.00    -0.134 SA 
HETATM    3  C   UNL     1      -8.569   8.508  69.697  1.00  0.00    -0.131 C  
HETATM    4  C   UNL     1      -8.525   7.746  68.377  1.00  0.00    -0.125 C  
HETATM    5  CA  UNL     1      -8.605   8.343  67.150  1.00  0.00    -0.123 C  
HETATM    6  CA  UNL     1      -8.882  11.773  67.262  1.00  0.00    -0.167 C  
HETATM    7  O   UNL     1      -9.055  10.531  64.950  1.00  0.00    -0.182 OA 
HETATM    8  N   UNL     1      -8.634   9.709  67.067  1.00  0.00    -0.127 N  
HETATM    9  C   UNL     1      -8.751   7.500  65.895  1.00  0.00    -0.147 C  
HETATM   10  OXT UNL     1      -9.065   6.318  65.905  1.00  0.00    -0.145 OA 
HETATM   11  O   UNL     1      -8.424   8.092  64.730  1.00  0.00    -0.138 OA 
HETATM   12  C   UNL     1      -8.891  10.663  66.141  1.00  0.00    -0.168 C  
ENDROOT
BRANCH   4  13
HETATM   13  C   UNL     1      -8.517   6.240  68.639  1.00  0.00    -0.122 C  
BRANCH  13  14
HETATM   14  S   UNL     1     -10.130   5.483  68.961  1.00  0.00    -0.221 SA 
BRANCH  14  15
HETATM   15  C   UNL     1      -9.770   3.850  69.341  1.00  0.00    -0.102 A  
HETATM   16  N   UNL     1      -9.726   3.281  70.522  1.00  0.00    -0.138 NA 
HETATM   17  C   UNL     1      -9.367   3.040  66.970  1.00  0.00    -0.128 C  
HETATM   18  N   UNL     1      -9.346   1.979  70.297  1.00  0.00    -0.117 NA 
HETATM   19  N   UNL     1      -9.441   2.918  68.398  1.00  0.00    -0.185 NA 
HETATM   20  N   UNL     1      -9.167   1.749  69.003  1.00  0.00    -0.122 NA 
ENDBRANCH  14  15
ENDBRANCH  13  14
ENDBRANCH   4  13
BRANCH   6  21
HETATM   21  N   UNL     1     -10.204  12.287  67.720  1.00  0.00    -0.199 N  
HETATM   22  H   UNL     1     -11.045  11.803  67.407  1.00  0.00     0.000 HD 
HETATM   23  O   UNL     1      -9.388  13.914  69.093  1.00  0.00     0.102 OA 
HETATM   24  C   UNL     1     -10.351  13.383  68.546  1.00  0.00    -0.236 C  
BRANCH  24  25
HETATM   25  CA  UNL     1     -11.784  13.983  68.579  1.00  0.00    -0.352 C  
BRANCH  25  26
HETATM   26  C   UNL     1     -12.230  14.259  70.008  1.00  0.00    -0.417 A  
HETATM   27  C   UNL     1     -13.042  13.495  72.176  1.00  0.00    -0.487 A  
HETATM   28  C   UNL     1     -12.207  15.569  70.508  1.00  0.00    -0.444 A  
HETATM   29  O   UNL     1     -13.364  15.014  73.945  1.00  0.00    -0.460 OA 
HETATM   30  C   UNL     1     -12.652  13.222  70.863  1.00  0.00    -0.386 A  
HETATM   31  C   UNL     1     -12.591  15.841  71.826  1.00  0.00    -0.524 A  
HETATM   32  H   UNL     1     -13.642  14.302  74.508  1.00  0.00     0.000 HD 
HETATM   33  C   UNL     1     -12.999  14.798  72.650  1.00  0.00    -0.426 A  
ENDBRANCH  25  26
BRANCH  25  34
HETATM   34  N   UNL     1     -11.877  15.209  67.790  1.00  0.00    -0.418 N  
HETATM   35  H   UNL     1     -12.691  15.813  67.915  1.00  0.00     0.000 HD 
BRANCH  34  36
HETATM   36  C   UNL     1     -10.916  15.579  66.890  1.00  0.00    -0.268 C  
HETATM   37  O   UNL     1     -10.664  14.887  65.907  1.00  0.00    -0.300 OA 
BRANCH  36  38
HETATM   38  N   UNL     1     -10.267  16.778  67.154  1.00  0.00    -0.290 N  
HETATM   39  C   UNL     1      -9.670  16.957  68.474  1.00  0.00    -0.264 C  
HETATM   40  N   UNL     1      -8.403  18.872  67.644  1.00  0.00    -0.269 N  
HETATM   41  C   UNL     1      -8.314  17.630  68.392  1.00  0.00    -0.290 C  
HETATM   42  C   UNL     1      -9.103  18.898  66.440  1.00  0.00    -0.311 C  
HETATM   43  O   UNL     1     -11.018  17.983  65.327  1.00  0.00    -0.575 OA 
HETATM   44  C   UNL     1     -10.212  17.837  66.244  1.00  0.00    -0.364 C  
HETATM   45  O   UNL     1      -8.912  19.728  65.559  1.00  0.00    -0.237 OA 
BRANCH  40  46
HETATM   46  C   UNL     1      -7.581  20.016  68.023  1.00  0.00    -0.278 C  
HETATM   47  C   UNL     1      -6.976  19.919  69.410  1.00  0.00    -0.295 C  
ENDBRANCH  40  46
ENDBRANCH  36  38
ENDBRANCH  34  36
ENDBRANCH  25  34
ENDBRANCH  24  25
ENDBRANCH   6  21
TORSDOF 10
ENDMDL
MODEL       78
REMARK 921   NORMALIZED FREE ENERGY PREDICTED BY IDOCK:   -6.13 KCAL/MOL
REMARK 922        TOTAL FREE ENERGY PREDICTED BY IDOCK:  -12.01 KCAL/MOL
REMARK 923 INTER-LIGAND FREE ENERGY PREDICTED BY IDOCK:  -10.10 KCAL/MOL
REMARK 924 INTRA-LIGAND FREE ENERGY PREDICTED BY IDOCK:   -1.91 KCAL/MOL
REMARK 927      BINDING AFFINITY PREDICTED BY RF-SCORE:    0.00 PKD
ROOT
HETATM    1  C   UNL     1      -7.092  10.677  67.613  1.00  0.00    -0.084 C  
HETATM    2  S   UNL     1      -8.740  10.637  66.870  1.00  0.00    -0.133 SA 
HETATM    3  C   UNL     1      -8.628  12.330  66.249  1.00  0.00     0.132 C  
HETATM    4  C   UNL     1      -8.113  13.358  67.251  1.00  0.00    -0.147 C  
HETATM    5  CA  UNL     1      -7.416  13.037  68.380  1.00  0.00    -0.128 C  
HETATM    6  CA  UNL     1      -6.861   9.663  68.789  1.00  0.00    -0.051 C  
HETATM    7  O   UNL     1      -6.142  11.336  70.687  1.00  0.00    -0.307 OA 
HETATM    8  N   UNL     1      -7.063  11.734  68.606  1.00  0.00    -0.095 N  
HETATM    9  C   UNL     1      -7.110  14.100  69.421  1.00  0.00    -0.049 C  
HETATM   10  OXT UNL     1      -7.665  15.189  69.461  1.00  0.00    -0.204 OA 
HETATM   11  O   UNL     1      -6.107  13.832  70.280  1.00  0.00    -0.148 OA 
HETATM   12  C   UNL     1      -6.575  10.976  69.617  1.00  0.00    -0.132 C  
ENDROOT
BRANCH   4  13
HETATM   13  C   UNL     1      -8.608  14.754  66.872  1.00  0.00    -0.224 C  
BRANCH  13  14
HETATM   14  S   UNL     1     -10.362  15.083  67.177  1.00  0.00    -0.261 SA 
BRANCH  14  15
HETATM   15  C   UNL     1     -11.003  15.462  65.632  1.00  0.00    -0.326 A  
HETATM   16  N   UNL     1     -10.774  16.523  64.896  1.00  0.00    -0.722 NA 
HETATM   17  C   UNL     1     -12.446  13.394  65.356  1.00  0.00    -0.494 C  
HETATM   18  N   UNL     1     -11.559  16.378  63.776  1.00  0.00    -0.928 NA 
HETATM   19  N   UNL     1     -11.898  14.665  64.978  1.00  0.00    -0.381 NA 
HETATM   20  N   UNL     1     -12.251  15.248  63.819  1.00  0.00    -0.436 NA 
ENDBRANCH  14  15
ENDBRANCH  13  14
ENDBRANCH   4  13
BRANCH   6  21
HETATM   21  N   UNL     1      -8.061   8.866  69.171  1.00  0.00    -0.114 N  
HETATM   22  H   UNL     1      -8.576   8.385  68.434  1.00  0.00     0.000 HD 
HETATM   23  O   UNL     1      -7.855   9.154  71.424  1.00  0.00    -0.310 OA 
HETATM   24  C   UNL     1      -8.511   8.743  70.469  1.00  0.00    -0.166 C  
BRANCH  24  25
HETATM   25  CA  UNL     1      -9.967   8.216  70.604  1.00  0.00    -0.189 C  
BRANCH  25  26
HETATM   26  C   UNL     1     -10.934   9.349  70.915  1.00  0.00    -0.391 A  
HETATM   27  C   UNL     1     -11.849  11.561  70.455  1.00  0.00    -0.413 A  
HETATM   28  C   UNL     1     -11.861   9.212  71.960  1.00  0.00    -0.407 A  
HETATM   29  O   UNL     1     -13.647  12.407  71.718  1.00  0.00    -0.253 OA 
HETATM   30  C   UNL     1     -10.942  10.540  70.164  1.00  0.00    -0.338 A  
HETATM   31  C   UNL     1     -12.775  10.233  72.247  1.00  0.00    -0.103 A  
HETATM   32  H   UNL     1     -13.639  13.202  71.198  1.00  0.00     0.000 HD 
HETATM   33  C   UNL     1     -12.763  11.396  71.485  1.00  0.00    -0.357 A  
ENDBRANCH  25  26
BRANCH  25  34
HETATM   34  N   UNL     1     -10.403   7.513  69.400  1.00  0.00    -0.208 N  
HETATM   35  H   UNL     1     -10.580   8.054  68.553  1.00  0.00     0.000 HD 
BRANCH  34  36
HETATM   36  C   UNL     1     -10.584   6.158  69.365  1.00  0.00    -0.286 C  
HETATM   37  O   UNL     1     -11.390   5.603  70.107  1.00  0.00    -0.179 OA 
BRANCH  36  38
HETATM   38  N   UNL     1      -9.816   5.468  68.435  1.00  0.00    -0.134 N  
HETATM   39  C   UNL     1      -9.154   4.243  68.871  1.00  0.00    -0.128 C  
HETATM   40  N   UNL     1      -8.740   3.636  66.542  1.00  0.00    -0.115 N  
HETATM   41  C   UNL     1      -9.236   3.154  67.819  1.00  0.00    -0.196 C  
HETATM   42  C   UNL     1      -9.148   4.882  66.075  1.00  0.00    -0.139 C  
HETATM   43  O   UNL     1      -9.716   7.096  66.795  1.00  0.00    -0.177 OA 
HETATM   44  C   UNL     1      -9.601   5.919  67.130  1.00  0.00    -0.127 C  
HETATM   45  O   UNL     1      -9.133   5.205  64.893  1.00  0.00    -0.133 OA 
BRANCH  40  46
HETATM   46  C   UNL     1      -8.012   2.737  65.653  1.00  0.00    -0.082 C  
HETATM   47  C   UNL     1      -6.983   1.867  66.347  1.00  0.00    -0.043 C  
ENDBRANCH  40  46
ENDBRANCH  36  38
ENDBRANCH  34  36
ENDBRANCH  25  34
ENDBRANCH  24  25
ENDBRANCH   6  21
TORSDOF 10
ENDMDL
MODEL       79
REMARK 921   NORMALIZED FREE ENERGY PREDICTED BY IDOCK:   -6.12 KCAL/MOL
REMARK 922        TOTAL FREE ENERGY PREDICTED BY IDOCK:  -11.99 KCAL/MOL
REMARK 923 INTER-LIGAND FREE ENERGY PREDICTED BY IDOCK:  -10.33 KCAL/MOL
REMARK 924 INTRA-LIGAND FREE ENERGY PREDICTED BY IDOCK:   -1.66 KCAL/MOL
REMARK 927      BINDING AFFINITY PREDICTED BY RF-SCORE:    0.00 PKD
ROOT
HETATM    1  C   UNL     1      -7.460  11.268  67.883  1.00  0.00    -0.094 C  
HETATM    2  S   UNL     1      -6.318  11.711  69.213  1.00  0.00    -0.109 SA 
HETATM    3  C   UNL     1      -6.479  10.114  70.041  1.00  0.00    -0.106 C  
HETATM    4  C   UNL     1      -7.908   9.609  70.209  1.00  0.00    -0.193 C  
HETATM    5  CA  UNL     1      -8.968  10.068  69.480  1.00  0.00    -0.205 C  
HETATM    6  CA  UNL     1      -8.150  12.478  67.160  1.00  0.00    -0.156 C  
HETATM    7  O   UNL     1     -10.675  11.844  67.539  1.00  0.00    -0.212 OA 
HETATM    8  N   UNL     1      -8.752  10.967  68.470  1.00  0.00    -0.146 N  
HETATM    9  C   UNL     1     -10.385   9.656  69.842  1.00  0.00    -0.249 C  
HETATM   10  OXT UNL     1     -10.689   9.140  70.908  1.00  0.00    -0.230 OA 
HETATM   11  O   UNL     1     -11.319   9.800  68.881  1.00  0.00    -0.092 OA 
HETATM   12  C   UNL     1      -9.474  11.788  67.671  1.00  0.00    -0.180 C  
ENDROOT
BRANCH   4  13
HETATM   13  C   UNL     1      -7.987   8.633  71.383  1.00  0.00    -0.137 C  
BRANCH  13  14
HETATM   14  S   UNL     1      -7.524   6.921  71.023  1.00  0.00    -0.083 SA 
BRANCH  14  15
HETATM   15  C   UNL     1      -8.796   6.331  70.035  1.00  0.00    -0.142 A  
HETATM   16  N   UNL     1      -8.838   6.253  68.726  1.00  0.00    -0.123 NA 
HETATM   17  C   UNL     1     -10.418   5.746  71.896  1.00  0.00    -0.221 C  
HETATM   18  N   UNL     1     -10.085   5.759  68.420  1.00  0.00    -0.157 NA 
HETATM   19  N   UNL     1      -9.984   5.879  70.535  1.00  0.00    -0.182 NA 
HETATM   20  N   UNL     1     -10.792   5.531  69.519  1.00  0.00    -0.273 NA 
ENDBRANCH  14  15
ENDBRANCH  13  14
ENDBRANCH   4  13
BRANCH   6  21
HETATM   21  N   UNL     1      -7.819  13.817  67.727  1.00  0.00    -0.155 N  
HETATM   22  H   UNL     1      -6.958  13.913  68.265  1.00  0.00     0.000 HD 
HETATM   23  O   UNL     1      -9.575  14.934  66.796  1.00  0.00    -0.230 OA 
HETATM   24  C   UNL     1      -8.615  14.932  67.563  1.00  0.00    -0.184 C  
BRANCH  24  25
HETATM   25  CA  UNL     1      -8.308  16.098  68.541  1.00  0.00    -0.195 C  
BRANCH  25  26
HETATM   26  C   UNL     1      -7.987  17.380  67.785  1.00  0.00    -0.208 A  
HETATM   27  C   UNL     1      -7.178  18.541  65.800  1.00  0.00    -0.224 A  
HETATM   28  C   UNL     1      -8.246  18.625  68.376  1.00  0.00    -0.361 A  
HETATM   29  O   UNL     1      -7.197  20.893  65.690  1.00  0.00    -0.496 OA 
HETATM   30  C   UNL     1      -7.450  17.354  66.483  1.00  0.00    -0.315 A  
HETATM   31  C   UNL     1      -7.980  19.815  67.689  1.00  0.00    -0.325 A  
HETATM   32  H   UNL     1      -6.838  20.855  64.811  1.00  0.00     0.000 HD 
HETATM   33  C   UNL     1      -7.454  19.760  66.403  1.00  0.00    -0.284 A  
ENDBRANCH  25  26
BRANCH  25  34
HETATM   34  N   UNL     1      -9.414  16.337  69.465  1.00  0.00    -0.152 N  
HETATM   35  H   UNL     1      -9.203  16.546  70.441  1.00  0.00     0.000 HD 
BRANCH  34  36
HETATM   36  C   UNL     1     -10.723  16.290  69.072  1.00  0.00    -0.300 C  
HETATM   37  O   UNL     1     -11.111  16.896  68.076  1.00  0.00    -0.336 OA 
BRANCH  36  38
HETATM   38  N   UNL     1     -11.565  15.512  69.856  1.00  0.00    -0.308 N  
HETATM   39  C   UNL     1     -12.257  14.397  69.216  1.00  0.00    -0.239 C  
HETATM   40  N   UNL     1     -12.812  13.481  71.411  1.00  0.00    -0.363 N  
HETATM   41  C   UNL     1     -12.274  13.165  70.099  1.00  0.00    -0.290 C  
HETATM   42  C   UNL     1     -12.374  14.624  72.073  1.00  0.00    -0.321 C  
HETATM   43  O   UNL     1     -11.676  16.888  71.712  1.00  0.00    -0.061 OA 
HETATM   44  C   UNL     1     -11.825  15.779  71.202  1.00  0.00    -0.425 C  
HETATM   45  O   UNL     1     -12.434  14.773  73.288  1.00  0.00    -0.406 OA 
BRANCH  40  46
HETATM   46  C   UNL     1     -13.621  12.500  72.126  1.00  0.00    -0.360 C  
HETATM   47  C   UNL     1     -13.234  11.058  71.864  1.00  0.00    -0.503 C  
ENDBRANCH  40  46
ENDBRANCH  36  38
ENDBRANCH  34  36
ENDBRANCH  25  34
ENDBRANCH  24  25
ENDBRANCH   6  21
TORSDOF 10
ENDMDL
MODEL       80
REMARK 921   NORMALIZED FREE ENERGY PREDICTED BY IDOCK:   -6.07 KCAL/MOL
REMARK 922        TOTAL FREE ENERGY PREDICTED BY IDOCK:  -11.91 KCAL/MOL
REMARK 923 INTER-LIGAND FREE ENERGY PREDICTED BY IDOCK:  -10.64 KCAL/MOL
REMARK 924 INTRA-LIGAND FREE ENERGY PREDICTED BY IDOCK:   -1.27 KCAL/MOL
REMARK 927      BINDING AFFINITY PREDICTED BY RF-SCORE:    0.00 PKD
ROOT
HETATM    1  C   UNL     1      -7.681   9.442  70.063  1.00  0.00    -0.123 C  
HETATM    2  S   UNL     1      -8.997   8.997  71.221  1.00  0.00    -0.149 SA 
HETATM    3  C   UNL     1      -8.358   7.328  71.484  1.00  0.00    -0.109 C  
HETATM    4  C   UNL     1      -7.975   6.570  70.217  1.00  0.00    -0.115 C  
HETATM    5  CA  UNL     1      -7.735   7.171  69.014  1.00  0.00    -0.109 C  
HETATM    6  CA  UNL     1      -8.030  10.601  69.063  1.00  0.00    -0.140 C  
HETATM    7  O   UNL     1      -7.598   9.367  66.780  1.00  0.00    -0.096 OA 
HETATM    8  N   UNL     1      -7.740   8.537  68.931  1.00  0.00    -0.099 N  
HETATM    9  C   UNL     1      -7.550   6.332  67.761  1.00  0.00    -0.101 C  
HETATM   10  OXT UNL     1      -7.857   5.151  67.685  1.00  0.00    -0.094 OA 
HETATM   11  O   UNL     1      -6.933   6.928  66.722  1.00  0.00    -0.062 OA 
HETATM   12  C   UNL     1      -7.749   9.494  67.973  1.00  0.00    -0.087 C  
ENDROOT
BRANCH   4  13
HETATM   13  C   UNL     1      -8.035   5.063  70.467  1.00  0.00    -0.081 C  
BRANCH  13  14
HETATM   14  S   UNL     1      -9.690   4.362  70.689  1.00  0.00    -0.215 SA 
BRANCH  14  15
HETATM   15  C   UNL     1      -9.933   4.366  72.387  1.00  0.00    -0.173 A  
HETATM   16  N   UNL     1      -9.373   3.597  73.290  1.00  0.00    -0.101 NA 
HETATM   17  C   UNL     1     -11.650   6.232  72.471  1.00  0.00    -0.232 C  
HETATM   18  N   UNL     1      -9.935   3.959  74.491  1.00  0.00    -0.148 NA 
HETATM   19  N   UNL     1     -10.814   5.201  73.014  1.00  0.00    -0.255 NA 
HETATM   20  N   UNL     1     -10.818   4.935  74.332  1.00  0.00    -0.316 NA 
ENDBRANCH  14  15
ENDBRANCH  13  14
ENDBRANCH   4  13
BRANCH   6  21
HETATM   21  N   UNL     1      -9.426  11.115  69.165  1.00  0.00    -0.407 N  
HETATM   22  H   UNL     1     -10.028  10.735  69.895  1.00  0.00     0.000 HD 
HETATM   23  O   UNL     1      -9.239  12.696  67.533  1.00  0.00    -0.177 OA 
HETATM   24  C   UNL     1      -9.947  12.077  68.325  1.00  0.00    -0.203 C  
BRANCH  24  25
HETATM   25  CA  UNL     1     -11.497  12.181  68.339  1.00  0.00    -0.304 C  
BRANCH  25  26
HETATM   26  C   UNL     1     -12.084  11.466  69.547  1.00  0.00    -0.370 A  
HETATM   27  C   UNL     1     -12.673   9.424  70.740  1.00  0.00    -0.070 A  
HETATM   28  C   UNL     1     -12.564  12.209  70.636  1.00  0.00    -0.255 A  
HETATM   29  O   UNL     1     -13.613   9.517  72.896  1.00  0.00    -0.650 OA 
HETATM   30  C   UNL     1     -12.145  10.060  69.615  1.00  0.00     0.112 A  
HETATM   31  C   UNL     1     -13.086  11.570  71.766  1.00  0.00    -0.503 A  
HETATM   32  H   UNL     1     -13.642   8.568  72.926  1.00  0.00     0.000 HD 
HETATM   33  C   UNL     1     -13.129  10.181  71.809  1.00  0.00    -0.463 A  
ENDBRANCH  25  26
BRANCH  25  34
HETATM   34  N   UNL     1     -11.948  13.571  68.324  1.00  0.00    -0.362 N  
HETATM   35  H   UNL     1     -12.326  13.974  69.181  1.00  0.00     0.000 HD 
BRANCH  34  36
HETATM   36  C   UNL     1     -11.881  14.353  67.204  1.00  0.00    -0.410 C  
HETATM   37  O   UNL     1     -12.459  14.034  66.168  1.00  0.00    -0.467 OA 
BRANCH  36  38
HETATM   38  N   UNL     1     -11.138  15.521  67.322  1.00  0.00    -0.304 N  
HETATM   39  C   UNL     1     -11.190  16.238  68.592  1.00  0.00    -0.354 C  
HETATM   40  N   UNL     1      -9.233  17.544  67.937  1.00  0.00    -0.260 N  
HETATM   41  C   UNL     1      -9.824  16.755  69.003  1.00  0.00    -0.260 C  
HETATM   42  C   UNL     1      -9.269  17.065  66.629  1.00  0.00    -0.256 C  
HETATM   43  O   UNL     1     -10.623  15.829  65.088  1.00  0.00    -0.403 OA 
HETATM   44  C   UNL     1     -10.397  16.069  66.272  1.00  0.00    -0.321 C  
HETATM   45  O   UNL     1      -8.486  17.416  65.754  1.00  0.00    -0.532 OA 
BRANCH  40  46
HETATM   46  C   UNL     1      -8.410  18.706  68.255  1.00  0.00    -0.324 C  
HETATM   47  C   UNL     1      -7.033  18.368  68.793  1.00  0.00    -0.291 C  
ENDBRANCH  40  46
ENDBRANCH  36  38
ENDBRANCH  34  36
ENDBRANCH  25  34
ENDBRANCH  24  25
ENDBRANCH   6  21
TORSDOF 10
ENDMDL
MODEL       81
REMARK 921   NORMALIZED FREE ENERGY PREDICTED BY IDOCK:   -6.06 KCAL/MOL
REMARK 922        TOTAL FREE ENERGY PREDICTED BY IDOCK:  -11.90 KCAL/MOL
REMARK 923 INTER-LIGAND FREE ENERGY PREDICTED BY IDOCK:   -9.99 KCAL/MOL
REMARK 924 INTRA-LIGAND FREE ENERGY PREDICTED BY IDOCK:   -1.91 KCAL/MOL
REMARK 927      BINDING AFFINITY PREDICTED BY RF-SCORE:    0.00 PKD
ROOT
HETATM    1  C   UNL     1     -12.242  13.237  68.294  1.00  0.00    -0.059 C  
HETATM    2  S   UNL     1     -11.555  14.094  69.730  1.00  0.00    -0.282 SA 
HETATM    3  C   UNL     1     -11.546  15.704  68.911  1.00  0.00    -0.383 C  
HETATM    4  C   UNL     1     -10.976  15.711  67.496  1.00  0.00    -0.309 C  
HETATM    5  CA  UNL     1     -10.842  14.592  66.724  1.00  0.00    -0.312 C  
HETATM    6  CA  UNL     1     -11.946  11.697  68.227  1.00  0.00    -0.166 C  
HETATM    7  O   UNL     1     -10.761  11.572  65.881  1.00  0.00    -0.265 OA 
HETATM    8  N   UNL     1     -11.324  13.396  67.183  1.00  0.00    -0.302 N  
HETATM    9  C   UNL     1     -10.087  14.655  65.407  1.00  0.00    -0.372 C  
HETATM   10  OXT UNL     1      -9.354  15.579  65.090  1.00  0.00    -0.055 OA 
HETATM   11  O   UNL     1     -10.329  13.664  64.526  1.00  0.00    -0.433 OA 
HETATM   12  C   UNL     1     -11.241  12.081  66.867  1.00  0.00    -0.320 C  
ENDROOT
BRANCH   4  13
HETATM   13  C   UNL     1     -10.465  17.108  67.142  1.00  0.00    -0.291 C  
BRANCH  13  14
HETATM   14  S   UNL     1     -10.017  18.165  68.541  1.00  0.00    -0.406 SA 
BRANCH  14  15
HETATM   15  C   UNL     1      -8.613  19.000  68.017  1.00  0.00    -0.302 A  
HETATM   16  N   UNL     1      -7.403  18.951  68.521  1.00  0.00    -0.287 NA 
HETATM   17  C   UNL     1      -9.678  20.263  66.092  1.00  0.00    -0.307 C  
HETATM   18  N   UNL     1      -6.652  19.833  67.781  1.00  0.00    -0.227 NA 
HETATM   19  N   UNL     1      -8.612  19.880  66.973  1.00  0.00    -0.316 NA 
HETATM   20  N   UNL     1      -7.383  20.407  66.835  1.00  0.00    -0.290 NA 
ENDBRANCH  14  15
ENDBRANCH  13  14
ENDBRANCH   4  13
BRANCH   6  21
HETATM   21  N   UNL     1     -11.075  11.179  69.320  1.00  0.00    -0.241 N  
HETATM   22  H   UNL     1     -10.873  11.795  70.108  1.00  0.00     0.000 HD 
HETATM   23  O   UNL     1     -10.856   9.064  68.499  1.00  0.00    -0.139 OA 
HETATM   24  C   UNL     1     -10.528   9.913  69.325  1.00  0.00    -0.221 C  
BRANCH  24  25
HETATM   25  CA  UNL     1      -9.358   9.714  70.327  1.00  0.00    -0.242 C  
BRANCH  25  26
HETATM   26  C   UNL     1      -9.737   8.732  71.426  1.00  0.00    -0.351 A  
HETATM   27  C   UNL     1      -9.144   7.303  73.309  1.00  0.00    -0.201 A  
HETATM   28  C   UNL     1     -11.079   8.362  71.602  1.00  0.00    -0.344 A  
HETATM   29  O   UNL     1     -10.800   6.113  74.487  1.00  0.00    -0.324 OA 
HETATM   30  C   UNL     1      -8.773   8.190  72.297  1.00  0.00    -0.243 A  
HETATM   31  C   UNL     1     -11.452   7.479  72.621  1.00  0.00    -0.369 A  
HETATM   32  H   UNL     1     -10.136   5.761  75.067  1.00  0.00     0.000 HD 
HETATM   33  C   UNL     1     -10.480   6.963  73.470  1.00  0.00    -0.352 A  
ENDBRANCH  25  26
BRANCH  25  34
HETATM   34  N   UNL     1      -8.142   9.257  69.657  1.00  0.00    -0.106 N  
HETATM   35  H   UNL     1      -7.922   8.261  69.664  1.00  0.00     0.000 HD 
BRANCH  34  36
HETATM   36  C   UNL     1      -7.287  10.114  69.022  1.00  0.00    -0.087 C  
HETATM   37  O   UNL     1      -6.791  11.072  69.609  1.00  0.00    -0.120 OA 
BRANCH  36  38
HETATM   38  N   UNL     1      -7.011   9.821  67.692  1.00  0.00    -0.085 N  
HETATM   39  C   UNL     1      -6.179   8.656  67.408  1.00  0.00    -0.056 C  
HETATM   40  N   UNL     1      -6.865   8.735  65.066  1.00  0.00    -0.072 N  
HETATM   41  C   UNL     1      -6.698   7.869  66.220  1.00  0.00    -0.054 C  
HETATM   42  C   UNL     1      -7.488   9.971  65.221  1.00  0.00    -0.137 C  
HETATM   43  O   UNL     1      -7.738  11.802  66.745  1.00  0.00    -0.149 OA 
HETATM   44  C   UNL     1      -7.439  10.616  66.626  1.00  0.00    -0.129 C  
HETATM   45  O   UNL     1      -8.031  10.579  64.306  1.00  0.00    -0.117 OA 
BRANCH  40  46
HETATM   46  C   UNL     1      -6.599   8.226  63.725  1.00  0.00    -0.075 C  
HETATM   47  C   UNL     1      -7.426   7.015  63.339  1.00  0.00    -0.092 C  
ENDBRANCH  40  46
ENDBRANCH  36  38
ENDBRANCH  34  36
ENDBRANCH  25  34
ENDBRANCH  24  25
ENDBRANCH   6  21
TORSDOF 10
ENDMDL
MODEL       82
REMARK 921   NORMALIZED FREE ENERGY PREDICTED BY IDOCK:   -6.04 KCAL/MOL
REMARK 922        TOTAL FREE ENERGY PREDICTED BY IDOCK:  -11.87 KCAL/MOL
REMARK 923 INTER-LIGAND FREE ENERGY PREDICTED BY IDOCK:   -9.56 KCAL/MOL
REMARK 924 INTRA-LIGAND FREE ENERGY PREDICTED BY IDOCK:   -2.31 KCAL/MOL
REMARK 927      BINDING AFFINITY PREDICTED BY RF-SCORE:    0.00 PKD
ROOT
HETATM    1  C   UNL     1      -7.879   7.602  66.599  1.00  0.00    -0.106 C  
HETATM    2  S   UNL     1      -6.556   8.379  67.556  1.00  0.00    -0.059 SA 
HETATM    3  C   UNL     1      -6.119   6.849  68.411  1.00  0.00    -0.029 C  
HETATM    4  C   UNL     1      -7.296   6.057  68.972  1.00  0.00    -0.085 C  
HETATM    5  CA  UNL     1      -8.588   6.221  68.561  1.00  0.00    -0.114 C  
HETATM    6  CA  UNL     1      -8.997   8.578  66.084  1.00  0.00    -0.179 C  
HETATM    7  O   UNL     1     -11.113   7.437  67.153  1.00  0.00    -0.263 OA 
HETATM    8  N   UNL     1      -8.862   7.070  67.523  1.00  0.00    -0.119 N  
HETATM    9  C   UNL     1      -9.722   5.536  69.305  1.00  0.00    -0.159 C  
HETATM   10  OXT UNL     1      -9.603   5.045  70.418  1.00  0.00    -0.165 OA 
HETATM   11  O   UNL     1     -10.886   5.404  68.640  1.00  0.00    -0.123 OA 
HETATM   12  C   UNL     1      -9.940   7.654  66.949  1.00  0.00    -0.255 C  
ENDROOT
BRANCH   4  13
HETATM   13  C   UNL     1      -6.831   5.175  70.132  1.00  0.00    -0.048 C  
BRANCH  13  14
HETATM   14  S   UNL     1      -6.113   3.578  69.673  1.00  0.00    -0.024 SA 
BRANCH  14  15
HETATM   15  C   UNL     1      -7.385   2.747  68.878  1.00  0.00    -0.048 A  
HETATM   16  N   UNL     1      -8.297   1.964  69.402  1.00  0.00    -0.044 NA 
HETATM   17  C   UNL     1      -6.862   3.521  66.518  1.00  0.00    -0.053 C  
HETATM   18  N   UNL     1      -9.052   1.508  68.347  1.00  0.00    -0.124 NA 
HETATM   19  N   UNL     1      -7.578   2.793  67.526  1.00  0.00    -0.061 NA 
HETATM   20  N   UNL     1      -8.618   2.007  67.197  1.00  0.00    -0.095 NA 
ENDBRANCH  14  15
ENDBRANCH  13  14
ENDBRANCH   4  13
BRANCH   6  21
HETATM   21  N   UNL     1      -8.842   9.993  66.525  1.00  0.00    -0.138 N  
HETATM   22  H   UNL     1      -8.182  10.195  67.275  1.00  0.00     0.000 HD 
HETATM   23  O   UNL     1     -10.232  10.904  64.964  1.00  0.00    -0.272 OA 
HETATM   24  C   UNL     1      -9.545  11.044  65.973  1.00  0.00    -0.215 C  
BRANCH  24  25
HETATM   25  CA  UNL     1      -9.538  12.346  66.821  1.00  0.00    -0.224 C  
BRANCH  25  26
HETATM   26  C   UNL     1     -10.209  13.491  66.074  1.00  0.00    -0.308 A  
HETATM   27  C   UNL     1     -10.201  15.770  65.210  1.00  0.00    -0.323 A  
HETATM   28  C   UNL     1     -11.480  13.309  65.508  1.00  0.00    -0.335 A  
HETATM   29  O   UNL     1     -12.016  16.587  63.951  1.00  0.00    -1.258 OA 
HETATM   30  C   UNL     1      -9.576  14.739  65.913  1.00  0.00    -0.320 A  
HETATM   31  C   UNL     1     -12.103  14.340  64.797  1.00  0.00    -0.457 A  
HETATM   32  H   UNL     1     -11.572  17.420  63.850  1.00  0.00     0.000 HD 
HETATM   33  C   UNL     1     -11.454  15.560  64.650  1.00  0.00    -0.324 A  
ENDBRANCH  25  26
BRANCH  25  34
HETATM   34  N   UNL     1     -10.190  12.155  68.115  1.00  0.00    -0.198 N  
HETATM   35  H   UNL     1      -9.977  12.804  68.872  1.00  0.00     0.000 HD 
BRANCH  34  36
HETATM   36  C   UNL     1     -11.075  11.140  68.348  1.00  0.00    -0.247 C  
HETATM   37  O   UNL     1     -11.938  10.844  67.526  1.00  0.00    -0.442 OA 
BRANCH  36  38
HETATM   38  N   UNL     1     -10.922  10.467  69.555  1.00  0.00    -0.246 N  
HETATM   39  C   UNL     1     -12.077  10.387  70.444  1.00  0.00    -0.315 C  
HETATM   40  N   UNL     1     -10.966   8.635  71.731  1.00  0.00    -0.300 N  
HETATM   41  C   UNL     1     -12.205   9.015  71.077  1.00  0.00    -0.223 C  
HETATM   42  C   UNL     1      -9.756   8.822  71.068  1.00  0.00    -0.230 C  
HETATM   43  O   UNL     1      -8.615  10.295  69.561  1.00  0.00    -0.169 OA 
HETATM   44  C   UNL     1      -9.709   9.920  69.980  1.00  0.00    -0.227 C  
HETATM   45  O   UNL     1      -8.735   8.196  71.325  1.00  0.00    -0.128 OA 
BRANCH  40  46
HETATM   46  C   UNL     1     -10.998   7.855  72.963  1.00  0.00    -0.333 C  
HETATM   47  C   UNL     1     -11.457   6.421  72.785  1.00  0.00    -0.174 C  
ENDBRANCH  40  46
ENDBRANCH  36  38
ENDBRANCH  34  36
ENDBRANCH  25  34
ENDBRANCH  24  25
ENDBRANCH   6  21
TORSDOF 10
ENDMDL
MODEL       83
REMARK 921   NORMALIZED FREE ENERGY PREDICTED BY IDOCK:   -5.98 KCAL/MOL
REMARK 922        TOTAL FREE ENERGY PREDICTED BY IDOCK:  -11.78 KCAL/MOL
REMARK 923 INTER-LIGAND FREE ENERGY PREDICTED BY IDOCK:   -9.09 KCAL/MOL
REMARK 924 INTRA-LIGAND FREE ENERGY PREDICTED BY IDOCK:   -2.69 KCAL/MOL
REMARK 927      BINDING AFFINITY PREDICTED BY RF-SCORE:    0.00 PKD
ROOT
HETATM    1  C   UNL     1     -11.518   6.246  70.825  1.00  0.00    -0.316 C  
HETATM    2  S   UNL     1     -10.934   6.031  69.127  1.00  0.00    -0.318 SA 
HETATM    3  C   UNL     1      -9.993   4.538  69.517  1.00  0.00    -0.165 C  
HETATM    4  C   UNL     1      -9.124   4.625  70.768  1.00  0.00    -0.181 C  
HETATM    5  CA  UNL     1      -9.299   5.554  71.753  1.00  0.00    -0.142 C  
HETATM    6  CA  UNL     1     -11.928   7.711  71.212  1.00  0.00    -0.306 C  
HETATM    7  O   UNL     1     -10.343   8.089  73.277  1.00  0.00    -0.301 OA 
HETATM    8  N   UNL     1     -10.364   6.412  71.688  1.00  0.00    -0.203 N  
HETATM    9  C   UNL     1      -8.274   5.695  72.865  1.00  0.00    -0.119 C  
HETATM   10  OXT UNL     1      -7.152   5.214  72.817  1.00  0.00    -0.082 OA 
HETATM   11  O   UNL     1      -8.685   6.317  73.988  1.00  0.00    -0.121 OA 
HETATM   12  C   UNL     1     -10.792   7.544  72.295  1.00  0.00    -0.258 C  
ENDROOT
BRANCH   4  13
HETATM   13  C   UNL     1      -7.973   3.623  70.678  1.00  0.00    -0.053 C  
BRANCH  13  14
HETATM   14  S   UNL     1      -7.564   3.033  69.016  1.00  0.00    -0.047 SA 
BRANCH  14  15
HETATM   15  C   UNL     1      -6.682   4.322  68.308  1.00  0.00    -0.047 A  
HETATM   16  N   UNL     1      -6.082   5.322  68.908  1.00  0.00    -0.021 NA 
HETATM   17  C   UNL     1      -6.977   3.633  65.884  1.00  0.00    -0.062 C  
HETATM   18  N   UNL     1      -5.564   6.106  67.903  1.00  0.00    -0.008 NA 
HETATM   19  N   UNL     1      -6.527   4.470  66.959  1.00  0.00    -0.041 NA 
HETATM   20  N   UNL     1      -5.834   5.595  66.710  1.00  0.00    -0.017 NA 
ENDBRANCH  14  15
ENDBRANCH  13  14
ENDBRANCH   4  13
BRANCH   6  21
HETATM   21  N   UNL     1     -11.705   8.726  70.144  1.00  0.00    -0.453 N  
HETATM   22  H   UNL     1     -11.630   8.403  69.179  1.00  0.00     0.000 HD 
HETATM   23  O   UNL     1     -11.837  10.558  71.495  1.00  0.00    -0.255 OA 
HETATM   24  C   UNL     1     -11.595  10.079  70.389  1.00  0.00    -0.302 C  
BRANCH  24  25
HETATM   25  CA  UNL     1     -10.980  10.903  69.224  1.00  0.00    -0.244 C  
BRANCH  25  26
HETATM   26  C   UNL     1     -10.088  10.034  68.348  1.00  0.00    -0.186 A  
HETATM   27  C   UNL     1      -7.918   9.063  67.812  1.00  0.00    -0.101 A  
HETATM   28  C   UNL     1     -10.636   9.348  67.254  1.00  0.00    -0.314 A  
HETATM   29  O   UNL     1      -7.676   7.582  65.998  1.00  0.00    -0.088 OA 
HETATM   30  C   UNL     1      -8.714   9.878  68.618  1.00  0.00    -0.124 A  
HETATM   31  C   UNL     1      -9.838   8.525  66.451  1.00  0.00    -0.327 A  
HETATM   32  H   UNL     1      -6.753   7.486  66.197  1.00  0.00     0.000 HD 
HETATM   33  C   UNL     1      -8.486   8.386  66.743  1.00  0.00    -0.114 A  
ENDBRANCH  25  26
BRANCH  25  34
HETATM   34  N   UNL     1     -12.010  11.534  68.403  1.00  0.00    -0.272 N  
HETATM   35  H   UNL     1     -12.980  11.242  68.521  1.00  0.00     0.000 HD 
BRANCH  34  36
HETATM   36  C   UNL     1     -11.723  12.502  67.480  1.00  0.00    -0.374 C  
HETATM   37  O   UNL     1     -12.160  12.440  66.334  1.00  0.00    -0.607 OA 
BRANCH  36  38
HETATM   38  N   UNL     1     -10.929  13.551  67.928  1.00  0.00    -0.250 N  
HETATM   39  C   UNL     1      -9.601  13.700  67.342  1.00  0.00    -0.226 C  
HETATM   40  N   UNL     1      -9.445  15.955  68.266  1.00  0.00    -0.199 N  
HETATM   41  C   UNL     1      -9.267  15.154  67.068  1.00  0.00    -0.223 C  
HETATM   42  C   UNL     1     -10.595  15.791  69.035  1.00  0.00    -0.232 C  
HETATM   43  O   UNL     1     -12.166  14.147  69.790  1.00  0.00    -0.326 OA 
HETATM   44  C   UNL     1     -11.316  14.425  68.946  1.00  0.00    -0.274 C  
HETATM   45  O   UNL     1     -11.035  16.648  69.792  1.00  0.00    -0.330 OA 
BRANCH  40  46
HETATM   46  C   UNL     1      -8.553  17.077  68.536  1.00  0.00    -0.257 C  
HETATM   47  C   UNL     1      -7.144  16.675  68.927  1.00  0.00    -0.205 C  
ENDBRANCH  40  46
ENDBRANCH  36  38
ENDBRANCH  34  36
ENDBRANCH  25  34
ENDBRANCH  24  25
ENDBRANCH   6  21
TORSDOF 10
ENDMDL
MODEL       84
REMARK 921   NORMALIZED FREE ENERGY PREDICTED BY IDOCK:   -5.91 KCAL/MOL
REMARK 922        TOTAL FREE ENERGY PREDICTED BY IDOCK:  -11.66 KCAL/MOL
REMARK 923 INTER-LIGAND FREE ENERGY PREDICTED BY IDOCK:   -9.96 KCAL/MOL
REMARK 924 INTRA-LIGAND FREE ENERGY PREDICTED BY IDOCK:   -1.70 KCAL/MOL
REMARK 927      BINDING AFFINITY PREDICTED BY RF-SCORE:    0.00 PKD
ROOT
HETATM    1  C   UNL     1     -11.947  15.315  68.716  1.00  0.00    -0.251 C  
HETATM    2  S   UNL     1     -10.724  14.918  69.988  1.00  0.00    -0.077 SA 
HETATM    3  C   UNL     1      -9.965  16.556  69.933  1.00  0.00     0.206 C  
HETATM    4  C   UNL     1      -9.673  17.093  68.536  1.00  0.00    -0.291 C  
HETATM    5  CA  UNL     1     -10.262  16.616  67.399  1.00  0.00    -0.286 C  
HETATM    6  CA  UNL     1     -12.532  14.083  67.939  1.00  0.00     0.246 C  
HETATM    7  O   UNL     1     -11.921  14.776  65.476  1.00  0.00    -0.300 OA 
HETATM    8  N   UNL     1     -11.243  15.666  67.497  1.00  0.00    -0.290 N  
HETATM    9  C   UNL     1      -9.774  17.069  66.034  1.00  0.00    -0.218 C  
HETATM   10  OXT UNL     1      -8.709  17.641  65.851  1.00  0.00    -0.520 OA 
HETATM   11  O   UNL     1     -10.623  16.894  65.002  1.00  0.00    -0.700 OA 
HETATM   12  C   UNL     1     -11.919  14.819  66.685  1.00  0.00    -0.183 C  
ENDROOT
BRANCH   4  13
HETATM   13  C   UNL     1      -8.547  18.125  68.593  1.00  0.00    -0.267 C  
BRANCH  13  14
HETATM   14  S   UNL     1      -6.862  17.463  68.545  1.00  0.00    -0.213 SA 
BRANCH  14  15
HETATM   15  C   UNL     1      -6.062  18.231  69.853  1.00  0.00    -0.164 A  
HETATM   16  N   UNL     1      -5.718  17.717  71.010  1.00  0.00     0.176 NA 
HETATM   17  C   UNL     1      -5.840  20.530  68.802  1.00  0.00    -0.326 C  
HETATM   18  N   UNL     1      -5.151  18.746  71.724  1.00  0.00    -0.686 NA 
HETATM   19  N   UNL     1      -5.701  19.548  69.839  1.00  0.00    -0.244 NA 
HETATM   20  N   UNL     1      -5.139  19.869  71.018  1.00  0.00    -0.221 NA 
ENDBRANCH  14  15
ENDBRANCH  13  14
ENDBRANCH   4  13
BRANCH   6  21
HETATM   21  N   UNL     1     -11.936  12.768  68.313  1.00  0.00    -0.293 N  
HETATM   22  H   UNL     1     -11.678  12.616  69.288  1.00  0.00     0.000 HD 
HETATM   23  O   UNL     1     -12.150  11.794  66.263  1.00  0.00    -0.446 OA 
HETATM   24  C   UNL     1     -11.717  11.747  67.412  1.00  0.00    -0.230 C  
BRANCH  24  25
HETATM   25  CA  UNL     1     -10.745  10.641  67.908  1.00  0.00    -0.248 C  
BRANCH  25  26
HETATM   26  C   UNL     1      -9.576  10.466  66.949  1.00  0.00    -0.207 A  
HETATM   27  C   UNL     1      -8.623   9.592  64.883  1.00  0.00    -0.188 A  
HETATM   28  C   UNL     1      -8.341  11.068  67.234  1.00  0.00    -0.125 A  
HETATM   29  O   UNL     1      -6.396  10.071  64.288  1.00  0.00    -0.119 OA 
HETATM   30  C   UNL     1      -9.703   9.726  65.757  1.00  0.00    -0.340 A  
HETATM   31  C   UNL     1      -7.261  10.939  66.353  1.00  0.00    -0.140 A  
HETATM   32  H   UNL     1      -6.501   9.571  63.487  1.00  0.00     0.000 HD 
HETATM   33  C   UNL     1      -7.415  10.207  65.182  1.00  0.00    -0.141 A  
ENDBRANCH  25  26
BRANCH  25  34
HETATM   34  N   UNL     1     -10.242  10.923  69.250  1.00  0.00    -0.351 N  
HETATM   35  H   UNL     1      -9.367  11.438  69.349  1.00  0.00     0.000 HD 
BRANCH  34  36
HETATM   36  C   UNL     1     -10.899  10.521  70.381  1.00  0.00    -0.101 C  
HETATM   37  O   UNL     1     -11.887  11.124  70.792  1.00  0.00    -0.315 OA 
BRANCH  36  38
HETATM   38  N   UNL     1     -10.387   9.394  71.012  1.00  0.00    -0.308 N  
HETATM   39  C   UNL     1     -11.300   8.586  71.813  1.00  0.00    -0.307 C  
HETATM   40  N   UNL     1      -9.669   6.769  71.844  1.00  0.00    -0.156 N  
HETATM   41  C   UNL     1     -11.063   7.102  71.612  1.00  0.00    -0.235 C  
HETATM   42  C   UNL     1      -8.672   7.565  71.284  1.00  0.00    -0.125 C  
HETATM   43  O   UNL     1      -8.134   9.831  70.721  1.00  0.00    -0.271 OA 
HETATM   44  C   UNL     1      -9.038   9.034  70.965  1.00  0.00    -0.257 C  
HETATM   45  O   UNL     1      -7.530   7.177  71.071  1.00  0.00    -0.075 OA 
BRANCH  40  46
HETATM   46  C   UNL     1      -9.312   5.494  72.455  1.00  0.00    -0.143 C  
HETATM   47  C   UNL     1     -10.334   4.393  72.247  1.00  0.00    -0.230 C  
ENDBRANCH  40  46
ENDBRANCH  36  38
ENDBRANCH  34  36
ENDBRANCH  25  34
ENDBRANCH  24  25
ENDBRANCH   6  21
TORSDOF 10
ENDMDL
MODEL       85
REMARK 921   NORMALIZED FREE ENERGY PREDICTED BY IDOCK:   -5.89 KCAL/MOL
REMARK 922        TOTAL FREE ENERGY PREDICTED BY IDOCK:  -11.63 KCAL/MOL
REMARK 923 INTER-LIGAND FREE ENERGY PREDICTED BY IDOCK:  -10.42 KCAL/MOL
REMARK 924 INTRA-LIGAND FREE ENERGY PREDICTED BY IDOCK:   -1.22 KCAL/MOL
REMARK 927      BINDING AFFINITY PREDICTED BY RF-SCORE:    0.00 PKD
ROOT
HETATM    1  C   UNL     1     -10.995   7.655  70.002  1.00  0.00    -0.228 C  
HETATM    2  S   UNL     1     -10.783   7.282  68.245  1.00  0.00    -0.072 SA 
HETATM    3  C   UNL     1     -10.222   5.593  68.552  1.00  0.00    -0.193 C  
HETATM    4  C   UNL     1      -9.164   5.445  69.641  1.00  0.00    -0.153 C  
HETATM    5  CA  UNL     1      -8.918   6.392  70.595  1.00  0.00    -0.144 C  
HETATM    6  CA  UNL     1     -10.929   9.178  70.377  1.00  0.00    -0.248 C  
HETATM    7  O   UNL     1      -8.977   9.120  72.140  1.00  0.00    -0.315 OA 
HETATM    8  N   UNL     1      -9.711   7.505  70.660  1.00  0.00    -0.175 N  
HETATM    9  C   UNL     1      -7.720   6.254  71.520  1.00  0.00    -0.100 C  
HETATM   10  OXT UNL     1      -6.791   5.486  71.315  1.00  0.00    -0.053 OA 
HETATM   11  O   UNL     1      -7.756   6.968  72.662  1.00  0.00    -0.089 OA 
HETATM   12  C   UNL     1      -9.713   8.714  71.270  1.00  0.00    -0.237 C  
ENDROOT
BRANCH   4  13
HETATM   13  C   UNL     1      -8.354   4.169  69.417  1.00  0.00    -0.065 C  
BRANCH  13  14
HETATM   14  S   UNL     1      -7.185   4.204  68.035  1.00  0.00    -0.060 SA 
BRANCH  14  15
HETATM   15  C   UNL     1      -8.096   3.656  66.689  1.00  0.00    -0.096 A  
HETATM   16  N   UNL     1      -8.763   2.534  66.562  1.00  0.00    -0.118 NA 
HETATM   17  C   UNL     1      -7.675   5.646  65.172  1.00  0.00    -0.090 C  
HETATM   18  N   UNL     1      -9.276   2.545  65.286  1.00  0.00    -0.134 NA 
HETATM   19  N   UNL     1      -8.204   4.359  65.523  1.00  0.00    -0.109 NA 
HETATM   20  N   UNL     1      -8.937   3.655  64.643  1.00  0.00    -0.118 NA 
ENDBRANCH  14  15
ENDBRANCH  13  14
ENDBRANCH   4  13
BRANCH   6  21
HETATM   21  N   UNL     1     -10.627  10.090  69.238  1.00  0.00    -0.213 N  
HETATM   22  H   UNL     1      -9.676  10.103  68.870  1.00  0.00     0.000 HD 
HETATM   23  O   UNL     1     -12.758  10.839  68.932  1.00  0.00    -0.153 OA 
HETATM   24  C   UNL     1     -11.564  10.918  68.655  1.00  0.00    -0.303 C  
BRANCH  24  25
HETATM   25  CA  UNL     1     -10.970  12.051  67.773  1.00  0.00    -0.232 C  
BRANCH  25  26
HETATM   26  C   UNL     1     -10.670  11.552  66.367  1.00  0.00    -0.320 A  
HETATM   27  C   UNL     1      -9.547  10.020  64.840  1.00  0.00    -0.375 A  
HETATM   28  C   UNL     1     -11.285  12.160  65.262  1.00  0.00    -0.381 A  
HETATM   29  O   UNL     1      -9.925  10.139  62.519  1.00  0.00    -0.643 OA 
HETATM   30  C   UNL     1      -9.797  10.472  66.137  1.00  0.00    -0.271 A  
HETATM   31  C   UNL     1     -11.041  11.702  63.963  1.00  0.00    -0.458 A  
HETATM   32  H   UNL     1      -9.336   9.407  62.384  1.00  0.00     0.000 HD 
HETATM   33  C   UNL     1     -10.178  10.630  63.766  1.00  0.00    -0.196 A  
ENDBRANCH  25  26
BRANCH  25  34
HETATM   34  N   UNL     1     -11.861  13.208  67.705  1.00  0.00    -0.355 N  
HETATM   35  H   UNL     1     -12.576  13.235  66.978  1.00  0.00     0.000 HD 
BRANCH  34  36
HETATM   36  C   UNL     1     -11.772  14.256  68.579  1.00  0.00    -0.341 C  
HETATM   37  O   UNL     1     -12.302  14.210  69.686  1.00  0.00    -0.326 OA 
BRANCH  36  38
HETATM   38  N   UNL     1     -11.039  15.351  68.140  1.00  0.00    -0.296 N  
HETATM   39  C   UNL     1     -10.504  15.316  66.782  1.00  0.00    -0.293 C  
HETATM   40  N   UNL     1     -10.070  17.717  66.890  1.00  0.00    -0.326 N  
HETATM   41  C   UNL     1     -10.649  16.656  66.086  1.00  0.00    -0.215 C  
HETATM   42  C   UNL     1     -10.349  17.774  68.253  1.00  0.00    -0.385 C  
HETATM   43  O   UNL     1     -10.739  16.403  70.179  1.00  0.00    -0.299 OA 
HETATM   44  C   UNL     1     -10.741  16.450  68.950  1.00  0.00    -0.319 C  
HETATM   45  O   UNL     1     -10.266  18.797  68.923  1.00  0.00    -0.360 OA 
BRANCH  40  46
HETATM   46  C   UNL     1      -9.397  18.840  66.245  1.00  0.00    -0.262 C  
HETATM   47  C   UNL     1      -7.886  18.815  66.364  1.00  0.00    -0.297 C  
ENDBRANCH  40  46
ENDBRANCH  36  38
ENDBRANCH  34  36
ENDBRANCH  25  34
ENDBRANCH  24  25
ENDBRANCH   6  21
TORSDOF 10
ENDMDL
MODEL       86
REMARK 921   NORMALIZED FREE ENERGY PREDICTED BY IDOCK:   -5.89 KCAL/MOL
REMARK 922        TOTAL FREE ENERGY PREDICTED BY IDOCK:  -11.63 KCAL/MOL
REMARK 923 INTER-LIGAND FREE ENERGY PREDICTED BY IDOCK:  -10.11 KCAL/MOL
REMARK 924 INTRA-LIGAND FREE ENERGY PREDICTED BY IDOCK:   -1.51 KCAL/MOL
REMARK 927      BINDING AFFINITY PREDICTED BY RF-SCORE:    0.00 PKD
ROOT
HETATM    1  C   UNL     1      -7.146   9.006  67.371  1.00  0.00    -0.079 C  
HETATM    2  S   UNL     1      -6.454   9.225  69.028  1.00  0.00    -0.047 SA 
HETATM    3  C   UNL     1      -6.739   7.505  69.500  1.00  0.00    -0.040 C  
HETATM    4  C   UNL     1      -8.122   6.957  69.163  1.00  0.00    -0.121 C  
HETATM    5  CA  UNL     1      -8.961   7.523  68.246  1.00  0.00    -0.130 C  
HETATM    6  CA  UNL     1      -7.681  10.315  66.690  1.00  0.00    -0.113 C  
HETATM    7  O   UNL     1     -10.165   9.588  66.215  1.00  0.00    -0.271 OA 
HETATM    8  N   UNL     1      -8.528   8.588  67.504  1.00  0.00    -0.127 N  
HETATM    9  C   UNL     1     -10.393   7.033  68.111  1.00  0.00    -0.191 C  
HETATM   10  OXT UNL     1     -10.951   6.333  68.945  1.00  0.00    -0.306 OA 
HETATM   11  O   UNL     1     -11.027   7.330  66.960  1.00  0.00    -0.358 OA 
HETATM   12  C   UNL     1      -9.048   9.527  66.677  1.00  0.00    -0.148 C  
ENDROOT
BRANCH   4  13
HETATM   13  C   UNL     1      -8.465   5.790  70.088  1.00  0.00    -0.121 C  
BRANCH  13  14
HETATM   14  S   UNL     1      -8.511   6.169  71.858  1.00  0.00    -0.129 SA 
BRANCH  14  15
HETATM   15  C   UNL     1      -9.793   7.296  72.022  1.00  0.00    -0.161 A  
HETATM   16  N   UNL     1      -9.755   8.598  71.868  1.00  0.00    -0.288 NA 
HETATM   17  C   UNL     1     -11.613   5.640  72.644  1.00  0.00    -0.251 C  
HETATM   18  N   UNL     1     -11.022   9.047  72.157  1.00  0.00    -0.295 NA 
HETATM   19  N   UNL     1     -11.062   6.939  72.382  1.00  0.00    -0.251 NA 
HETATM   20  N   UNL     1     -11.826   8.041  72.475  1.00  0.00    -0.375 NA 
ENDBRANCH  14  15
ENDBRANCH  13  14
ENDBRANCH   4  13
BRANCH   6  21
HETATM   21  N   UNL     1      -7.609  11.537  67.540  1.00  0.00    -0.113 N  
HETATM   22  H   UNL     1      -6.930  11.557  68.300  1.00  0.00     0.000 HD 
HETATM   23  O   UNL     1      -9.135  12.759  66.367  1.00  0.00    -0.192 OA 
HETATM   24  C   UNL     1      -8.413  12.643  67.354  1.00  0.00    -0.186 C  
BRANCH  24  25
HETATM   25  CA  UNL     1      -8.460  13.622  68.560  1.00  0.00    -0.106 C  
BRANCH  25  26
HETATM   26  C   UNL     1      -7.850  14.969  68.198  1.00  0.00    -0.121 A  
HETATM   27  C   UNL     1      -7.165  16.627  66.548  1.00  0.00    -0.241 A  
HETATM   28  C   UNL     1      -7.429  15.842  69.212  1.00  0.00    -0.220 A  
HETATM   29  O   UNL     1      -6.262  18.694  67.222  1.00  0.00    -0.176 OA 
HETATM   30  C   UNL     1      -7.712  15.380  66.858  1.00  0.00    -0.159 A  
HETATM   31  C   UNL     1      -6.887  17.094  68.901  1.00  0.00    -0.221 A  
HETATM   32  H   UNL     1      -6.179  18.956  66.313  1.00  0.00     0.000 HD 
HETATM   33  C   UNL     1      -6.767  17.477  67.570  1.00  0.00    -0.159 A  
ENDBRANCH  25  26
BRANCH  25  34
HETATM   34  N   UNL     1      -9.824  13.815  69.049  1.00  0.00    -0.425 N  
HETATM   35  H   UNL     1      -9.990  13.813  70.055  1.00  0.00     0.000 HD 
BRANCH  34  36
HETATM   36  C   UNL     1     -10.886  13.998  68.208  1.00  0.00    -0.255 C  
HETATM   37  O   UNL     1     -11.643  13.073  67.925  1.00  0.00    -0.299 OA 
BRANCH  36  38
HETATM   38  N   UNL     1     -11.056  15.287  67.717  1.00  0.00    -0.310 N  
HETATM   39  C   UNL     1     -11.168  16.377  68.680  1.00  0.00    -0.332 C  
HETATM   40  N   UNL     1     -10.786  17.998  66.895  1.00  0.00    -0.268 N  
HETATM   41  C   UNL     1     -10.394  17.603  68.236  1.00  0.00    -0.384 C  
HETATM   42  C   UNL     1     -10.898  17.029  65.901  1.00  0.00    -0.024 C  
HETATM   43  O   UNL     1     -11.547  14.754  65.519  1.00  0.00    -0.342 OA 
HETATM   44  C   UNL     1     -11.184  15.579  66.356  1.00  0.00    -0.098 C  
HETATM   45  O   UNL     1     -10.819  17.271  64.702  1.00  0.00    -0.828 OA 
BRANCH  40  46
HETATM   46  C   UNL     1     -10.835  19.410  66.532  1.00  0.00    -0.337 C  
HETATM   47  C   UNL     1      -9.494  20.117  66.587  1.00  0.00    -0.517 C  
ENDBRANCH  40  46
ENDBRANCH  36  38
ENDBRANCH  34  36
ENDBRANCH  25  34
ENDBRANCH  24  25
ENDBRANCH   6  21
TORSDOF 10
ENDMDL
MODEL       87
REMARK 921   NORMALIZED FREE ENERGY PREDICTED BY IDOCK:   -5.87 KCAL/MOL
REMARK 922        TOTAL FREE ENERGY PREDICTED BY IDOCK:  -11.60 KCAL/MOL
REMARK 923 INTER-LIGAND FREE ENERGY PREDICTED BY IDOCK:   -9.75 KCAL/MOL
REMARK 924 INTRA-LIGAND FREE ENERGY PREDICTED BY IDOCK:   -1.85 KCAL/MOL
REMARK 927      BINDING AFFINITY PREDICTED BY RF-SCORE:    0.00 PKD
ROOT
HETATM    1  C   UNL     1     -11.627  12.128  66.731  1.00  0.00    -0.345 C  
HETATM    2  S   UNL     1     -11.197  11.579  68.400  1.00  0.00    -0.284 SA 
HETATM    3  C   UNL     1     -11.921  13.033  69.190  1.00  0.00    -0.271 C  
HETATM    4  C   UNL     1     -11.553  14.370  68.556  1.00  0.00    -0.347 C  
HETATM    5  CA  UNL     1     -11.062  14.501  67.288  1.00  0.00    -0.312 C  
HETATM    6  CA  UNL     1     -10.745  11.528  65.580  1.00  0.00    -0.272 C  
HETATM    7  O   UNL     1      -9.861  13.753  64.489  1.00  0.00    -0.160 OA 
HETATM    8  N   UNL     1     -10.971  13.397  66.483  1.00  0.00    -0.288 N  
HETATM    9  C   UNL     1     -10.538  15.842  66.803  1.00  0.00    -0.309 C  
HETATM   10  OXT UNL     1     -10.275  16.776  67.547  1.00  0.00    -0.273 OA 
HETATM   11  O   UNL     1     -10.451  16.008  65.468  1.00  0.00    -0.371 OA 
HETATM   12  C   UNL     1     -10.400  13.044  65.307  1.00  0.00    -0.304 C  
ENDROOT
BRANCH   4  13
HETATM   13  C   UNL     1     -11.686  15.494  69.583  1.00  0.00    -0.357 C  
BRANCH  13  14
HETATM   14  S   UNL     1     -13.266  15.578  70.464  1.00  0.00     0.083 SA 
BRANCH  14  15
HETATM   15  C   UNL     1     -12.841  15.445  72.121  1.00  0.00    -0.381 A  
HETATM   16  N   UNL     1     -12.323  16.362  72.903  1.00  0.00    -0.443 NA 
HETATM   17  C   UNL     1     -13.511  13.018  72.440  1.00  0.00    -0.515 C  
HETATM   18  N   UNL     1     -12.124  15.749  74.118  1.00  0.00    -0.480 NA 
HETATM   19  N   UNL     1     -12.978  14.290  72.838  1.00  0.00    -0.477 NA 
HETATM   20  N   UNL     1     -12.518  14.483  74.086  1.00  0.00    -0.244 NA 
ENDBRANCH  14  15
ENDBRANCH  13  14
ENDBRANCH   4  13
BRANCH   6  21
HETATM   21  N   UNL     1      -9.631  10.650  66.038  1.00  0.00    -0.189 N  
HETATM   22  H   UNL     1      -9.674  10.270  66.983  1.00  0.00     0.000 HD 
HETATM   23  O   UNL     1      -8.504  10.605  64.056  1.00  0.00    -0.147 OA 
HETATM   24  C   UNL     1      -8.546  10.323  65.252  1.00  0.00    -0.165 C  
BRANCH  24  25
HETATM   25  CA  UNL     1      -7.332   9.742  66.029  1.00  0.00    -0.102 C  
BRANCH  25  26
HETATM   26  C   UNL     1      -7.057  10.541  67.295  1.00  0.00    -0.088 A  
HETATM   27  C   UNL     1      -7.209  12.596  68.596  1.00  0.00    -0.108 A  
HETATM   28  C   UNL     1      -6.409   9.933  68.380  1.00  0.00    -0.050 A  
HETATM   29  O   UNL     1      -6.379  12.692  70.797  1.00  0.00    -0.499 OA 
HETATM   30  C   UNL     1      -7.457  11.886  67.420  1.00  0.00    -0.148 A  
HETATM   31  C   UNL     1      -6.167  10.643  69.561  1.00  0.00    -0.059 A  
HETATM   32  H   UNL     1      -6.659  13.596  70.865  1.00  0.00     0.000 HD 
HETATM   33  C   UNL     1      -6.577  11.968  69.660  1.00  0.00    -0.043 A  
ENDBRANCH  25  26
BRANCH  25  34
HETATM   34  N   UNL     1      -7.529   8.334  66.369  1.00  0.00    -0.079 N  
HETATM   35  H   UNL     1      -6.716   7.720  66.408  1.00  0.00     0.000 HD 
BRANCH  34  36
HETATM   36  C   UNL     1      -8.763   7.809  66.637  1.00  0.00    -0.140 C  
HETATM   37  O   UNL     1      -9.582   7.617  65.742  1.00  0.00     0.101 OA 
BRANCH  36  38
HETATM   38  N   UNL     1      -9.014   7.500  67.968  1.00  0.00    -0.129 N  
HETATM   39  C   UNL     1     -10.144   8.153  68.620  1.00  0.00    -0.196 C  
HETATM   40  N   UNL     1     -10.030   6.535  70.445  1.00  0.00    -0.178 N  
HETATM   41  C   UNL     1     -10.917   7.193  69.503  1.00  0.00    -0.191 C  
HETATM   42  C   UNL     1      -8.819   6.015  69.997  1.00  0.00    -0.139 C  
HETATM   43  O   UNL     1      -7.034   6.402  68.445  1.00  0.00    -0.074 OA 
HETATM   44  C   UNL     1      -8.207   6.644  68.723  1.00  0.00    -0.120 C  
HETATM   45  O   UNL     1      -8.206   5.123  70.571  1.00  0.00    -0.098 OA 
BRANCH  40  46
HETATM   46  C   UNL     1     -10.496   6.216  71.790  1.00  0.00    -0.216 C  
HETATM   47  C   UNL     1     -10.621   7.414  72.710  1.00  0.00    -0.345 C  
ENDBRANCH  40  46
ENDBRANCH  36  38
ENDBRANCH  34  36
ENDBRANCH  25  34
ENDBRANCH  24  25
ENDBRANCH   6  21
TORSDOF 10
ENDMDL
MODEL       88
REMARK 921   NORMALIZED FREE ENERGY PREDICTED BY IDOCK:   -5.86 KCAL/MOL
REMARK 922        TOTAL FREE ENERGY PREDICTED BY IDOCK:  -11.57 KCAL/MOL
REMARK 923 INTER-LIGAND FREE ENERGY PREDICTED BY IDOCK:   -9.96 KCAL/MOL
REMARK 924 INTRA-LIGAND FREE ENERGY PREDICTED BY IDOCK:   -1.62 KCAL/MOL
REMARK 927      BINDING AFFINITY PREDICTED BY RF-SCORE:    0.00 PKD
ROOT
HETATM    1  C   UNL     1     -12.013  11.789  68.109  1.00  0.00    -0.143 C  
HETATM    2  S   UNL     1     -11.528  12.797  69.531  1.00  0.00    -0.180 SA 
HETATM    3  C   UNL     1     -11.935  14.355  68.712  1.00  0.00    -0.295 C  
HETATM    4  C   UNL     1     -11.415  14.496  67.285  1.00  0.00    -0.381 C  
HETATM    5  CA  UNL     1     -11.025  13.441  66.510  1.00  0.00    -0.290 C  
HETATM    6  CA  UNL     1     -11.346  10.370  68.034  1.00  0.00    -0.204 C  
HETATM    7  O   UNL     1     -10.218  10.531  65.662  1.00  0.00    -0.262 OA 
HETATM    8  N   UNL     1     -11.186  12.165  66.978  1.00  0.00    -0.294 N  
HETATM    9  C   UNL     1     -10.338  13.682  65.176  1.00  0.00    -0.364 C  
HETATM   10  OXT UNL     1      -9.863  14.758  64.844  1.00  0.00    -0.200 OA 
HETATM   11  O   UNL     1     -10.347  12.658  64.300  1.00  0.00    -0.354 OA 
HETATM   12  C   UNL     1     -10.788  10.911  66.660  1.00  0.00    -0.197 C  
ENDROOT
BRANCH   4  13
HETATM   13  C   UNL     1     -11.273  15.974  66.921  1.00  0.00     0.065 C  
BRANCH  13  14
HETATM   14  S   UNL     1     -10.506  17.029  68.177  1.00  0.00    -0.371 SA 
BRANCH  14  15
HETATM   15  C   UNL     1     -10.066  18.454  67.331  1.00  0.00    -0.353 A  
HETATM   16  N   UNL     1     -10.774  19.134  66.461  1.00  0.00    -0.405 NA 
HETATM   17  C   UNL     1      -7.733  18.706  68.295  1.00  0.00    -0.298 C  
HETATM   18  N   UNL     1      -9.963  20.160  66.036  1.00  0.00    -0.440 NA 
HETATM   19  N   UNL     1      -8.845  19.053  67.458  1.00  0.00    -0.287 NA 
HETATM   20  N   UNL     1      -8.782  20.116  66.637  1.00  0.00    -0.309 NA 
ENDBRANCH  14  15
ENDBRANCH  13  14
ENDBRANCH   4  13
BRANCH   6  21
HETATM   21  N   UNL     1     -10.351  10.089  69.107  1.00  0.00    -0.202 N  
HETATM   22  H   UNL     1      -9.376  10.338  68.939  1.00  0.00     0.000 HD 
HETATM   23  O   UNL     1     -11.845   9.335  70.655  1.00  0.00    -0.267 OA 
HETATM   24  C   UNL     1     -10.677   9.510  70.316  1.00  0.00    -0.265 C  
BRANCH  24  25
HETATM   25  CA  UNL     1      -9.469   8.949  71.115  1.00  0.00    -0.265 C  
BRANCH  25  26
HETATM   26  C   UNL     1      -9.876   7.745  71.953  1.00  0.00    -0.217 A  
HETATM   27  C   UNL     1     -10.773   5.488  72.152  1.00  0.00    -0.288 A  
HETATM   28  C   UNL     1      -9.693   7.766  73.344  1.00  0.00    -0.353 A  
HETATM   29  O   UNL     1     -10.905   4.424  74.248  1.00  0.00    -0.250 OA 
HETATM   30  C   UNL     1     -10.421   6.587  71.366  1.00  0.00    -0.246 A  
HETATM   31  C   UNL     1     -10.039   6.662  74.130  1.00  0.00    -0.390 A  
HETATM   32  H   UNL     1     -11.268   3.650  73.834  1.00  0.00     0.000 HD 
HETATM   33  C   UNL     1     -10.571   5.529  73.524  1.00  0.00    -0.270 A  
ENDBRANCH  25  26
BRANCH  25  34
HETATM   34  N   UNL     1      -8.360   8.583  70.236  1.00  0.00    -0.119 N  
HETATM   35  H   UNL     1      -8.496   7.829  69.562  1.00  0.00     0.000 HD 
BRANCH  34  36
HETATM   36  C   UNL     1      -7.147   9.212  70.283  1.00  0.00    -0.063 C  
HETATM   37  O   UNL     1      -6.574   9.414  71.351  1.00  0.00    -0.224 OA 
BRANCH  36  38
HETATM   38  N   UNL     1      -6.610   9.588  69.058  1.00  0.00    -0.049 N  
HETATM   39  C   UNL     1      -6.436   8.554  68.043  1.00  0.00    -0.057 C  
HETATM   40  N   UNL     1      -6.121  10.276  66.340  1.00  0.00    -0.068 N  
HETATM   41  C   UNL     1      -6.826   9.048  66.663  1.00  0.00    -0.080 C  
HETATM   42  C   UNL     1      -6.049  11.294  67.288  1.00  0.00    -0.076 C  
HETATM   43  O   UNL     1      -5.863  11.697  69.642  1.00  0.00    -0.069 OA 
HETATM   44  C   UNL     1      -6.178  10.886  68.774  1.00  0.00    -0.044 C  
HETATM   45  O   UNL     1      -5.856  12.471  67.009  1.00  0.00    -0.304 OA 
BRANCH  40  46
HETATM   46  C   UNL     1      -5.696  10.537  64.970  1.00  0.00    -0.131 C  
HETATM   47  C   UNL     1      -6.124   9.481  63.969  1.00  0.00    -0.095 C  
ENDBRANCH  40  46
ENDBRANCH  36  38
ENDBRANCH  34  36
ENDBRANCH  25  34
ENDBRANCH  24  25
ENDBRANCH   6  21
TORSDOF 10
ENDMDL
MODEL       89
REMARK 921   NORMALIZED FREE ENERGY PREDICTED BY IDOCK:   -5.84 KCAL/MOL
REMARK 922        TOTAL FREE ENERGY PREDICTED BY IDOCK:  -11.54 KCAL/MOL
REMARK 923 INTER-LIGAND FREE ENERGY PREDICTED BY IDOCK:   -9.16 KCAL/MOL
REMARK 924 INTRA-LIGAND FREE ENERGY PREDICTED BY IDOCK:   -2.38 KCAL/MOL
REMARK 927      BINDING AFFINITY PREDICTED BY RF-SCORE:    0.00 PKD
ROOT
HETATM    1  C   UNL     1      -8.089  11.700  66.716  1.00  0.00    -0.150 C  
HETATM    2  S   UNL     1      -9.777  11.188  66.320  1.00  0.00    -0.220 SA 
HETATM    3  C   UNL     1     -10.320  12.867  65.934  1.00  0.00    -0.285 C  
HETATM    4  C   UNL     1      -9.913  13.932  66.947  1.00  0.00    -0.264 C  
HETATM    5  CA  UNL     1      -8.907  13.771  67.857  1.00  0.00    -0.186 C  
HETATM    6  CA  UNL     1      -7.299  10.732  67.666  1.00  0.00    -0.094 C  
HETATM    7  O   UNL     1      -6.684  12.408  69.599  1.00  0.00    -0.058 OA 
HETATM    8  N   UNL     1      -8.142  12.637  67.822  1.00  0.00    -0.152 N  
HETATM    9  C   UNL     1      -8.695  14.799  68.955  1.00  0.00    -0.139 C  
HETATM   10  OXT UNL     1      -9.522  15.647  69.259  1.00  0.00    -0.230 OA 
HETATM   11  O   UNL     1      -7.486  14.806  69.550  1.00  0.00    -0.166 OA 
HETATM   12  C   UNL     1      -7.229  12.005  68.597  1.00  0.00    -0.110 C  
ENDROOT
BRANCH   4  13
HETATM   13  C   UNL     1     -10.873  15.120  66.876  1.00  0.00    -0.317 C  
BRANCH  13  14
HETATM   14  S   UNL     1     -10.513  16.354  65.601  1.00  0.00    -0.291 SA 
BRANCH  14  15
HETATM   15  C   UNL     1      -9.980  17.730  66.474  1.00  0.00    -0.346 A  
HETATM   16  N   UNL     1     -10.705  18.647  67.067  1.00  0.00    -0.393 NA 
HETATM   17  C   UNL     1      -7.486  17.361  66.183  1.00  0.00    -0.296 C  
HETATM   18  N   UNL     1      -9.812  19.559  67.579  1.00  0.00    -0.339 NA 
HETATM   19  N   UNL     1      -8.661  18.054  66.628  1.00  0.00    -0.253 NA 
HETATM   20  N   UNL     1      -8.562  19.206  67.313  1.00  0.00    -0.279 NA 
ENDBRANCH  14  15
ENDBRANCH  13  14
ENDBRANCH   4  13
BRANCH   6  21
HETATM   21  N   UNL     1      -8.085   9.568  68.165  1.00  0.00    -0.102 N  
HETATM   22  H   UNL     1      -8.823   9.194  67.570  1.00  0.00     0.000 HD 
HETATM   23  O   UNL     1      -6.895   9.256  70.085  1.00  0.00    -0.049 OA 
HETATM   24  C   UNL     1      -7.866   8.969  69.389  1.00  0.00    -0.094 C  
BRANCH  24  25
HETATM   25  CA  UNL     1      -9.022   8.055  69.880  1.00  0.00    -0.145 C  
BRANCH  25  26
HETATM   26  C   UNL     1     -10.167   8.877  70.455  1.00  0.00    -0.236 A  
HETATM   27  C   UNL     1     -11.699  10.769  70.346  1.00  0.00    -0.445 A  
HETATM   28  C   UNL     1     -10.792   8.473  71.643  1.00  0.00    -0.356 A  
HETATM   29  O   UNL     1     -13.358  11.071  71.989  1.00  0.00    -0.499 OA 
HETATM   30  C   UNL     1     -10.637  10.038  69.811  1.00  0.00    -0.301 A  
HETATM   31  C   UNL     1     -11.861   9.202  72.176  1.00  0.00    -0.333 A  
HETATM   32  H   UNL     1     -13.664  11.849  71.539  1.00  0.00     0.000 HD 
HETATM   33  C   UNL     1     -12.309  10.341  71.516  1.00  0.00    -0.390 A  
ENDBRANCH  25  26
BRANCH  25  34
HETATM   34  N   UNL     1      -9.524   7.193  68.812  1.00  0.00    -0.142 N  
HETATM   35  H   UNL     1     -10.197   7.575  68.148  1.00  0.00     0.000 HD 
BRANCH  34  36
HETATM   36  C   UNL     1      -9.125   5.893  68.669  1.00  0.00    -0.115 C  
HETATM   37  O   UNL     1      -8.931   5.174  69.646  1.00  0.00    -0.103 OA 
BRANCH  36  38
HETATM   38  N   UNL     1      -8.973   5.445  67.363  1.00  0.00    -0.109 N  
HETATM   39  C   UNL     1      -9.585   4.171  67.001  1.00  0.00    -0.201 C  
HETATM   40  N   UNL     1      -9.286   4.695  64.635  1.00  0.00    -0.146 N  
HETATM   41  C   UNL     1     -10.233   4.226  65.631  1.00  0.00    -0.197 C  
HETATM   42  C   UNL     1      -8.494   5.807  64.914  1.00  0.00    -0.103 C  
HETATM   43  O   UNL     1      -7.325   6.920  66.684  1.00  0.00    -0.074 OA 
HETATM   44  C   UNL     1      -8.217   6.122  66.402  1.00  0.00    -0.113 C  
HETATM   45  O   UNL     1      -7.985   6.513  64.052  1.00  0.00    -0.114 OA 
BRANCH  40  46
HETATM   46  C   UNL     1      -9.324   4.161  63.279  1.00  0.00    -0.140 C  
HETATM   47  C   UNL     1      -9.019   2.679  63.181  1.00  0.00    -0.088 C  
ENDBRANCH  40  46
ENDBRANCH  36  38
ENDBRANCH  34  36
ENDBRANCH  25  34
ENDBRANCH  24  25
ENDBRANCH   6  21
TORSDOF 10
ENDMDL
MODEL       90
REMARK 921   NORMALIZED FREE ENERGY PREDICTED BY IDOCK:   -5.82 KCAL/MOL
REMARK 922        TOTAL FREE ENERGY PREDICTED BY IDOCK:  -11.52 KCAL/MOL
REMARK 923 INTER-LIGAND FREE ENERGY PREDICTED BY IDOCK:  -10.28 KCAL/MOL
REMARK 924 INTRA-LIGAND FREE ENERGY PREDICTED BY IDOCK:   -1.24 KCAL/MOL
REMARK 927      BINDING AFFINITY PREDICTED BY RF-SCORE:    0.00 PKD
ROOT
HETATM    1  C   UNL     1     -10.182   7.054  69.378  1.00  0.00    -0.189 C  
HETATM    2  S   UNL     1      -8.533   7.266  68.667  1.00  0.00    -0.129 SA 
HETATM    3  C   UNL     1      -7.736   6.225  69.911  1.00  0.00    -0.105 C  
HETATM    4  C   UNL     1      -8.142   6.508  71.354  1.00  0.00    -0.112 C  
HETATM    5  CA  UNL     1      -9.276   7.184  71.707  1.00  0.00    -0.139 C  
HETATM    6  CA  UNL     1     -11.209   8.193  69.042  1.00  0.00     0.417 C  
HETATM    7  O   UNL     1     -11.869   8.933  71.478  1.00  0.00    -0.290 OA 
HETATM    8  N   UNL     1     -10.164   7.561  70.736  1.00  0.00    -0.194 N  
HETATM    9  C   UNL     1      -9.506   7.593  73.151  1.00  0.00    -0.243 C  
HETATM   10  OXT UNL     1      -8.629   7.595  74.003  1.00  0.00    -0.204 OA 
HETATM   11  O   UNL     1     -10.775   7.881  73.501  1.00  0.00    -0.199 OA 
HETATM   12  C   UNL     1     -11.246   8.366  70.610  1.00  0.00    -0.255 C  
ENDROOT
BRANCH   4  13
HETATM   13  C   UNL     1      -7.041   6.049  72.310  1.00  0.00    -0.084 C  
BRANCH  13  14
HETATM   14  S   UNL     1      -7.362   4.509  73.206  1.00  0.00    -0.082 SA 
BRANCH  14  15
HETATM   15  C   UNL     1      -8.175   3.512  72.071  1.00  0.00    -0.071 A  
HETATM   16  N   UNL     1      -7.659   2.808  71.093  1.00  0.00    -0.036 NA 
HETATM   17  C   UNL     1     -10.535   3.908  72.913  1.00  0.00    -0.168 C  
HETATM   18  N   UNL     1      -8.724   2.228  70.446  1.00  0.00    -0.058 NA 
HETATM   19  N   UNL     1      -9.532   3.361  72.045  1.00  0.00    -0.123 NA 
HETATM   20  N   UNL     1      -9.872   2.563  71.018  1.00  0.00    -0.073 NA 
ENDBRANCH  14  15
ENDBRANCH  13  14
ENDBRANCH   4  13
BRANCH   6  21
HETATM   21  N   UNL     1     -10.651   9.323  68.246  1.00  0.00    -0.319 N  
HETATM   22  H   UNL     1      -9.834   9.145  67.662  1.00  0.00     0.000 HD 
HETATM   23  O   UNL     1     -12.253  10.847  68.802  1.00  0.00    -0.518 OA 
HETATM   24  C   UNL     1     -11.180  10.597  68.257  1.00  0.00    -0.301 C  
BRANCH  24  25
HETATM   25  CA  UNL     1     -10.240  11.696  67.690  1.00  0.00    -0.188 C  
BRANCH  25  26
HETATM   26  C   UNL     1     -10.807  12.299  66.413  1.00  0.00    -0.299 A  
HETATM   27  C   UNL     1     -10.528  13.133  64.140  1.00  0.00    -0.348 A  
HETATM   28  C   UNL     1     -12.183  12.553  66.309  1.00  0.00    -0.159 A  
HETATM   29  O   UNL     1     -12.384  13.866  62.890  1.00  0.00    -1.023 OA 
HETATM   30  C   UNL     1      -9.985  12.595  65.308  1.00  0.00    -0.215 A  
HETATM   31  C   UNL     1     -12.728  13.085  65.135  1.00  0.00    -0.461 A  
HETATM   32  H   UNL     1     -11.815  14.056  62.154  1.00  0.00     0.000 HD 
HETATM   33  C   UNL     1     -11.894  13.364  64.059  1.00  0.00    -0.445 A  
ENDBRANCH  25  26
BRANCH  25  34
HETATM   34  N   UNL     1      -9.993  12.755  68.667  1.00  0.00    -0.391 N  
HETATM   35  H   UNL     1      -9.245  12.630  69.349  1.00  0.00     0.000 HD 
BRANCH  34  36
HETATM   36  C   UNL     1     -10.727  13.908  68.700  1.00  0.00    -0.260 C  
HETATM   37  O   UNL     1     -11.864  13.927  69.164  1.00  0.00    -0.313 OA 
BRANCH  36  38
HETATM   38  N   UNL     1     -10.100  15.041  68.195  1.00  0.00    -0.219 N  
HETATM   39  C   UNL     1     -10.798  15.807  67.168  1.00  0.00    -0.289 C  
HETATM   40  N   UNL     1      -9.262  17.674  67.515  1.00  0.00    -0.242 N  
HETATM   41  C   UNL     1     -10.660  17.301  67.389  1.00  0.00    -0.303 C  
HETATM   42  C   UNL     1      -8.422  16.919  68.329  1.00  0.00    -0.229 C  
HETATM   43  O   UNL     1      -7.987  14.680  69.065  1.00  0.00    -0.143 OA 
HETATM   44  C   UNL     1      -8.818  15.444  68.579  1.00  0.00    -0.183 C  
HETATM   45  O   UNL     1      -7.384  17.346  68.820  1.00  0.00    -0.240 OA 
BRANCH  40  46
HETATM   46  C   UNL     1      -8.794  18.950  66.986  1.00  0.00    -0.294 C  
HETATM   47  C   UNL     1      -9.793  20.085  67.114  1.00  0.00    -0.563 C  
ENDBRANCH  40  46
ENDBRANCH  36  38
ENDBRANCH  34  36
ENDBRANCH  25  34
ENDBRANCH  24  25
ENDBRANCH   6  21
TORSDOF 10
ENDMDL
MODEL       91
REMARK 921   NORMALIZED FREE ENERGY PREDICTED BY IDOCK:   -5.81 KCAL/MOL
REMARK 922        TOTAL FREE ENERGY PREDICTED BY IDOCK:  -11.50 KCAL/MOL
REMARK 923 INTER-LIGAND FREE ENERGY PREDICTED BY IDOCK:   -9.07 KCAL/MOL
REMARK 924 INTRA-LIGAND FREE ENERGY PREDICTED BY IDOCK:   -2.43 KCAL/MOL
REMARK 927      BINDING AFFINITY PREDICTED BY RF-SCORE:    0.00 PKD
ROOT
HETATM    1  C   UNL     1      -8.431  10.450  69.997  1.00  0.00     0.272 C  
HETATM    2  S   UNL     1      -7.237  10.743  68.671  1.00  0.00    -0.096 SA 
HETATM    3  C   UNL     1      -7.985  12.313  68.185  1.00  0.00    -0.155 C  
HETATM    4  C   UNL     1      -9.504  12.295  68.045  1.00  0.00    -0.206 C  
HETATM    5  CA  UNL     1     -10.308  11.341  68.601  1.00  0.00    -0.201 C  
HETATM    6  CA  UNL     1      -8.619   8.948  70.411  1.00  0.00    -0.180 C  
HETATM    7  O   UNL     1     -11.210   8.699  70.030  1.00  0.00    -0.209 OA 
HETATM    8  N   UNL     1      -9.757  10.386  69.412  1.00  0.00    -0.219 N  
HETATM    9  C   UNL     1     -11.785  11.285  68.253  1.00  0.00    -0.274 C  
HETATM   10  OXT UNL     1     -12.280  11.873  67.302  1.00  0.00    -0.495 OA 
HETATM   11  O   UNL     1     -12.581  10.613  69.108  1.00  0.00    -0.252 OA 
HETATM   12  C   UNL     1     -10.114   9.210  69.980  1.00  0.00    -0.206 C  
ENDROOT
BRANCH   4  13
HETATM   13  C   UNL     1      -9.958  13.405  67.097  1.00  0.00    -0.242 C  
BRANCH  13  14
HETATM   14  S   UNL     1      -8.829  14.810  66.923  1.00  0.00    -0.241 SA 
BRANCH  14  15
HETATM   15  C   UNL     1      -9.755  16.008  66.117  1.00  0.00    -0.324 A  
HETATM   16  N   UNL     1     -10.383  15.913  64.970  1.00  0.00    -0.524 NA 
HETATM   17  C   UNL     1      -9.449  17.864  67.820  1.00  0.00    -0.263 C  
HETATM   18  N   UNL     1     -10.931  17.153  64.739  1.00  0.00    -0.924 NA 
HETATM   19  N   UNL     1      -9.921  17.275  66.600  1.00  0.00    -0.282 NA 
HETATM   20  N   UNL     1     -10.651  17.992  65.728  1.00  0.00    -0.541 NA 
ENDBRANCH  14  15
ENDBRANCH  13  14
ENDBRANCH   4  13
BRANCH   6  21
HETATM   21  N   UNL     1      -7.838   7.972  69.598  1.00  0.00    -0.102 N  
HETATM   22  H   UNL     1      -7.189   8.336  68.901  1.00  0.00     0.000 HD 
HETATM   23  O   UNL     1      -8.580   6.097  70.661  1.00  0.00    -0.131 OA 
HETATM   24  C   UNL     1      -7.947   6.604  69.738  1.00  0.00    -0.120 C  
BRANCH  24  25
HETATM   25  CA  UNL     1      -7.365   5.782  68.555  1.00  0.00    -0.084 C  
BRANCH  25  26
HETATM   26  C   UNL     1      -8.460   5.372  67.581  1.00  0.00    -0.105 A  
HETATM   27  C   UNL     1      -9.533   3.716  66.150  1.00  0.00    -0.171 A  
HETATM   28  C   UNL     1      -9.462   6.288  67.227  1.00  0.00    -0.126 A  
HETATM   29  O   UNL     1     -11.512   4.234  64.984  1.00  0.00    -1.020 OA 
HETATM   30  C   UNL     1      -8.511   4.077  67.030  1.00  0.00    -0.100 A  
HETATM   31  C   UNL     1     -10.490   5.924  66.351  1.00  0.00    -0.178 A  
HETATM   32  H   UNL     1     -11.531   3.355  64.625  1.00  0.00     0.000 HD 
HETATM   33  C   UNL     1     -10.519   4.637  65.826  1.00  0.00    -0.255 A  
ENDBRANCH  25  26
BRANCH  25  34
HETATM   34  N   UNL     1      -6.323   6.519  67.843  1.00  0.00    -0.038 N  
HETATM   35  H   UNL     1      -5.905   7.334  68.291  1.00  0.00     0.000 HD 
BRANCH  34  36
HETATM   36  C   UNL     1      -5.888   6.157  66.598  1.00  0.00    -0.020 C  
HETATM   37  O   UNL     1      -5.222   5.140  66.426  1.00  0.00    -0.008 OA 
BRANCH  36  38
HETATM   38  N   UNL     1      -6.259   7.000  65.557  1.00  0.00    -0.036 N  
HETATM   39  C   UNL     1      -6.706   6.389  64.310  1.00  0.00    -0.038 C  
HETATM   40  N   UNL     1      -7.618   8.534  63.583  1.00  0.00    -0.119 N  
HETATM   41  C   UNL     1      -7.900   7.116  63.723  1.00  0.00    -0.110 C  
HETATM   42  C   UNL     1      -7.021   9.221  64.638  1.00  0.00    -0.092 C  
HETATM   43  O   UNL     1      -5.421   8.982  66.405  1.00  0.00    -0.037 OA 
HETATM   44  C   UNL     1      -6.168   8.392  65.627  1.00  0.00    -0.048 C  
HETATM   45  O   UNL     1      -7.106  10.432  64.796  1.00  0.00    -0.120 OA 
BRANCH  40  46
HETATM   46  C   UNL     1      -8.161   9.281  62.454  1.00  0.00    -0.152 C  
HETATM   47  C   UNL     1      -9.410  10.079  62.774  1.00  0.00    -0.290 C  
ENDBRANCH  40  46
ENDBRANCH  36  38
ENDBRANCH  34  36
ENDBRANCH  25  34
ENDBRANCH  24  25
ENDBRANCH   6  21
TORSDOF 10
ENDMDL
MODEL       92
REMARK 921   NORMALIZED FREE ENERGY PREDICTED BY IDOCK:   -5.80 KCAL/MOL
REMARK 922        TOTAL FREE ENERGY PREDICTED BY IDOCK:  -11.49 KCAL/MOL
REMARK 923 INTER-LIGAND FREE ENERGY PREDICTED BY IDOCK:   -9.75 KCAL/MOL
REMARK 924 INTRA-LIGAND FREE ENERGY PREDICTED BY IDOCK:   -1.74 KCAL/MOL
REMARK 927      BINDING AFFINITY PREDICTED BY RF-SCORE:    0.00 PKD
ROOT
HETATM    1  C   UNL     1      -8.437  12.175  67.721  1.00  0.00    -0.160 C  
HETATM    2  S   UNL     1     -10.191  11.977  68.117  1.00  0.00    -0.206 SA 
HETATM    3  C   UNL     1     -10.656  13.556  67.371  1.00  0.00    -0.251 C  
HETATM    4  C   UNL     1      -9.773  14.740  67.750  1.00  0.00    -0.213 C  
HETATM    5  CA  UNL     1      -8.515  14.616  68.268  1.00  0.00    -0.158 C  
HETATM    6  CA  UNL     1      -7.448  11.362  68.630  1.00  0.00    -0.119 C  
HETATM    7  O   UNL     1      -5.949  13.327  69.530  1.00  0.00    -0.093 OA 
HETATM    8  N   UNL     1      -7.952  13.373  68.379  1.00  0.00    -0.142 N  
HETATM    9  C   UNL     1      -7.780  15.835  68.798  1.00  0.00    -0.177 C  
HETATM   10  OXT UNL     1      -8.326  16.902  69.042  1.00  0.00    -0.233 OA 
HETATM   11  O   UNL     1      -6.442  15.730  68.914  1.00  0.00    -0.108 OA 
HETATM   12  C   UNL     1      -6.883  12.794  68.976  1.00  0.00    -0.081 C  
ENDROOT
BRANCH   4  13
HETATM   13  C   UNL     1     -10.549  16.047  67.591  1.00  0.00    -0.309 C  
BRANCH  13  14
HETATM   14  S   UNL     1     -10.526  16.787  65.939  1.00  0.00    -0.233 SA 
BRANCH  14  15
HETATM   15  C   UNL     1      -9.178  17.847  65.962  1.00  0.00    -0.010 A  
HETATM   16  N   UNL     1      -7.940  17.596  65.609  1.00  0.00    -0.416 NA 
HETATM   17  C   UNL     1     -10.378  19.887  66.878  1.00  0.00    -0.468 C  
HETATM   18  N   UNL     1      -7.237  18.751  65.858  1.00  0.00    -0.369 NA 
HETATM   19  N   UNL     1      -9.249  19.137  66.406  1.00  0.00    -0.339 NA 
HETATM   20  N   UNL     1      -8.028  19.697  66.348  1.00  0.00    -0.302 NA 
ENDBRANCH  14  15
ENDBRANCH  13  14
ENDBRANCH   4  13
BRANCH   6  21
HETATM   21  N   UNL     1      -8.097  10.602  69.736  1.00  0.00    -0.369 N  
HETATM   22  H   UNL     1      -8.207  11.064  70.638  1.00  0.00     0.000 HD 
HETATM   23  O   UNL     1      -8.608   8.748  68.511  1.00  0.00    -0.132 OA 
HETATM   24  C   UNL     1      -8.557   9.308  69.604  1.00  0.00    -0.150 C  
BRANCH  24  25
HETATM   25  CA  UNL     1      -8.827   8.575  70.947  1.00  0.00    -0.171 C  
BRANCH  25  26
HETATM   26  C   UNL     1     -10.258   8.801  71.417  1.00  0.00    -0.350 A  
HETATM   27  C   UNL     1     -12.370  10.012  71.319  1.00  0.00    -0.496 A  
HETATM   28  C   UNL     1     -10.817   7.956  72.388  1.00  0.00    -0.378 A  
HETATM   29  O   UNL     1     -14.200   9.352  72.646  1.00  0.00    -0.755 OA 
HETATM   30  C   UNL     1     -11.056   9.832  70.886  1.00  0.00    -0.428 A  
HETATM   31  C   UNL     1     -12.138   8.132  72.816  1.00  0.00    -0.208 A  
HETATM   32  H   UNL     1     -14.724  10.051  72.274  1.00  0.00     0.000 HD 
HETATM   33  C   UNL     1     -12.904   9.156  72.271  1.00  0.00    -0.401 A  
ENDBRANCH  25  26
BRANCH  25  34
HETATM   34  N   UNL     1      -8.564   7.142  70.845  1.00  0.00    -0.136 N  
HETATM   35  H   UNL     1      -8.939   6.628  70.047  1.00  0.00     0.000 HD 
BRANCH  34  36
HETATM   36  C   UNL     1      -7.833   6.461  71.779  1.00  0.00    -0.101 C  
HETATM   37  O   UNL     1      -6.855   6.972  72.320  1.00  0.00    -0.060 OA 
BRANCH  36  38
HETATM   38  N   UNL     1      -8.275   5.179  72.080  1.00  0.00    -0.115 N  
HETATM   39  C   UNL     1      -8.622   4.882  73.466  1.00  0.00    -0.105 C  
HETATM   40  N   UNL     1      -9.758   2.844  72.747  1.00  0.00    -0.114 N  
HETATM   41  C   UNL     1      -9.878   4.039  73.564  1.00  0.00    -0.118 C  
HETATM   42  C   UNL     1      -9.266   2.948  71.449  1.00  0.00    -0.120 C  
HETATM   43  O   UNL     1      -7.688   4.141  70.097  1.00  0.00    -0.048 OA 
HETATM   44  C   UNL     1      -8.346   4.151  71.136  1.00  0.00    -0.084 C  
HETATM   45  O   UNL     1      -9.493   2.128  70.567  1.00  0.00    -0.124 OA 
BRANCH  40  46
HETATM   46  C   UNL     1     -10.358   1.590  73.191  1.00  0.00    -0.106 C  
HETATM   47  C   UNL     1     -11.840   1.680  73.498  1.00  0.00    -0.294 C  
ENDBRANCH  40  46
ENDBRANCH  36  38
ENDBRANCH  34  36
ENDBRANCH  25  34
ENDBRANCH  24  25
ENDBRANCH   6  21
TORSDOF 10
ENDMDL
MODEL       93
REMARK 921   NORMALIZED FREE ENERGY PREDICTED BY IDOCK:   -5.80 KCAL/MOL
REMARK 922        TOTAL FREE ENERGY PREDICTED BY IDOCK:  -11.49 KCAL/MOL
REMARK 923 INTER-LIGAND FREE ENERGY PREDICTED BY IDOCK:   -8.95 KCAL/MOL
REMARK 924 INTRA-LIGAND FREE ENERGY PREDICTED BY IDOCK:   -2.53 KCAL/MOL
REMARK 927      BINDING AFFINITY PREDICTED BY RF-SCORE:    0.00 PKD
ROOT
HETATM    1  C   UNL     1     -11.579  10.494  68.161  1.00  0.00    -0.063 C  
HETATM    2  S   UNL     1      -9.968   9.873  67.624  1.00  0.00    -0.182 SA 
HETATM    3  C   UNL     1     -10.235   8.232  68.330  1.00  0.00    -0.209 C  
HETATM    4  C   UNL     1     -10.780   8.217  69.755  1.00  0.00    -0.221 C  
HETATM    5  CA  UNL     1     -11.400   9.283  70.343  1.00  0.00    -0.242 C  
HETATM    6  CA  UNL     1     -11.679  12.053  68.317  1.00  0.00    -0.334 C  
HETATM    7  O   UNL     1     -12.436  12.203  70.832  1.00  0.00    -0.368 OA 
HETATM    8  N   UNL     1     -11.643  10.411  69.607  1.00  0.00    -0.250 N  
HETATM    9  C   UNL     1     -11.738   9.252  71.824  1.00  0.00    -0.386 C  
HETATM   10  OXT UNL     1     -11.265   8.443  72.610  1.00  0.00    -0.369 OA 
HETATM   11  O   UNL     1     -12.678  10.120  72.246  1.00  0.00    -0.307 OA 
HETATM   12  C   UNL     1     -12.026  11.694  69.814  1.00  0.00    -0.332 C  
ENDROOT
BRANCH   4  13
HETATM   13  C   UNL     1     -10.411   6.905  70.446  1.00  0.00    -0.202 C  
BRANCH  13  14
HETATM   14  S   UNL     1      -8.639   6.565  70.603  1.00  0.00    -0.140 SA 
BRANCH  14  15
HETATM   15  C   UNL     1      -8.517   5.555  71.985  1.00  0.00    -0.127 A  
HETATM   16  N   UNL     1      -8.514   4.245  72.035  1.00  0.00    -0.105 NA 
HETATM   17  C   UNL     1      -8.382   7.394  73.728  1.00  0.00    -0.158 C  
HETATM   18  N   UNL     1      -8.446   3.921  73.370  1.00  0.00    -0.088 NA 
HETATM   19  N   UNL     1      -8.434   6.039  73.259  1.00  0.00    -0.118 NA 
HETATM   20  N   UNL     1      -8.400   5.010  74.125  1.00  0.00    -0.103 NA 
ENDBRANCH  14  15
ENDBRANCH  13  14
ENDBRANCH   4  13
BRANCH   6  21
HETATM   21  N   UNL     1     -10.407  12.789  68.071  1.00  0.00    -0.223 N  
HETATM   22  H   UNL     1      -9.753  12.894  68.847  1.00  0.00     0.000 HD 
HETATM   23  O   UNL     1     -10.720  13.110  65.836  1.00  0.00    -0.270 OA 
HETATM   24  C   UNL     1     -10.066  13.336  66.852  1.00  0.00    -0.250 C  
BRANCH  24  25
HETATM   25  CA  UNL     1      -8.916  14.379  66.906  1.00  0.00    -0.243 C  
BRANCH  25  26
HETATM   26  C   UNL     1      -9.462  15.788  67.096  1.00  0.00    -0.222 A  
HETATM   27  C   UNL     1     -10.174  17.625  68.529  1.00  0.00    -0.386 A  
HETATM   28  C   UNL     1      -9.732  16.590  65.977  1.00  0.00    -0.331 A  
HETATM   29  O   UNL     1     -10.871  19.675  67.603  1.00  0.00    -0.429 OA 
HETATM   30  C   UNL     1      -9.689  16.326  68.377  1.00  0.00    -0.222 A  
HETATM   31  C   UNL     1     -10.212  17.896  66.130  1.00  0.00    -0.343 A  
HETATM   32  H   UNL     1     -11.014  20.022  68.475  1.00  0.00     0.000 HD 
HETATM   33  C   UNL     1     -10.422  18.403  67.407  1.00  0.00    -0.415 A  
ENDBRANCH  25  26
BRANCH  25  34
HETATM   34  N   UNL     1      -7.958  14.077  67.967  1.00  0.00    -0.138 N  
HETATM   35  H   UNL     1      -8.229  14.244  68.936  1.00  0.00     0.000 HD 
BRANCH  34  36
HETATM   36  C   UNL     1      -6.711  13.577  67.711  1.00  0.00    -0.168 C  
HETATM   37  O   UNL     1      -5.787  14.312  67.371  1.00  0.00    -0.348 OA 
BRANCH  36  38
HETATM   38  N   UNL     1      -6.562  12.205  67.873  1.00  0.00    -0.075 N  
HETATM   39  C   UNL     1      -6.853  11.346  66.730  1.00  0.00    -0.132 C  
HETATM   40  N   UNL     1      -5.728   9.485  67.841  1.00  0.00    -0.041 N  
HETATM   41  C   UNL     1      -5.840  10.225  66.597  1.00  0.00    -0.061 C  
HETATM   42  C   UNL     1      -5.624  10.178  69.044  1.00  0.00    -0.034 C  
HETATM   43  O   UNL     1      -6.374  12.151  70.178  1.00  0.00    -0.111 OA 
HETATM   44  C   UNL     1      -6.208  11.610  69.087  1.00  0.00    -0.077 C  
HETATM   45  O   UNL     1      -5.134   9.706  70.063  1.00  0.00    -0.032 OA 
BRANCH  40  46
HETATM   46  C   UNL     1      -5.493   8.045  67.818  1.00  0.00    -0.034 C  
HETATM   47  C   UNL     1      -6.672   7.226  67.329  1.00  0.00    -0.068 C  
ENDBRANCH  40  46
ENDBRANCH  36  38
ENDBRANCH  34  36
ENDBRANCH  25  34
ENDBRANCH  24  25
ENDBRANCH   6  21
TORSDOF 10
ENDMDL
MODEL       94
REMARK 921   NORMALIZED FREE ENERGY PREDICTED BY IDOCK:   -5.75 KCAL/MOL
REMARK 922        TOTAL FREE ENERGY PREDICTED BY IDOCK:  -11.41 KCAL/MOL
REMARK 923 INTER-LIGAND FREE ENERGY PREDICTED BY IDOCK:   -9.32 KCAL/MOL
REMARK 924 INTRA-LIGAND FREE ENERGY PREDICTED BY IDOCK:   -2.09 KCAL/MOL
REMARK 927      BINDING AFFINITY PREDICTED BY RF-SCORE:    0.00 PKD
ROOT
HETATM    1  C   UNL     1      -8.349   8.576  67.210  1.00  0.00    -0.115 C  
HETATM    2  S   UNL     1      -7.383   9.335  68.538  1.00  0.00    -0.077 SA 
HETATM    3  C   UNL     1      -6.456   7.823  68.884  1.00  0.00    -0.040 C  
HETATM    4  C   UNL     1      -7.295   6.554  68.988  1.00  0.00    -0.093 C  
HETATM    5  CA  UNL     1      -8.561   6.435  68.488  1.00  0.00    -0.122 C  
HETATM    6  CA  UNL     1      -9.728   9.263  66.907  1.00  0.00    -0.190 C  
HETATM    7  O   UNL     1     -11.334   7.207  67.244  1.00  0.00    -0.142 OA 
HETATM    8  N   UNL     1      -9.099   7.466  67.765  1.00  0.00    -0.129 N  
HETATM    9  C   UNL     1      -9.398   5.208  68.803  1.00  0.00    -0.125 C  
HETATM   10  OXT UNL     1      -9.130   4.415  69.694  1.00  0.00    -0.095 OA 
HETATM   11  O   UNL     1     -10.439   4.961  67.984  1.00  0.00    -0.033 OA 
HETATM   12  C   UNL     1     -10.306   7.843  67.281  1.00  0.00    -0.307 C  
ENDROOT
BRANCH   4  13
HETATM   13  C   UNL     1      -6.569   5.511  69.838  1.00  0.00    -0.046 C  
BRANCH  13  14
HETATM   14  S   UNL     1      -5.942   6.089  71.435  1.00  0.00    -0.032 SA 
BRANCH  14  15
HETATM   15  C   UNL     1      -7.257   6.946  72.128  1.00  0.00    -0.082 A  
HETATM   16  N   UNL     1      -8.429   6.482  72.489  1.00  0.00    -0.122 NA 
HETATM   17  C   UNL     1      -6.176   9.241  72.160  1.00  0.00     0.121 C  
HETATM   18  N   UNL     1      -9.141   7.569  72.939  1.00  0.00    -0.149 NA 
HETATM   19  N   UNL     1      -7.231   8.291  72.365  1.00  0.00    -0.100 NA 
HETATM   20  N   UNL     1      -8.418   8.678  72.864  1.00  0.00    -0.410 NA 
ENDBRANCH  14  15
ENDBRANCH  13  14
ENDBRANCH   4  13
BRANCH   6  21
HETATM   21  N   UNL     1     -10.074  10.397  67.811  1.00  0.00    -0.174 N  
HETATM   22  H   UNL     1      -9.464  10.583  68.607  1.00  0.00     0.000 HD 
HETATM   23  O   UNL     1     -11.859  11.150  66.610  1.00  0.00    -0.206 OA 
HETATM   24  C   UNL     1     -11.175  11.208  67.629  1.00  0.00    -0.297 C  
BRANCH  24  25
HETATM   25  CA  UNL     1     -11.572  12.053  68.871  1.00  0.00    -0.321 C  
BRANCH  25  26
HETATM   26  C   UNL     1     -11.963  11.160  70.040  1.00  0.00    -0.447 A  
HETATM   27  C   UNL     1     -13.242  10.746  72.073  1.00  0.00    -0.466 A  
HETATM   28  C   UNL     1     -11.419   9.872  70.151  1.00  0.00    -0.309 A  
HETATM   29  O   UNL     1     -13.096   8.676  73.186  1.00  0.00    -0.765 OA 
HETATM   30  C   UNL     1     -12.884  11.586  71.017  1.00  0.00    -0.358 A  
HETATM   31  C   UNL     1     -11.784   9.027  71.205  1.00  0.00    -0.366 A  
HETATM   32  H   UNL     1     -13.721   8.979  73.834  1.00  0.00     0.000 HD 
HETATM   33  C   UNL     1     -12.698   9.471  72.153  1.00  0.00    -0.362 A  
ENDBRANCH  25  26
BRANCH  25  34
HETATM   34  N   UNL     1     -10.496  12.955  69.279  1.00  0.00    -0.419 N  
HETATM   35  H   UNL     1      -9.638  12.555  69.658  1.00  0.00     0.000 HD 
BRANCH  34  36
HETATM   36  C   UNL     1     -10.598  14.314  69.173  1.00  0.00    -0.186 C  
HETATM   37  O   UNL     1     -11.562  14.919  69.634  1.00  0.00    -0.268 OA 
BRANCH  36  38
HETATM   38  N   UNL     1      -9.544  14.953  68.531  1.00  0.00    -0.208 N  
HETATM   39  C   UNL     1      -9.647  16.392  68.316  1.00  0.00    -0.221 C  
HETATM   40  N   UNL     1      -7.259  16.489  67.811  1.00  0.00    -0.134 N  
HETATM   41  C   UNL     1      -8.330  17.096  68.581  1.00  0.00    -0.257 C  
HETATM   42  C   UNL     1      -7.143  15.102  67.776  1.00  0.00    -0.165 C  
HETATM   43  O   UNL     1      -8.429  13.080  67.757  1.00  0.00    -0.162 OA 
HETATM   44  C   UNL     1      -8.426  14.278  68.033  1.00  0.00    -0.164 C  
HETATM   45  O   UNL     1      -6.100  14.512  67.520  1.00  0.00    -0.328 OA 
BRANCH  40  46
HETATM   46  C   UNL     1      -6.184  17.315  67.273  1.00  0.00    -0.153 C  
HETATM   47  C   UNL     1      -6.453  17.868  65.887  1.00  0.00    -0.294 C  
ENDBRANCH  40  46
ENDBRANCH  36  38
ENDBRANCH  34  36
ENDBRANCH  25  34
ENDBRANCH  24  25
ENDBRANCH   6  21
TORSDOF 10
ENDMDL
MODEL       95
REMARK 921   NORMALIZED FREE ENERGY PREDICTED BY IDOCK:   -5.74 KCAL/MOL
REMARK 922        TOTAL FREE ENERGY PREDICTED BY IDOCK:  -11.39 KCAL/MOL
REMARK 923 INTER-LIGAND FREE ENERGY PREDICTED BY IDOCK:   -9.91 KCAL/MOL
REMARK 924 INTRA-LIGAND FREE ENERGY PREDICTED BY IDOCK:   -1.48 KCAL/MOL
REMARK 927      BINDING AFFINITY PREDICTED BY RF-SCORE:    0.00 PKD
ROOT
HETATM    1  C   UNL     1     -11.824  14.258  67.620  1.00  0.00    -0.385 C  
HETATM    2  S   UNL     1     -10.368  13.258  67.230  1.00  0.00    -0.248 SA 
HETATM    3  C   UNL     1     -11.130  11.720  67.794  1.00  0.00    -0.243 C  
HETATM    4  C   UNL     1     -11.836  11.800  69.144  1.00  0.00    -0.389 C  
HETATM    5  CA  UNL     1     -12.235  12.969  69.726  1.00  0.00    -0.177 C  
HETATM    6  CA  UNL     1     -11.545  15.783  67.865  1.00  0.00    -0.151 C  
HETATM    7  O   UNL     1     -12.550  16.040  70.282  1.00  0.00    -0.286 OA 
HETATM    8  N   UNL     1     -12.089  14.146  69.042  1.00  0.00    -0.339 N  
HETATM    9  C   UNL     1     -12.754  12.977  71.154  1.00  0.00    -0.283 C  
HETATM   10  OXT UNL     1     -12.604  12.048  71.934  1.00  0.00    -0.136 OA 
HETATM   11  O   UNL     1     -13.488  14.045  71.522  1.00  0.00    -0.343 OA 
HETATM   12  C   UNL     1     -12.157  15.476  69.287  1.00  0.00    -0.259 C  
ENDROOT
BRANCH   4  13
HETATM   13  C   UNL     1     -11.902  10.414  69.785  1.00  0.00    -0.207 C  
BRANCH  13  14
HETATM   14  S   UNL     1     -10.320   9.553  69.973  1.00  0.00    -0.267 SA 
BRANCH  14  15
HETATM   15  C   UNL     1     -10.623   7.967  69.394  1.00  0.00    -0.205 A  
HETATM   16  N   UNL     1     -10.991   6.909  70.076  1.00  0.00    -0.264 NA 
HETATM   17  C   UNL     1     -10.111   8.404  66.947  1.00  0.00    -0.294 C  
HETATM   18  N   UNL     1     -11.053   5.879  69.168  1.00  0.00    -0.326 NA 
HETATM   19  N   UNL     1     -10.476   7.608  68.084  1.00  0.00    -0.200 NA 
HETATM   20  N   UNL     1     -10.737   6.296  67.949  1.00  0.00    -0.274 NA 
ENDBRANCH  14  15
ENDBRANCH  13  14
ENDBRANCH   4  13
BRANCH   6  21
HETATM   21  N   UNL     1     -10.107  16.171  67.813  1.00  0.00    -0.245 N  
HETATM   22  H   UNL     1      -9.755  16.608  66.961  1.00  0.00     0.000 HD 
HETATM   23  O   UNL     1      -9.609  15.606  69.965  1.00  0.00    -0.205 OA 
HETATM   24  C   UNL     1      -9.226  15.972  68.856  1.00  0.00    -0.233 C  
BRANCH  24  25
HETATM   25  CA  UNL     1      -7.725  16.074  68.467  1.00  0.00    -0.158 C  
BRANCH  25  26
HETATM   26  C   UNL     1      -7.134  17.406  68.907  1.00  0.00    -0.251 A  
HETATM   27  C   UNL     1      -7.222  19.838  69.049  1.00  0.00    -0.340 A  
HETATM   28  C   UNL     1      -5.933  17.434  69.632  1.00  0.00    -0.248 A  
HETATM   29  O   UNL     1      -5.551  21.039  70.193  1.00  0.00    -0.543 OA 
HETATM   30  C   UNL     1      -7.773  18.628  68.622  1.00  0.00    -0.344 A  
HETATM   31  C   UNL     1      -5.385  18.646  70.066  1.00  0.00    -0.222 A  
HETATM   32  H   UNL     1      -5.998  21.853  69.994  1.00  0.00     0.000 HD 
HETATM   33  C   UNL     1      -6.039  19.837  69.775  1.00  0.00    -0.327 A  
ENDBRANCH  25  26
BRANCH  25  34
HETATM   34  N   UNL     1      -6.943  14.978  69.034  1.00  0.00    -0.117 N  
HETATM   35  H   UNL     1      -6.868  14.900  70.048  1.00  0.00     0.000 HD 
BRANCH  34  36
HETATM   36  C   UNL     1      -6.305  14.052  68.255  1.00  0.00    -0.114 C  
HETATM   37  O   UNL     1      -5.555  14.393  67.344  1.00  0.00    -0.341 OA 
BRANCH  36  38
HETATM   38  N   UNL     1      -6.551  12.721  68.571  1.00  0.00    -0.079 N  
HETATM   39  C   UNL     1      -7.216  11.893  67.571  1.00  0.00    -0.125 C  
HETATM   40  N   UNL     1      -6.569   9.885  68.801  1.00  0.00    -0.046 N  
HETATM   41  C   UNL     1      -6.604  10.508  67.490  1.00  0.00    -0.066 C  
HETATM   42  C   UNL     1      -6.121  10.619  69.896  1.00  0.00    -0.086 C  
HETATM   43  O   UNL     1      -6.113  12.822  70.841  1.00  0.00    -0.215 OA 
HETATM   44  C   UNL     1      -6.246  12.159  69.814  1.00  0.00    -0.132 C  
HETATM   45  O   UNL     1      -5.675  10.114  70.919  1.00  0.00    -0.078 OA 
BRANCH  40  46
HETATM   46  C   UNL     1      -6.775   8.447  68.934  1.00  0.00    -0.053 C  
HETATM   47  C   UNL     1      -6.535   7.660  67.661  1.00  0.00    -0.058 C  
ENDBRANCH  40  46
ENDBRANCH  36  38
ENDBRANCH  34  36
ENDBRANCH  25  34
ENDBRANCH  24  25
ENDBRANCH   6  21
TORSDOF 10
ENDMDL
MODEL       96
REMARK 921   NORMALIZED FREE ENERGY PREDICTED BY IDOCK:   -5.71 KCAL/MOL
REMARK 922        TOTAL FREE ENERGY PREDICTED BY IDOCK:  -11.35 KCAL/MOL
REMARK 923 INTER-LIGAND FREE ENERGY PREDICTED BY IDOCK:   -8.89 KCAL/MOL
REMARK 924 INTRA-LIGAND FREE ENERGY PREDICTED BY IDOCK:   -2.46 KCAL/MOL
REMARK 927      BINDING AFFINITY PREDICTED BY RF-SCORE:    0.00 PKD
ROOT
HETATM    1  C   UNL     1     -10.310   7.991  69.320  1.00  0.00    -0.220 C  
HETATM    2  S   UNL     1     -10.900   7.405  67.714  1.00  0.00    -0.058 SA 
HETATM    3  C   UNL     1     -10.484   5.681  68.061  1.00  0.00    -0.200 C  
HETATM    4  C   UNL     1      -9.097   5.452  68.653  1.00  0.00    -0.130 C  
HETATM    5  CA  UNL     1      -8.356   6.429  69.255  1.00  0.00    -0.122 C  
HETATM    6  CA  UNL     1      -9.899   9.505  69.372  1.00  0.00    -0.186 C  
HETATM    7  O   UNL     1      -7.415   9.265  70.206  1.00  0.00    -0.082 OA 
HETATM    8  N   UNL     1      -8.900   7.672  69.435  1.00  0.00    -0.139 N  
HETATM    9  C   UNL     1      -6.911   6.166  69.642  1.00  0.00    -0.065 C  
HETATM   10  OXT UNL     1      -6.258   5.221  69.223  1.00  0.00    -0.030 OA 
HETATM   11  O   UNL     1      -6.375   6.989  70.565  1.00  0.00    -0.037 OA 
HETATM   12  C   UNL     1      -8.492   8.916  69.780  1.00  0.00    -0.131 C  
ENDROOT
BRANCH   4  13
HETATM   13  C   UNL     1      -8.625   4.030  68.351  1.00  0.00    -0.095 C  
BRANCH  13  14
HETATM   14  S   UNL     1      -9.406   3.220  66.932  1.00  0.00    -0.115 SA 
BRANCH  14  15
HETATM   15  C   UNL     1      -8.781   4.049  65.567  1.00  0.00    -0.119 A  
HETATM   16  N   UNL     1      -7.645   4.694  65.458  1.00  0.00    -0.081 NA 
HETATM   17  C   UNL     1     -10.726   3.611  63.996  1.00  0.00    -0.239 C  
HETATM   18  N   UNL     1      -7.633   5.221  64.188  1.00  0.00    -0.066 NA 
HETATM   19  N   UNL     1      -9.456   4.157  64.384  1.00  0.00    -0.159 NA 
HETATM   20  N   UNL     1      -8.737   4.901  63.526  1.00  0.00    -0.132 NA 
ENDBRANCH  14  15
ENDBRANCH  13  14
ENDBRANCH   4  13
BRANCH   6  21
HETATM   21  N   UNL     1      -9.984  10.221  68.068  1.00  0.00    -0.150 N  
HETATM   22  H   UNL     1     -10.619   9.857  67.358  1.00  0.00     0.000 HD 
HETATM   23  O   UNL     1      -8.593  11.939  68.625  1.00  0.00    -0.131 OA 
HETATM   24  C   UNL     1      -9.250  11.350  67.769  1.00  0.00    -0.159 C  
BRANCH  24  25
HETATM   25  CA  UNL     1      -9.184  11.701  66.257  1.00  0.00    -0.217 C  
BRANCH  25  26
HETATM   26  C   UNL     1      -8.443  10.625  65.476  1.00  0.00    -0.177 A  
HETATM   27  C   UNL     1      -6.802   8.827  65.350  1.00  0.00    -0.072 A  
HETATM   28  C   UNL     1      -8.752  10.402  64.126  1.00  0.00    -0.205 A  
HETATM   29  O   UNL     1      -6.487   7.622  63.352  1.00  0.00    -0.057 OA 
HETATM   30  C   UNL     1      -7.458   9.820  66.080  1.00  0.00    -0.101 A  
HETATM   31  C   UNL     1      -8.099   9.402  63.396  1.00  0.00    -0.153 A  
HETATM   32  H   UNL     1      -5.828   7.087  63.778  1.00  0.00     0.000 HD 
HETATM   33  C   UNL     1      -7.135   8.619  64.019  1.00  0.00    -0.090 A  
ENDBRANCH  25  26
BRANCH  25  34
HETATM   34  N   UNL     1     -10.515  11.895  65.686  1.00  0.00    -0.252 N  
HETATM   35  H   UNL     1     -10.712  11.514  64.761  1.00  0.00     0.000 HD 
BRANCH  34  36
HETATM   36  C   UNL     1     -11.506  12.569  66.345  1.00  0.00    -0.365 C  
HETATM   37  O   UNL     1     -12.385  11.970  66.958  1.00  0.00    -0.318 OA 
BRANCH  36  38
HETATM   38  N   UNL     1     -11.440  13.956  66.285  1.00  0.00    -0.328 N  
HETATM   39  C   UNL     1     -10.978  14.670  67.470  1.00  0.00    -0.298 C  
HETATM   40  N   UNL     1     -10.666  16.690  66.134  1.00  0.00    -0.198 N  
HETATM   41  C   UNL     1     -10.048  15.813  67.112  1.00  0.00    -0.251 C  
HETATM   42  C   UNL     1     -11.309  16.138  65.029  1.00  0.00    -0.114 C  
HETATM   43  O   UNL     1     -12.640  14.271  64.332  1.00  0.00    -0.665 OA 
HETATM   44  C   UNL     1     -11.849  14.696  65.172  1.00  0.00    -0.351 C  
HETATM   45  O   UNL     1     -11.497  16.741  63.979  1.00  0.00    -1.198 OA 
BRANCH  40  46
HETATM   46  C   UNL     1     -10.420  18.127  66.180  1.00  0.00    -0.364 C  
HETATM   47  C   UNL     1      -8.972  18.506  66.426  1.00  0.00    -0.276 C  
ENDBRANCH  40  46
ENDBRANCH  36  38
ENDBRANCH  34  36
ENDBRANCH  25  34
ENDBRANCH  24  25
ENDBRANCH   6  21
TORSDOF 10
ENDMDL
MODEL       97
REMARK 921   NORMALIZED FREE ENERGY PREDICTED BY IDOCK:   -5.70 KCAL/MOL
REMARK 922        TOTAL FREE ENERGY PREDICTED BY IDOCK:  -11.32 KCAL/MOL
REMARK 923 INTER-LIGAND FREE ENERGY PREDICTED BY IDOCK:   -8.55 KCAL/MOL
REMARK 924 INTRA-LIGAND FREE ENERGY PREDICTED BY IDOCK:   -2.78 KCAL/MOL
REMARK 927      BINDING AFFINITY PREDICTED BY RF-SCORE:    0.00 PKD
ROOT
HETATM    1  C   UNL     1     -10.791   7.827  70.952  1.00  0.00    -0.237 C  
HETATM    2  S   UNL     1     -11.232   6.520  69.782  1.00  0.00    -0.396 SA 
HETATM    3  C   UNL     1     -10.727   5.192  70.898  1.00  0.00    -0.058 C  
HETATM    4  C   UNL     1      -9.371   5.385  71.568  1.00  0.00    -0.177 C  
HETATM    5  CA  UNL     1      -8.738   6.591  71.671  1.00  0.00    -0.132 C  
HETATM    6  CA  UNL     1     -10.486   9.227  70.309  1.00  0.00    -0.228 C  
HETATM    7  O   UNL     1      -8.053   9.619  71.229  1.00  0.00    -0.211 OA 
HETATM    8  N   UNL     1      -9.374   7.724  71.240  1.00  0.00    -0.151 N  
HETATM    9  C   UNL     1      -7.307   6.665  72.177  1.00  0.00    -0.089 C  
HETATM   10  OXT UNL     1      -6.567   5.696  72.261  1.00  0.00    -0.057 OA 
HETATM   11  O   UNL     1      -6.890   7.864  72.630  1.00  0.00    -0.066 OA 
HETATM   12  C   UNL     1      -9.073   9.019  70.982  1.00  0.00    -0.257 C  
ENDROOT
BRANCH   4  13
HETATM   13  C   UNL     1      -8.786   4.031  71.971  1.00  0.00    -0.109 C  
BRANCH  13  14
HETATM   14  S   UNL     1      -9.164   2.645  70.869  1.00  0.00    -0.142 SA 
BRANCH  14  15
HETATM   15  C   UNL     1      -8.102   2.853  69.538  1.00  0.00    -0.047 A  
HETATM   16  N   UNL     1      -6.981   3.531  69.492  1.00  0.00    -0.041 NA 
HETATM   17  C   UNL     1      -9.420   1.494  67.848  1.00  0.00    -0.116 C  
HETATM   18  N   UNL     1      -6.535   3.430  68.195  1.00  0.00    -0.036 NA 
HETATM   19  N   UNL     1      -8.341   2.325  68.301  1.00  0.00    -0.057 NA 
HETATM   20  N   UNL     1      -7.361   2.698  67.460  1.00  0.00    -0.056 NA 
ENDBRANCH  14  15
ENDBRANCH  13  14
ENDBRANCH   4  13
BRANCH   6  21
HETATM   21  N   UNL     1     -10.531   9.255  68.820  1.00  0.00    -0.211 N  
HETATM   22  H   UNL     1     -10.841   8.415  68.331  1.00  0.00     0.000 HD 
HETATM   23  O   UNL     1      -9.953  11.447  68.584  1.00  0.00    -0.202 OA 
HETATM   24  C   UNL     1     -10.177  10.355  68.067  1.00  0.00    -0.169 C  
BRANCH  24  25
HETATM   25  CA  UNL     1      -9.916  10.058  66.565  1.00  0.00    -0.225 C  
BRANCH  25  26
HETATM   26  C   UNL     1     -10.579  11.100  65.676  1.00  0.00    -0.286 A  
HETATM   27  C   UNL     1     -10.818  12.237  63.533  1.00  0.00    -0.508 A  
HETATM   28  C   UNL     1     -11.622  11.890  66.181  1.00  0.00    -0.299 A  
HETATM   29  O   UNL     1     -12.461  13.895  63.226  1.00  0.00    -1.113 OA 
HETATM   30  C   UNL     1     -10.186  11.286  64.336  1.00  0.00    -0.377 A  
HETATM   31  C   UNL     1     -12.261  12.838  65.373  1.00  0.00    -0.532 A  
HETATM   32  H   UNL     1     -12.184  14.004  62.324  1.00  0.00     0.000 HD 
HETATM   33  C   UNL     1     -11.855  12.997  64.053  1.00  0.00    -0.445 A  
ENDBRANCH  25  26
BRANCH  25  34
HETATM   34  N   UNL     1      -8.487   9.992  66.265  1.00  0.00    -0.128 N  
HETATM   35  H   UNL     1      -8.081  10.700  65.652  1.00  0.00     0.000 HD 
BRANCH  34  36
HETATM   36  C   UNL     1      -7.674   9.019  66.773  1.00  0.00    -0.093 C  
HETATM   37  O   UNL     1      -6.809   9.281  67.606  1.00  0.00    -0.074 OA 
BRANCH  36  38
HETATM   38  N   UNL     1      -7.900   7.731  66.302  1.00  0.00    -0.088 N  
HETATM   39  C   UNL     1      -8.375   6.730  67.251  1.00  0.00    -0.121 C  
HETATM   40  N   UNL     1      -8.987   5.262  65.398  1.00  0.00    -0.159 N  
HETATM   41  C   UNL     1      -9.448   5.845  66.645  1.00  0.00    -0.151 C  
HETATM   42  C   UNL     1      -8.346   6.068  64.460  1.00  0.00    -0.045 C  
HETATM   43  O   UNL     1      -6.852   7.929  64.249  1.00  0.00    -0.059 OA 
HETATM   44  C   UNL     1      -7.639   7.339  64.986  1.00  0.00    -0.107 C  
HETATM   45  O   UNL     1      -8.286   5.806  63.265  1.00  0.00    -0.117 OA 
BRANCH  40  46
HETATM   46  C   UNL     1      -9.392   3.910  65.027  1.00  0.00    -0.158 C  
HETATM   47  C   UNL     1     -10.733   3.830  64.323  1.00  0.00    -0.216 C  
ENDBRANCH  40  46
ENDBRANCH  36  38
ENDBRANCH  34  36
ENDBRANCH  25  34
ENDBRANCH  24  25
ENDBRANCH   6  21
TORSDOF 10
ENDMDL
MODEL       98
REMARK 921   NORMALIZED FREE ENERGY PREDICTED BY IDOCK:   -5.69 KCAL/MOL
REMARK 922        TOTAL FREE ENERGY PREDICTED BY IDOCK:  -11.32 KCAL/MOL
REMARK 923 INTER-LIGAND FREE ENERGY PREDICTED BY IDOCK:   -9.67 KCAL/MOL
REMARK 924 INTRA-LIGAND FREE ENERGY PREDICTED BY IDOCK:   -1.65 KCAL/MOL
REMARK 927      BINDING AFFINITY PREDICTED BY RF-SCORE:    0.00 PKD
ROOT
HETATM    1  C   UNL     1      -7.353   9.695  67.347  1.00  0.00    -0.087 C  
HETATM    2  S   UNL     1      -8.461   8.907  68.540  1.00  0.00    -0.130 SA 
HETATM    3  C   UNL     1      -7.607   7.317  68.458  1.00  0.00    -0.118 C  
HETATM    4  C   UNL     1      -7.292   6.819  67.051  1.00  0.00    -0.082 C  
HETATM    5  CA  UNL     1      -7.269   7.622  65.947  1.00  0.00    -0.069 C  
HETATM    6  CA  UNL     1      -7.952  10.935  66.593  1.00  0.00    -0.148 C  
HETATM    7  O   UNL     1      -7.656  10.132  64.106  1.00  0.00    -0.143 OA 
HETATM    8  N   UNL     1      -7.443   8.972  66.093  1.00  0.00    -0.090 N  
HETATM    9  C   UNL     1      -7.140   7.016  64.560  1.00  0.00    -0.061 C  
HETATM   10  OXT UNL     1      -7.314   5.831  64.320  1.00  0.00    -0.059 OA 
HETATM   11  O   UNL     1      -6.724   7.841  63.578  1.00  0.00    -0.061 OA 
HETATM   12  C   UNL     1      -7.677  10.054  65.313  1.00  0.00    -0.139 C  
ENDROOT
BRANCH   4  13
HETATM   13  C   UNL     1      -7.147   5.297  67.053  1.00  0.00    -0.070 C  
BRANCH  13  14
HETATM   14  S   UNL     1      -8.685   4.355  66.905  1.00  0.00    -0.114 SA 
BRANCH  14  15
HETATM   15  C   UNL     1      -9.609   4.822  68.272  1.00  0.00    -0.149 A  
HETATM   16  N   UNL     1     -10.637   5.635  68.319  1.00  0.00    -0.204 NA 
HETATM   17  C   UNL     1      -8.329   3.486  70.009  1.00  0.00    -0.052 C  
HETATM   18  N   UNL     1     -10.989   5.719  69.646  1.00  0.00    -0.358 NA 
HETATM   19  N   UNL     1      -9.336   4.395  69.541  1.00  0.00    -0.139 NA 
HETATM   20  N   UNL     1     -10.198   4.967  70.399  1.00  0.00    -0.263 NA 
ENDBRANCH  14  15
ENDBRANCH  13  14
ENDBRANCH   4  13
BRANCH   6  21
HETATM   21  N   UNL     1      -9.376  11.236  66.918  1.00  0.00    -0.175 N  
HETATM   22  H   UNL     1     -10.102  10.720  66.423  1.00  0.00     0.000 HD 
HETATM   23  O   UNL     1      -8.950  12.716  68.599  1.00  0.00    -0.092 OA 
HETATM   24  C   UNL     1      -9.762  12.176  67.851  1.00  0.00    -0.200 C  
BRANCH  24  25
HETATM   25  CA  UNL     1     -11.249  12.614  67.755  1.00  0.00    -0.274 C  
BRANCH  25  26
HETATM   26  C   UNL     1     -11.898  12.660  69.131  1.00  0.00    -0.349 A  
HETATM   27  C   UNL     1     -12.879  13.898  70.987  1.00  0.00    -0.394 A  
HETATM   28  C   UNL     1     -12.158  11.468  69.823  1.00  0.00    -0.374 A  
HETATM   29  O   UNL     1     -13.755  12.769  72.859  1.00  0.00    -0.676 OA 
HETATM   30  C   UNL     1     -12.270  13.879  69.731  1.00  0.00    -0.388 A  
HETATM   31  C   UNL     1     -12.775  11.487  71.079  1.00  0.00    -0.426 A  
HETATM   32  H   UNL     1     -14.001  13.600  73.246  1.00  0.00     0.000 HD 
HETATM   33  C   UNL     1     -13.136  12.704  71.646  1.00  0.00    -0.323 A  
ENDBRANCH  25  26
BRANCH  25  34
HETATM   34  N   UNL     1     -11.391  13.913  67.100  1.00  0.00    -0.313 N  
HETATM   35  H   UNL     1     -12.220  14.474  67.298  1.00  0.00     0.000 HD 
BRANCH  34  36
HETATM   36  C   UNL     1     -10.456  14.404  66.232  1.00  0.00    -0.290 C  
HETATM   37  O   UNL     1     -10.131  13.780  65.226  1.00  0.00    -0.325 OA 
BRANCH  36  38
HETATM   38  N   UNL     1      -9.920  15.645  66.556  1.00  0.00    -0.261 N  
HETATM   39  C   UNL     1     -10.763  16.822  66.374  1.00  0.00    -0.105 C  
HETATM   40  N   UNL     1      -9.219  18.140  67.731  1.00  0.00    -0.260 N  
HETATM   41  C   UNL     1     -10.616  17.802  67.521  1.00  0.00    -0.359 C  
HETATM   42  C   UNL     1      -8.265  17.126  67.750  1.00  0.00    -0.197 C  
HETATM   43  O   UNL     1      -7.703  15.018  66.758  1.00  0.00    -0.065 OA 
HETATM   44  C   UNL     1      -8.603  15.823  66.988  1.00  0.00    -0.218 C  
HETATM   45  O   UNL     1      -7.175  17.226  68.300  1.00  0.00    -0.195 OA 
BRANCH  40  46
HETATM   46  C   UNL     1      -8.846  19.487  68.148  1.00  0.00    -0.330 C  
HETATM   47  C   UNL     1      -9.562  20.595  67.400  1.00  0.00    -0.544 C  
ENDBRANCH  40  46
ENDBRANCH  36  38
ENDBRANCH  34  36
ENDBRANCH  25  34
ENDBRANCH  24  25
ENDBRANCH   6  21
TORSDOF 10
ENDMDL
MODEL       99
REMARK 921   NORMALIZED FREE ENERGY PREDICTED BY IDOCK:   -5.69 KCAL/MOL
REMARK 922        TOTAL FREE ENERGY PREDICTED BY IDOCK:  -11.31 KCAL/MOL
REMARK 923 INTER-LIGAND FREE ENERGY PREDICTED BY IDOCK:  -10.57 KCAL/MOL
REMARK 924 INTRA-LIGAND FREE ENERGY PREDICTED BY IDOCK:   -0.74 KCAL/MOL
REMARK 927      BINDING AFFINITY PREDICTED BY RF-SCORE:    0.00 PKD
ROOT
HETATM    1  C   UNL     1      -6.373  15.723  67.309  1.00  0.00    -0.070 C  
HETATM    2  S   UNL     1      -7.786  16.143  66.262  1.00  0.00     0.200 SA 
HETATM    3  C   UNL     1      -7.261  17.857  66.041  1.00  0.00    -0.290 C  
HETATM    4  C   UNL     1      -6.835  18.577  67.317  1.00  0.00    -0.209 C  
HETATM    5  CA  UNL     1      -6.482  17.937  68.471  1.00  0.00    -0.211 C  
HETATM    6  CA  UNL     1      -6.590  14.501  68.271  1.00  0.00    -0.119 C  
HETATM    7  O   UNL     1      -6.075  15.652  70.580  1.00  0.00    -0.069 OA 
HETATM    8  N   UNL     1      -6.407  16.570  68.486  1.00  0.00    -0.128 N  
HETATM    9  C   UNL     1      -6.260  18.726  69.749  1.00  0.00    -0.218 C  
HETATM   10  OXT UNL     1      -6.626  19.883  69.903  1.00  0.00    -0.347 OA 
HETATM   11  O   UNL     1      -5.543  18.120  70.715  1.00  0.00    -0.217 OA 
HETATM   12  C   UNL     1      -6.298  15.571  69.394  1.00  0.00    -0.138 C  
ENDROOT
BRANCH   4  13
HETATM   13  C   UNL     1      -6.995  20.088  67.146  1.00  0.00    -0.230 C  
BRANCH  13  14
HETATM   14  S   UNL     1      -8.659  20.745  67.424  1.00  0.00     0.022 SA 
BRANCH  14  15
HETATM   15  C   UNL     1      -9.705  19.564  66.750  1.00  0.00    -0.366 A  
HETATM   16  N   UNL     1     -10.106  19.448  65.507  1.00  0.00    -0.328 NA 
HETATM   17  C   UNL     1     -10.155  18.266  68.884  1.00  0.00    -0.335 C  
HETATM   18  N   UNL     1     -10.967  18.376  65.489  1.00  0.00    -0.314 NA 
HETATM   19  N   UNL     1     -10.290  18.575  67.489  1.00  0.00    -0.388 NA 
HETATM   20  N   UNL     1     -11.089  17.839  66.696  1.00  0.00     0.246 NA 
ENDBRANCH  14  15
ENDBRANCH  13  14
ENDBRANCH   4  13
BRANCH   6  21
HETATM   21  N   UNL     1      -7.959  13.912  68.234  1.00  0.00    -0.139 N  
HETATM   22  H   UNL     1      -8.095  13.040  67.723  1.00  0.00     0.000 HD 
HETATM   23  O   UNL     1      -8.936  15.437  69.618  1.00  0.00    -0.263 OA 
HETATM   24  C   UNL     1      -9.052  14.482  68.853  1.00  0.00    -0.111 C  
BRANCH  24  25
HETATM   25  CA  UNL     1     -10.427  13.943  68.372  1.00  0.00    -0.247 C  
BRANCH  25  26
HETATM   26  C   UNL     1     -11.466  14.022  69.481  1.00  0.00    -0.331 A  
HETATM   27  C   UNL     1     -12.793  12.981  71.240  1.00  0.00    -0.370 A  
HETATM   28  C   UNL     1     -12.052  15.255  69.805  1.00  0.00    -0.357 A  
HETATM   29  O   UNL     1     -14.246  14.267  72.574  1.00  0.00    -0.568 OA 
HETATM   30  C   UNL     1     -11.850  12.884  70.216  1.00  0.00    -0.291 A  
HETATM   31  C   UNL     1     -12.992  15.354  70.837  1.00  0.00    -0.539 A  
HETATM   32  H   UNL     1     -14.490  13.489  73.061  1.00  0.00     0.000 HD 
HETATM   33  C   UNL     1     -13.348  14.215  71.549  1.00  0.00    -0.351 A  
ENDBRANCH  25  26
BRANCH  25  34
HETATM   34  N   UNL     1     -10.909  14.661  67.194  1.00  0.00    -0.296 N  
HETATM   35  H   UNL     1     -10.555  15.600  67.012  1.00  0.00     0.000 HD 
BRANCH  34  36
HETATM   36  C   UNL     1     -11.817  14.121  66.325  1.00  0.00    -0.411 C  
HETATM   37  O   UNL     1     -12.936  14.609  66.188  1.00  0.00     0.095 OA 
BRANCH  36  38
HETATM   38  N   UNL     1     -11.387  13.010  65.611  1.00  0.00    -0.294 N  
HETATM   39  C   UNL     1     -11.086  13.184  64.193  1.00  0.00    -0.394 C  
HETATM   40  N   UNL     1      -9.930  11.033  64.173  1.00  0.00    -0.299 N  
HETATM   41  C   UNL     1      -9.835  12.430  63.786  1.00  0.00    -0.100 C  
HETATM   42  C   UNL     1     -10.378  10.705  65.450  1.00  0.00    -0.233 C  
HETATM   43  O   UNL     1     -11.909  11.378  67.165  1.00  0.00    -0.566 OA 
HETATM   44  C   UNL     1     -11.286  11.732  66.166  1.00  0.00    -0.306 C  
HETATM   45  O   UNL     1     -10.123   9.645  66.009  1.00  0.00    -0.283 OA 
BRANCH  40  46
HETATM   46  C   UNL     1      -9.346   9.998  63.327  1.00  0.00    -0.256 C  
HETATM   47  C   UNL     1      -7.831  10.007  63.282  1.00  0.00    -0.150 C  
ENDBRANCH  40  46
ENDBRANCH  36  38
ENDBRANCH  34  36
ENDBRANCH  25  34
ENDBRANCH  24  25
ENDBRANCH   6  21
TORSDOF 10
ENDMDL
MODEL      100
REMARK 921   NORMALIZED FREE ENERGY PREDICTED BY IDOCK:   -5.69 KCAL/MOL
REMARK 922        TOTAL FREE ENERGY PREDICTED BY IDOCK:  -11.31 KCAL/MOL
REMARK 923 INTER-LIGAND FREE ENERGY PREDICTED BY IDOCK:   -9.46 KCAL/MOL
REMARK 924 INTRA-LIGAND FREE ENERGY PREDICTED BY IDOCK:   -1.85 KCAL/MOL
REMARK 927      BINDING AFFINITY PREDICTED BY RF-SCORE:    0.00 PKD
ROOT
HETATM    1  C   UNL     1     -12.023  13.972  68.247  1.00  0.00    -0.349 C  
HETATM    2  S   UNL     1     -11.298  14.608  69.777  1.00  0.00    -0.268 SA 
HETATM    3  C   UNL     1     -11.297  16.320  69.200  1.00  0.00    -0.291 C  
HETATM    4  C   UNL     1     -10.759  16.532  67.789  1.00  0.00    -0.329 C  
HETATM    5  CA  UNL     1     -10.650  15.537  66.859  1.00  0.00    -0.307 C  
HETATM    6  CA  UNL     1     -11.738  12.457  67.949  1.00  0.00    -0.360 C  
HETATM    7  O   UNL     1     -10.607  12.672  65.583  1.00  0.00    -0.264 OA 
HETATM    8  N   UNL     1     -11.129  14.288  67.150  1.00  0.00    -0.302 N  
HETATM    9  C   UNL     1      -9.925  15.789  65.548  1.00  0.00    -0.306 C  
HETATM   10  OXT UNL     1      -9.192  16.747  65.352  1.00  0.00    -0.281 OA 
HETATM   11  O   UNL     1     -10.192  14.938  64.538  1.00  0.00    -0.104 OA 
HETATM   12  C   UNL     1     -11.062  13.034  66.644  1.00  0.00    -0.289 C  
ENDROOT
BRANCH   4  13
HETATM   13  C   UNL     1     -10.247  17.963  67.630  1.00  0.00    -0.365 C  
BRANCH  13  14
HETATM   14  S   UNL     1      -9.352  18.646  69.049  1.00  0.00    -0.077 SA 
BRANCH  14  15
HETATM   15  C   UNL     1      -7.837  17.842  69.028  1.00  0.00    -0.097 A  
HETATM   16  N   UNL     1      -7.598  16.562  68.873  1.00  0.00    -0.227 NA 
HETATM   17  C   UNL     1      -6.375  19.882  69.403  1.00  0.00    -0.339 C  
HETATM   18  N   UNL     1      -6.235  16.418  68.981  1.00  0.00    -0.149 NA 
HETATM   19  N   UNL     1      -6.646  18.486  69.212  1.00  0.00    -0.266 NA 
HETATM   20  N   UNL     1      -5.646  17.588  69.192  1.00  0.00    -0.178 NA 
ENDBRANCH  14  15
ENDBRANCH  13  14
ENDBRANCH   4  13
BRANCH   6  21
HETATM   21  N   UNL     1     -10.846  11.783  68.935  1.00  0.00    -0.223 N  
HETATM   22  H   UNL     1      -9.864  12.055  68.962  1.00  0.00     0.000 HD 
HETATM   23  O   UNL     1     -12.472  10.549  69.952  1.00  0.00    -0.260 OA 
HETATM   24  C   UNL     1     -11.279  10.811  69.813  1.00  0.00    -0.297 C  
BRANCH  24  25
HETATM   25  CA  UNL     1     -10.145   9.971  70.462  1.00  0.00    -0.026 C  
BRANCH  25  26
HETATM   26  C   UNL     1     -10.697   8.706  71.104  1.00  0.00    -0.303 A  
HETATM   27  C   UNL     1     -11.759   6.518  70.940  1.00  0.00    -0.416 A  
HETATM   28  C   UNL     1     -10.619   8.534  72.494  1.00  0.00    -0.308 A  
HETATM   29  O   UNL     1     -12.124   5.209  72.862  1.00  0.00    -0.408 OA 
HETATM   30  C   UNL     1     -11.273   7.678  70.333  1.00  0.00    -0.258 A  
HETATM   31  C   UNL     1     -11.100   7.369  73.101  1.00  0.00    -0.357 A  
HETATM   32  H   UNL     1     -12.506   4.525  72.326  1.00  0.00     0.000 HD 
HETATM   33  C   UNL     1     -11.660   6.368  72.316  1.00  0.00    -0.299 A  
ENDBRANCH  25  26
BRANCH  25  34
HETATM   34  N   UNL     1      -9.108   9.619  69.494  1.00  0.00    -0.184 N  
HETATM   35  H   UNL     1      -9.261   9.837  68.510  1.00  0.00     0.000 HD 
BRANCH  34  36
HETATM   36  C   UNL     1      -7.940   9.008  69.859  1.00  0.00    -0.103 C  
HETATM   37  O   UNL     1      -7.063   9.619  70.464  1.00  0.00    -0.115 OA 
BRANCH  36  38
HETATM   38  N   UNL     1      -7.824   7.667  69.515  1.00  0.00    -0.113 N  
HETATM   39  C   UNL     1      -8.122   7.286  68.138  1.00  0.00    -0.124 C  
HETATM   40  N   UNL     1      -7.051   5.122  68.504  1.00  0.00    -0.060 N  
HETATM   41  C   UNL     1      -7.134   6.264  67.611  1.00  0.00    -0.081 C  
HETATM   42  C   UNL     1      -6.944   5.332  69.876  1.00  0.00    -0.057 C  
HETATM   43  O   UNL     1      -7.660   6.780  71.645  1.00  0.00    -0.086 OA 
HETATM   44  C   UNL     1      -7.496   6.665  70.433  1.00  0.00    -0.090 C  
HETATM   45  O   UNL     1      -6.475   4.511  70.656  1.00  0.00    -0.028 OA 
BRANCH  40  46
HETATM   46  C   UNL     1      -6.849   3.782  67.963  1.00  0.00    -0.047 C  
HETATM   47  C   UNL     1      -7.069   3.672  66.466  1.00  0.00    -0.063 C  
ENDBRANCH  40  46
ENDBRANCH  36  38
ENDBRANCH  34  36
ENDBRANCH  25  34
ENDBRANCH  24  25
ENDBRANCH   6  21
TORSDOF 10
ENDMDL
MODEL      101
REMARK 921   NORMALIZED FREE ENERGY PREDICTED BY IDOCK:   -5.65 KCAL/MOL
REMARK 922        TOTAL FREE ENERGY PREDICTED BY IDOCK:  -11.25 KCAL/MOL
REMARK 923 INTER-LIGAND FREE ENERGY PREDICTED BY IDOCK:   -9.49 KCAL/MOL
REMARK 924 INTRA-LIGAND FREE ENERGY PREDICTED BY IDOCK:   -1.77 KCAL/MOL
REMARK 927      BINDING AFFINITY PREDICTED BY RF-SCORE:    0.00 PKD
ROOT
HETATM    1  C   UNL     1     -11.961  12.331  66.405  1.00  0.00    -0.209 C  
HETATM    2  S   UNL     1     -11.605  11.576  68.009  1.00  0.00    -0.276 SA 
HETATM    3  C   UNL     1     -12.126  13.033  68.941  1.00  0.00    -0.168 C  
HETATM    4  C   UNL     1     -11.583  14.363  68.428  1.00  0.00    -0.351 C  
HETATM    5  CA  UNL     1     -11.081  14.545  67.170  1.00  0.00    -0.321 C  
HETATM    6  CA  UNL     1     -11.169  11.729  65.190  1.00  0.00    -0.250 C  
HETATM    7  O   UNL     1      -9.998  13.909  64.297  1.00  0.00    -0.110 OA 
HETATM    8  N   UNL     1     -11.141  13.519  66.266  1.00  0.00    -0.299 N  
HETATM    9  C   UNL     1     -10.383  15.844  66.804  1.00  0.00    -0.298 C  
HETATM   10  OXT UNL     1      -9.996  16.661  67.627  1.00  0.00    -0.252 OA 
HETATM   11  O   UNL     1     -10.277  16.121  65.490  1.00  0.00    -0.414 OA 
HETATM   12  C   UNL     1     -10.625  13.205  65.054  1.00  0.00    -0.332 C  
ENDROOT
BRANCH   4  13
HETATM   13  C   UNL     1     -11.563  15.394  69.556  1.00  0.00    -0.332 C  
BRANCH  13  14
HETATM   14  S   UNL     1     -13.148  15.703  70.375  1.00  0.00     0.280 SA 
BRANCH  14  15
HETATM   15  C   UNL     1     -12.799  15.576  72.049  1.00  0.00    -0.420 A  
HETATM   16  N   UNL     1     -12.205  16.451  72.824  1.00  0.00    -0.487 NA 
HETATM   17  C   UNL     1     -13.758  13.255  72.411  1.00  0.00    -0.578 C  
HETATM   18  N   UNL     1     -12.121  15.859  74.063  1.00  0.00    -0.455 NA 
HETATM   19  N   UNL     1     -13.095  14.469  72.792  1.00  0.00    -0.467 NA 
HETATM   20  N   UNL     1     -12.659  14.647  74.052  1.00  0.00    -0.426 NA 
ENDBRANCH  14  15
ENDBRANCH  13  14
ENDBRANCH   4  13
BRANCH   6  21
HETATM   21  N   UNL     1     -10.182  10.672  65.549  1.00  0.00    -0.271 N  
HETATM   22  H   UNL     1     -10.324  10.153  66.415  1.00  0.00     0.000 HD 
HETATM   23  O   UNL     1      -8.938  10.821  63.644  1.00  0.00    -0.184 OA 
HETATM   24  C   UNL     1      -9.086  10.357  64.773  1.00  0.00    -0.213 C  
BRANCH  24  25
HETATM   25  CA  UNL     1      -7.991   9.529  65.500  1.00  0.00    -0.112 C  
BRANCH  25  26
HETATM   26  C   UNL     1      -7.586  10.186  66.812  1.00  0.00    -0.105 A  
HETATM   27  C   UNL     1      -7.025  12.160  68.126  1.00  0.00    -0.082 A  
HETATM   28  C   UNL     1      -7.430   9.405  67.967  1.00  0.00    -0.080 A  
HETATM   29  O   UNL     1      -6.566  11.984  70.428  1.00  0.00    -0.489 OA 
HETATM   30  C   UNL     1      -7.380  11.576  66.909  1.00  0.00    -0.140 A  
HETATM   31  C   UNL     1      -7.082   9.993  69.188  1.00  0.00    -0.069 A  
HETATM   32  H   UNL     1      -6.434  12.923  70.475  1.00  0.00     0.000 HD 
HETATM   33  C   UNL     1      -6.889  11.368  69.256  1.00  0.00    -0.119 A  
ENDBRANCH  25  26
BRANCH  25  34
HETATM   34  N   UNL     1      -8.425   8.156  65.751  1.00  0.00    -0.142 N  
HETATM   35  H   UNL     1      -9.017   7.969  66.560  1.00  0.00     0.000 HD 
BRANCH  34  36
HETATM   36  C   UNL     1      -8.069   7.114  64.941  1.00  0.00    -0.107 C  
HETATM   37  O   UNL     1      -7.671   7.303  63.795  1.00  0.00    -0.111 OA 
BRANCH  36  38
HETATM   38  N   UNL     1      -8.173   5.847  65.503  1.00  0.00    -0.131 N  
HETATM   39  C   UNL     1      -9.482   5.419  65.986  1.00  0.00    -0.146 C  
HETATM   40  N   UNL     1      -8.688   3.112  66.096  1.00  0.00    -0.124 N  
HETATM   41  C   UNL     1      -9.765   3.971  65.636  1.00  0.00    -0.192 C  
HETATM   42  C   UNL     1      -7.367   3.485  65.863  1.00  0.00    -0.076 C  
HETATM   43  O   UNL     1      -5.917   5.388  65.734  1.00  0.00    -0.024 OA 
HETATM   44  C   UNL     1      -7.080   4.994  65.680  1.00  0.00    -0.067 C  
HETATM   45  O   UNL     1      -6.432   2.694  65.833  1.00  0.00    -0.027 OA 
BRANCH  40  46
HETATM   46  C   UNL     1      -8.981   1.770  66.587  1.00  0.00    -0.096 C  
HETATM   47  C   UNL     1      -9.208   1.686  68.084  1.00  0.00    -0.218 C  
ENDBRANCH  40  46
ENDBRANCH  36  38
ENDBRANCH  34  36
ENDBRANCH  25  34
ENDBRANCH  24  25
ENDBRANCH   6  21
TORSDOF 10
ENDMDL
MODEL      102
REMARK 921   NORMALIZED FREE ENERGY PREDICTED BY IDOCK:   -5.63 KCAL/MOL
REMARK 922        TOTAL FREE ENERGY PREDICTED BY IDOCK:  -11.21 KCAL/MOL
REMARK 923 INTER-LIGAND FREE ENERGY PREDICTED BY IDOCK:   -8.87 KCAL/MOL
REMARK 924 INTRA-LIGAND FREE ENERGY PREDICTED BY IDOCK:   -2.34 KCAL/MOL
REMARK 927      BINDING AFFINITY PREDICTED BY RF-SCORE:    0.00 PKD
ROOT
HETATM    1  C   UNL     1     -10.447   8.894  67.445  1.00  0.00    -0.277 C  
HETATM    2  S   UNL     1     -10.506   9.994  68.880  1.00  0.00    -0.222 SA 
HETATM    3  C   UNL     1     -11.721  11.100  68.128  1.00  0.00    -0.232 C  
HETATM    4  C   UNL     1     -11.427  11.508  66.688  1.00  0.00    -0.205 C  
HETATM    5  CA  UNL     1     -10.573  10.831  65.864  1.00  0.00    -0.147 C  
HETATM    6  CA  UNL     1      -9.130   8.052  67.299  1.00  0.00    -0.135 C  
HETATM    7  O   UNL     1      -8.380   8.809  64.894  1.00  0.00    -0.153 OA 
HETATM    8  N   UNL     1     -10.005   9.663  66.297  1.00  0.00    -0.256 N  
HETATM    9  C   UNL     1     -10.187  11.412  64.515  1.00  0.00    -0.299 C  
HETATM   10  OXT UNL     1     -10.376  12.578  64.200  1.00  0.00    -0.358 OA 
HETATM   11  O   UNL     1      -9.690  10.549  63.607  1.00  0.00    -0.291 OA 
HETATM   12  C   UNL     1      -9.015   8.818  65.923  1.00  0.00    -0.195 C  
ENDROOT
BRANCH   4  13
HETATM   13  C   UNL     1     -12.113  12.836  66.367  1.00  0.00    -0.300 C  
BRANCH  13  14
HETATM   14  S   UNL     1     -11.345  14.315  67.073  1.00  0.00    -0.356 SA 
BRANCH  14  15
HETATM   15  C   UNL     1     -11.361  15.459  65.795  1.00  0.00    -0.115 A  
HETATM   16  N   UNL     1     -11.771  15.293  64.561  1.00  0.00    -0.368 NA 
HETATM   17  C   UNL     1     -10.360  17.405  67.080  1.00  0.00    -0.325 C  
HETATM   18  N   UNL     1     -11.532  16.486  63.922  1.00  0.00    -1.052 NA 
HETATM   19  N   UNL     1     -10.893  16.735  65.928  1.00  0.00    -0.135 NA 
HETATM   20  N   UNL     1     -10.993  17.372  64.748  1.00  0.00    -0.851 NA 
ENDBRANCH  14  15
ENDBRANCH  13  14
ENDBRANCH   4  13
BRANCH   6  21
HETATM   21  N   UNL     1      -8.088   8.338  68.325  1.00  0.00    -0.122 N  
HETATM   22  H   UNL     1      -8.302   9.020  69.052  1.00  0.00     0.000 HD 
HETATM   23  O   UNL     1      -6.582   6.786  67.604  1.00  0.00    -0.053 OA 
HETATM   24  C   UNL     1      -6.850   7.730  68.344  1.00  0.00    -0.067 C  
BRANCH  24  25
HETATM   25  CA  UNL     1      -5.790   8.441  69.231  1.00  0.00    -0.034 C  
BRANCH  25  26
HETATM   26  C   UNL     1      -5.724   9.929  68.920  1.00  0.00    -0.035 A  
HETATM   27  C   UNL     1      -5.492  11.772  67.342  1.00  0.00    -0.094 A  
HETATM   28  C   UNL     1      -5.875  10.867  69.953  1.00  0.00    -0.077 A  
HETATM   29  O   UNL     1      -5.633  14.007  68.071  1.00  0.00    -0.116 OA 
HETATM   30  C   UNL     1      -5.533  10.402  67.608  1.00  0.00    -0.044 A  
HETATM   31  C   UNL     1      -5.840  12.240  69.685  1.00  0.00    -0.111 A  
HETATM   32  H   UNL     1      -5.507  14.307  67.179  1.00  0.00     0.000 HD 
HETATM   33  C   UNL     1      -5.655  12.679  68.380  1.00  0.00    -0.060 A  
ENDBRANCH  25  26
BRANCH  25  34
HETATM   34  N   UNL     1      -6.057   8.247  70.654  1.00  0.00    -0.032 N  
HETATM   35  H   UNL     1      -6.057   9.061  71.269  1.00  0.00     0.000 HD 
BRANCH  34  36
HETATM   36  C   UNL     1      -6.305   7.015  71.194  1.00  0.00    -0.041 C  
HETATM   37  O   UNL     1      -5.405   6.194  71.349  1.00  0.00    -0.020 OA 
BRANCH  36  38
HETATM   38  N   UNL     1      -7.622   6.768  71.563  1.00  0.00    -0.087 N  
HETATM   39  C   UNL     1      -8.143   7.457  72.738  1.00  0.00    -0.104 C  
HETATM   40  N   UNL     1     -10.418   6.860  72.083  1.00  0.00    -0.204 N  
HETATM   41  C   UNL     1      -9.561   7.947  72.521  1.00  0.00    -0.216 C  
HETATM   42  C   UNL     1      -9.974   6.000  71.081  1.00  0.00    -0.186 C  
HETATM   43  O   UNL     1      -8.013   4.925  70.221  1.00  0.00    -0.068 OA 
HETATM   44  C   UNL     1      -8.445   5.853  70.901  1.00  0.00    -0.127 C  
HETATM   45  O   UNL     1     -10.722   5.337  70.372  1.00  0.00    -0.250 OA 
BRANCH  40  46
HETATM   46  C   UNL     1     -11.810   6.805  72.514  1.00  0.00    -0.106 C  
HETATM   47  C   UNL     1     -12.649   7.988  72.072  1.00  0.00    -0.346 C  
ENDBRANCH  40  46
ENDBRANCH  36  38
ENDBRANCH  34  36
ENDBRANCH  25  34
ENDBRANCH  24  25
ENDBRANCH   6  21
TORSDOF 10
ENDMDL
MODEL      103
REMARK 921   NORMALIZED FREE ENERGY PREDICTED BY IDOCK:   -5.63 KCAL/MOL
REMARK 922        TOTAL FREE ENERGY PREDICTED BY IDOCK:  -11.21 KCAL/MOL
REMARK 923 INTER-LIGAND FREE ENERGY PREDICTED BY IDOCK:   -9.39 KCAL/MOL
REMARK 924 INTRA-LIGAND FREE ENERGY PREDICTED BY IDOCK:   -1.82 KCAL/MOL
REMARK 927      BINDING AFFINITY PREDICTED BY RF-SCORE:    0.00 PKD
ROOT
HETATM    1  C   UNL     1     -10.538  13.169  68.701  1.00  0.00    -0.239 C  
HETATM    2  S   UNL     1      -8.785  12.792  68.941  1.00  0.00     0.470 SA 
HETATM    3  C   UNL     1      -8.240  14.422  68.384  1.00  0.00    -0.145 C  
HETATM    4  C   UNL     1      -8.889  14.921  67.096  1.00  0.00    -0.235 C  
HETATM    5  CA  UNL     1     -10.055  14.421  66.589  1.00  0.00    -0.274 C  
HETATM    6  CA  UNL     1     -11.469  11.922  68.490  1.00  0.00    -0.295 C  
HETATM    7  O   UNL     1     -12.535  12.548  66.168  1.00  0.00    -0.522 OA 
HETATM    8  N   UNL     1     -10.751  13.482  67.301  1.00  0.00    -0.266 N  
HETATM    9  C   UNL     1     -10.529  14.835  65.207  1.00  0.00    -0.404 C  
HETATM   10  OXT UNL     1      -9.817  15.393  64.385  1.00  0.00     0.364 OA 
HETATM   11  O   UNL     1     -11.835  14.642  64.934  1.00  0.00    -0.381 OA 
HETATM   12  C   UNL     1     -11.779  12.621  67.110  1.00  0.00    -0.371 C  
ENDROOT
BRANCH   4  13
HETATM   13  C   UNL     1      -7.983  15.944  66.412  1.00  0.00    -0.090 C  
BRANCH  13  14
HETATM   14  S   UNL     1      -7.623  17.443  67.362  1.00  0.00    -0.195 SA 
BRANCH  14  15
HETATM   15  C   UNL     1      -8.899  18.519  66.964  1.00  0.00    -0.278 A  
HETATM   16  N   UNL     1     -10.176  18.400  67.236  1.00  0.00    -0.356 NA 
HETATM   17  C   UNL     1      -7.503  20.251  65.744  1.00  0.00    -0.183 C  
HETATM   18  N   UNL     1     -10.785  19.492  66.664  1.00  0.00    -0.461 NA 
HETATM   19  N   UNL     1      -8.712  19.670  66.253  1.00  0.00    -0.366 NA 
HETATM   20  N   UNL     1      -9.899  20.272  66.059  1.00  0.00    -0.354 NA 
ENDBRANCH  14  15
ENDBRANCH  13  14
ENDBRANCH   4  13
BRANCH   6  21
HETATM   21  N   UNL     1     -10.759  10.612  68.444  1.00  0.00    -0.206 N  
HETATM   22  H   UNL     1     -10.445  10.265  67.538  1.00  0.00     0.000 HD 
HETATM   23  O   UNL     1     -10.703  10.268  70.697  1.00  0.00    -0.258 OA 
HETATM   24  C   UNL     1     -10.503   9.844  69.561  1.00  0.00    -0.241 C  
BRANCH  24  25
HETATM   25  CA  UNL     1     -10.122   8.368  69.261  1.00  0.00    -0.202 C  
BRANCH  25  26
HETATM   26  C   UNL     1     -10.378   7.479  70.470  1.00  0.00    -0.217 A  
HETATM   27  C   UNL     1      -9.639   6.430  72.542  1.00  0.00    -0.154 A  
HETATM   28  C   UNL     1     -11.640   6.895  70.655  1.00  0.00    -0.402 A  
HETATM   29  O   UNL     1     -11.116   5.115  73.820  1.00  0.00    -0.373 OA 
HETATM   30  C   UNL     1      -9.379   7.236  71.432  1.00  0.00    -0.153 A  
HETATM   31  C   UNL     1     -11.903   6.094  71.772  1.00  0.00    -0.279 A  
HETATM   32  H   UNL     1     -10.431   4.965  74.460  1.00  0.00     0.000 HD 
HETATM   33  C   UNL     1     -10.899   5.874  72.709  1.00  0.00    -0.252 A  
ENDBRANCH  25  26
BRANCH  25  34
HETATM   34  N   UNL     1     -10.845   7.845  68.104  1.00  0.00    -0.441 N  
HETATM   35  H   UNL     1     -11.837   7.628  68.202  1.00  0.00     0.000 HD 
BRANCH  34  36
HETATM   36  C   UNL     1     -10.242   7.635  66.895  1.00  0.00    -0.294 C  
HETATM   37  O   UNL     1     -10.225   8.508  66.031  1.00  0.00    -0.068 OA 
BRANCH  36  38
HETATM   38  N   UNL     1      -9.648   6.391  66.721  1.00  0.00    -0.151 N  
HETATM   39  C   UNL     1     -10.514   5.218  66.691  1.00  0.00    -0.290 C  
HETATM   40  N   UNL     1      -8.685   3.888  65.771  1.00  0.00    -0.111 N  
HETATM   41  C   UNL     1     -10.088   4.231  65.622  1.00  0.00    -0.219 C  
HETATM   42  C   UNL     1      -7.752   4.899  65.988  1.00  0.00    -0.091 C  
HETATM   43  O   UNL     1      -7.448   7.010  67.080  1.00  0.00    -0.090 OA 
HETATM   44  C   UNL     1      -8.265   6.207  66.635  1.00  0.00    -0.110 C  
HETATM   45  O   UNL     1      -6.559   4.792  65.730  1.00  0.00    -0.042 OA 
BRANCH  40  46
HETATM   46  C   UNL     1      -8.224   2.538  65.466  1.00  0.00    -0.086 C  
HETATM   47  C   UNL     1      -8.165   2.215  63.986  1.00  0.00    -0.081 C  
ENDBRANCH  40  46
ENDBRANCH  36  38
ENDBRANCH  34  36
ENDBRANCH  25  34
ENDBRANCH  24  25
ENDBRANCH   6  21
TORSDOF 10
ENDMDL
MODEL      104
REMARK 921   NORMALIZED FREE ENERGY PREDICTED BY IDOCK:   -5.61 KCAL/MOL
REMARK 922        TOTAL FREE ENERGY PREDICTED BY IDOCK:  -11.19 KCAL/MOL
REMARK 923 INTER-LIGAND FREE ENERGY PREDICTED BY IDOCK:   -9.19 KCAL/MOL
REMARK 924 INTRA-LIGAND FREE ENERGY PREDICTED BY IDOCK:   -2.00 KCAL/MOL
REMARK 927      BINDING AFFINITY PREDICTED BY RF-SCORE:    0.00 PKD
ROOT
HETATM    1  C   UNL     1      -8.436   9.600  70.089  1.00  0.00    -0.204 C  
HETATM    2  S   UNL     1      -7.708   9.064  68.523  1.00  0.00    -0.098 SA 
HETATM    3  C   UNL     1      -7.960  10.665  67.725  1.00  0.00    -0.110 C  
HETATM    4  C   UNL     1      -9.344  11.278  67.916  1.00  0.00    -0.161 C  
HETATM    5  CA  UNL     1     -10.211  10.904  68.903  1.00  0.00    -0.198 C  
HETATM    6  CA  UNL     1      -9.004   8.449  70.994  1.00  0.00    -0.165 C  
HETATM    7  O   UNL     1     -11.488   9.273  71.258  1.00  0.00    -0.290 OA 
HETATM    8  N   UNL     1      -9.809   9.996  69.845  1.00  0.00    -0.239 N  
HETATM    9  C   UNL     1     -11.639  11.422  68.905  1.00  0.00    -0.323 C  
HETATM   10  OXT UNL     1     -12.168  11.955  67.940  1.00  0.00    -0.508 OA 
HETATM   11  O   UNL     1     -12.303  11.355  70.076  1.00  0.00    -0.282 OA 
HETATM   12  C   UNL     1     -10.361   9.237  70.821  1.00  0.00    -0.281 C  
ENDROOT
BRANCH   4  13
HETATM   13  C   UNL     1      -9.650  12.251  66.778  1.00  0.00    -0.218 C  
BRANCH  13  14
HETATM   14  S   UNL     1      -9.671  11.540  65.113  1.00  0.00    -0.218 SA 
BRANCH  14  15
HETATM   15  C   UNL     1     -11.051  12.233  64.367  1.00  0.00    -0.330 A  
HETATM   16  N   UNL     1     -11.994  11.631  63.683  1.00  0.00    -0.364 NA 
HETATM   17  C   UNL     1     -10.599  14.645  65.012  1.00  0.00    -0.439 C  
HETATM   18  N   UNL     1     -12.842  12.626  63.257  1.00  0.00    -0.594 NA 
HETATM   19  N   UNL     1     -11.316  13.573  64.382  1.00  0.00    -0.376 NA 
HETATM   20  N   UNL     1     -12.434  13.816  63.677  1.00  0.00    -0.781 NA 
ENDBRANCH  14  15
ENDBRANCH  13  14
ENDBRANCH   4  13
BRANCH   6  21
HETATM   21  N   UNL     1      -8.928   7.087  70.393  1.00  0.00    -0.155 N  
HETATM   22  H   UNL     1      -9.348   6.940  69.476  1.00  0.00     0.000 HD 
HETATM   23  O   UNL     1      -7.654   6.151  72.036  1.00  0.00    -0.094 OA 
HETATM   24  C   UNL     1      -8.320   6.014  71.012  1.00  0.00    -0.124 C  
BRANCH  24  25
HETATM   25  CA  UNL     1      -8.690   4.627  70.419  1.00  0.00    -0.089 C  
BRANCH  25  26
HETATM   26  C   UNL     1      -9.450   3.782  71.432  1.00  0.00    -0.225 A  
HETATM   27  C   UNL     1      -9.899   1.650  72.525  1.00  0.00    -0.170 A  
HETATM   28  C   UNL     1     -10.411   4.380  72.262  1.00  0.00    -0.230 A  
HETATM   29  O   UNL     1     -11.474   1.499  74.269  1.00  0.00    -0.101 OA 
HETATM   30  C   UNL     1      -9.202   2.404  71.579  1.00  0.00    -0.176 A  
HETATM   31  C   UNL     1     -11.104   3.626  73.215  1.00  0.00    -0.252 A  
HETATM   32  H   UNL     1     -11.290   0.571  74.355  1.00  0.00     0.000 HD 
HETATM   33  C   UNL     1     -10.836   2.268  73.342  1.00  0.00    -0.175 A  
ENDBRANCH  25  26
BRANCH  25  34
HETATM   34  N   UNL     1      -9.477   4.753  69.195  1.00  0.00    -0.136 N  
HETATM   35  H   UNL     1     -10.281   5.381  69.190  1.00  0.00     0.000 HD 
BRANCH  34  36
HETATM   36  C   UNL     1      -9.177   4.060  68.054  1.00  0.00    -0.154 C  
HETATM   37  O   UNL     1      -9.539   2.896  67.901  1.00  0.00    -0.195 OA 
BRANCH  36  38
HETATM   38  N   UNL     1      -8.460   4.759  67.091  1.00  0.00    -0.106 N  
HETATM   39  C   UNL     1      -9.195   5.312  65.959  1.00  0.00    -0.157 C  
HETATM   40  N   UNL     1      -7.273   6.707  65.389  1.00  0.00    -0.071 N  
HETATM   41  C   UNL     1      -8.710   6.703  65.598  1.00  0.00    -0.082 C  
HETATM   42  C   UNL     1      -6.447   6.057  66.303  1.00  0.00    -0.046 C  
HETATM   43  O   UNL     1      -6.326   4.143  67.739  1.00  0.00    -0.035 OA 
HETATM   44  C   UNL     1      -7.070   4.904  67.125  1.00  0.00    -0.066 C  
HETATM   45  O   UNL     1      -5.261   6.324  66.459  1.00  0.00    -0.011 OA 
BRANCH  40  46
HETATM   46  C   UNL     1      -6.683   7.571  64.373  1.00  0.00    -0.048 C  
HETATM   47  C   UNL     1      -7.533   8.771  64.002  1.00  0.00    -0.116 C  
ENDBRANCH  40  46
ENDBRANCH  36  38
ENDBRANCH  34  36
ENDBRANCH  25  34
ENDBRANCH  24  25
ENDBRANCH   6  21
TORSDOF 10
ENDMDL
MODEL      105
REMARK 921   NORMALIZED FREE ENERGY PREDICTED BY IDOCK:   -5.59 KCAL/MOL
REMARK 922        TOTAL FREE ENERGY PREDICTED BY IDOCK:  -11.15 KCAL/MOL
REMARK 923 INTER-LIGAND FREE ENERGY PREDICTED BY IDOCK:   -8.84 KCAL/MOL
REMARK 924 INTRA-LIGAND FREE ENERGY PREDICTED BY IDOCK:   -2.31 KCAL/MOL
REMARK 927      BINDING AFFINITY PREDICTED BY RF-SCORE:    0.00 PKD
ROOT
HETATM    1  C   UNL     1      -8.619   8.966  71.166  1.00  0.00    -0.208 C  
HETATM    2  S   UNL     1      -8.030   8.579  69.500  1.00  0.00    -0.107 SA 
HETATM    3  C   UNL     1      -8.633  10.132  68.801  1.00  0.00    -0.133 C  
HETATM    4  C   UNL     1     -10.059  10.511  69.191  1.00  0.00    -0.240 C  
HETATM    5  CA  UNL     1     -10.719   9.987  70.266  1.00  0.00    -0.309 C  
HETATM    6  CA  UNL     1      -8.874   7.725  72.092  1.00  0.00    -0.133 C  
HETATM    7  O   UNL     1     -11.400   8.134  72.703  1.00  0.00    -0.380 OA 
HETATM    8  N   UNL     1     -10.058   9.140  71.114  1.00  0.00    -0.294 N  
HETATM    9  C   UNL     1     -12.197  10.269  70.470  1.00  0.00    -0.301 C  
HETATM   10  OXT UNL     1     -12.926  10.725  69.601  1.00  0.00    -0.137 OA 
HETATM   11  O   UNL     1     -12.682  10.077  71.712  1.00  0.00    -0.383 OA 
HETATM   12  C   UNL     1     -10.349   8.287  72.124  1.00  0.00    -0.300 C  
ENDROOT
BRANCH   4  13
HETATM   13  C   UNL     1     -10.662  11.441  68.137  1.00  0.00    -0.202 C  
BRANCH  13  14
HETATM   14  S   UNL     1     -10.115  11.167  66.433  1.00  0.00    -0.234 SA 
BRANCH  14  15
HETATM   15  C   UNL     1     -11.345  11.874  65.469  1.00  0.00    -0.277 A  
HETATM   16  N   UNL     1     -12.464  12.434  65.861  1.00  0.00    -0.462 NA 
HETATM   17  C   UNL     1     -10.279  11.443  63.206  1.00  0.00    -0.385 C  
HETATM   18  N   UNL     1     -13.124  12.799  64.711  1.00  0.00    -0.836 NA 
HETATM   19  N   UNL     1     -11.299  11.906  64.104  1.00  0.00    -0.368 NA 
HETATM   20  N   UNL     1     -12.421  12.478  63.633  1.00  0.00    -0.699 NA 
ENDBRANCH  14  15
ENDBRANCH  13  14
ENDBRANCH   4  13
BRANCH   6  21
HETATM   21  N   UNL     1      -8.665   6.402  71.437  1.00  0.00    -0.131 N  
HETATM   22  H   UNL     1      -9.407   6.037  70.840  1.00  0.00     0.000 HD 
HETATM   23  O   UNL     1      -6.527   6.089  72.163  1.00  0.00    -0.054 OA 
HETATM   24  C   UNL     1      -7.523   5.645  71.596  1.00  0.00    -0.093 C  
BRANCH  24  25
HETATM   25  CA  UNL     1      -7.663   4.159  71.166  1.00  0.00    -0.066 C  
BRANCH  25  26
HETATM   26  C   UNL     1      -8.680   3.431  72.033  1.00  0.00    -0.117 A  
HETATM   27  C   UNL     1      -9.730   3.006  74.191  1.00  0.00    -0.139 A  
HETATM   28  C   UNL     1      -9.561   2.506  71.452  1.00  0.00    -0.225 A  
HETATM   29  O   UNL     1     -11.527   1.496  74.381  1.00  0.00    -0.053 OA 
HETATM   30  C   UNL     1      -8.779   3.673  73.417  1.00  0.00    -0.086 A  
HETATM   31  C   UNL     1     -10.519   1.843  72.228  1.00  0.00    -0.165 A  
HETATM   32  H   UNL     1     -11.581   1.676  75.311  1.00  0.00     0.000 HD 
HETATM   33  C   UNL     1     -10.598   2.106  73.591  1.00  0.00    -0.141 A  
ENDBRANCH  25  26
BRANCH  25  34
HETATM   34  N   UNL     1      -8.038   4.034  69.759  1.00  0.00    -0.055 N  
HETATM   35  H   UNL     1      -9.022   3.909  69.522  1.00  0.00     0.000 HD 
BRANCH  34  36
HETATM   36  C   UNL     1      -7.119   4.079  68.747  1.00  0.00    -0.054 C  
HETATM   37  O   UNL     1      -6.059   3.462  68.821  1.00  0.00    -0.026 OA 
BRANCH  36  38
HETATM   38  N   UNL     1      -7.469   4.845  67.643  1.00  0.00    -0.078 N  
HETATM   39  C   UNL     1      -6.639   6.001  67.322  1.00  0.00    -0.052 C  
HETATM   40  N   UNL     1      -7.669   6.131  65.112  1.00  0.00    -0.091 N  
HETATM   41  C   UNL     1      -6.407   6.130  65.829  1.00  0.00    -0.038 C  
HETATM   42  C   UNL     1      -8.642   5.188  65.437  1.00  0.00    -0.146 C  
HETATM   43  O   UNL     1      -9.581   3.974  67.277  1.00  0.00    -0.188 OA 
HETATM   44  C   UNL     1      -8.605   4.599  66.866  1.00  0.00    -0.104 C  
HETATM   45  O   UNL     1      -9.532   4.836  64.672  1.00  0.00    -0.105 OA 
BRANCH  40  46
HETATM   46  C   UNL     1      -7.832   6.949  63.915  1.00  0.00    -0.107 C  
HETATM   47  C   UNL     1      -7.735   8.442  64.160  1.00  0.00    -0.137 C  
ENDBRANCH  40  46
ENDBRANCH  36  38
ENDBRANCH  34  36
ENDBRANCH  25  34
ENDBRANCH  24  25
ENDBRANCH   6  21
TORSDOF 10
ENDMDL
MODEL      106
REMARK 921   NORMALIZED FREE ENERGY PREDICTED BY IDOCK:   -5.58 KCAL/MOL
REMARK 922        TOTAL FREE ENERGY PREDICTED BY IDOCK:  -11.14 KCAL/MOL
REMARK 923 INTER-LIGAND FREE ENERGY PREDICTED BY IDOCK:   -9.71 KCAL/MOL
REMARK 924 INTRA-LIGAND FREE ENERGY PREDICTED BY IDOCK:   -1.43 KCAL/MOL
REMARK 927      BINDING AFFINITY PREDICTED BY RF-SCORE:    0.00 PKD
ROOT
HETATM    1  C   UNL     1     -11.657  11.576  66.732  1.00  0.00    -0.051 C  
HETATM    2  S   UNL     1     -10.031  11.035  66.155  1.00  0.00    -0.240 SA 
HETATM    3  C   UNL     1     -10.172   9.405  66.922  1.00  0.00    -0.248 C  
HETATM    4  C   UNL     1     -10.665   9.405  68.365  1.00  0.00    -0.213 C  
HETATM    5  CA  UNL     1     -11.328  10.451  68.943  1.00  0.00    -0.219 C  
HETATM    6  CA  UNL     1     -11.847  13.130  66.843  1.00  0.00    -0.386 C  
HETATM    7  O   UNL     1     -12.522  13.318  69.379  1.00  0.00    -0.122 OA 
HETATM    8  N   UNL     1     -11.665  11.537  68.182  1.00  0.00    -0.306 N  
HETATM    9  C   UNL     1     -11.611  10.449  70.436  1.00  0.00    -0.337 C  
HETATM   10  OXT UNL     1     -11.062   9.697  71.228  1.00  0.00    -0.346 OA 
HETATM   11  O   UNL     1     -12.586  11.273  70.865  1.00  0.00    -0.363 OA 
HETATM   12  C   UNL     1     -12.118  12.801  68.363  1.00  0.00    -0.101 C  
ENDROOT
BRANCH   4  13
HETATM   13  C   UNL     1     -10.191   8.141  69.083  1.00  0.00    -0.214 C  
BRANCH  13  14
HETATM   14  S   UNL     1     -11.308   6.718  68.999  1.00  0.00     0.005 SA 
BRANCH  14  15
HETATM   15  C   UNL     1     -11.604   6.308  70.638  1.00  0.00    -0.281 A  
HETATM   16  N   UNL     1     -12.528   6.780  71.439  1.00  0.00    -0.356 NA 
HETATM   17  C   UNL     1      -9.732   4.614  70.899  1.00  0.00    -0.192 C  
HETATM   18  N   UNL     1     -12.317   6.173  72.654  1.00  0.00     0.061 NA 
HETATM   19  N   UNL     1     -10.844   5.411  71.333  1.00  0.00    -0.189 NA 
HETATM   20  N   UNL     1     -11.289   5.337  72.600  1.00  0.00    -0.257 NA 
ENDBRANCH  14  15
ENDBRANCH  13  14
ENDBRANCH   4  13
BRANCH   6  21
HETATM   21  N   UNL     1     -10.631  13.933  66.528  1.00  0.00    -0.277 N  
HETATM   22  H   UNL     1      -9.743  13.642  66.936  1.00  0.00     0.000 HD 
HETATM   23  O   UNL     1     -11.636  15.359  65.061  1.00  0.00    -0.291 OA 
HETATM   24  C   UNL     1     -10.643  15.047  65.715  1.00  0.00    -0.339 C  
BRANCH  24  25
HETATM   25  CA  UNL     1      -9.385  15.951  65.832  1.00  0.00    -0.318 C  
BRANCH  25  26
HETATM   26  C   UNL     1      -9.624  17.100  66.802  1.00  0.00    -0.279 A  
HETATM   27  C   UNL     1     -10.044  19.458  67.254  1.00  0.00    -0.497 A  
HETATM   28  C   UNL     1      -9.684  16.852  68.181  1.00  0.00    -0.254 A  
HETATM   29  O   UNL     1     -10.366  20.222  69.458  1.00  0.00    -0.474 OA 
HETATM   30  C   UNL     1      -9.810  18.421  66.350  1.00  0.00    -0.369 A  
HETATM   31  C   UNL     1      -9.926  17.890  69.087  1.00  0.00    -0.199 A  
HETATM   32  H   UNL     1     -10.492  21.106  69.134  1.00  0.00     0.000 HD 
HETATM   33  C   UNL     1     -10.110  19.184  68.613  1.00  0.00    -0.398 A  
ENDBRANCH  25  26
BRANCH  25  34
HETATM   34  N   UNL     1      -8.209  15.192  66.250  1.00  0.00    -0.243 N  
HETATM   35  H   UNL     1      -8.163  14.197  66.031  1.00  0.00     0.000 HD 
BRANCH  34  36
HETATM   36  C   UNL     1      -7.166  15.765  66.925  1.00  0.00    -0.093 C  
HETATM   37  O   UNL     1      -6.775  16.897  66.651  1.00  0.00    -0.207 OA 
BRANCH  36  38
HETATM   38  N   UNL     1      -6.601  14.996  67.934  1.00  0.00    -0.144 N  
HETATM   39  C   UNL     1      -5.800  15.678  68.946  1.00  0.00    -0.103 C  
HETATM   40  N   UNL     1      -5.903  13.695  70.367  1.00  0.00    -0.153 N  
HETATM   41  C   UNL     1      -6.071  15.137  70.336  1.00  0.00    -0.095 C  
HETATM   42  C   UNL     1      -6.465  12.918  69.357  1.00  0.00    -0.091 C  
HETATM   43  O   UNL     1      -6.955  12.904  67.011  1.00  0.00    -0.028 OA 
HETATM   44  C   UNL     1      -6.711  13.604  67.992  1.00  0.00    -0.141 C  
HETATM   45  O   UNL     1      -6.736  11.730  69.482  1.00  0.00    -0.112 OA 
BRANCH  40  46
HETATM   46  C   UNL     1      -5.358  13.046  71.554  1.00  0.00    -0.117 C  
HETATM   47  C   UNL     1      -5.467  13.869  72.823  1.00  0.00    -0.128 C  
ENDBRANCH  40  46
ENDBRANCH  36  38
ENDBRANCH  34  36
ENDBRANCH  25  34
ENDBRANCH  24  25
ENDBRANCH   6  21
TORSDOF 10
ENDMDL
MODEL      107
REMARK 921   NORMALIZED FREE ENERGY PREDICTED BY IDOCK:   -5.55 KCAL/MOL
REMARK 922        TOTAL FREE ENERGY PREDICTED BY IDOCK:  -11.09 KCAL/MOL
REMARK 923 INTER-LIGAND FREE ENERGY PREDICTED BY IDOCK:  -10.38 KCAL/MOL
REMARK 924 INTRA-LIGAND FREE ENERGY PREDICTED BY IDOCK:   -0.70 KCAL/MOL
REMARK 927      BINDING AFFINITY PREDICTED BY RF-SCORE:    0.00 PKD
ROOT
HETATM    1  C   UNL     1     -11.724  13.253  67.541  1.00  0.00    -0.366 C  
HETATM    2  S   UNL     1     -10.076  13.469  68.255  1.00  0.00    -0.248 SA 
HETATM    3  C   UNL     1     -10.164  15.272  68.206  1.00  0.00    -0.226 C  
HETATM    4  C   UNL     1     -10.664  15.865  66.892  1.00  0.00    -0.289 C  
HETATM    5  CA  UNL     1     -11.366  15.158  65.957  1.00  0.00    -0.221 C  
HETATM    6  CA  UNL     1     -11.969  11.880  66.821  1.00  0.00     0.096 C  
HETATM    7  O   UNL     1     -12.662  12.742  64.435  1.00  0.00    -0.654 OA 
HETATM    8  N   UNL     1     -11.737  13.868  66.227  1.00  0.00    -0.365 N  
HETATM    9  C   UNL     1     -11.655  15.765  64.595  1.00  0.00    -0.218 C  
HETATM   10  OXT UNL     1     -11.084  16.754  64.159  1.00  0.00    -1.061 OA 
HETATM   11  O   UNL     1     -12.661  15.212  63.890  1.00  0.00    -0.759 OA 
HETATM   12  C   UNL     1     -12.235  12.797  65.565  1.00  0.00    -0.463 C  
ENDROOT
BRANCH   4  13
HETATM   13  C   UNL     1     -10.150  17.295  66.731  1.00  0.00    -0.302 C  
BRANCH  13  14
HETATM   14  S   UNL     1      -8.633  17.698  67.635  1.00  0.00    -0.227 SA 
BRANCH  14  15
HETATM   15  C   UNL     1      -7.593  18.373  66.450  1.00  0.00    -0.252 A  
HETATM   16  N   UNL     1      -7.058  17.783  65.408  1.00  0.00    -0.254 NA 
HETATM   17  C   UNL     1      -7.479  20.720  67.408  1.00  0.00    -0.324 C  
HETATM   18  N   UNL     1      -6.269  18.734  64.803  1.00  0.00    -0.463 NA 
HETATM   19  N   UNL     1      -7.162  19.669  66.484  1.00  0.00    -0.218 NA 
HETATM   20  N   UNL     1      -6.325  19.888  65.455  1.00  0.00    -0.233 NA 
ENDBRANCH  14  15
ENDBRANCH  13  14
ENDBRANCH   4  13
BRANCH   6  21
HETATM   21  N   UNL     1     -10.780  10.981  66.768  1.00  0.00    -0.267 N  
HETATM   22  H   UNL     1     -10.353  10.694  67.648  1.00  0.00     0.000 HD 
HETATM   23  O   UNL     1     -10.780  10.687  64.507  1.00  0.00    -0.236 OA 
HETATM   24  C   UNL     1     -10.227  10.519  65.591  1.00  0.00    -0.246 C  
BRANCH  24  25
HETATM   25  CA  UNL     1      -8.793   9.939  65.732  1.00  0.00    -0.147 C  
BRANCH  25  26
HETATM   26  C   UNL     1      -8.379   9.845  67.193  1.00  0.00    -0.121 A  
HETATM   27  C   UNL     1      -8.591   8.857  69.411  1.00  0.00    -0.133 A  
HETATM   28  C   UNL     1      -7.347  10.658  67.683  1.00  0.00    -0.090 A  
HETATM   29  O   UNL     1      -7.179   9.532  71.170  1.00  0.00    -0.304 OA 
HETATM   30  C   UNL     1      -8.996   8.939  68.078  1.00  0.00    -0.140 A  
HETATM   31  C   UNL     1      -6.936  10.570  69.018  1.00  0.00    -0.076 A  
HETATM   32  H   UNL     1      -7.604   8.913  71.751  1.00  0.00     0.000 HD 
HETATM   33  C   UNL     1      -7.559   9.664  69.868  1.00  0.00    -0.138 A  
ENDBRANCH  25  26
BRANCH  25  34
HETATM   34  N   UNL     1      -8.674   8.626  65.101  1.00  0.00    -0.301 N  
HETATM   35  H   UNL     1      -9.516   8.178  64.737  1.00  0.00     0.000 HD 
BRANCH  34  36
HETATM   36  C   UNL     1      -7.478   7.975  64.981  1.00  0.00    -0.087 C  
HETATM   37  O   UNL     1      -6.438   8.588  64.756  1.00  0.00    -0.064 OA 
BRANCH  36  38
HETATM   38  N   UNL     1      -7.519   6.595  65.143  1.00  0.00    -0.081 N  
HETATM   39  C   UNL     1      -7.298   6.058  66.481  1.00  0.00    -0.081 C  
HETATM   40  N   UNL     1      -8.173   3.895  65.759  1.00  0.00    -0.104 N  
HETATM   41  C   UNL     1      -8.244   4.914  66.792  1.00  0.00    -0.107 C  
HETATM   42  C   UNL     1      -8.193   4.276  64.420  1.00  0.00    -0.098 C  
HETATM   43  O   UNL     1      -7.456   5.986  62.912  1.00  0.00    -0.054 OA 
HETATM   44  C   UNL     1      -7.702   5.703  64.083  1.00  0.00    -0.098 C  
HETATM   45  O   UNL     1      -8.539   3.535  63.507  1.00  0.00    -0.090 OA 
BRANCH  40  46
HETATM   46  C   UNL     1      -8.315   2.487  66.109  1.00  0.00    -0.093 C  
HETATM   47  C   UNL     1      -9.061   2.236  67.406  1.00  0.00    -0.182 C  
ENDBRANCH  40  46
ENDBRANCH  36  38
ENDBRANCH  34  36
ENDBRANCH  25  34
ENDBRANCH  24  25
ENDBRANCH   6  21
TORSDOF 10
ENDMDL
MODEL      108
REMARK 921   NORMALIZED FREE ENERGY PREDICTED BY IDOCK:   -5.53 KCAL/MOL
REMARK 922        TOTAL FREE ENERGY PREDICTED BY IDOCK:  -11.06 KCAL/MOL
REMARK 923 INTER-LIGAND FREE ENERGY PREDICTED BY IDOCK:   -8.84 KCAL/MOL
REMARK 924 INTRA-LIGAND FREE ENERGY PREDICTED BY IDOCK:   -2.23 KCAL/MOL
REMARK 927      BINDING AFFINITY PREDICTED BY RF-SCORE:    0.00 PKD
ROOT
HETATM    1  C   UNL     1      -9.299   6.804  66.419  1.00  0.00    -0.136 C  
HETATM    2  S   UNL     1      -9.858   8.089  67.562  1.00  0.00    -0.188 SA 
HETATM    3  C   UNL     1     -10.319   9.228  66.238  1.00  0.00    -0.122 C  
HETATM    4  C   UNL     1      -9.283   9.393  65.130  1.00  0.00    -0.287 C  
HETATM    5  CA  UNL     1      -8.273   8.503  64.895  1.00  0.00    -0.165 C  
HETATM    6  CA  UNL     1      -8.260   5.786  67.011  1.00  0.00    -0.101 C  
HETATM    7  O   UNL     1      -6.296   6.101  65.289  1.00  0.00    -0.036 OA 
HETATM    8  N   UNL     1      -8.216   7.343  65.619  1.00  0.00    -0.132 N  
HETATM    9  C   UNL     1      -7.172   8.838  63.904  1.00  0.00    -0.096 C  
HETATM   10  OXT UNL     1      -6.965   9.964  63.475  1.00  0.00    -0.114 OA 
HETATM   11  O   UNL     1      -6.457   7.801  63.424  1.00  0.00    -0.061 OA 
HETATM   12  C   UNL     1      -7.343   6.333  65.848  1.00  0.00    -0.080 C  
ENDROOT
BRANCH   4  13
HETATM   13  C   UNL     1      -9.467  10.741  64.434  1.00  0.00    -0.256 C  
BRANCH  13  14
HETATM   14  S   UNL     1      -9.838  12.146  65.514  1.00  0.00    -0.184 SA 
BRANCH  14  15
HETATM   15  C   UNL     1     -11.086  12.995  64.700  1.00  0.00    -0.332 A  
HETATM   16  N   UNL     1     -11.717  12.656  63.601  1.00  0.00    -0.482 NA 
HETATM   17  C   UNL     1     -11.215  14.983  66.272  1.00  0.00    -0.309 C  
HETATM   18  N   UNL     1     -12.587  13.687  63.334  1.00  0.00    -0.781 NA 
HETATM   19  N   UNL     1     -11.565  14.204  65.119  1.00  0.00    -0.330 NA 
HETATM   20  N   UNL     1     -12.499  14.638  64.254  1.00  0.00    -0.738 NA 
ENDBRANCH  14  15
ENDBRANCH  13  14
ENDBRANCH   4  13
BRANCH   6  21
HETATM   21  N   UNL     1      -7.829   6.074  68.409  1.00  0.00    -0.105 N  
HETATM   22  H   UNL     1      -8.289   6.835  68.908  1.00  0.00     0.000 HD 
HETATM   23  O   UNL     1      -6.362   4.338  68.590  1.00  0.00    -0.034 OA 
HETATM   24  C   UNL     1      -6.843   5.365  69.063  1.00  0.00    -0.055 C  
BRANCH  24  25
HETATM   25  CA  UNL     1      -6.278   6.060  70.333  1.00  0.00    -0.031 C  
BRANCH  25  26
HETATM   26  C   UNL     1      -6.457   7.570  70.258  1.00  0.00    -0.038 A  
HETATM   27  C   UNL     1      -7.779   9.583  70.633  1.00  0.00    -0.151 A  
HETATM   28  C   UNL     1      -5.420   8.374  69.764  1.00  0.00    -0.029 A  
HETATM   29  O   UNL     1      -6.901  11.710  70.133  1.00  0.00    -0.436 OA 
HETATM   30  C   UNL     1      -7.641   8.195  70.695  1.00  0.00    -0.073 A  
HETATM   31  C   UNL     1      -5.555   9.766  69.710  1.00  0.00    -0.037 A  
HETATM   32  H   UNL     1      -7.705  12.114  70.435  1.00  0.00     0.000 HD 
HETATM   33  C   UNL     1      -6.733  10.357  70.152  1.00  0.00    -0.150 A  
ENDBRANCH  25  26
BRANCH  25  34
HETATM   34  N   UNL     1      -6.902   5.550  71.552  1.00  0.00    -0.060 N  
HETATM   35  H   UNL     1      -6.528   5.845  72.455  1.00  0.00     0.000 HD 
BRANCH  34  36
HETATM   36  C   UNL     1      -7.967   4.693  71.530  1.00  0.00    -0.100 C  
HETATM   37  O   UNL     1      -7.808   3.483  71.393  1.00  0.00    -0.057 OA 
BRANCH  36  38
HETATM   38  N   UNL     1      -9.218   5.276  71.686  1.00  0.00    -0.144 N  
HETATM   39  C   UNL     1      -9.578   5.778  73.008  1.00  0.00    -0.150 C  
HETATM   40  N   UNL     1     -11.440   7.021  72.032  1.00  0.00    -0.262 N  
HETATM   41  C   UNL     1     -10.300   7.109  72.928  1.00  0.00    -0.247 C  
HETATM   42  C   UNL     1     -11.291   6.402  70.793  1.00  0.00    -0.350 C  
HETATM   43  O   UNL     1     -10.163   4.601  69.685  1.00  0.00    -0.221 OA 
HETATM   44  C   UNL     1     -10.164   5.350  70.660  1.00  0.00    -0.253 C  
HETATM   45  O   UNL     1     -12.019   6.617  69.832  1.00  0.00    -0.301 OA 
BRANCH  40  46
HETATM   46  C   UNL     1     -12.657   7.771  72.319  1.00  0.00    -0.153 C  
HETATM   47  C   UNL     1     -12.589   9.240  71.948  1.00  0.00    -0.468 C  
ENDBRANCH  40  46
ENDBRANCH  36  38
ENDBRANCH  34  36
ENDBRANCH  25  34
ENDBRANCH  24  25
ENDBRANCH   6  21
TORSDOF 10
ENDMDL
MODEL      109
REMARK 921   NORMALIZED FREE ENERGY PREDICTED BY IDOCK:   -5.53 KCAL/MOL
REMARK 922        TOTAL FREE ENERGY PREDICTED BY IDOCK:  -11.05 KCAL/MOL
REMARK 923 INTER-LIGAND FREE ENERGY PREDICTED BY IDOCK:   -8.30 KCAL/MOL
REMARK 924 INTRA-LIGAND FREE ENERGY PREDICTED BY IDOCK:   -2.75 KCAL/MOL
REMARK 927      BINDING AFFINITY PREDICTED BY RF-SCORE:    0.00 PKD
ROOT
HETATM    1  C   UNL     1      -9.122  10.481  68.881  1.00  0.00    -0.177 C  
HETATM    2  S   UNL     1      -8.155   9.017  68.442  1.00  0.00    -0.108 SA 
HETATM    3  C   UNL     1      -7.547   9.739  66.901  1.00  0.00    -0.095 C  
HETATM    4  C   UNL     1      -8.606  10.416  66.037  1.00  0.00    -0.158 C  
HETATM    5  CA  UNL     1      -9.824  10.821  66.503  1.00  0.00    -0.203 C  
HETATM    6  CA  UNL     1     -10.324  10.222  69.857  1.00  0.00    -0.233 C  
HETATM    7  O   UNL     1     -12.296  11.175  68.400  1.00  0.00    -0.556 OA 
HETATM    8  N   UNL     1     -10.104  10.711  67.839  1.00  0.00    -0.164 N  
HETATM    9  C   UNL     1     -10.892  11.307  65.539  1.00  0.00    -0.179 C  
HETATM   10  OXT UNL     1     -10.848  11.123  64.331  1.00  0.00    -0.344 OA 
HETATM   11  O   UNL     1     -11.885  12.051  66.064  1.00  0.00    -0.522 OA 
HETATM   12  C   UNL     1     -11.177  10.796  68.660  1.00  0.00    -0.274 C  
ENDROOT
BRANCH   4  13
HETATM   13  C   UNL     1      -8.154  10.442  64.576  1.00  0.00    -0.114 C  
BRANCH  13  14
HETATM   14  S   UNL     1      -8.437   8.924  63.632  1.00  0.00    -0.085 SA 
BRANCH  14  15
HETATM   15  C   UNL     1      -7.401   7.766  64.358  1.00  0.00    -0.088 A  
HETATM   16  N   UNL     1      -7.718   6.789  65.173  1.00  0.00    -0.098 NA 
HETATM   17  C   UNL     1      -5.221   8.606  63.367  1.00  0.00    -0.062 C  
HETATM   18  N   UNL     1      -6.532   6.181  65.510  1.00  0.00    -0.042 NA 
HETATM   19  N   UNL     1      -6.047   7.757  64.177  1.00  0.00    -0.052 NA 
HETATM   20  N   UNL     1      -5.506   6.768  64.909  1.00  0.00    -0.026 NA 
ENDBRANCH  14  15
ENDBRANCH  13  14
ENDBRANCH   4  13
BRANCH   6  21
HETATM   21  N   UNL     1     -10.538   8.792  70.220  1.00  0.00    -0.210 N  
HETATM   22  H   UNL     1      -9.817   8.117  69.967  1.00  0.00     0.000 HD 
HETATM   23  O   UNL     1     -12.488   9.104  71.360  1.00  0.00    -0.308 OA 
HETATM   24  C   UNL     1     -11.659   8.333  70.881  1.00  0.00    -0.262 C  
BRANCH  24  25
HETATM   25  CA  UNL     1     -11.871   6.796  70.810  1.00  0.00    -0.392 C  
BRANCH  25  26
HETATM   26  C   UNL     1     -11.172   6.201  69.596  1.00  0.00    -0.488 A  
HETATM   27  C   UNL     1     -10.729   6.152  67.199  1.00  0.00    -0.422 A  
HETATM   28  C   UNL     1     -10.267   5.141  69.758  1.00  0.00    -0.357 A  
HETATM   29  O   UNL     1      -9.186   4.623  66.291  1.00  0.00    -0.123 OA 
HETATM   30  C   UNL     1     -11.393   6.701  68.298  1.00  0.00    -0.094 A  
HETATM   31  C   UNL     1      -9.597   4.595  68.657  1.00  0.00    -0.226 A  
HETATM   32  H   UNL     1      -9.345   4.975  65.424  1.00  0.00     0.000 HD 
HETATM   33  C   UNL     1      -9.830   5.112  67.388  1.00  0.00    -0.166 A  
ENDBRANCH  25  26
BRANCH  25  34
HETATM   34  N   UNL     1     -11.403   6.128  72.022  1.00  0.00    -0.284 N  
HETATM   35  H   UNL     1     -11.718   5.176  72.211  1.00  0.00     0.000 HD 
BRANCH  34  36
HETATM   36  C   UNL     1     -10.560   6.730  72.914  1.00  0.00    -0.250 C  
HETATM   37  O   UNL     1     -10.979   7.524  73.752  1.00  0.00    -0.266 OA 
BRANCH  36  38
HETATM   38  N   UNL     1      -9.220   6.374  72.818  1.00  0.00    -0.138 N  
HETATM   39  C   UNL     1      -8.838   5.029  73.235  1.00  0.00    -0.114 C  
HETATM   40  N   UNL     1      -6.683   5.291  72.116  1.00  0.00    -0.058 N  
HETATM   41  C   UNL     1      -7.826   4.412  72.289  1.00  0.00    -0.091 C  
HETATM   42  C   UNL     1      -6.892   6.649  71.888  1.00  0.00    -0.067 C  
HETATM   43  O   UNL     1      -8.331   8.479  72.455  1.00  0.00    -0.268 OA 
HETATM   44  C   UNL     1      -8.220   7.256  72.399  1.00  0.00    -0.100 C  
HETATM   45  O   UNL     1      -6.075   7.381  71.344  1.00  0.00    -0.036 OA 
BRANCH  40  46
HETATM   46  C   UNL     1      -5.347   4.731  71.951  1.00  0.00    -0.004 C  
HETATM   47  C   UNL     1      -5.135   3.993  70.644  1.00  0.00     0.000 C  
ENDBRANCH  40  46
ENDBRANCH  36  38
ENDBRANCH  34  36
ENDBRANCH  25  34
ENDBRANCH  24  25
ENDBRANCH   6  21
TORSDOF 10
ENDMDL
MODEL      110
REMARK 921   NORMALIZED FREE ENERGY PREDICTED BY IDOCK:   -5.50 KCAL/MOL
REMARK 922        TOTAL FREE ENERGY PREDICTED BY IDOCK:  -11.02 KCAL/MOL
REMARK 923 INTER-LIGAND FREE ENERGY PREDICTED BY IDOCK:  -10.25 KCAL/MOL
REMARK 924 INTRA-LIGAND FREE ENERGY PREDICTED BY IDOCK:   -0.77 KCAL/MOL
REMARK 927      BINDING AFFINITY PREDICTED BY RF-SCORE:    0.00 PKD
ROOT
HETATM    1  C   UNL     1     -10.713  13.733  68.282  1.00  0.00    -0.253 C  
HETATM    2  S   UNL     1      -9.247  12.741  68.653  1.00  0.00     0.136 SA 
HETATM    3  C   UNL     1      -8.210  14.184  68.976  1.00  0.00     0.070 C  
HETATM    4  C   UNL     1      -8.307  15.300  67.941  1.00  0.00    -0.152 C  
HETATM    5  CA  UNL     1      -9.342  15.433  67.060  1.00  0.00    -0.224 C  
HETATM    6  CA  UNL     1     -11.787  13.030  67.379  1.00  0.00    -0.357 C  
HETATM    7  O   UNL     1     -11.927  14.771  65.412  1.00  0.00    -0.310 OA 
HETATM    8  N   UNL     1     -10.413  14.585  67.147  1.00  0.00    -0.266 N  
HETATM    9  C   UNL     1      -9.268  16.453  65.937  1.00  0.00    -0.199 C  
HETATM   10  OXT UNL     1      -8.233  17.004  65.589  1.00  0.00    -0.390 OA 
HETATM   11  O   UNL     1     -10.436  16.813  65.371  1.00  0.00    -0.592 OA 
HETATM   12  C   UNL     1     -11.498  14.243  66.412  1.00  0.00    -0.355 C  
ENDROOT
BRANCH   4  13
HETATM   13  C   UNL     1      -7.031  16.143  67.954  1.00  0.00    -0.135 C  
BRANCH  13  14
HETATM   14  S   UNL     1      -6.998  17.512  69.139  1.00  0.00    -0.163 SA 
BRANCH  14  15
HETATM   15  C   UNL     1      -7.385  18.897  68.204  1.00  0.00    -0.260 A  
HETATM   16  N   UNL     1      -6.577  19.659  67.507  1.00  0.00    -0.207 NA 
HETATM   17  C   UNL     1      -9.881  18.920  68.664  1.00  0.00    -0.407 C  
HETATM   18  N   UNL     1      -7.362  20.660  66.985  1.00  0.00    -0.322 NA 
HETATM   19  N   UNL     1      -8.651  19.402  68.104  1.00  0.00    -0.326 NA 
HETATM   20  N   UNL     1      -8.629  20.513  67.347  1.00  0.00    -0.323 NA 
ENDBRANCH  14  15
ENDBRANCH  13  14
ENDBRANCH   4  13
BRANCH   6  21
HETATM   21  N   UNL     1     -11.407  11.671  66.897  1.00  0.00    -0.318 N  
HETATM   22  H   UNL     1     -11.734  10.863  67.426  1.00  0.00     0.000 HD 
HETATM   23  O   UNL     1     -10.347  12.358  64.999  1.00  0.00    -0.281 OA 
HETATM   24  C   UNL     1     -10.637  11.449  65.774  1.00  0.00    -0.260 C  
BRANCH  24  25
HETATM   25  CA  UNL     1     -10.033  10.021  65.672  1.00  0.00    -0.285 C  
BRANCH  25  26
HETATM   26  C   UNL     1      -8.775  10.017  64.816  1.00  0.00    -0.206 A  
HETATM   27  C   UNL     1      -6.351  10.131  64.584  1.00  0.00    -0.130 A  
HETATM   28  C   UNL     1      -8.874   9.855  63.426  1.00  0.00    -0.253 A  
HETATM   29  O   UNL     1      -5.332   9.916  62.472  1.00  0.00    -0.086 OA 
HETATM   30  C   UNL     1      -7.494  10.154  65.385  1.00  0.00    -0.144 A  
HETATM   31  C   UNL     1      -7.728   9.825  62.624  1.00  0.00    -0.125 A  
HETATM   32  H   UNL     1      -4.477  10.005  62.874  1.00  0.00     0.000 HD 
HETATM   33  C   UNL     1      -6.476   9.957  63.213  1.00  0.00    -0.125 A  
ENDBRANCH  25  26
BRANCH  25  34
HETATM   34  N   UNL     1      -9.733   9.464  66.989  1.00  0.00    -0.168 N  
HETATM   35  H   UNL     1      -9.281  10.060  67.683  1.00  0.00     0.000 HD 
BRANCH  34  36
HETATM   36  C   UNL     1     -10.036   8.174  67.328  1.00  0.00    -0.241 C  
HETATM   37  O   UNL     1     -10.334   7.344  66.473  1.00  0.00    -0.191 OA 
BRANCH  36  38
HETATM   38  N   UNL     1      -9.971   7.871  68.682  1.00  0.00    -0.185 N  
HETATM   39  C   UNL     1      -8.949   8.537  69.483  1.00  0.00    -0.149 C  
HETATM   40  N   UNL     1     -10.093   7.841  71.525  1.00  0.00    -0.177 N  
HETATM   41  C   UNL     1      -9.485   8.965  70.836  1.00  0.00    -0.236 C  
HETATM   42  C   UNL     1     -10.961   7.001  70.832  1.00  0.00    -0.253 C  
HETATM   43  O   UNL     1     -11.347   6.011  68.684  1.00  0.00    -0.251 OA 
HETATM   44  C   UNL     1     -10.791   6.921  69.296  1.00  0.00    -0.237 C  
HETATM   45  O   UNL     1     -11.812   6.305  71.372  1.00  0.00    -0.304 OA 
BRANCH  40  46
HETATM   46  C   UNL     1      -9.985   7.726  72.975  1.00  0.00    -0.293 C  
HETATM   47  C   UNL     1      -8.666   8.209  73.545  1.00  0.00    -0.317 C  
ENDBRANCH  40  46
ENDBRANCH  36  38
ENDBRANCH  34  36
ENDBRANCH  25  34
ENDBRANCH  24  25
ENDBRANCH   6  21
TORSDOF 10
ENDMDL
MODEL      111
REMARK 921   NORMALIZED FREE ENERGY PREDICTED BY IDOCK:   -5.48 KCAL/MOL
REMARK 922        TOTAL FREE ENERGY PREDICTED BY IDOCK:  -10.98 KCAL/MOL
REMARK 923 INTER-LIGAND FREE ENERGY PREDICTED BY IDOCK:   -9.49 KCAL/MOL
REMARK 924 INTRA-LIGAND FREE ENERGY PREDICTED BY IDOCK:   -1.49 KCAL/MOL
REMARK 927      BINDING AFFINITY PREDICTED BY RF-SCORE:    0.00 PKD
ROOT
HETATM    1  C   UNL     1      -7.881   9.766  67.632  1.00  0.00    -0.095 C  
HETATM    2  S   UNL     1      -7.457  10.134  69.351  1.00  0.00    -0.135 SA 
HETATM    3  C   UNL     1      -6.960   8.436  69.714  1.00  0.00    -0.047 C  
HETATM    4  C   UNL     1      -7.925   7.358  69.233  1.00  0.00    -0.118 C  
HETATM    5  CA  UNL     1      -8.877   7.562  68.274  1.00  0.00    -0.125 C  
HETATM    6  CA  UNL     1      -8.910  10.748  66.970  1.00  0.00    -0.135 C  
HETATM    7  O   UNL     1     -10.767   9.030  66.247  1.00  0.00     0.050 OA 
HETATM    8  N   UNL     1      -8.930   8.765  67.624  1.00  0.00    -0.135 N  
HETATM    9  C   UNL     1      -9.922   6.496  67.993  1.00  0.00    -0.134 C  
HETATM   10  OXT UNL     1     -10.150   5.556  68.740  1.00  0.00    -0.161 OA 
HETATM   11  O   UNL     1     -10.556   6.572  66.806  1.00  0.00    -0.260 OA 
HETATM   12  C   UNL     1      -9.771   9.436  66.801  1.00  0.00    -0.198 C  
ENDROOT
BRANCH   4  13
HETATM   13  C   UNL     1      -7.755   6.089  70.068  1.00  0.00    -0.100 C  
BRANCH  13  14
HETATM   14  S   UNL     1      -8.868   5.919  71.486  1.00  0.00    -0.136 SA 
BRANCH  14  15
HETATM   15  C   UNL     1      -8.308   7.084  72.614  1.00  0.00    -0.108 A  
HETATM   16  N   UNL     1      -7.100   7.224  73.105  1.00  0.00    -0.072 NA 
HETATM   17  C   UNL     1     -10.509   8.301  72.953  1.00  0.00    -0.161 C  
HETATM   18  N   UNL     1      -7.177   8.266  73.999  1.00  0.00    -0.166 NA 
HETATM   19  N   UNL     1      -9.117   8.030  73.176  1.00  0.00    -0.256 NA 
HETATM   20  N   UNL     1      -8.406   8.762  74.051  1.00  0.00    -0.201 NA 
ENDBRANCH  14  15
ENDBRANCH  13  14
ENDBRANCH   4  13
BRANCH   6  21
HETATM   21  N   UNL     1      -9.446  11.800  67.880  1.00  0.00    -0.184 N  
HETATM   22  H   UNL     1      -9.043  11.881  68.813  1.00  0.00     0.000 HD 
HETATM   23  O   UNL     1     -10.877  12.741  66.375  1.00  0.00    -0.265 OA 
HETATM   24  C   UNL     1     -10.458  12.669  67.528  1.00  0.00    -0.221 C  
BRANCH  24  25
HETATM   25  CA  UNL     1     -11.129  13.402  68.722  1.00  0.00    -0.262 C  
BRANCH  25  26
HETATM   26  C   UNL     1     -11.823  12.417  69.652  1.00  0.00    -0.380 A  
HETATM   27  C   UNL     1     -12.413  10.141  70.293  1.00  0.00    -0.174 A  
HETATM   28  C   UNL     1     -12.505  12.885  70.785  1.00  0.00    -0.370 A  
HETATM   29  O   UNL     1     -13.650   9.724  72.252  1.00  0.00    -0.538 OA 
HETATM   30  C   UNL     1     -11.784  11.029  69.418  1.00  0.00    -0.394 A  
HETATM   31  C   UNL     1     -13.130  11.994  71.665  1.00  0.00    -0.422 A  
HETATM   32  H   UNL     1     -13.610   8.791  72.080  1.00  0.00     0.000 HD 
HETATM   33  C   UNL     1     -13.072  10.628  71.413  1.00  0.00    -0.400 A  
ENDBRANCH  25  26
BRANCH  25  34
HETATM   34  N   UNL     1     -10.166  14.199  69.480  1.00  0.00    -0.416 N  
HETATM   35  H   UNL     1      -9.344  13.736  69.870  1.00  0.00     0.000 HD 
BRANCH  34  36
HETATM   36  C   UNL     1     -10.324  15.541  69.688  1.00  0.00    -0.283 C  
HETATM   37  O   UNL     1     -11.087  15.967  70.550  1.00  0.00    -0.345 OA 
BRANCH  36  38
HETATM   38  N   UNL     1      -9.562  16.374  68.878  1.00  0.00    -0.243 N  
HETATM   39  C   UNL     1      -8.182  16.635  69.273  1.00  0.00    -0.027 C  
HETATM   40  N   UNL     1      -7.711  17.525  67.048  1.00  0.00    -0.203 N  
HETATM   41  C   UNL     1      -7.243  16.620  68.082  1.00  0.00    -0.157 C  
HETATM   42  C   UNL     1      -9.056  17.515  66.687  1.00  0.00    -0.269 C  
HETATM   43  O   UNL     1     -11.266  17.232  67.569  1.00  0.00    -0.074 OA 
HETATM   44  C   UNL     1     -10.068  17.015  67.744  1.00  0.00    -0.302 C  
HETATM   45  O   UNL     1      -9.473  17.909  65.604  1.00  0.00    -0.420 OA 
BRANCH  40  46
HETATM   46  C   UNL     1      -6.753  18.267  66.236  1.00  0.00    -0.234 C  
HETATM   47  C   UNL     1      -6.738  19.761  66.496  1.00  0.00    -0.212 C  
ENDBRANCH  40  46
ENDBRANCH  36  38
ENDBRANCH  34  36
ENDBRANCH  25  34
ENDBRANCH  24  25
ENDBRANCH   6  21
TORSDOF 10
ENDMDL
MODEL      112
REMARK 921   NORMALIZED FREE ENERGY PREDICTED BY IDOCK:   -5.43 KCAL/MOL
REMARK 922        TOTAL FREE ENERGY PREDICTED BY IDOCK:  -10.89 KCAL/MOL
REMARK 923 INTER-LIGAND FREE ENERGY PREDICTED BY IDOCK:   -9.46 KCAL/MOL
REMARK 924 INTRA-LIGAND FREE ENERGY PREDICTED BY IDOCK:   -1.43 KCAL/MOL
REMARK 927      BINDING AFFINITY PREDICTED BY RF-SCORE:    0.00 PKD
ROOT
HETATM    1  C   UNL     1      -6.726   9.770  68.050  1.00  0.00    -0.061 C  
HETATM    2  S   UNL     1      -7.457   9.624  69.698  1.00  0.00    -0.118 SA 
HETATM    3  C   UNL     1      -6.694   8.018  70.021  1.00  0.00    -0.040 C  
HETATM    4  C   UNL     1      -6.810   7.003  68.888  1.00  0.00    -0.072 C  
HETATM    5  CA  UNL     1      -7.091   7.337  67.594  1.00  0.00    -0.085 C  
HETATM    6  CA  UNL     1      -7.493  10.714  67.058  1.00  0.00    -0.106 C  
HETATM    7  O   UNL     1      -7.945   9.025  65.092  1.00  0.00    -0.109 OA 
HETATM    8  N   UNL     1      -7.189   8.657  67.244  1.00  0.00    -0.079 N  
HETATM    9  C   UNL     1      -7.381   6.254  66.568  1.00  0.00    -0.081 C  
HETATM   10  OXT UNL     1      -7.641   5.096  66.861  1.00  0.00    -0.086 OA 
HETATM   11  O   UNL     1      -7.251   6.600  65.273  1.00  0.00    -0.071 OA 
HETATM   12  C   UNL     1      -7.617   9.398  66.195  1.00  0.00    -0.096 C  
ENDROOT
BRANCH   4  13
HETATM   13  C   UNL     1      -6.700   5.583  69.442  1.00  0.00    -0.059 C  
BRANCH  13  14
HETATM   14  S   UNL     1      -7.890   5.142  70.733  1.00  0.00    -0.090 SA 
BRANCH  14  15
HETATM   15  C   UNL     1      -8.346   3.530  70.366  1.00  0.00    -0.056 A  
HETATM   16  N   UNL     1      -7.882   2.751  69.418  1.00  0.00    -0.043 NA 
HETATM   17  C   UNL     1     -10.110   3.265  72.170  1.00  0.00    -0.129 C  
HETATM   18  N   UNL     1      -8.601   1.582  69.509  1.00  0.00    -0.050 NA 
HETATM   19  N   UNL     1      -9.321   2.855  71.044  1.00  0.00    -0.136 NA 
HETATM   20  N   UNL     1      -9.484   1.638  70.497  1.00  0.00    -0.104 NA 
ENDBRANCH  14  15
ENDBRANCH  13  14
ENDBRANCH   4  13
BRANCH   6  21
HETATM   21  N   UNL     1      -8.756  11.295  67.597  1.00  0.00    -0.129 N  
HETATM   22  H   UNL     1      -9.610  10.744  67.522  1.00  0.00     0.000 HD 
HETATM   23  O   UNL     1      -7.821  13.186  68.463  1.00  0.00    -0.134 OA 
HETATM   24  C   UNL     1      -8.830  12.538  68.191  1.00  0.00    -0.191 C  
BRANCH  24  25
HETATM   25  CA  UNL     1     -10.268  13.112  68.319  1.00  0.00    -0.250 C  
BRANCH  25  26
HETATM   26  C   UNL     1     -10.860  13.420  66.951  1.00  0.00    -0.282 A  
HETATM   27  C   UNL     1     -10.742  13.382  64.517  1.00  0.00    -0.434 A  
HETATM   28  C   UNL     1     -12.127  14.014  66.854  1.00  0.00    -0.465 A  
HETATM   29  O   UNL     1     -12.529  14.187  63.212  1.00  0.00    -1.146 OA 
HETATM   30  C   UNL     1     -10.174  13.106  65.762  1.00  0.00    -0.294 A  
HETATM   31  C   UNL     1     -12.699  14.284  65.606  1.00  0.00    -0.395 A  
HETATM   32  H   UNL     1     -12.053  13.965  62.421  1.00  0.00     0.000 HD 
HETATM   33  C   UNL     1     -12.002  13.958  64.448  1.00  0.00    -0.450 A  
ENDBRANCH  25  26
BRANCH  25  34
HETATM   34  N   UNL     1     -11.152  12.203  69.044  1.00  0.00    -0.269 N  
HETATM   35  H   UNL     1     -11.580  12.522  69.914  1.00  0.00     0.000 HD 
BRANCH  34  36
HETATM   36  C   UNL     1     -11.430  10.939  68.601  1.00  0.00    -0.311 C  
HETATM   37  O   UNL     1     -11.783  10.733  67.443  1.00  0.00    -0.462 OA 
BRANCH  36  38
HETATM   38  N   UNL     1     -11.273   9.921  69.533  1.00  0.00    -0.210 N  
HETATM   39  C   UNL     1     -11.441  10.254  70.944  1.00  0.00    -0.339 C  
HETATM   40  N   UNL     1     -11.597   7.879  71.488  1.00  0.00    -0.263 N  
HETATM   41  C   UNL     1     -12.210   9.180  71.688  1.00  0.00    -0.361 C  
HETATM   42  C   UNL     1     -11.214   7.492  70.207  1.00  0.00    -0.236 C  
HETATM   43  O   UNL     1     -10.320   8.332  68.148  1.00  0.00    -0.204 OA 
HETATM   44  C   UNL     1     -10.906   8.617  69.191  1.00  0.00    -0.039 C  
HETATM   45  O   UNL     1     -11.076   6.325  69.860  1.00  0.00    -0.329 OA 
BRANCH  40  46
HETATM   46  C   UNL     1     -11.593   6.897  72.567  1.00  0.00    -0.198 C  
HETATM   47  C   UNL     1     -10.408   7.005  73.507  1.00  0.00    -0.394 C  
ENDBRANCH  40  46
ENDBRANCH  36  38
ENDBRANCH  34  36
ENDBRANCH  25  34
ENDBRANCH  24  25
ENDBRANCH   6  21
TORSDOF 10
ENDMDL
MODEL      113
REMARK 921   NORMALIZED FREE ENERGY PREDICTED BY IDOCK:   -5.40 KCAL/MOL
REMARK 922        TOTAL FREE ENERGY PREDICTED BY IDOCK:  -10.86 KCAL/MOL
REMARK 923 INTER-LIGAND FREE ENERGY PREDICTED BY IDOCK:   -8.69 KCAL/MOL
REMARK 924 INTRA-LIGAND FREE ENERGY PREDICTED BY IDOCK:   -2.17 KCAL/MOL
REMARK 927      BINDING AFFINITY PREDICTED BY RF-SCORE:    0.00 PKD
ROOT
HETATM    1  C   UNL     1      -7.581  12.264  67.973  1.00  0.00    -0.126 C  
HETATM    2  S   UNL     1      -9.262  11.598  67.936  1.00  0.00    -0.177 SA 
HETATM    3  C   UNL     1      -9.931  13.021  67.047  1.00  0.00    -0.242 C  
HETATM    4  C   UNL     1      -9.511  14.383  67.589  1.00  0.00    -0.214 C  
HETATM    5  CA  UNL     1      -8.430  14.579  68.401  1.00  0.00    -0.163 C  
HETATM    6  CA  UNL     1      -6.665  11.711  69.121  1.00  0.00    -0.109 C  
HETATM    7  O   UNL     1      -6.003  13.972  70.292  1.00  0.00    -0.133 OA 
HETATM    8  N   UNL     1      -7.604  13.525  68.688  1.00  0.00    -0.125 N  
HETATM    9  C   UNL     1      -8.195  15.931  69.052  1.00  0.00    -0.234 C  
HETATM   10  OXT UNL     1      -9.044  16.807  69.120  1.00  0.00    -0.227 OA 
HETATM   11  O   UNL     1      -6.946  16.178  69.493  1.00  0.00    -0.215 OA 
HETATM   12  C   UNL     1      -6.599  13.230  69.546  1.00  0.00    -0.040 C  
ENDROOT
BRANCH   4  13
HETATM   13  C   UNL     1     -10.542  15.444  67.202  1.00  0.00    -0.305 C  
BRANCH  13  14
HETATM   14  S   UNL     1     -10.229  16.323  65.650  1.00  0.00    -0.303 SA 
BRANCH  14  15
HETATM   15  C   UNL     1      -9.914  17.940  66.128  1.00  0.00    -0.283 A  
HETATM   16  N   UNL     1     -10.776  18.874  66.449  1.00  0.00    -0.355 NA 
HETATM   17  C   UNL     1      -7.383  17.845  65.966  1.00  0.00    -0.271 C  
HETATM   18  N   UNL     1     -10.029  20.000  66.707  1.00  0.00    -0.424 NA 
HETATM   19  N   UNL     1      -8.656  18.466  66.201  1.00  0.00    -0.490 NA 
HETATM   20  N   UNL     1      -8.734  19.761  66.555  1.00  0.00    -0.345 NA 
ENDBRANCH  14  15
ENDBRANCH  13  14
ENDBRANCH   4  13
BRANCH   6  21
HETATM   21  N   UNL     1      -7.340  10.772  70.062  1.00  0.00    -0.336 N  
HETATM   22  H   UNL     1      -8.075  11.139  70.666  1.00  0.00     0.000 HD 
HETATM   23  O   UNL     1      -6.270   8.886  69.356  1.00  0.00    -0.040 OA 
HETATM   24  C   UNL     1      -7.023   9.432  70.159  1.00  0.00    -0.077 C  
BRANCH  24  25
HETATM   25  CA  UNL     1      -7.545   8.733  71.444  1.00  0.00    -0.102 C  
BRANCH  25  26
HETATM   26  C   UNL     1      -9.018   8.370  71.312  1.00  0.00    -0.224 A  
HETATM   27  C   UNL     1     -11.302   8.377  72.163  1.00  0.00    -0.437 A  
HETATM   28  C   UNL     1      -9.475   7.705  70.165  1.00  0.00    -0.161 A  
HETATM   29  O   UNL     1     -13.060   7.452  70.899  1.00  0.00    -0.594 OA 
HETATM   30  C   UNL     1      -9.953   8.704  72.311  1.00  0.00    -0.361 A  
HETATM   31  C   UNL     1     -10.828   7.383  70.013  1.00  0.00    -0.266 A  
HETATM   32  H   UNL     1     -13.676   7.688  71.582  1.00  0.00     0.000 HD 
HETATM   33  C   UNL     1     -11.730   7.729  71.013  1.00  0.00    -0.281 A  
ENDBRANCH  25  26
BRANCH  25  34
HETATM   34  N   UNL     1      -6.771   7.536  71.763  1.00  0.00    -0.052 N  
HETATM   35  H   UNL     1      -5.842   7.429  71.356  1.00  0.00     0.000 HD 
BRANCH  34  36
HETATM   36  C   UNL     1      -7.244   6.553  72.587  1.00  0.00    -0.085 C  
HETATM   37  O   UNL     1      -7.462   6.768  73.777  1.00  0.00    -0.083 OA 
BRANCH  36  38
HETATM   38  N   UNL     1      -7.472   5.319  71.991  1.00  0.00    -0.094 N  
HETATM   39  C   UNL     1      -8.705   4.614  72.328  1.00  0.00    -0.119 C  
HETATM   40  N   UNL     1      -8.376   3.123  70.422  1.00  0.00    -0.051 N  
HETATM   41  C   UNL     1      -9.336   3.969  71.109  1.00  0.00    -0.146 C  
HETATM   42  C   UNL     1      -7.089   3.599  70.187  1.00  0.00    -0.041 C  
HETATM   43  O   UNL     1      -5.355   4.956  71.133  1.00  0.00    -0.004 OA 
HETATM   44  C   UNL     1      -6.557   4.698  71.137  1.00  0.00    -0.027 C  
HETATM   45  O   UNL     1      -6.356   3.172  69.303  1.00  0.00    -0.028 OA 
BRANCH  40  46
HETATM   46  C   UNL     1      -8.815   1.889  69.781  1.00  0.00    -0.070 C  
HETATM   47  C   UNL     1      -9.503   2.088  68.444  1.00  0.00    -0.227 C  
ENDBRANCH  40  46
ENDBRANCH  36  38
ENDBRANCH  34  36
ENDBRANCH  25  34
ENDBRANCH  24  25
ENDBRANCH   6  21
TORSDOF 10
ENDMDL
MODEL      114
REMARK 921   NORMALIZED FREE ENERGY PREDICTED BY IDOCK:   -5.38 KCAL/MOL
REMARK 922        TOTAL FREE ENERGY PREDICTED BY IDOCK:  -10.82 KCAL/MOL
REMARK 923 INTER-LIGAND FREE ENERGY PREDICTED BY IDOCK:  -10.46 KCAL/MOL
REMARK 924 INTRA-LIGAND FREE ENERGY PREDICTED BY IDOCK:   -0.36 KCAL/MOL
REMARK 927      BINDING AFFINITY PREDICTED BY RF-SCORE:    0.00 PKD
ROOT
HETATM    1  C   UNL     1      -7.363   9.787  69.204  1.00  0.00    -0.079 C  
HETATM    2  S   UNL     1      -8.222   9.099  70.639  1.00  0.00    -0.197 SA 
HETATM    3  C   UNL     1      -7.186   7.620  70.695  1.00  0.00    -0.062 C  
HETATM    4  C   UNL     1      -6.967   6.927  69.354  1.00  0.00    -0.066 C  
HETATM    5  CA  UNL     1      -7.169   7.528  68.145  1.00  0.00    -0.090 C  
HETATM    6  CA  UNL     1      -8.195  10.809  68.351  1.00  0.00    -0.129 C  
HETATM    7  O   UNL     1      -8.076   9.631  66.002  1.00  0.00    -0.110 OA 
HETATM    8  N   UNL     1      -7.497   8.857  68.100  1.00  0.00    -0.091 N  
HETATM    9  C   UNL     1      -7.118   6.713  66.864  1.00  0.00    -0.069 C  
HETATM   10  OXT UNL     1      -7.165   5.491  66.837  1.00  0.00    -0.075 OA 
HETATM   11  O   UNL     1      -6.923   7.398  65.721  1.00  0.00    -0.058 OA 
HETATM   12  C   UNL     1      -7.953   9.758  67.198  1.00  0.00    -0.102 C  
ENDROOT
BRANCH   4  13
HETATM   13  C   UNL     1      -6.629   5.452  69.574  1.00  0.00    -0.047 C  
BRANCH  13  14
HETATM   14  S   UNL     1      -7.706   4.555  70.721  1.00  0.00    -0.054 SA 
BRANCH  14  15
HETATM   15  C   UNL     1      -9.274   5.179  70.415  1.00  0.00    -0.148 A  
HETATM   16  N   UNL     1      -9.825   5.460  69.259  1.00  0.00    -0.166 NA 
HETATM   17  C   UNL     1     -10.036   5.355  72.829  1.00  0.00    -0.181 C  
HETATM   18  N   UNL     1     -11.066   5.976  69.550  1.00  0.00    -0.403 NA 
HETATM   19  N   UNL     1     -10.159   5.496  71.406  1.00  0.00    -0.193 NA 
HETATM   20  N   UNL     1     -11.277   6.004  70.859  1.00  0.00    -0.291 NA 
ENDBRANCH  14  15
ENDBRANCH  13  14
ENDBRANCH   4  13
BRANCH   6  21
HETATM   21  N   UNL     1      -9.600  11.006  68.807  1.00  0.00    -0.209 N  
HETATM   22  H   UNL     1     -10.155  10.180  69.029  1.00  0.00     0.000 HD 
HETATM   23  O   UNL     1      -9.541  13.285  68.854  1.00  0.00     0.001 OA 
HETATM   24  C   UNL     1     -10.190  12.245  68.944  1.00  0.00    -0.020 C  
BRANCH  24  25
HETATM   25  CA  UNL     1     -11.741  12.219  69.040  1.00  0.00    -0.324 C  
BRANCH  25  26
HETATM   26  C   UNL     1     -12.228  12.986  70.262  1.00  0.00    -0.368 A  
HETATM   27  C   UNL     1     -13.359  13.067  72.419  1.00  0.00    -0.563 A  
HETATM   28  C   UNL     1     -11.957  14.357  70.382  1.00  0.00    -0.395 A  
HETATM   29  O   UNL     1     -13.478  15.076  73.641  1.00  0.00    -0.547 OA 
HETATM   30  C   UNL     1     -12.935  12.349  71.300  1.00  0.00    -0.297 A  
HETATM   31  C   UNL     1     -12.375  15.076  71.508  1.00  0.00    -0.398 A  
HETATM   32  H   UNL     1     -13.951  14.629  74.333  1.00  0.00     0.000 HD 
HETATM   33  C   UNL     1     -13.067  14.420  72.519  1.00  0.00    -0.450 A  
ENDBRANCH  25  26
BRANCH  25  34
HETATM   34  N   UNL     1     -12.368  12.762  67.837  1.00  0.00     0.101 N  
HETATM   35  H   UNL     1     -13.380  12.897  67.829  1.00  0.00     0.000 HD 
BRANCH  34  36
HETATM   36  C   UNL     1     -11.652  13.095  66.721  1.00  0.00    -0.366 C  
HETATM   37  O   UNL     1     -11.135  12.234  66.014  1.00  0.00    -0.284 OA 
BRANCH  36  38
HETATM   38  N   UNL     1     -11.563  14.453  66.440  1.00  0.00    -0.365 N  
HETATM   39  C   UNL     1     -11.143  15.347  67.514  1.00  0.00    -0.315 C  
HETATM   40  N   UNL     1     -10.744  17.121  65.884  1.00  0.00    -0.214 N  
HETATM   41  C   UNL     1     -10.181  16.410  67.018  1.00  0.00    -0.282 C  
HETATM   42  C   UNL     1     -11.346  16.402  64.855  1.00  0.00    -0.101 C  
HETATM   43  O   UNL     1     -12.673  14.456  64.410  1.00  0.00    -0.665 OA 
HETATM   44  C   UNL     1     -11.913  15.006  65.205  1.00  0.00    -0.086 C  
HETATM   45  O   UNL     1     -11.480  16.827  63.714  1.00  0.00    -0.902 OA 
BRANCH  40  46
HETATM   46  C   UNL     1     -10.479  18.544  65.707  1.00  0.00    -0.247 C  
HETATM   47  C   UNL     1     -10.438  19.338  66.999  1.00  0.00    -0.556 C  
ENDBRANCH  40  46
ENDBRANCH  36  38
ENDBRANCH  34  36
ENDBRANCH  25  34
ENDBRANCH  24  25
ENDBRANCH   6  21
TORSDOF 10
ENDMDL
MODEL      115
REMARK 921   NORMALIZED FREE ENERGY PREDICTED BY IDOCK:   -5.35 KCAL/MOL
REMARK 922        TOTAL FREE ENERGY PREDICTED BY IDOCK:  -10.78 KCAL/MOL
REMARK 923 INTER-LIGAND FREE ENERGY PREDICTED BY IDOCK:   -8.92 KCAL/MOL
REMARK 924 INTRA-LIGAND FREE ENERGY PREDICTED BY IDOCK:   -1.86 KCAL/MOL
REMARK 927      BINDING AFFINITY PREDICTED BY RF-SCORE:    0.00 PKD
ROOT
HETATM    1  C   UNL     1      -7.733   9.637  65.395  1.00  0.00    -0.117 C  
HETATM    2  S   UNL     1      -6.270   9.986  66.400  1.00  0.00    -0.072 SA 
HETATM    3  C   UNL     1      -5.816   8.245  66.552  1.00  0.00    -0.044 C  
HETATM    4  C   UNL     1      -6.959   7.303  66.918  1.00  0.00    -0.077 C  
HETATM    5  CA  UNL     1      -8.280   7.615  66.765  1.00  0.00    -0.124 C  
HETATM    6  CA  UNL     1      -8.851  10.738  65.432  1.00  0.00    -0.189 C  
HETATM    7  O   UNL     1     -10.885   9.284  66.249  1.00  0.00     0.129 OA 
HETATM    8  N   UNL     1      -8.628   8.796  66.167  1.00  0.00    -0.138 N  
HETATM    9  C   UNL     1      -9.354   6.703  67.333  1.00  0.00    -0.129 C  
HETATM   10  OXT UNL     1      -9.132   5.825  68.154  1.00  0.00    -0.111 OA 
HETATM   11  O   UNL     1     -10.592   6.837  66.819  1.00  0.00    -0.269 OA 
HETATM   12  C   UNL     1      -9.734   9.558  65.995  1.00  0.00    -0.272 C  
ENDROOT
BRANCH   4  13
HETATM   13  C   UNL     1      -6.409   6.045  67.591  1.00  0.00    -0.041 C  
BRANCH  13  14
HETATM   14  S   UNL     1      -5.475   6.309  69.119  1.00  0.00    -0.013 SA 
BRANCH  14  15
HETATM   15  C   UNL     1      -6.645   6.171  70.366  1.00  0.00    -0.048 A  
HETATM   16  N   UNL     1      -7.194   7.129  71.075  1.00  0.00    -0.073 NA 
HETATM   17  C   UNL     1      -6.866   3.644  70.335  1.00  0.00    -0.034 C  
HETATM   18  N   UNL     1      -8.026   6.502  71.972  1.00  0.00    -0.103 NA 
HETATM   19  N   UNL     1      -7.137   4.974  70.801  1.00  0.00    -0.054 NA 
HETATM   20  N   UNL     1      -7.995   5.185  71.814  1.00  0.00    -0.109 NA 
ENDBRANCH  14  15
ENDBRANCH  13  14
ENDBRANCH   4  13
BRANCH   6  21
HETATM   21  N   UNL     1      -8.575  11.879  66.350  1.00  0.00    -0.347 N  
HETATM   22  H   UNL     1      -7.733  11.843  66.925  1.00  0.00     0.000 HD 
HETATM   23  O   UNL     1     -10.334  13.172  65.693  1.00  0.00    -0.276 OA 
HETATM   24  C   UNL     1      -9.397  12.981  66.465  1.00  0.00    -0.217 C  
BRANCH  24  25
HETATM   25  CA  UNL     1      -9.152  13.845  67.733  1.00  0.00    -0.191 C  
BRANCH  25  26
HETATM   26  C   UNL     1      -9.565  15.291  67.500  1.00  0.00    -0.206 A  
HETATM   27  C   UNL     1      -9.631  17.295  66.114  1.00  0.00    -0.224 A  
HETATM   28  C   UNL     1     -10.318  15.969  68.470  1.00  0.00    -0.241 A  
HETATM   29  O   UNL     1     -10.779  19.221  66.835  1.00  0.00    -0.443 OA 
HETATM   30  C   UNL     1      -9.228  15.974  66.315  1.00  0.00    -0.368 A  
HETATM   31  C   UNL     1     -10.729  17.291  68.265  1.00  0.00    -0.349 A  
HETATM   32  H   UNL     1     -10.545  19.663  66.028  1.00  0.00     0.000 HD 
HETATM   33  C   UNL     1     -10.386  17.940  67.084  1.00  0.00    -0.367 A  
ENDBRANCH  25  26
BRANCH  25  34
HETATM   34  N   UNL     1      -9.858  13.313  68.896  1.00  0.00    -0.426 N  
HETATM   35  H   UNL     1      -9.439  13.429  69.820  1.00  0.00     0.000 HD 
BRANCH  34  36
HETATM   36  C   UNL     1     -11.058  12.667  68.795  1.00  0.00    -0.263 C  
HETATM   37  O   UNL     1     -11.919  13.040  68.002  1.00  0.00    -0.350 OA 
BRANCH  36  38
HETATM   38  N   UNL     1     -11.227  11.567  69.627  1.00  0.00    -0.236 N  
HETATM   39  C   UNL     1     -12.281  11.628  70.635  1.00  0.00    -0.366 C  
HETATM   40  N   UNL     1     -12.103   9.215  70.970  1.00  0.00    -0.285 N  
HETATM   41  C   UNL     1     -13.027  10.313  70.748  1.00  0.00    -0.330 C  
HETATM   42  C   UNL     1     -10.948   9.126  70.196  1.00  0.00    -0.239 C  
HETATM   43  O   UNL     1      -9.264  10.451  69.124  1.00  0.00    -0.180 OA 
HETATM   44  C   UNL     1     -10.404  10.439  69.585  1.00  0.00    -0.226 C  
HETATM   45  O   UNL     1     -10.333   8.083  70.009  1.00  0.00    -0.208 OA 
BRANCH  40  46
HETATM   46  C   UNL     1     -12.485   8.096  71.823  1.00  0.00    -0.330 C  
HETATM   47  C   UNL     1     -11.452   7.725  72.869  1.00  0.00    -0.359 C  
ENDBRANCH  40  46
ENDBRANCH  36  38
ENDBRANCH  34  36
ENDBRANCH  25  34
ENDBRANCH  24  25
ENDBRANCH   6  21
TORSDOF 10
ENDMDL
MODEL      116
REMARK 921   NORMALIZED FREE ENERGY PREDICTED BY IDOCK:   -5.32 KCAL/MOL
REMARK 922        TOTAL FREE ENERGY PREDICTED BY IDOCK:  -10.72 KCAL/MOL
REMARK 923 INTER-LIGAND FREE ENERGY PREDICTED BY IDOCK:   -9.36 KCAL/MOL
REMARK 924 INTRA-LIGAND FREE ENERGY PREDICTED BY IDOCK:   -1.36 KCAL/MOL
REMARK 927      BINDING AFFINITY PREDICTED BY RF-SCORE:    0.00 PKD
ROOT
HETATM    1  C   UNL     1      -7.835   9.619  69.828  1.00  0.00    -0.142 C  
HETATM    2  S   UNL     1      -7.431   8.860  68.237  1.00  0.00    -0.088 SA 
HETATM    3  C   UNL     1      -8.104  10.236  67.279  1.00  0.00    -0.120 C  
HETATM    4  C   UNL     1      -9.478  10.728  67.723  1.00  0.00    -0.165 C  
HETATM    5  CA  UNL     1     -10.019  10.470  68.950  1.00  0.00    -0.204 C  
HETATM    6  CA  UNL     1      -7.991   8.619  71.028  1.00  0.00    -0.132 C  
HETATM    7  O   UNL     1     -10.435   9.217  71.795  1.00  0.00    -0.337 OA 
HETATM    8  N   UNL     1      -9.271   9.814  69.891  1.00  0.00    -0.226 N  
HETATM    9  C   UNL     1     -11.466  10.828  69.241  1.00  0.00    -0.298 C  
HETATM   10  OXT UNL     1     -12.284  11.101  68.375  1.00  0.00    -0.610 OA 
HETATM   11  O   UNL     1     -11.813  10.926  70.540  1.00  0.00    -0.313 OA 
HETATM   12  C   UNL     1      -9.453   9.212  71.090  1.00  0.00    -0.261 C  
ENDROOT
BRANCH   4  13
HETATM   13  C   UNL     1     -10.190  11.418  66.559  1.00  0.00    -0.221 C  
BRANCH  13  14
HETATM   14  S   UNL     1      -9.858  13.187  66.364  1.00  0.00    -0.279 SA 
BRANCH  14  15
HETATM   15  C   UNL     1     -11.021  13.719  65.221  1.00  0.00    -0.322 A  
HETATM   16  N   UNL     1     -11.863  14.719  65.324  1.00  0.00    -0.315 NA 
HETATM   17  C   UNL     1     -10.548  11.980  63.435  1.00  0.00    -0.428 C  
HETATM   18  N   UNL     1     -12.609  14.701  64.169  1.00  0.00    -0.790 NA 
HETATM   19  N   UNL     1     -11.225  13.101  64.020  1.00  0.00    -0.391 NA 
HETATM   20  N   UNL     1     -12.229  13.715  63.368  1.00  0.00    -0.676 NA 
ENDBRANCH  14  15
ENDBRANCH  13  14
ENDBRANCH   4  13
BRANCH   6  21
HETATM   21  N   UNL     1      -7.856   7.179  70.664  1.00  0.00    -0.094 N  
HETATM   22  H   UNL     1      -7.811   6.935  69.675  1.00  0.00     0.000 HD 
HETATM   23  O   UNL     1      -7.675   6.389  72.795  1.00  0.00    -0.102 OA 
HETATM   24  C   UNL     1      -7.790   6.161  71.593  1.00  0.00    -0.102 C  
BRANCH  24  25
HETATM   25  CA  UNL     1      -8.050   4.741  71.019  1.00  0.00    -0.088 C  
BRANCH  25  26
HETATM   26  C   UNL     1      -9.103   4.004  71.835  1.00  0.00    -0.167 A  
HETATM   27  C   UNL     1     -11.117   3.991  73.207  1.00  0.00    -0.301 A  
HETATM   28  C   UNL     1      -9.052   2.606  71.944  1.00  0.00    -0.144 A  
HETATM   29  O   UNL     1     -12.028   1.967  73.991  1.00  0.00    -0.021 OA 
HETATM   30  C   UNL     1     -10.153   4.688  72.477  1.00  0.00    -0.229 A  
HETATM   31  C   UNL     1     -10.023   1.907  72.669  1.00  0.00    -0.194 A  
HETATM   32  H   UNL     1     -12.730   2.445  74.414  1.00  0.00     0.000 HD 
HETATM   33  C   UNL     1     -11.051   2.608  73.289  1.00  0.00    -0.136 A  
ENDBRANCH  25  26
BRANCH  25  34
HETATM   34  N   UNL     1      -8.459   4.789  69.617  1.00  0.00    -0.081 N  
HETATM   35  H   UNL     1      -9.454   4.742  69.394  1.00  0.00     0.000 HD 
BRANCH  34  36
HETATM   36  C   UNL     1      -7.560   4.893  68.592  1.00  0.00    -0.077 C  
HETATM   37  O   UNL     1      -6.353   4.974  68.809  1.00  0.00    -0.033 OA 
BRANCH  36  38
HETATM   38  N   UNL     1      -8.096   4.886  67.311  1.00  0.00    -0.106 N  
HETATM   39  C   UNL     1      -7.185   4.680  66.190  1.00  0.00    -0.076 C  
HETATM   40  N   UNL     1      -9.087   4.232  64.724  1.00  0.00    -0.143 N  
HETATM   41  C   UNL     1      -7.780   3.757  65.143  1.00  0.00    -0.085 C  
HETATM   42  C   UNL     1     -10.009   4.637  65.686  1.00  0.00    -0.211 C  
HETATM   43  O   UNL     1     -10.192   5.728  67.812  1.00  0.00    -0.158 OA 
HETATM   44  C   UNL     1      -9.447   5.123  67.043  1.00  0.00    -0.137 C  
HETATM   45  O   UNL     1     -11.219   4.662  65.501  1.00  0.00    -0.114 OA 
BRANCH  40  46
HETATM   46  C   UNL     1      -9.516   4.068  63.340  1.00  0.00    -0.150 C  
HETATM   47  C   UNL     1      -9.653   2.626  62.893  1.00  0.00    -0.092 C  
ENDBRANCH  40  46
ENDBRANCH  36  38
ENDBRANCH  34  36
ENDBRANCH  25  34
ENDBRANCH  24  25
ENDBRANCH   6  21
TORSDOF 10
ENDMDL
MODEL      117
REMARK 921   NORMALIZED FREE ENERGY PREDICTED BY IDOCK:   -5.30 KCAL/MOL
REMARK 922        TOTAL FREE ENERGY PREDICTED BY IDOCK:  -10.69 KCAL/MOL
REMARK 923 INTER-LIGAND FREE ENERGY PREDICTED BY IDOCK:   -8.72 KCAL/MOL
REMARK 924 INTRA-LIGAND FREE ENERGY PREDICTED BY IDOCK:   -1.97 KCAL/MOL
REMARK 927      BINDING AFFINITY PREDICTED BY RF-SCORE:    0.00 PKD
ROOT
HETATM    1  C   UNL     1      -9.402   7.284  66.236  1.00  0.00    -0.108 C  
HETATM    2  S   UNL     1      -7.742   7.984  66.080  1.00  0.00    -0.091 SA 
HETATM    3  C   UNL     1      -6.954   6.371  65.883  1.00  0.00    -0.061 C  
HETATM    4  C   UNL     1      -7.395   5.305  66.881  1.00  0.00    -0.086 C  
HETATM    5  CA  UNL     1      -8.547   5.376  67.611  1.00  0.00    -0.104 C  
HETATM    6  CA  UNL     1     -10.442   8.185  66.994  1.00  0.00    -0.326 C  
HETATM    7  O   UNL     1     -11.165   6.524  68.902  1.00  0.00    -0.306 OA 
HETATM    8  N   UNL     1      -9.422   6.406  67.390  1.00  0.00    -0.115 N  
HETATM    9  C   UNL     1      -8.814   4.374  68.721  1.00  0.00    -0.099 C  
HETATM   10  OXT UNL     1      -7.956   3.647  69.199  1.00  0.00    -0.055 OA 
HETATM   11  O   UNL     1     -10.095   4.243  69.119  1.00  0.00    -0.083 OA 
HETATM   12  C   UNL     1     -10.514   6.951  67.975  1.00  0.00    -0.211 C  
ENDROOT
BRANCH   4  13
HETATM   13  C   UNL     1      -6.306   4.242  67.030  1.00  0.00    -0.040 C  
BRANCH  13  14
HETATM   14  S   UNL     1      -6.555   2.716  66.089  1.00  0.00    -0.032 SA 
BRANCH  14  15
HETATM   15  C   UNL     1      -7.060   3.245  64.538  1.00  0.00    -0.057 A  
HETATM   16  N   UNL     1      -6.318   3.642  63.533  1.00  0.00    -0.025 NA 
HETATM   17  C   UNL     1      -9.560   3.009  64.906  1.00  0.00    -0.099 C  
HETATM   18  N   UNL     1      -7.195   4.007  62.539  1.00  0.00    -0.039 NA 
HETATM   19  N   UNL     1      -8.373   3.342  64.172  1.00  0.00    -0.089 NA 
HETATM   20  N   UNL     1      -8.453   3.829  62.921  1.00  0.00    -0.085 NA 
ENDBRANCH  14  15
ENDBRANCH  13  14
ENDBRANCH   4  13
BRANCH   6  21
HETATM   21  N   UNL     1      -9.887   9.456  67.540  1.00  0.00    -0.164 N  
HETATM   22  H   UNL     1      -9.037   9.409  68.102  1.00  0.00     0.000 HD 
HETATM   23  O   UNL     1     -11.384  10.847  66.529  1.00  0.00    -0.185 OA 
HETATM   24  C   UNL     1     -10.461  10.692  67.326  1.00  0.00    -0.246 C  
BRANCH  24  25
HETATM   25  CA  UNL     1      -9.972  11.810  68.287  1.00  0.00    -0.200 C  
BRANCH  25  26
HETATM   26  C   UNL     1     -10.161  13.188  67.667  1.00  0.00    -0.224 A  
HETATM   27  C   UNL     1      -9.538  14.908  66.057  1.00  0.00    -0.346 A  
HETATM   28  C   UNL     1     -11.191  14.025  68.122  1.00  0.00    -0.299 A  
HETATM   29  O   UNL     1     -10.746  16.924  65.919  1.00  0.00    -0.268 OA 
HETATM   30  C   UNL     1      -9.336  13.647  66.622  1.00  0.00    -0.265 A  
HETATM   31  C   UNL     1     -11.397  15.285  67.551  1.00  0.00    -0.300 A  
HETATM   32  H   UNL     1     -10.182  17.215  65.213  1.00  0.00     0.000 HD 
HETATM   33  C   UNL     1     -10.571  15.712  66.518  1.00  0.00    -0.307 A  
ENDBRANCH  25  26
BRANCH  25  34
HETATM   34  N   UNL     1     -10.655  11.753  69.577  1.00  0.00    -0.437 N  
HETATM   35  H   UNL     1     -10.419  12.446  70.288  1.00  0.00     0.000 HD 
BRANCH  34  36
HETATM   36  C   UNL     1     -11.598  10.807  69.868  1.00  0.00    -0.331 C  
HETATM   37  O   UNL     1     -12.685  10.793  69.297  1.00  0.00    -0.254 OA 
BRANCH  36  38
HETATM   38  N   UNL     1     -11.239   9.869  70.829  1.00  0.00    -0.329 N  
HETATM   39  C   UNL     1     -12.200   9.573  71.886  1.00  0.00    -0.358 C  
HETATM   40  N   UNL     1     -10.932   7.573  72.481  1.00  0.00    -0.286 N  
HETATM   41  C   UNL     1     -12.258   8.089  72.194  1.00  0.00    -0.331 C  
HETATM   42  C   UNL     1      -9.868   7.920  71.653  1.00  0.00    -0.167 C  
HETATM   43  O   UNL     1      -8.984   9.716  70.335  1.00  0.00    -0.244 OA 
HETATM   44  C   UNL     1      -9.989   9.246  70.864  1.00  0.00    -0.297 C  
HETATM   45  O   UNL     1      -8.842   7.259  71.548  1.00  0.00    -0.123 OA 
BRANCH  40  46
HETATM   46  C   UNL     1     -10.754   6.523  73.478  1.00  0.00    -0.263 C  
HETATM   47  C   UNL     1     -11.255   5.158  73.046  1.00  0.00    -0.390 C  
ENDBRANCH  40  46
ENDBRANCH  36  38
ENDBRANCH  34  36
ENDBRANCH  25  34
ENDBRANCH  24  25
ENDBRANCH   6  21
TORSDOF 10
ENDMDL
MODEL      118
REMARK 921   NORMALIZED FREE ENERGY PREDICTED BY IDOCK:   -5.28 KCAL/MOL
REMARK 922        TOTAL FREE ENERGY PREDICTED BY IDOCK:  -10.67 KCAL/MOL
REMARK 923 INTER-LIGAND FREE ENERGY PREDICTED BY IDOCK:  -10.40 KCAL/MOL
REMARK 924 INTRA-LIGAND FREE ENERGY PREDICTED BY IDOCK:   -0.26 KCAL/MOL
REMARK 927      BINDING AFFINITY PREDICTED BY RF-SCORE:    0.00 PKD
ROOT
HETATM    1  C   UNL     1      -9.837  10.658  65.736  1.00  0.00    -0.241 C  
HETATM    2  S   UNL     1      -8.082  10.609  66.169  1.00  0.00    -0.156 SA 
HETATM    3  C   UNL     1      -8.238   9.074  67.109  1.00  0.00    -0.110 C  
HETATM    4  C   UNL     1      -9.410   9.024  68.084  1.00  0.00    -0.151 C  
HETATM    5  CA  UNL     1     -10.495   9.851  68.012  1.00  0.00    -0.222 C  
HETATM    6  CA  UNL     1     -10.403  12.081  65.390  1.00  0.00    -0.266 C  
HETATM    7  O   UNL     1     -12.349  12.230  67.153  1.00  0.00    -0.379 OA 
HETATM    8  N   UNL     1     -10.609  10.723  66.962  1.00  0.00    -0.248 N  
HETATM    9  C   UNL     1     -11.522   9.868  69.131  1.00  0.00     0.036 C  
HETATM   10  OXT UNL     1     -11.329   9.381  70.236  1.00  0.00    -0.249 OA 
HETATM   11  O   UNL     1     -12.733  10.377  68.831  1.00  0.00     0.222 OA 
HETATM   12  C   UNL     1     -11.360  11.793  66.611  1.00  0.00    -0.316 C  
ENDROOT
BRANCH   4  13
HETATM   13  C   UNL     1      -9.122   8.023  69.203  1.00  0.00    -0.145 C  
BRANCH  13  14
HETATM   14  S   UNL     1      -7.445   8.060  69.885  1.00  0.00    -0.080 SA 
BRANCH  14  15
HETATM   15  C   UNL     1      -7.674   8.107  71.584  1.00  0.00    -0.092 A  
HETATM   16  N   UNL     1      -8.519   8.837  72.270  1.00  0.00    -0.396 NA 
HETATM   17  C   UNL     1      -5.900   6.401  72.203  1.00  0.00    -0.037 C  
HETATM   18  N   UNL     1      -8.278   8.547  73.593  1.00  0.00    -0.397 NA 
HETATM   19  N   UNL     1      -6.933   7.363  72.459  1.00  0.00    -0.066 NA 
HETATM   20  N   UNL     1      -7.309   7.650  73.717  1.00  0.00    -0.107 NA 
ENDBRANCH  14  15
ENDBRANCH  13  14
ENDBRANCH   4  13
BRANCH   6  21
HETATM   21  N   UNL     1      -9.425  13.197  65.541  1.00  0.00    -0.470 N  
HETATM   22  H   UNL     1      -8.434  12.988  65.423  1.00  0.00     0.000 HD 
HETATM   23  O   UNL     1     -10.965  14.854  65.826  1.00  0.00    -0.326 OA 
HETATM   24  C   UNL     1      -9.790  14.495  65.832  1.00  0.00    -0.321 C  
BRANCH  24  25
HETATM   25  CA  UNL     1      -8.629  15.399  66.331  1.00  0.00    -0.209 C  
BRANCH  25  26
HETATM   26  C   UNL     1      -9.005  16.871  66.247  1.00  0.00    -0.305 A  
HETATM   27  C   UNL     1     -10.670  18.642  66.071  1.00  0.00    -0.295 A  
HETATM   28  C   UNL     1      -8.005  17.854  66.306  1.00  0.00    -0.279 A  
HETATM   29  O   UNL     1     -10.028  20.907  66.106  1.00  0.00    -0.390 OA 
HETATM   30  C   UNL     1     -10.346  17.286  66.130  1.00  0.00    -0.320 A  
HETATM   31  C   UNL     1      -8.331  19.213  66.253  1.00  0.00    -0.307 A  
HETATM   32  H   UNL     1     -10.938  21.167  66.031  1.00  0.00     0.000 HD 
HETATM   33  C   UNL     1      -9.664  19.594  66.143  1.00  0.00    -0.406 A  
ENDBRANCH  25  26
BRANCH  25  34
HETATM   34  N   UNL     1      -8.236  15.070  67.700  1.00  0.00    -0.156 N  
HETATM   35  H   UNL     1      -7.425  15.539  68.104  1.00  0.00     0.000 HD 
BRANCH  34  36
HETATM   36  C   UNL     1      -8.913  14.156  68.459  1.00  0.00    -0.174 C  
HETATM   37  O   UNL     1      -8.487  13.014  68.613  1.00  0.00    -0.088 OA 
BRANCH  36  38
HETATM   38  N   UNL     1     -10.088  14.608  69.047  1.00  0.00    -0.228 N  
HETATM   39  C   UNL     1     -11.268  13.754  68.958  1.00  0.00    -0.272 C  
HETATM   40  N   UNL     1     -12.360  15.080  70.694  1.00  0.00    -0.321 N  
HETATM   41  C   UNL     1     -12.045  13.731  70.261  1.00  0.00    -0.355 C  
HETATM   42  C   UNL     1     -11.369  16.058  70.664  1.00  0.00    -0.399 C  
HETATM   43  O   UNL     1      -9.465  16.805  69.416  1.00  0.00    -0.140 OA 
HETATM   44  C   UNL     1     -10.208  15.857  69.661  1.00  0.00    -0.280 C  
HETATM   45  O   UNL     1     -11.390  17.071  71.353  1.00  0.00     0.173 OA 
BRANCH  40  46
HETATM   46  C   UNL     1     -13.622  15.356  71.371  1.00  0.00    -0.518 C  
HETATM   47  C   UNL     1     -14.230  14.158  72.074  1.00  0.00    -0.617 C  
ENDBRANCH  40  46
ENDBRANCH  36  38
ENDBRANCH  34  36
ENDBRANCH  25  34
ENDBRANCH  24  25
ENDBRANCH   6  21
TORSDOF 10
ENDMDL
MODEL      119
REMARK 921   NORMALIZED FREE ENERGY PREDICTED BY IDOCK:   -5.28 KCAL/MOL
REMARK 922        TOTAL FREE ENERGY PREDICTED BY IDOCK:  -10.66 KCAL/MOL
REMARK 923 INTER-LIGAND FREE ENERGY PREDICTED BY IDOCK:   -9.63 KCAL/MOL
REMARK 924 INTRA-LIGAND FREE ENERGY PREDICTED BY IDOCK:   -1.04 KCAL/MOL
REMARK 927      BINDING AFFINITY PREDICTED BY RF-SCORE:    0.00 PKD
ROOT
HETATM    1  C   UNL     1     -10.562   7.805  69.219  1.00  0.00    -0.192 C  
HETATM    2  S   UNL     1     -10.664   7.951  67.419  1.00  0.00    -0.124 SA 
HETATM    3  C   UNL     1      -9.774   6.407  67.127  1.00  0.00    -0.141 C  
HETATM    4  C   UNL     1      -8.502   6.223  67.947  1.00  0.00    -0.117 C  
HETATM    5  CA  UNL     1      -8.224   6.923  69.087  1.00  0.00    -0.121 C  
HETATM    6  CA  UNL     1     -10.677   9.156  70.010  1.00  0.00    -0.232 C  
HETATM    7  O   UNL     1      -8.417   9.081  71.354  1.00  0.00    -0.267 OA 
HETATM    8  N   UNL     1      -9.162   7.779  69.597  1.00  0.00    -0.153 N  
HETATM    9  C   UNL     1      -6.853   6.821  69.734  1.00  0.00    -0.054 C  
HETATM   10  OXT UNL     1      -5.871   6.357  69.172  1.00  0.00    -0.019 OA 
HETATM   11  O   UNL     1      -6.767   7.192  71.026  1.00  0.00    -0.047 OA 
HETATM   12  C   UNL     1      -9.240   8.759  70.528  1.00  0.00    -0.188 C  
ENDROOT
BRANCH   4  13
HETATM   13  C   UNL     1      -7.553   5.258  67.237  1.00  0.00    -0.092 C  
BRANCH  13  14
HETATM   14  S   UNL     1      -7.654   5.236  65.429  1.00  0.00    -0.084 SA 
BRANCH  14  15
HETATM   15  C   UNL     1      -7.955   3.593  65.036  1.00  0.00    -0.090 A  
HETATM   16  N   UNL     1      -7.124   2.580  65.089  1.00  0.00    -0.055 NA 
HETATM   17  C   UNL     1     -10.385   3.856  64.354  1.00  0.00    -0.231 C  
HETATM   18  N   UNL     1      -7.829   1.493  64.628  1.00  0.00    -0.063 NA 
HETATM   19  N   UNL     1      -9.157   3.144  64.569  1.00  0.00    -0.127 NA 
HETATM   20  N   UNL     1      -9.071   1.829  64.306  1.00  0.00    -0.108 NA 
ENDBRANCH  14  15
ENDBRANCH  13  14
ENDBRANCH   4  13
BRANCH   6  21
HETATM   21  N   UNL     1     -10.779  10.373  69.156  1.00  0.00    -0.218 N  
HETATM   22  H   UNL     1     -11.707  10.685  68.870  1.00  0.00     0.000 HD 
HETATM   23  O   UNL     1      -8.558  10.886  69.169  1.00  0.00    -0.138 OA 
HETATM   24  C   UNL     1      -9.686  11.101  68.733  1.00  0.00    -0.185 C  
BRANCH  24  25
HETATM   25  CA  UNL     1      -9.970  12.072  67.554  1.00  0.00    -0.192 C  
BRANCH  25  26
HETATM   26  C   UNL     1      -9.787  11.375  66.213  1.00  0.00    -0.250 A  
HETATM   27  C   UNL     1     -10.555  10.843  63.962  1.00  0.00    -0.310 A  
HETATM   28  C   UNL     1      -8.627  10.625  65.966  1.00  0.00    -0.177 A  
HETATM   29  O   UNL     1      -9.234   9.536  62.516  1.00  0.00    -0.378 OA 
HETATM   30  C   UNL     1     -10.749  11.477  65.190  1.00  0.00    -0.348 A  
HETATM   31  C   UNL     1      -8.429   9.996  64.732  1.00  0.00    -0.180 A  
HETATM   32  H   UNL     1      -9.892   9.619  61.837  1.00  0.00     0.000 HD 
HETATM   33  C   UNL     1      -9.393  10.117  63.739  1.00  0.00    -0.288 A  
ENDBRANCH  25  26
BRANCH  25  34
HETATM   34  N   UNL     1     -11.312  12.643  67.631  1.00  0.00    -0.289 N  
HETATM   35  H   UNL     1     -12.028  12.306  66.987  1.00  0.00     0.000 HD 
BRANCH  34  36
HETATM   36  C   UNL     1     -11.647  13.613  68.536  1.00  0.00    -0.335 C  
HETATM   37  O   UNL     1     -12.190  13.331  69.601  1.00  0.00    -0.279 OA 
BRANCH  36  38
HETATM   38  N   UNL     1     -11.320  14.915  68.178  1.00  0.00    -0.299 N  
HETATM   39  C   UNL     1     -11.209  15.908  69.241  1.00  0.00    -0.335 C  
HETATM   40  N   UNL     1     -10.076  17.430  67.703  1.00  0.00    -0.314 N  
HETATM   41  C   UNL     1     -10.026  16.833  69.026  1.00  0.00    -0.272 C  
HETATM   42  C   UNL     1     -10.353  16.627  66.599  1.00  0.00    -0.296 C  
HETATM   43  O   UNL     1     -11.641  14.734  65.894  1.00  0.00    -0.348 OA 
HETATM   44  C   UNL     1     -11.153  15.328  66.853  1.00  0.00    -0.288 C  
HETATM   45  O   UNL     1     -10.032  16.913  65.452  1.00  0.00    -0.568 OA 
BRANCH  40  46
HETATM   46  C   UNL     1      -9.615  18.798  67.500  1.00  0.00    -0.301 C  
HETATM   47  C   UNL     1     -10.726  19.812  67.307  1.00  0.00    -0.532 C  
ENDBRANCH  40  46
ENDBRANCH  36  38
ENDBRANCH  34  36
ENDBRANCH  25  34
ENDBRANCH  24  25
ENDBRANCH   6  21
TORSDOF 10
ENDMDL
MODEL      120
REMARK 921   NORMALIZED FREE ENERGY PREDICTED BY IDOCK:   -5.25 KCAL/MOL
REMARK 922        TOTAL FREE ENERGY PREDICTED BY IDOCK:  -10.61 KCAL/MOL
REMARK 923 INTER-LIGAND FREE ENERGY PREDICTED BY IDOCK:   -9.21 KCAL/MOL
REMARK 924 INTRA-LIGAND FREE ENERGY PREDICTED BY IDOCK:   -1.40 KCAL/MOL
REMARK 927      BINDING AFFINITY PREDICTED BY RF-SCORE:    0.00 PKD
ROOT
HETATM    1  C   UNL     1      -8.453  10.053  69.806  1.00  0.00    -0.172 C  
HETATM    2  S   UNL     1      -7.637   9.495  68.291  1.00  0.00    -0.078 SA 
HETATM    3  C   UNL     1      -7.919  11.055  67.426  1.00  0.00    -0.119 C  
HETATM    4  C   UNL     1      -9.333  11.615  67.537  1.00  0.00    -0.168 C  
HETATM    5  CA  UNL     1     -10.227  11.239  68.499  1.00  0.00    -0.205 C  
HETATM    6  CA  UNL     1      -9.012   8.912  70.727  1.00  0.00    -0.209 C  
HETATM    7  O   UNL     1     -11.537   9.639  70.857  1.00  0.00    -0.292 OA 
HETATM    8  N   UNL     1      -9.829  10.383  69.490  1.00  0.00    -0.213 N  
HETATM    9  C   UNL     1     -11.674  11.697  68.423  1.00  0.00    -0.307 C  
HETATM   10  OXT UNL     1     -12.182  12.173  67.418  1.00  0.00    -0.486 OA 
HETATM   11  O   UNL     1     -12.384  11.642  69.566  1.00  0.00    -0.211 OA 
HETATM   12  C   UNL     1     -10.391   9.635  70.469  1.00  0.00    -0.295 C  
ENDROOT
BRANCH   4  13
HETATM   13  C   UNL     1      -9.630  12.534  66.352  1.00  0.00    -0.247 C  
BRANCH  13  14
HETATM   14  S   UNL     1      -9.401  14.306  66.647  1.00  0.00    -0.270 SA 
BRANCH  14  15
HETATM   15  C   UNL     1     -10.485  15.066  65.556  1.00  0.00    -0.365 A  
HETATM   16  N   UNL     1     -11.333  14.504  64.729  1.00  0.00    -0.390 NA 
HETATM   17  C   UNL     1      -9.858  17.467  66.087  1.00  0.00    -0.242 C  
HETATM   18  N   UNL     1     -11.929  15.536  64.044  1.00  0.00    -0.478 NA 
HETATM   19  N   UNL     1     -10.563  16.421  65.402  1.00  0.00    -0.548 NA 
HETATM   20  N   UNL     1     -11.462  16.711  64.446  1.00  0.00    -0.973 NA 
ENDBRANCH  14  15
ENDBRANCH  13  14
ENDBRANCH   4  13
BRANCH   6  21
HETATM   21  N   UNL     1      -8.855   7.534  70.180  1.00  0.00    -0.146 N  
HETATM   22  H   UNL     1      -9.528   7.211  69.486  1.00  0.00     0.000 HD 
HETATM   23  O   UNL     1      -6.911   7.045  71.266  1.00  0.00    -0.058 OA 
HETATM   24  C   UNL     1      -7.848   6.673  70.563  1.00  0.00    -0.106 C  
BRANCH  24  25
HETATM   25  CA  UNL     1      -8.088   5.184  70.188  1.00  0.00    -0.083 C  
BRANCH  25  26
HETATM   26  C   UNL     1      -8.953   4.488  71.230  1.00  0.00    -0.167 A  
HETATM   27  C   UNL     1     -10.120   2.518  72.063  1.00  0.00    -0.195 A  
HETATM   28  C   UNL     1      -9.367   5.185  72.375  1.00  0.00    -0.155 A  
HETATM   29  O   UNL     1     -11.246   2.569  74.131  1.00  0.00    -0.128 OA 
HETATM   30  C   UNL     1      -9.340   3.142  71.088  1.00  0.00    -0.211 A  
HETATM   31  C   UNL     1     -10.142   4.557  73.356  1.00  0.00    -0.202 A  
HETATM   32  H   UNL     1     -11.494   1.659  74.019  1.00  0.00     0.000 HD 
HETATM   33  C   UNL     1     -10.506   3.226  73.193  1.00  0.00    -0.165 A  
ENDBRANCH  25  26
BRANCH  25  34
HETATM   34  N   UNL     1      -8.703   5.049  68.870  1.00  0.00    -0.089 N  
HETATM   35  H   UNL     1      -9.714   4.925  68.809  1.00  0.00     0.000 HD 
BRANCH  34  36
HETATM   36  C   UNL     1      -7.974   5.083  67.713  1.00  0.00    -0.095 C  
HETATM   37  O   UNL     1      -7.001   5.822  67.594  1.00  0.00    -0.062 OA 
BRANCH  36  38
HETATM   38  N   UNL     1      -8.397   4.226  66.704  1.00  0.00    -0.102 N  
HETATM   39  C   UNL     1      -9.680   4.502  66.066  1.00  0.00    -0.210 C  
HETATM   40  N   UNL     1      -9.110   2.969  64.253  1.00  0.00    -0.110 N  
HETATM   41  C   UNL     1      -9.619   4.292  64.565  1.00  0.00    -0.146 C  
HETATM   42  C   UNL     1      -7.984   2.492  64.920  1.00  0.00    -0.081 C  
HETATM   43  O   UNL     1      -6.872   2.520  67.042  1.00  0.00    -0.039 OA 
HETATM   44  C   UNL     1      -7.686   3.087  66.317  1.00  0.00    -0.077 C  
HETATM   45  O   UNL     1      -7.252   1.614  64.480  1.00  0.00    -0.048 OA 
BRANCH  40  46
HETATM   46  C   UNL     1      -9.623   2.241  63.098  1.00  0.00    -0.093 C  
HETATM   47  C   UNL     1     -11.034   2.624  62.693  1.00  0.00    -0.175 C  
ENDBRANCH  40  46
ENDBRANCH  36  38
ENDBRANCH  34  36
ENDBRANCH  25  34
ENDBRANCH  24  25
ENDBRANCH   6  21
TORSDOF 10
ENDMDL
MODEL      121
REMARK 921   NORMALIZED FREE ENERGY PREDICTED BY IDOCK:   -5.24 KCAL/MOL
REMARK 922        TOTAL FREE ENERGY PREDICTED BY IDOCK:  -10.60 KCAL/MOL
REMARK 923 INTER-LIGAND FREE ENERGY PREDICTED BY IDOCK:   -8.94 KCAL/MOL
REMARK 924 INTRA-LIGAND FREE ENERGY PREDICTED BY IDOCK:   -1.66 KCAL/MOL
REMARK 927      BINDING AFFINITY PREDICTED BY RF-SCORE:    0.00 PKD
ROOT
HETATM    1  C   UNL     1     -10.470   6.684  67.668  1.00  0.00    -0.227 C  
HETATM    2  S   UNL     1      -9.174   7.002  66.448  1.00  0.00    -0.120 SA 
HETATM    3  C   UNL     1      -8.255   5.503  66.863  1.00  0.00    -0.105 C  
HETATM    4  C   UNL     1      -8.052   5.255  68.354  1.00  0.00    -0.091 C  
HETATM    5  CA  UNL     1      -8.801   5.845  69.332  1.00  0.00    -0.122 C  
HETATM    6  CA  UNL     1     -11.257   7.952  68.157  1.00  0.00     0.576 C  
HETATM    7  O   UNL     1     -10.831   7.773  70.746  1.00  0.00    -0.230 OA 
HETATM    8  N   UNL     1      -9.861   6.638  68.983  1.00  0.00    -0.143 N  
HETATM    9  C   UNL     1      -8.409   5.696  70.792  1.00  0.00    -0.123 C  
HETATM   10  OXT UNL     1      -7.314   5.299  71.163  1.00  0.00    -0.076 OA 
HETATM   11  O   UNL     1      -9.371   5.942  71.703  1.00  0.00    -0.149 OA 
HETATM   12  C   UNL     1     -10.701   7.523  69.570  1.00  0.00    -0.217 C  
ENDROOT
BRANCH   4  13
HETATM   13  C   UNL     1      -6.823   4.373  68.578  1.00  0.00    -0.051 C  
BRANCH  13  14
HETATM   14  S   UNL     1      -5.260   5.013  67.925  1.00  0.00    -0.007 SA 
BRANCH  14  15
HETATM   15  C   UNL     1      -5.227   6.654  68.422  1.00  0.00    -0.011 A  
HETATM   16  N   UNL     1      -5.157   7.133  69.641  1.00  0.00    -0.015 NA 
HETATM   17  C   UNL     1      -5.377   7.701  66.115  1.00  0.00    -0.025 C  
HETATM   18  N   UNL     1      -5.210   8.501  69.510  1.00  0.00    -0.030 NA 
HETATM   19  N   UNL     1      -5.305   7.701  67.549  1.00  0.00    -0.029 NA 
HETATM   20  N   UNL     1      -5.304   8.857  68.236  1.00  0.00    -0.034 NA 
ENDBRANCH  14  15
ENDBRANCH  13  14
ENDBRANCH   4  13
BRANCH   6  21
HETATM   21  N   UNL     1     -10.769   9.245  67.598  1.00  0.00    -0.423 N  
HETATM   22  H   UNL     1     -10.216   9.222  66.742  1.00  0.00     0.000 HD 
HETATM   23  O   UNL     1     -11.816  10.592  69.111  1.00  0.00    -0.239 OA 
HETATM   24  C   UNL     1     -11.025  10.470  68.177  1.00  0.00    -0.277 C  
BRANCH  24  25
HETATM   25  CA  UNL     1     -10.116  11.627  67.679  1.00  0.00    -0.188 C  
BRANCH  25  26
HETATM   26  C   UNL     1     -10.751  12.358  66.504  1.00  0.00    -0.265 A  
HETATM   27  C   UNL     1     -12.647  12.799  65.038  1.00  0.00    -0.538 A  
HETATM   28  C   UNL     1     -10.015  13.323  65.800  1.00  0.00    -0.261 A  
HETATM   29  O   UNL     1     -12.506  14.428  63.344  1.00  0.00    -1.109 OA 
HETATM   30  C   UNL     1     -12.078  12.106  66.109  1.00  0.00    -0.068 A  
HETATM   31  C   UNL     1     -10.588  14.023  64.732  1.00  0.00    -0.441 A  
HETATM   32  H   UNL     1     -13.404  14.247  63.094  1.00  0.00     0.000 HD 
HETATM   33  C   UNL     1     -11.902  13.758  64.366  1.00  0.00    -0.427 A  
ENDBRANCH  25  26
BRANCH  25  34
HETATM   34  N   UNL     1      -9.816  12.579  68.746  1.00  0.00    -0.421 N  
HETATM   35  H   UNL     1      -8.969  12.447  69.299  1.00  0.00     0.000 HD 
BRANCH  34  36
HETATM   36  C   UNL     1     -10.628  13.642  69.032  1.00  0.00    -0.121 C  
HETATM   37  O   UNL     1     -11.703  13.486  69.605  1.00  0.00    -0.291 OA 
BRANCH  36  38
HETATM   38  N   UNL     1     -10.152  14.890  68.650  1.00  0.00    -0.230 N  
HETATM   39  C   UNL     1     -11.110  15.853  68.119  1.00  0.00    -0.338 C  
HETATM   40  N   UNL     1      -9.474  17.643  68.407  1.00  0.00    -0.288 N  
HETATM   41  C   UNL     1     -10.852  17.252  68.645  1.00  0.00    -0.199 C  
HETATM   42  C   UNL     1      -8.448  16.748  68.701  1.00  0.00    -0.259 C  
HETATM   43  O   UNL     1      -7.887  14.418  68.685  1.00  0.00    -0.131 OA 
HETATM   44  C   UNL     1      -8.800  15.242  68.692  1.00  0.00    -0.188 C  
HETATM   45  O   UNL     1      -7.292  17.087  68.925  1.00  0.00    -0.229 OA 
BRANCH  40  46
HETATM   46  C   UNL     1      -9.150  19.029  68.089  1.00  0.00    -0.320 C  
HETATM   47  C   UNL     1      -9.741  19.525  66.783  1.00  0.00    -0.464 C  
ENDBRANCH  40  46
ENDBRANCH  36  38
ENDBRANCH  34  36
ENDBRANCH  25  34
ENDBRANCH  24  25
ENDBRANCH   6  21
TORSDOF 10
ENDMDL
MODEL      122
REMARK 921   NORMALIZED FREE ENERGY PREDICTED BY IDOCK:   -5.21 KCAL/MOL
REMARK 922        TOTAL FREE ENERGY PREDICTED BY IDOCK:  -10.56 KCAL/MOL
REMARK 923 INTER-LIGAND FREE ENERGY PREDICTED BY IDOCK:   -9.01 KCAL/MOL
REMARK 924 INTRA-LIGAND FREE ENERGY PREDICTED BY IDOCK:   -1.55 KCAL/MOL
REMARK 927      BINDING AFFINITY PREDICTED BY RF-SCORE:    0.00 PKD
ROOT
HETATM    1  C   UNL     1      -7.569   9.774  69.455  1.00  0.00    -0.114 C  
HETATM    2  S   UNL     1      -6.410  10.149  70.792  1.00  0.00     0.004 SA 
HETATM    3  C   UNL     1      -6.821   8.657  71.723  1.00  0.00    -0.080 C  
HETATM    4  C   UNL     1      -8.312   8.373  71.873  1.00  0.00    -0.223 C  
HETATM    5  CA  UNL     1      -9.275   8.923  71.076  1.00  0.00    -0.245 C  
HETATM    6  CA  UNL     1      -8.059  11.013  68.625  1.00  0.00    -0.149 C  
HETATM    7  O   UNL     1     -10.658  10.774  68.955  1.00  0.00    -0.195 OA 
HETATM    8  N   UNL     1      -8.905   9.704  70.015  1.00  0.00    -0.219 N  
HETATM    9  C   UNL     1     -10.745   8.743  71.414  1.00  0.00    -0.286 C  
HETATM   10  OXT UNL     1     -11.148   8.357  72.502  1.00  0.00    -0.361 OA 
HETATM   11  O   UNL     1     -11.624   8.947  70.413  1.00  0.00    -0.219 OA 
HETATM   12  C   UNL     1      -9.481  10.557  69.135  1.00  0.00    -0.191 C  
ENDROOT
BRANCH   4  13
HETATM   13  C   UNL     1      -8.561   7.509  73.110  1.00  0.00    -0.150 C  
BRANCH  13  14
HETATM   14  S   UNL     1      -8.209   5.743  72.925  1.00  0.00    -0.118 SA 
BRANCH  14  15
HETATM   15  C   UNL     1      -8.915   5.319  71.420  1.00  0.00    -0.141 A  
HETATM   16  N   UNL     1     -10.181   5.125  71.142  1.00  0.00    -0.220 NA 
HETATM   17  C   UNL     1      -6.768   5.200  70.071  1.00  0.00    -0.044 C  
HETATM   18  N   UNL     1     -10.223   4.760  69.817  1.00  0.00    -0.223 NA 
HETATM   19  N   UNL     1      -8.183   5.097  70.288  1.00  0.00    -0.089 NA 
HETATM   20  N   UNL     1      -9.007   4.737  69.288  1.00  0.00    -0.092 NA 
ENDBRANCH  14  15
ENDBRANCH  13  14
ENDBRANCH   4  13
BRANCH   6  21
HETATM   21  N   UNL     1      -7.553  12.329  69.108  1.00  0.00    -0.333 N  
HETATM   22  H   UNL     1      -7.000  12.348  69.964  1.00  0.00     0.000 HD 
HETATM   23  O   UNL     1      -8.309  13.561  67.345  1.00  0.00    -0.176 OA 
HETATM   24  C   UNL     1      -7.794  13.523  68.460  1.00  0.00    -0.125 C  
BRANCH  24  25
HETATM   25  CA  UNL     1      -7.531  14.792  69.317  1.00  0.00    -0.162 C  
BRANCH  25  26
HETATM   26  C   UNL     1      -6.875  15.887  68.487  1.00  0.00    -0.124 A  
HETATM   27  C   UNL     1      -6.472  16.999  66.356  1.00  0.00    -0.176 A  
HETATM   28  C   UNL     1      -6.069  16.851  69.112  1.00  0.00    -0.184 A  
HETATM   29  O   UNL     1      -5.147  18.941  66.242  1.00  0.00    -0.139 OA 
HETATM   30  C   UNL     1      -7.070  15.977  67.096  1.00  0.00    -0.248 A  
HETATM   31  C   UNL     1      -5.476  17.880  68.372  1.00  0.00    -0.160 A  
HETATM   32  H   UNL     1      -5.293  18.987  65.305  1.00  0.00     0.000 HD 
HETATM   33  C   UNL     1      -5.690  17.947  67.000  1.00  0.00    -0.138 A  
ENDBRANCH  25  26
BRANCH  25  34
HETATM   34  N   UNL     1      -8.758  15.303  69.922  1.00  0.00    -0.351 N  
HETATM   35  H   UNL     1      -8.701  15.776  70.824  1.00  0.00     0.000 HD 
BRANCH  34  36
HETATM   36  C   UNL     1      -9.982  15.171  69.326  1.00  0.00    -0.242 C  
HETATM   37  O   UNL     1     -10.707  14.208  69.564  1.00  0.00    -0.153 OA 
BRANCH  36  38
HETATM   38  N   UNL     1     -10.347  16.192  68.458  1.00  0.00    -0.243 N  
HETATM   39  C   UNL     1     -10.403  17.551  68.987  1.00  0.00    -0.303 C  
HETATM   40  N   UNL     1     -10.465  18.436  66.712  1.00  0.00    -0.391 N  
HETATM   41  C   UNL     1      -9.828  18.559  68.011  1.00  0.00    -0.341 C  
HETATM   42  C   UNL     1     -10.646  17.173  66.154  1.00  0.00    -0.201 C  
HETATM   43  O   UNL     1     -11.133  14.894  66.712  1.00  0.00    -0.325 OA 
HETATM   44  C   UNL     1     -10.719  15.974  67.129  1.00  0.00    -0.283 C  
HETATM   45  O   UNL     1     -10.783  16.972  64.954  1.00  0.00    -0.728 OA 
BRANCH  40  46
HETATM   46  C   UNL     1     -10.703  19.623  65.897  1.00  0.00    -0.413 C  
HETATM   47  C   UNL     1      -9.474  20.482  65.670  1.00  0.00     0.289 C  
ENDBRANCH  40  46
ENDBRANCH  36  38
ENDBRANCH  34  36
ENDBRANCH  25  34
ENDBRANCH  24  25
ENDBRANCH   6  21
TORSDOF 10
ENDMDL
MODEL      123
REMARK 921   NORMALIZED FREE ENERGY PREDICTED BY IDOCK:   -5.19 KCAL/MOL
REMARK 922        TOTAL FREE ENERGY PREDICTED BY IDOCK:  -10.52 KCAL/MOL
REMARK 923 INTER-LIGAND FREE ENERGY PREDICTED BY IDOCK:   -8.34 KCAL/MOL
REMARK 924 INTRA-LIGAND FREE ENERGY PREDICTED BY IDOCK:   -2.17 KCAL/MOL
REMARK 927      BINDING AFFINITY PREDICTED BY RF-SCORE:    0.00 PKD
ROOT
HETATM    1  C   UNL     1      -9.741  11.594  65.719  1.00  0.00    -0.236 C  
HETATM    2  S   UNL     1     -11.126  11.302  66.844  1.00  0.00    -0.225 SA 
HETATM    3  C   UNL     1     -11.115  12.992  67.482  1.00  0.00    -0.268 C  
HETATM    4  C   UNL     1      -9.741  13.536  67.861  1.00  0.00    -0.225 C  
HETATM    5  CA  UNL     1      -8.563  13.005  67.417  1.00  0.00    -0.199 C  
HETATM    6  CA  UNL     1      -8.934  10.313  65.301  1.00  0.00    -0.186 C  
HETATM    7  O   UNL     1      -6.526  11.027  66.084  1.00  0.00    -0.128 OA 
HETATM    8  N   UNL     1      -8.587  11.985  66.504  1.00  0.00    -0.147 N  
HETATM    9  C   UNL     1      -7.241  13.481  67.994  1.00  0.00    -0.125 C  
HETATM   10  OXT UNL     1      -7.147  14.130  69.026  1.00  0.00    -0.107 OA 
HETATM   11  O   UNL     1      -6.139  13.232  67.260  1.00  0.00    -0.328 OA 
HETATM   12  C   UNL     1      -7.729  11.082  65.971  1.00  0.00    -0.059 C  
ENDROOT
BRANCH   4  13
HETATM   13  C   UNL     1      -9.884  14.651  68.898  1.00  0.00    -0.211 C  
BRANCH  13  14
HETATM   14  S   UNL     1     -11.233  15.825  68.616  1.00  0.00    -0.369 SA 
BRANCH  14  15
HETATM   15  C   UNL     1     -10.501  17.126  67.772  1.00  0.00    -0.362 A  
HETATM   16  N   UNL     1     -10.115  18.287  68.246  1.00  0.00    -0.367 NA 
HETATM   17  C   UNL     1     -10.475  16.056  65.472  1.00  0.00    -0.405 C  
HETATM   18  N   UNL     1      -9.638  18.992  67.166  1.00  0.00    -0.306 NA 
HETATM   19  N   UNL     1     -10.253  17.102  66.429  1.00  0.00    -0.322 NA 
HETATM   20  N   UNL     1      -9.721  18.277  66.052  1.00  0.00    -0.525 NA 
ENDBRANCH  14  15
ENDBRANCH  13  14
ENDBRANCH   4  13
BRANCH   6  21
HETATM   21  N   UNL     1      -9.383   9.051  65.955  1.00  0.00    -0.224 N  
HETATM   22  H   UNL     1     -10.306   9.034  66.389  1.00  0.00     0.000 HD 
HETATM   23  O   UNL     1      -7.571   7.798  65.369  1.00  0.00    -0.080 OA 
HETATM   24  C   UNL     1      -8.617   7.905  66.006  1.00  0.00    -0.150 C  
BRANCH  24  25
HETATM   25  CA  UNL     1      -9.085   6.856  67.052  1.00  0.00    -0.136 C  
BRANCH  25  26
HETATM   26  C   UNL     1      -9.127   5.459  66.448  1.00  0.00    -0.141 A  
HETATM   27  C   UNL     1      -9.762   3.924  64.665  1.00  0.00    -0.186 A  
HETATM   28  C   UNL     1      -8.520   4.388  67.119  1.00  0.00    -0.104 A  
HETATM   29  O   UNL     1      -9.159   1.650  64.762  1.00  0.00    -0.116 OA 
HETATM   30  C   UNL     1      -9.749   5.209  65.209  1.00  0.00     0.092 A  
HETATM   31  C   UNL     1      -8.527   3.101  66.569  1.00  0.00    -0.109 A  
HETATM   32  H   UNL     1      -9.580   1.501  63.924  1.00  0.00     0.000 HD 
HETATM   33  C   UNL     1      -9.143   2.883  65.343  1.00  0.00    -0.149 A  
ENDBRANCH  25  26
BRANCH  25  34
HETATM   34  N   UNL     1      -8.230   6.853  68.237  1.00  0.00    -0.122 N  
HETATM   35  H   UNL     1      -7.428   6.223  68.263  1.00  0.00     0.000 HD 
BRANCH  34  36
HETATM   36  C   UNL     1      -8.465   7.663  69.314  1.00  0.00    -0.138 C  
HETATM   37  O   UNL     1      -8.374   8.885  69.224  1.00  0.00    -0.115 OA 
BRANCH  36  38
HETATM   38  N   UNL     1      -8.821   7.018  70.492  1.00  0.00    -0.153 N  
HETATM   39  C   UNL     1      -9.976   7.526  71.226  1.00  0.00    -0.186 C  
HETATM   40  N   UNL     1     -10.042   5.471  72.545  1.00  0.00    -0.173 N  
HETATM   41  C   UNL     1     -10.839   6.401  71.764  1.00  0.00    -0.241 C  
HETATM   42  C   UNL     1      -8.817   5.034  72.047  1.00  0.00    -0.129 C  
HETATM   43  O   UNL     1      -6.914   5.739  70.773  1.00  0.00    -0.058 OA 
HETATM   44  C   UNL     1      -8.097   5.953  71.033  1.00  0.00    -0.121 C  
HETATM   45  O   UNL     1      -8.275   3.991  72.394  1.00  0.00    -0.094 OA 
BRANCH  40  46
HETATM   46  C   UNL     1     -10.614   4.824  73.720  1.00  0.00    -0.272 C  
HETATM   47  C   UNL     1     -11.468   3.609  73.412  1.00  0.00    -0.141 C  
ENDBRANCH  40  46
ENDBRANCH  36  38
ENDBRANCH  34  36
ENDBRANCH  25  34
ENDBRANCH  24  25
ENDBRANCH   6  21
TORSDOF 10
ENDMDL
MODEL      124
REMARK 921   NORMALIZED FREE ENERGY PREDICTED BY IDOCK:   -5.19 KCAL/MOL
REMARK 922        TOTAL FREE ENERGY PREDICTED BY IDOCK:  -10.51 KCAL/MOL
REMARK 923 INTER-LIGAND FREE ENERGY PREDICTED BY IDOCK:   -9.03 KCAL/MOL
REMARK 924 INTRA-LIGAND FREE ENERGY PREDICTED BY IDOCK:   -1.49 KCAL/MOL
REMARK 927      BINDING AFFINITY PREDICTED BY RF-SCORE:    0.00 PKD
ROOT
HETATM    1  C   UNL     1      -7.461   9.780  65.905  1.00  0.00    -0.103 C  
HETATM    2  S   UNL     1      -6.191  10.261  67.099  1.00  0.00    -0.063 SA 
HETATM    3  C   UNL     1      -5.793   8.555  67.538  1.00  0.00    -0.043 C  
HETATM    4  C   UNL     1      -6.994   7.655  67.809  1.00  0.00    -0.077 C  
HETATM    5  CA  UNL     1      -8.264   7.935  67.392  1.00  0.00    -0.123 C  
HETATM    6  CA  UNL     1      -8.554  10.869  65.613  1.00  0.00    -0.160 C  
HETATM    7  O   UNL     1     -10.718   9.507  66.233  1.00  0.00    -0.031 OA 
HETATM    8  N   UNL     1      -8.488   9.032  66.605  1.00  0.00    -0.121 N  
HETATM    9  C   UNL     1      -9.432   7.089  67.870  1.00  0.00    -0.124 C  
HETATM   10  OXT UNL     1      -9.368   6.319  68.817  1.00  0.00    -0.125 OA 
HETATM   11  O   UNL     1     -10.561   7.150  67.135  1.00  0.00    -0.280 OA 
HETATM   12  C   UNL     1      -9.538   9.758  66.153  1.00  0.00    -0.227 C  
ENDROOT
BRANCH   4  13
HETATM   13  C   UNL     1      -6.586   6.492  68.714  1.00  0.00    -0.051 C  
BRANCH  13  14
HETATM   14  S   UNL     1      -5.882   6.947  70.319  1.00  0.00    -0.024 SA 
BRANCH  14  15
HETATM   15  C   UNL     1      -7.200   6.841  71.412  1.00  0.00    -0.081 A  
HETATM   16  N   UNL     1      -7.530   5.840  72.192  1.00  0.00    -0.094 NA 
HETATM   17  C   UNL     1      -8.187   9.135  70.965  1.00  0.00    -0.137 C  
HETATM   18  N   UNL     1      -8.684   6.226  72.831  1.00  0.00    -0.126 NA 
HETATM   19  N   UNL     1      -8.119   7.838  71.574  1.00  0.00    -0.097 NA 
HETATM   20  N   UNL     1      -9.053   7.444  72.458  1.00  0.00    -0.136 NA 
ENDBRANCH  14  15
ENDBRANCH  13  14
ENDBRANCH   4  13
BRANCH   6  21
HETATM   21  N   UNL     1      -8.427  12.115  66.422  1.00  0.00    -0.396 N  
HETATM   22  H   UNL     1      -7.513  12.347  66.809  1.00  0.00     0.000 HD 
HETATM   23  O   UNL     1     -10.564  12.846  66.108  1.00  0.00    -0.266 OA 
HETATM   24  C   UNL     1      -9.480  12.970  66.673  1.00  0.00    -0.256 C  
BRANCH  24  25
HETATM   25  CA  UNL     1      -9.240  13.971  67.837  1.00  0.00    -0.195 C  
BRANCH  25  26
HETATM   26  C   UNL     1      -9.554  15.397  67.409  1.00  0.00    -0.210 A  
HETATM   27  C   UNL     1      -9.690  17.785  67.877  1.00  0.00    -0.294 A  
HETATM   28  C   UNL     1      -9.978  15.657  66.097  1.00  0.00    -0.335 A  
HETATM   29  O   UNL     1     -10.332  19.307  66.199  1.00  0.00    -0.431 OA 
HETATM   30  C   UNL     1      -9.412  16.483  68.295  1.00  0.00    -0.220 A  
HETATM   31  C   UNL     1     -10.249  16.964  65.676  1.00  0.00    -0.227 A  
HETATM   32  H   UNL     1     -10.227  20.026  66.810  1.00  0.00     0.000 HD 
HETATM   33  C   UNL     1     -10.096  18.017  66.571  1.00  0.00    -0.379 A  
ENDBRANCH  25  26
BRANCH  25  34
HETATM   34  N   UNL     1     -10.028  13.628  69.019  1.00  0.00    -0.427 N  
HETATM   35  H   UNL     1      -9.541  13.444  69.897  1.00  0.00     0.000 HD 
BRANCH  34  36
HETATM   36  C   UNL     1     -11.392  13.543  68.993  1.00  0.00    -0.288 C  
HETATM   37  O   UNL     1     -12.075  14.415  68.461  1.00  0.00    -0.318 OA 
BRANCH  36  38
HETATM   38  N   UNL     1     -11.942  12.414  69.587  1.00  0.00    -0.298 N  
HETATM   39  C   UNL     1     -11.745  11.129  68.925  1.00  0.00    -0.337 C  
HETATM   40  N   UNL     1     -12.450   9.971  70.956  1.00  0.00    -0.337 N  
HETATM   41  C   UNL     1     -11.436  10.025  69.918  1.00  0.00    -0.215 C  
HETATM   42  C   UNL     1     -12.873  11.152  71.562  1.00  0.00    -0.437 C  
HETATM   43  O   UNL     1     -13.309  13.468  71.127  1.00  0.00    -0.207 OA 
HETATM   44  C   UNL     1     -12.718  12.458  70.748  1.00  0.00    -0.123 C  
HETATM   45  O   UNL     1     -13.387  11.201  72.673  1.00  0.00     0.137 OA 
BRANCH  40  46
HETATM   46  C   UNL     1     -12.851   8.688  71.522  1.00  0.00    -0.319 C  
HETATM   47  C   UNL     1     -14.331   8.384  71.396  1.00  0.00    -0.425 C  
ENDBRANCH  40  46
ENDBRANCH  36  38
ENDBRANCH  34  36
ENDBRANCH  25  34
ENDBRANCH  24  25
ENDBRANCH   6  21
TORSDOF 10
ENDMDL
MODEL      125
REMARK 921   NORMALIZED FREE ENERGY PREDICTED BY IDOCK:   -5.17 KCAL/MOL
REMARK 922        TOTAL FREE ENERGY PREDICTED BY IDOCK:  -10.49 KCAL/MOL
REMARK 923 INTER-LIGAND FREE ENERGY PREDICTED BY IDOCK:   -8.87 KCAL/MOL
REMARK 924 INTRA-LIGAND FREE ENERGY PREDICTED BY IDOCK:   -1.61 KCAL/MOL
REMARK 927      BINDING AFFINITY PREDICTED BY RF-SCORE:    0.00 PKD
ROOT
HETATM    1  C   UNL     1      -6.940  11.119  67.699  1.00  0.00    -0.084 C  
HETATM    2  S   UNL     1      -8.527  10.446  67.152  1.00  0.00    -0.126 SA 
HETATM    3  C   UNL     1      -9.072  12.008  66.427  1.00  0.00    -0.193 C  
HETATM    4  C   UNL     1      -8.867  13.239  67.304  1.00  0.00    -0.216 C  
HETATM    5  CA  UNL     1      -8.005  13.284  68.363  1.00  0.00    -0.132 C  
HETATM    6  CA  UNL     1      -6.267  10.360  68.897  1.00  0.00    -0.043 C  
HETATM    7  O   UNL     1      -6.020  12.347  70.603  1.00  0.00    -0.238 OA 
HETATM    8  N   UNL     1      -7.198  12.209  68.621  1.00  0.00    -0.106 N  
HETATM    9  C   UNL     1      -8.004  14.479  69.301  1.00  0.00     0.007 C  
HETATM   10  OXT UNL     1      -8.901  15.309  69.342  1.00  0.00    -0.238 OA 
HETATM   11  O   UNL     1      -6.900  14.654  70.054  1.00  0.00    -0.162 OA 
HETATM   12  C   UNL     1      -6.390  11.762  69.611  1.00  0.00    -0.129 C  
ENDROOT
BRANCH   4  13
HETATM   13  C   UNL     1      -9.851  14.339  66.906  1.00  0.00    -0.263 C  
BRANCH  13  14
HETATM   14  S   UNL     1     -11.605  13.954  67.140  1.00  0.00    -0.386 SA 
BRANCH  14  15
HETATM   15  C   UNL     1     -12.163  13.526  65.575  1.00  0.00    -0.451 A  
HETATM   16  N   UNL     1     -12.637  12.373  65.170  1.00  0.00    -0.599 NA 
HETATM   17  C   UNL     1     -11.737  15.759  64.449  1.00  0.00    -0.201 C  
HETATM   18  N   UNL     1     -12.898  12.525  63.828  1.00  0.00    -0.759 NA 
HETATM   19  N   UNL     1     -12.145  14.385  64.513  1.00  0.00    -0.468 NA 
HETATM   20  N   UNL     1     -12.597  13.750  63.418  1.00  0.00    -0.789 NA 
ENDBRANCH  14  15
ENDBRANCH  13  14
ENDBRANCH   4  13
BRANCH   6  21
HETATM   21  N   UNL     1      -7.071   9.238  69.458  1.00  0.00    -0.058 N  
HETATM   22  H   UNL     1      -8.011   9.088  69.092  1.00  0.00     0.000 HD 
HETATM   23  O   UNL     1      -5.442   8.406  70.819  1.00  0.00    -0.028 OA 
HETATM   24  C   UNL     1      -6.613   8.392  70.447  1.00  0.00    -0.036 C  
BRANCH  24  25
HETATM   25  CA  UNL     1      -7.720   7.564  71.157  1.00  0.00    -0.089 C  
BRANCH  25  26
HETATM   26  C   UNL     1      -9.097   8.167  70.916  1.00  0.00    -0.169 A  
HETATM   27  C   UNL     1     -11.066   9.370  71.698  1.00  0.00    -0.409 A  
HETATM   28  C   UNL     1      -9.673   8.107  69.639  1.00  0.00    -0.170 A  
HETATM   29  O   UNL     1     -12.825   9.891  70.222  1.00  0.00    -0.538 OA 
HETATM   30  C   UNL     1      -9.812   8.810  71.945  1.00  0.00    -0.395 A  
HETATM   31  C   UNL     1     -10.928   8.675  69.390  1.00  0.00    -0.034 A  
HETATM   32  H   UNL     1     -13.291  10.323  70.927  1.00  0.00     0.000 HD 
HETATM   33  C   UNL     1     -11.609   9.308  70.423  1.00  0.00    -0.173 A  
ENDBRANCH  25  26
BRANCH  25  34
HETATM   34  N   UNL     1      -7.712   6.167  70.728  1.00  0.00    -0.099 N  
HETATM   35  H   UNL     1      -8.339   5.508  71.190  1.00  0.00     0.000 HD 
BRANCH  34  36
HETATM   36  C   UNL     1      -6.897   5.710  69.731  1.00  0.00    -0.060 C  
HETATM   37  O   UNL     1      -5.739   5.369  69.959  1.00  0.00    -0.014 OA 
BRANCH  36  38
HETATM   38  N   UNL     1      -7.465   5.644  68.464  1.00  0.00    -0.079 N  
HETATM   39  C   UNL     1      -6.840   6.413  67.394  1.00  0.00    -0.069 C  
HETATM   40  N   UNL     1      -8.110   5.144  65.738  1.00  0.00    -0.108 N  
HETATM   41  C   UNL     1      -6.789   5.632  66.095  1.00  0.00    -0.058 C  
HETATM   42  C   UNL     1      -8.903   4.541  66.711  1.00  0.00    -0.112 C  
HETATM   43  O   UNL     1      -9.464   4.631  69.039  1.00  0.00    -0.130 OA 
HETATM   44  C   UNL     1      -8.633   4.929  68.184  1.00  0.00    -0.102 C  
HETATM   45  O   UNL     1      -9.813   3.760  66.459  1.00  0.00    -0.173 OA 
BRANCH  40  46
HETATM   46  C   UNL     1      -8.510   5.073  64.337  1.00  0.00    -0.142 C  
HETATM   47  C   UNL     1      -7.398   4.671  63.388  1.00  0.00    -0.053 C  
ENDBRANCH  40  46
ENDBRANCH  36  38
ENDBRANCH  34  36
ENDBRANCH  25  34
ENDBRANCH  24  25
ENDBRANCH   6  21
TORSDOF 10
ENDMDL
MODEL      126
REMARK 921   NORMALIZED FREE ENERGY PREDICTED BY IDOCK:   -5.16 KCAL/MOL
REMARK 922        TOTAL FREE ENERGY PREDICTED BY IDOCK:  -10.47 KCAL/MOL
REMARK 923 INTER-LIGAND FREE ENERGY PREDICTED BY IDOCK:   -7.65 KCAL/MOL
REMARK 924 INTRA-LIGAND FREE ENERGY PREDICTED BY IDOCK:   -2.82 KCAL/MOL
REMARK 927      BINDING AFFINITY PREDICTED BY RF-SCORE:    0.00 PKD
ROOT
HETATM    1  C   UNL     1     -11.079  10.118  67.850  1.00  0.00    -0.238 C  
HETATM    2  S   UNL     1      -9.461   9.448  67.400  1.00  0.00    -0.134 SA 
HETATM    3  C   UNL     1      -9.751   7.873  68.237  1.00  0.00    -0.160 C  
HETATM    4  C   UNL     1     -10.325   7.981  69.646  1.00  0.00    -0.220 C  
HETATM    5  CA  UNL     1     -10.950   9.095  70.130  1.00  0.00    -0.239 C  
HETATM    6  CA  UNL     1     -11.174  11.685  67.872  1.00  0.00    -0.269 C  
HETATM    7  O   UNL     1     -11.979  12.050  70.349  1.00  0.00    -0.348 OA 
HETATM    8  N   UNL     1     -11.172  10.158  69.296  1.00  0.00    -0.219 N  
HETATM    9  C   UNL     1     -11.318   9.190  71.601  1.00  0.00    -0.376 C  
HETATM   10  OXT UNL     1     -10.865   8.449  72.461  1.00  0.00    -0.344 OA 
HETATM   11  O   UNL     1     -12.261  10.095  71.929  1.00  0.00    -0.332 OA 
HETATM   12  C   UNL     1     -11.552  11.455  69.387  1.00  0.00    -0.323 C  
ENDROOT
BRANCH   4  13
HETATM   13  C   UNL     1      -9.976   6.730  70.453  1.00  0.00    -0.179 C  
BRANCH  13  14
HETATM   14  S   UNL     1      -9.957   5.173  69.530  1.00  0.00    -0.246 SA 
BRANCH  14  15
HETATM   15  C   UNL     1      -8.300   4.734  69.461  1.00  0.00    -0.082 A  
HETATM   16  N   UNL     1      -7.473   4.528  70.457  1.00  0.00    -0.049 NA 
HETATM   17  C   UNL     1      -8.080   4.669  66.934  1.00  0.00    -0.103 C  
HETATM   18  N   UNL     1      -6.255   4.251  69.881  1.00  0.00    -0.026 NA 
HETATM   19  N   UNL     1      -7.618   4.572  68.289  1.00  0.00    -0.072 NA 
HETATM   20  N   UNL     1      -6.333   4.279  68.558  1.00  0.00    -0.035 NA 
ENDBRANCH  14  15
ENDBRANCH  13  14
ENDBRANCH   4  13
BRANCH   6  21
HETATM   21  N   UNL     1      -9.892  12.393  67.591  1.00  0.00    -0.194 N  
HETATM   22  H   UNL     1      -9.019  11.894  67.760  1.00  0.00     0.000 HD 
HETATM   23  O   UNL     1     -10.826  14.288  66.733  1.00  0.00    -0.292 OA 
HETATM   24  C   UNL     1      -9.825  13.686  67.114  1.00  0.00    -0.242 C  
BRANCH  24  25
HETATM   25  CA  UNL     1      -8.434  14.362  67.266  1.00  0.00    -0.212 C  
BRANCH  25  26
HETATM   26  C   UNL     1      -8.566  15.876  67.354  1.00  0.00    -0.189 A  
HETATM   27  C   UNL     1      -8.635  18.077  66.310  1.00  0.00    -0.204 A  
HETATM   28  C   UNL     1      -8.785  16.488  68.598  1.00  0.00    -0.244 A  
HETATM   29  O   UNL     1      -9.019  20.010  67.598  1.00  0.00    -0.323 OA 
HETATM   30  C   UNL     1      -8.495  16.691  66.209  1.00  0.00    -0.355 A  
HETATM   31  C   UNL     1      -8.933  17.876  68.698  1.00  0.00    -0.262 A  
HETATM   32  H   UNL     1      -8.972  20.543  66.814  1.00  0.00     0.000 HD 
HETATM   33  C   UNL     1      -8.863  18.656  67.550  1.00  0.00    -0.270 A  
ENDBRANCH  25  26
BRANCH  25  34
HETATM   34  N   UNL     1      -7.712  13.862  68.434  1.00  0.00    -0.132 N  
HETATM   35  H   UNL     1      -8.153  13.934  69.351  1.00  0.00     0.000 HD 
BRANCH  34  36
HETATM   36  C   UNL     1      -6.468  13.302  68.344  1.00  0.00    -0.091 C  
HETATM   37  O   UNL     1      -5.452  13.985  68.447  1.00  0.00    -0.091 OA 
BRANCH  36  38
HETATM   38  N   UNL     1      -6.434  11.927  68.147  1.00  0.00    -0.050 N  
HETATM   39  C   UNL     1      -6.415  11.434  66.774  1.00  0.00    -0.140 C  
HETATM   40  N   UNL     1      -5.749   9.225  67.576  1.00  0.00    -0.041 N  
HETATM   41  C   UNL     1      -5.458  10.269  66.609  1.00  0.00    -0.047 C  
HETATM   42  C   UNL     1      -5.971   9.568  68.907  1.00  0.00    -0.042 C  
HETATM   43  O   UNL     1      -6.932  11.259  70.306  1.00  0.00    -0.068 OA 
HETATM   44  C   UNL     1      -6.478  11.001  69.193  1.00  0.00    -0.066 C  
HETATM   45  O   UNL     1      -5.822   8.792  69.844  1.00  0.00    -0.028 OA 
BRANCH  40  46
HETATM   46  C   UNL     1      -5.581   7.822  67.212  1.00  0.00    -0.036 C  
HETATM   47  C   UNL     1      -5.644   7.550  65.721  1.00  0.00    -0.033 C  
ENDBRANCH  40  46
ENDBRANCH  36  38
ENDBRANCH  34  36
ENDBRANCH  25  34
ENDBRANCH  24  25
ENDBRANCH   6  21
TORSDOF 10
ENDMDL
MODEL      127
REMARK 921   NORMALIZED FREE ENERGY PREDICTED BY IDOCK:   -5.12 KCAL/MOL
REMARK 922        TOTAL FREE ENERGY PREDICTED BY IDOCK:  -10.41 KCAL/MOL
REMARK 923 INTER-LIGAND FREE ENERGY PREDICTED BY IDOCK:   -8.62 KCAL/MOL
REMARK 924 INTRA-LIGAND FREE ENERGY PREDICTED BY IDOCK:   -1.79 KCAL/MOL
REMARK 927      BINDING AFFINITY PREDICTED BY RF-SCORE:    0.00 PKD
ROOT
HETATM    1  C   UNL     1     -11.748  11.728  67.197  1.00  0.00    -0.188 C  
HETATM    2  S   UNL     1     -10.822  11.281  68.685  1.00  0.00    -0.221 SA 
HETATM    3  C   UNL     1     -11.368  12.738  69.603  1.00  0.00    -0.099 C  
HETATM    4  C   UNL     1     -11.276  14.058  68.844  1.00  0.00    -0.303 C  
HETATM    5  CA  UNL     1     -11.182  14.149  67.485  1.00  0.00    -0.306 C  
HETATM    6  CA  UNL     1     -11.205  11.114  65.859  1.00  0.00     0.055 C  
HETATM    7  O   UNL     1     -10.805  13.320  64.484  1.00  0.00    -0.351 OA 
HETATM    8  N   UNL     1     -11.266  13.012  66.726  1.00  0.00    -0.287 N  
HETATM    9  C   UNL     1     -10.899  15.487  66.823  1.00  0.00    -0.291 C  
HETATM   10  OXT UNL     1     -10.485  16.467  67.426  1.00  0.00    -0.301 OA 
HETATM   11  O   UNL     1     -11.212  15.592  65.517  1.00  0.00    -0.256 OA 
HETATM   12  C   UNL     1     -11.042  12.629  65.447  1.00  0.00    -0.292 C  
ENDROOT
BRANCH   4  13
HETATM   13  C   UNL     1     -11.169  15.224  69.828  1.00  0.00    -0.286 C  
BRANCH  13  14
HETATM   14  S   UNL     1     -12.734  15.838  70.500  1.00  0.00    -0.022 SA 
BRANCH  14  15
HETATM   15  C   UNL     1     -12.626  15.538  72.185  1.00  0.00    -0.398 A  
HETATM   16  N   UNL     1     -12.217  16.349  73.130  1.00  0.00    -0.508 NA 
HETATM   17  C   UNL     1     -13.456  13.140  72.147  1.00  0.00    -0.560 C  
HETATM   18  N   UNL     1     -12.272  15.624  74.297  1.00  0.00    -0.608 NA 
HETATM   19  N   UNL     1     -12.946  14.337  72.752  1.00  0.00    -0.462 NA 
HETATM   20  N   UNL     1     -12.713  14.393  74.075  1.00  0.00    -0.136 NA 
ENDBRANCH  14  15
ENDBRANCH  13  14
ENDBRANCH   4  13
BRANCH   6  21
HETATM   21  N   UNL     1      -9.958  10.310  66.000  1.00  0.00    -0.233 N  
HETATM   22  H   UNL     1      -9.850   9.730  66.832  1.00  0.00     0.000 HD 
HETATM   23  O   UNL     1      -9.071  10.847  63.970  1.00  0.00    -0.189 OA 
HETATM   24  C   UNL     1      -8.943  10.307  65.067  1.00  0.00    -0.196 C  
BRANCH  24  25
HETATM   25  CA  UNL     1      -7.592   9.734  65.577  1.00  0.00    -0.118 C  
BRANCH  25  26
HETATM   26  C   UNL     1      -7.251  10.278  66.957  1.00  0.00    -0.091 A  
HETATM   27  C   UNL     1      -6.816   9.950  69.333  1.00  0.00    -0.060 A  
HETATM   28  C   UNL     1      -7.013  11.650  67.130  1.00  0.00    -0.144 A  
HETATM   29  O   UNL     1      -6.230  11.766  70.712  1.00  0.00    -0.525 OA 
HETATM   30  C   UNL     1      -7.146   9.433  68.079  1.00  0.00    -0.081 A  
HETATM   31  C   UNL     1      -6.675  12.167  68.386  1.00  0.00    -0.062 A  
HETATM   32  H   UNL     1      -6.160  11.181  71.456  1.00  0.00     0.000 HD 
HETATM   33  C   UNL     1      -6.573  11.309  69.475  1.00  0.00    -0.129 A  
ENDBRANCH  25  26
BRANCH  25  34
HETATM   34  N   UNL     1      -7.602   8.273  65.614  1.00  0.00    -0.080 N  
HETATM   35  H   UNL     1      -8.357   7.799  66.110  1.00  0.00     0.000 HD 
BRANCH  34  36
HETATM   36  C   UNL     1      -6.638   7.517  65.007  1.00  0.00    -0.044 C  
HETATM   37  O   UNL     1      -5.485   7.925  64.894  1.00  0.00    -0.032 OA 
BRANCH  36  38
HETATM   38  N   UNL     1      -7.044   6.269  64.550  1.00  0.00    -0.054 N  
HETATM   39  C   UNL     1      -6.430   5.089  65.148  1.00  0.00    -0.036 C  
HETATM   40  N   UNL     1      -8.181   3.686  64.184  1.00  0.00    -0.089 N  
HETATM   41  C   UNL     1      -7.446   3.991  65.399  1.00  0.00    -0.081 C  
HETATM   42  C   UNL     1      -8.679   4.728  63.405  1.00  0.00    -0.127 C  
HETATM   43  O   UNL     1      -8.193   6.954  62.662  1.00  0.00    -0.096 OA 
HETATM   44  C   UNL     1      -7.961   6.094  63.510  1.00  0.00    -0.100 C  
HETATM   45  O   UNL     1      -9.617   4.608  62.626  1.00  0.00    -0.099 OA 
BRANCH  40  46
HETATM   46  C   UNL     1      -8.596   2.316  63.904  1.00  0.00    -0.086 C  
HETATM   47  C   UNL     1      -7.721   1.590  62.901  1.00  0.00    -0.050 C  
ENDBRANCH  40  46
ENDBRANCH  36  38
ENDBRANCH  34  36
ENDBRANCH  25  34
ENDBRANCH  24  25
ENDBRANCH   6  21
TORSDOF 10
ENDMDL
MODEL      128
REMARK 921   NORMALIZED FREE ENERGY PREDICTED BY IDOCK:   -5.07 KCAL/MOL
REMARK 922        TOTAL FREE ENERGY PREDICTED BY IDOCK:  -10.34 KCAL/MOL
REMARK 923 INTER-LIGAND FREE ENERGY PREDICTED BY IDOCK:   -9.50 KCAL/MOL
REMARK 924 INTRA-LIGAND FREE ENERGY PREDICTED BY IDOCK:   -0.84 KCAL/MOL
REMARK 927      BINDING AFFINITY PREDICTED BY RF-SCORE:    0.00 PKD
ROOT
HETATM    1  C   UNL     1      -9.378  11.430  68.742  1.00  0.00    -0.106 C  
HETATM    2  S   UNL     1      -9.171  11.452  66.946  1.00  0.00    -0.180 SA 
HETATM    3  C   UNL     1      -9.061  13.254  66.865  1.00  0.00    -0.232 C  
HETATM    4  C   UNL     1     -10.121  14.007  67.661  1.00  0.00    -0.241 C  
HETATM    5  CA  UNL     1     -10.854  13.449  68.670  1.00  0.00    -0.263 C  
HETATM    6  CA  UNL     1     -10.090  10.155  69.320  1.00  0.00    -0.222 C  
HETATM    7  O   UNL     1     -12.094  11.297  70.585  1.00  0.00    -0.355 OA 
HETATM    8  N   UNL     1     -10.580  12.170  69.074  1.00  0.00    -0.139 N  
HETATM    9  C   UNL     1     -12.021  14.207  69.280  1.00  0.00    -0.340 C  
HETATM   10  OXT UNL     1     -12.535  15.190  68.764  1.00  0.00    -0.009 OA 
HETATM   11  O   UNL     1     -12.434  13.801  70.497  1.00  0.00    -0.337 OA 
HETATM   12  C   UNL     1     -11.141  11.209  69.845  1.00  0.00    -0.162 C  
ENDROOT
BRANCH   4  13
HETATM   13  C   UNL     1     -10.324  15.405  67.077  1.00  0.00    -0.280 C  
BRANCH  13  14
HETATM   14  S   UNL     1      -9.701  16.780  68.076  1.00  0.00    -0.250 SA 
BRANCH  14  15
HETATM   15  C   UNL     1      -8.474  17.491  67.111  1.00  0.00    -0.217 A  
HETATM   16  N   UNL     1      -8.229  17.298  65.837  1.00  0.00    -0.543 NA 
HETATM   17  C   UNL     1      -7.404  18.906  68.925  1.00  0.00    -0.310 C  
HETATM   18  N   UNL     1      -7.119  18.057  65.550  1.00  0.00    -0.502 NA 
HETATM   19  N   UNL     1      -7.548  18.366  67.603  1.00  0.00    -0.227 NA 
HETATM   20  N   UNL     1      -6.695  18.711  66.623  1.00  0.00    -0.190 NA 
ENDBRANCH  14  15
ENDBRANCH  13  14
ENDBRANCH   4  13
BRANCH   6  21
HETATM   21  N   UNL     1     -10.559   9.182  68.293  1.00  0.00    -0.340 N  
HETATM   22  H   UNL     1     -11.473   9.333  67.867  1.00  0.00     0.000 HD 
HETATM   23  O   UNL     1      -8.653   7.931  68.232  1.00  0.00    -0.124 OA 
HETATM   24  C   UNL     1      -9.823   8.087  67.888  1.00  0.00    -0.167 C  
BRANCH  24  25
HETATM   25  CA  UNL     1     -10.635   7.004  67.126  1.00  0.00    -0.341 C  
BRANCH  25  26
HETATM   26  C   UNL     1      -9.758   6.262  66.127  1.00  0.00    -0.021 A  
HETATM   27  C   UNL     1      -7.770   6.122  64.724  1.00  0.00    -0.099 A  
HETATM   28  C   UNL     1     -10.119   4.976  65.699  1.00  0.00    -0.090 A  
HETATM   29  O   UNL     1      -7.320   4.185  63.463  1.00  0.00    -0.049 OA 
HETATM   30  C   UNL     1      -8.569   6.826  65.627  1.00  0.00    -0.126 A  
HETATM   31  C   UNL     1      -9.314   4.267  64.800  1.00  0.00    -0.163 A  
HETATM   32  H   UNL     1      -6.520   4.580  63.139  1.00  0.00     0.000 HD 
HETATM   33  C   UNL     1      -8.143   4.846  64.326  1.00  0.00    -0.115 A  
ENDBRANCH  25  26
BRANCH  25  34
HETATM   34  N   UNL     1     -11.256   6.049  68.040  1.00  0.00    -0.317 N  
HETATM   35  H   UNL     1     -12.273   5.960  68.041  1.00  0.00     0.000 HD 
BRANCH  34  36
HETATM   36  C   UNL     1     -10.527   5.268  68.894  1.00  0.00    -0.120 C  
HETATM   37  O   UNL     1     -10.057   4.194  68.531  1.00  0.00     0.008 OA 
BRANCH  36  38
HETATM   38  N   UNL     1     -10.347   5.776  70.175  1.00  0.00    -0.233 N  
HETATM   39  C   UNL     1      -9.137   5.394  70.896  1.00  0.00    -0.139 C  
HETATM   40  N   UNL     1      -9.532   7.187  72.508  1.00  0.00    -0.141 N  
HETATM   41  C   UNL     1      -8.538   6.567  71.649  1.00  0.00    -0.128 C  
HETATM   42  C   UNL     1     -10.803   7.450  72.004  1.00  0.00    -0.227 C  
HETATM   43  O   UNL     1     -12.482   6.596  70.523  1.00  0.00    -0.248 OA 
HETATM   44  C   UNL     1     -11.290   6.579  70.822  1.00  0.00    -0.342 C  
HETATM   45  O   UNL     1     -11.557   8.297  72.468  1.00  0.00    -0.383 OA 
BRANCH  40  46
HETATM   46  C   UNL     1      -9.141   7.739  73.800  1.00  0.00    -0.273 C  
HETATM   47  C   UNL     1      -7.655   8.004  73.943  1.00  0.00    -0.219 C  
ENDBRANCH  40  46
ENDBRANCH  36  38
ENDBRANCH  34  36
ENDBRANCH  25  34
ENDBRANCH  24  25
ENDBRANCH   6  21
TORSDOF 10
ENDMDL
MODEL      129
REMARK 921   NORMALIZED FREE ENERGY PREDICTED BY IDOCK:   -5.04 KCAL/MOL
REMARK 922        TOTAL FREE ENERGY PREDICTED BY IDOCK:  -10.28 KCAL/MOL
REMARK 923 INTER-LIGAND FREE ENERGY PREDICTED BY IDOCK:   -8.49 KCAL/MOL
REMARK 924 INTRA-LIGAND FREE ENERGY PREDICTED BY IDOCK:   -1.79 KCAL/MOL
REMARK 927      BINDING AFFINITY PREDICTED BY RF-SCORE:    0.00 PKD
ROOT
HETATM    1  C   UNL     1     -11.367   9.386  67.999  1.00  0.00     0.454 C  
HETATM    2  S   UNL     1     -11.094   9.891  69.714  1.00  0.00    -0.245 SA 
HETATM    3  C   UNL     1     -11.408  11.637  69.372  1.00  0.00    -0.278 C  
HETATM    4  C   UNL     1     -10.701  12.196  68.142  1.00  0.00    -0.238 C  
HETATM    5  CA  UNL     1     -10.195  11.422  67.137  1.00  0.00    -0.202 C  
HETATM    6  CA  UNL     1     -10.676   8.041  67.578  1.00  0.00    -0.168 C  
HETATM    7  O   UNL     1      -9.239   8.894  65.546  1.00  0.00    -0.220 OA 
HETATM    8  N   UNL     1     -10.400  10.069  67.161  1.00  0.00    -0.227 N  
HETATM    9  C   UNL     1      -9.337  12.043  66.048  1.00  0.00    -0.190 C  
HETATM   10  OXT UNL     1      -8.836  13.155  66.132  1.00  0.00     0.102 OA 
HETATM   11  O   UNL     1      -9.211  11.340  64.905  1.00  0.00    -0.197 OA 
HETATM   12  C   UNL     1      -9.944   8.963  66.526  1.00  0.00    -0.288 C  
ENDROOT
BRANCH   4  13
HETATM   13  C   UNL     1     -10.532  13.710  68.275  1.00  0.00    -0.249 C  
BRANCH  13  14
HETATM   14  S   UNL     1     -11.934  14.715  67.725  1.00  0.00    -0.177 SA 
BRANCH  14  15
HETATM   15  C   UNL     1     -12.287  14.133  66.150  1.00  0.00    -0.436 A  
HETATM   16  N   UNL     1     -13.034  13.111  65.811  1.00  0.00    -0.286 NA 
HETATM   17  C   UNL     1     -10.918  15.833  64.855  1.00  0.00    -0.427 C  
HETATM   18  N   UNL     1     -12.960  13.031  64.440  1.00  0.00    -0.652 NA 
HETATM   19  N   UNL     1     -11.772  14.690  65.014  1.00  0.00    -0.376 NA 
HETATM   20  N   UNL     1     -12.189  13.990  63.945  1.00  0.00    -0.614 NA 
ENDBRANCH  14  15
ENDBRANCH  13  14
ENDBRANCH   4  13
BRANCH   6  21
HETATM   21  N   UNL     1      -9.832   7.414  68.635  1.00  0.00    -0.159 N  
HETATM   22  H   UNL     1      -8.889   7.775  68.776  1.00  0.00     0.000 HD 
HETATM   23  O   UNL     1     -11.428   5.994  69.432  1.00  0.00    -0.372 OA 
HETATM   24  C   UNL     1     -10.259   6.371  69.431  1.00  0.00    -0.192 C  
BRANCH  24  25
HETATM   25  CA  UNL     1      -9.123   5.615  70.175  1.00  0.00    -0.138 C  
BRANCH  25  26
HETATM   26  C   UNL     1      -9.690   4.650  71.207  1.00  0.00    -0.251 A  
HETATM   27  C   UNL     1     -10.112   2.387  72.007  1.00  0.00    -0.204 A  
HETATM   28  C   UNL     1     -10.303   5.147  72.367  1.00  0.00    -0.257 A  
HETATM   29  O   UNL     1     -11.167   2.020  74.080  1.00  0.00    -0.164 OA 
HETATM   30  C   UNL     1      -9.600   3.255  71.040  1.00  0.00    -0.234 A  
HETATM   31  C   UNL     1     -10.810   4.277  73.339  1.00  0.00    -0.337 A  
HETATM   32  H   UNL     1     -11.094   1.082  73.952  1.00  0.00     0.000 HD 
HETATM   33  C   UNL     1     -10.703   2.904  73.151  1.00  0.00    -0.157 A  
ENDBRANCH  25  26
BRANCH  25  34
HETATM   34  N   UNL     1      -8.256   4.890  69.248  1.00  0.00    -0.081 N  
HETATM   35  H   UNL     1      -7.314   4.641  69.550  1.00  0.00     0.000 HD 
BRANCH  34  36
HETATM   36  C   UNL     1      -8.660   4.533  67.992  1.00  0.00    -0.102 C  
HETATM   37  O   UNL     1      -9.617   3.783  67.818  1.00  0.00    -0.186 OA 
BRANCH  36  38
HETATM   38  N   UNL     1      -7.933   5.082  66.942  1.00  0.00    -0.103 N  
HETATM   39  C   UNL     1      -8.215   4.605  65.593  1.00  0.00    -0.115 C  
HETATM   40  N   UNL     1      -7.003   6.510  64.663  1.00  0.00    -0.052 N  
HETATM   41  C   UNL     1      -8.231   5.739  64.586  1.00  0.00    -0.126 C  
HETATM   42  C   UNL     1      -6.509   6.889  65.909  1.00  0.00    -0.051 C  
HETATM   43  O   UNL     1      -6.299   6.155  68.181  1.00  0.00    -0.039 OA 
HETATM   44  C   UNL     1      -6.912   6.019  67.123  1.00  0.00    -0.069 C  
HETATM   45  O   UNL     1      -5.754   7.838  66.083  1.00  0.00    -0.035 OA 
BRANCH  40  46
HETATM   46  C   UNL     1      -6.419   7.081  63.455  1.00  0.00    -0.044 C  
HETATM   47  C   UNL     1      -7.397   7.856  62.593  1.00  0.00    -0.101 C  
ENDBRANCH  40  46
ENDBRANCH  36  38
ENDBRANCH  34  36
ENDBRANCH  25  34
ENDBRANCH  24  25
ENDBRANCH   6  21
TORSDOF 10
ENDMDL
MODEL      130
REMARK 921   NORMALIZED FREE ENERGY PREDICTED BY IDOCK:   -5.01 KCAL/MOL
REMARK 922        TOTAL FREE ENERGY PREDICTED BY IDOCK:  -10.24 KCAL/MOL
REMARK 923 INTER-LIGAND FREE ENERGY PREDICTED BY IDOCK:   -9.55 KCAL/MOL
REMARK 924 INTRA-LIGAND FREE ENERGY PREDICTED BY IDOCK:   -0.69 KCAL/MOL
REMARK 927      BINDING AFFINITY PREDICTED BY RF-SCORE:    0.00 PKD
ROOT
HETATM    1  C   UNL     1      -9.982   6.532  68.079  1.00  0.00    -0.134 C  
HETATM    2  S   UNL     1      -8.609   6.804  66.934  1.00  0.00    -0.119 SA 
HETATM    3  C   UNL     1      -7.615   5.462  67.623  1.00  0.00    -0.088 C  
HETATM    4  C   UNL     1      -7.530   5.431  69.146  1.00  0.00    -0.077 C  
HETATM    5  CA  UNL     1      -8.409   6.073  69.971  1.00  0.00    -0.123 C  
HETATM    6  CA  UNL     1     -10.908   7.775  68.324  1.00  0.00     0.062 C  
HETATM    7  O   UNL     1     -10.706   7.976  70.939  1.00  0.00    -0.216 OA 
HETATM    8  N   UNL     1      -9.492   6.713  69.433  1.00  0.00    -0.146 N  
HETATM    9  C   UNL     1      -8.141   6.153  71.464  1.00  0.00    -0.114 C  
HETATM   10  OXT UNL     1      -7.056   5.909  71.971  1.00  0.00    -0.082 OA 
HETATM   11  O   UNL     1      -9.198   6.427  72.252  1.00  0.00    -0.141 OA 
HETATM   12  C   UNL     1     -10.450   7.587  69.823  1.00  0.00    -0.230 C  
ENDROOT
BRANCH   4  13
HETATM   13  C   UNL     1      -6.260   4.701  69.586  1.00  0.00    -0.027 C  
BRANCH  13  14
HETATM   14  S   UNL     1      -6.478   2.986  70.123  1.00  0.00    -0.033 SA 
BRANCH  14  15
HETATM   15  C   UNL     1      -7.664   2.350  69.059  1.00  0.00    -0.042 A  
HETATM   16  N   UNL     1      -7.524   2.001  67.802  1.00  0.00    -0.054 NA 
HETATM   17  C   UNL     1      -9.611   2.367  70.686  1.00  0.00    -0.081 C  
HETATM   18  N   UNL     1      -8.772   1.602  67.384  1.00  0.00    -0.098 NA 
HETATM   19  N   UNL     1      -8.966   2.156  69.421  1.00  0.00    -0.092 NA 
HETATM   20  N   UNL     1      -9.659   1.696  68.365  1.00  0.00    -0.183 NA 
ENDBRANCH  14  15
ENDBRANCH  13  14
ENDBRANCH   4  13
BRANCH   6  21
HETATM   21  N   UNL     1     -10.476   9.023  67.633  1.00  0.00    -0.281 N  
HETATM   22  H   UNL     1     -10.016   8.938  66.727  1.00  0.00     0.000 HD 
HETATM   23  O   UNL     1     -11.352  10.478  69.153  1.00  0.00    -0.242 OA 
HETATM   24  C   UNL     1     -10.665  10.287  68.153  1.00  0.00    -0.246 C  
BRANCH  24  25
HETATM   25  CA  UNL     1      -9.807  11.398  67.487  1.00  0.00    -0.178 C  
BRANCH  25  26
HETATM   26  C   UNL     1     -10.520  11.992  66.280  1.00  0.00    -0.273 A  
HETATM   27  C   UNL     1     -12.530  12.835  65.190  1.00  0.00    -0.565 A  
HETATM   28  C   UNL     1      -9.796  12.287  65.115  1.00  0.00    -0.178 A  
HETATM   29  O   UNL     1     -12.441  13.699  63.001  1.00  0.00    -1.020 OA 
HETATM   30  C   UNL     1     -11.899  12.276  66.303  1.00  0.00    -0.387 A  
HETATM   31  C   UNL     1     -10.427  12.855  64.003  1.00  0.00    -0.395 A  
HETATM   32  H   UNL     1     -13.371  13.887  63.037  1.00  0.00     0.000 HD 
HETATM   33  C   UNL     1     -11.789  13.130  64.054  1.00  0.00    -0.453 A  
ENDBRANCH  25  26
BRANCH  25  34
HETATM   34  N   UNL     1      -9.469  12.461  68.430  1.00  0.00    -0.309 N  
HETATM   35  H   UNL     1      -8.636  12.358  69.010  1.00  0.00     0.000 HD 
BRANCH  34  36
HETATM   36  C   UNL     1     -10.228  13.591  68.566  1.00  0.00    -0.229 C  
HETATM   37  O   UNL     1     -11.346  13.551  69.074  1.00  0.00    -0.259 OA 
BRANCH  36  38
HETATM   38  N   UNL     1      -9.648  14.769  68.111  1.00  0.00    -0.205 N  
HETATM   39  C   UNL     1      -8.229  14.979  68.376  1.00  0.00    -0.151 C  
HETATM   40  N   UNL     1      -8.190  16.791  66.739  1.00  0.00    -0.210 N  
HETATM   41  C   UNL     1      -7.517  15.582  67.181  1.00  0.00    -0.209 C  
HETATM   42  C   UNL     1      -9.576  16.794  66.611  1.00  0.00    -0.258 C  
HETATM   43  O   UNL     1     -11.584  15.923  67.586  1.00  0.00    -0.157 OA 
HETATM   44  C   UNL     1     -10.368  15.780  67.469  1.00  0.00    -0.280 C  
HETATM   45  O   UNL     1     -10.192  17.572  65.891  1.00  0.00    -0.509 OA 
BRANCH  40  46
HETATM   46  C   UNL     1      -7.416  17.910  66.213  1.00  0.00    -0.286 C  
HETATM   47  C   UNL     1      -5.913  17.714  66.273  1.00  0.00    -0.255 C  
ENDBRANCH  40  46
ENDBRANCH  36  38
ENDBRANCH  34  36
ENDBRANCH  25  34
ENDBRANCH  24  25
ENDBRANCH   6  21
TORSDOF 10
ENDMDL
MODEL      131
REMARK 921   NORMALIZED FREE ENERGY PREDICTED BY IDOCK:   -5.01 KCAL/MOL
REMARK 922        TOTAL FREE ENERGY PREDICTED BY IDOCK:  -10.23 KCAL/MOL
REMARK 923 INTER-LIGAND FREE ENERGY PREDICTED BY IDOCK:   -7.15 KCAL/MOL
REMARK 924 INTRA-LIGAND FREE ENERGY PREDICTED BY IDOCK:   -3.08 KCAL/MOL
REMARK 927      BINDING AFFINITY PREDICTED BY RF-SCORE:    0.00 PKD
ROOT
HETATM    1  C   UNL     1      -6.672  10.900  67.686  1.00  0.00    -0.069 C  
HETATM    2  S   UNL     1      -8.235  10.183  67.127  1.00  0.00    -0.121 SA 
HETATM    3  C   UNL     1      -8.799  11.718  66.362  1.00  0.00    -0.170 C  
HETATM    4  C   UNL     1      -8.634  12.971  67.216  1.00  0.00    -0.206 C  
HETATM    5  CA  UNL     1      -7.791  13.055  68.288  1.00  0.00    -0.143 C  
HETATM    6  CA  UNL     1      -6.002  10.179  68.910  1.00  0.00    -0.037 C  
HETATM    7  O   UNL     1      -5.825  12.205  70.579  1.00  0.00    -0.167 OA 
HETATM    8  N   UNL     1      -6.967  12.002  68.581  1.00  0.00    -0.090 N  
HETATM    9  C   UNL     1      -7.830  14.269  69.201  1.00  0.00     0.018 C  
HETATM   10  OXT UNL     1      -8.744  15.081  69.210  1.00  0.00    -0.204 OA 
HETATM   11  O   UNL     1      -6.743  14.481  69.968  1.00  0.00    -0.160 OA 
HETATM   12  C   UNL     1      -6.167  11.592  69.593  1.00  0.00    -0.127 C  
ENDROOT
BRANCH   4  13
HETATM   13  C   UNL     1      -9.634  14.042  66.779  1.00  0.00    -0.286 C  
BRANCH  13  14
HETATM   14  S   UNL     1     -11.380  13.568  66.844  1.00  0.00    -0.341 SA 
BRANCH  14  15
HETATM   15  C   UNL     1     -11.690  13.297  68.509  1.00  0.00    -0.352 A  
HETATM   16  N   UNL     1     -11.701  12.158  69.159  1.00  0.00    -0.311 NA 
HETATM   17  C   UNL     1     -12.106  15.712  69.166  1.00  0.00    -0.227 C  
HETATM   18  N   UNL     1     -12.049  12.467  70.452  1.00  0.00    -0.349 NA 
HETATM   19  N   UNL     1     -12.007  14.297  69.383  1.00  0.00    -0.323 NA 
HETATM   20  N   UNL     1     -12.241  13.771  70.598  1.00  0.00    -0.352 NA 
ENDBRANCH  14  15
ENDBRANCH  13  14
ENDBRANCH   4  13
BRANCH   6  21
HETATM   21  N   UNL     1      -6.794   9.052  69.481  1.00  0.00    -0.047 N  
HETATM   22  H   UNL     1      -7.721   8.871  69.098  1.00  0.00     0.000 HD 
HETATM   23  O   UNL     1      -5.177   8.293  70.898  1.00  0.00    -0.025 OA 
HETATM   24  C   UNL     1      -6.339   8.241  70.500  1.00  0.00    -0.036 C  
BRANCH  24  25
HETATM   25  CA  UNL     1      -7.441   7.405  71.206  1.00  0.00    -0.081 C  
BRANCH  25  26
HETATM   26  C   UNL     1      -8.824   7.981  70.936  1.00  0.00    -0.147 A  
HETATM   27  C   UNL     1     -10.770   8.274  69.498  1.00  0.00    -0.179 A  
HETATM   28  C   UNL     1      -9.469   8.745  71.920  1.00  0.00    -0.362 A  
HETATM   29  O   UNL     1     -12.646   9.486  70.243  1.00  0.00    -0.468 OA 
HETATM   30  C   UNL     1      -9.495   7.750  69.720  1.00  0.00    -0.160 A  
HETATM   31  C   UNL     1     -10.750   9.263  71.701  1.00  0.00    -0.393 A  
HETATM   32  H   UNL     1     -13.084   9.317  69.417  1.00  0.00     0.000 HD 
HETATM   33  C   UNL     1     -11.391   9.016  70.492  1.00  0.00    -0.243 A  
ENDBRANCH  25  26
BRANCH  25  34
HETATM   34  N   UNL     1      -7.404   6.003  70.798  1.00  0.00    -0.083 N  
HETATM   35  H   UNL     1      -8.081   5.355  71.201  1.00  0.00     0.000 HD 
BRANCH  34  36
HETATM   36  C   UNL     1      -6.495   5.525  69.895  1.00  0.00    -0.034 C  
HETATM   37  O   UNL     1      -5.345   5.254  70.230  1.00  0.00    -0.004 OA 
BRANCH  36  38
HETATM   38  N   UNL     1      -6.961   5.355  68.597  1.00  0.00    -0.059 N  
HETATM   39  C   UNL     1      -7.837   4.220  68.328  1.00  0.00    -0.075 C  
HETATM   40  N   UNL     1      -8.475   5.216  66.191  1.00  0.00    -0.114 N  
HETATM   41  C   UNL     1      -8.979   4.597  67.404  1.00  0.00    -0.111 C  
HETATM   42  C   UNL     1      -7.494   6.201  66.282  1.00  0.00    -0.086 C  
HETATM   43  O   UNL     1      -5.556   6.853  67.530  1.00  0.00    -0.018 OA 
HETATM   44  C   UNL     1      -6.585   6.180  67.533  1.00  0.00    -0.056 C  
HETATM   45  O   UNL     1      -7.296   7.046  65.417  1.00  0.00    -0.073 OA 
BRANCH  40  46
HETATM   46  C   UNL     1      -9.145   4.983  64.917  1.00  0.00    -0.077 C  
HETATM   47  C   UNL     1     -10.379   4.106  65.010  1.00  0.00    -0.209 C  
ENDBRANCH  40  46
ENDBRANCH  36  38
ENDBRANCH  34  36
ENDBRANCH  25  34
ENDBRANCH  24  25
ENDBRANCH   6  21
TORSDOF 10
ENDMDL
MODEL      132
REMARK 921   NORMALIZED FREE ENERGY PREDICTED BY IDOCK:   -5.01 KCAL/MOL
REMARK 922        TOTAL FREE ENERGY PREDICTED BY IDOCK:  -10.23 KCAL/MOL
REMARK 923 INTER-LIGAND FREE ENERGY PREDICTED BY IDOCK:   -8.34 KCAL/MOL
REMARK 924 INTRA-LIGAND FREE ENERGY PREDICTED BY IDOCK:   -1.89 KCAL/MOL
REMARK 927      BINDING AFFINITY PREDICTED BY RF-SCORE:    0.00 PKD
ROOT
HETATM    1  C   UNL     1     -10.840   5.826  69.179  1.00  0.00    -0.285 C  
HETATM    2  S   UNL     1      -9.186   5.932  68.456  1.00  0.00    -0.117 SA 
HETATM    3  C   UNL     1      -8.639   4.375  69.192  1.00  0.00    -0.082 C  
HETATM    4  C   UNL     1      -8.969   4.203  70.672  1.00  0.00    -0.153 C  
HETATM    5  CA  UNL     1      -9.923   4.928  71.327  1.00  0.00    -0.201 C  
HETATM    6  CA  UNL     1     -11.590   7.196  69.343  1.00  0.00     0.217 C  
HETATM    7  O   UNL     1     -12.064   7.139  71.930  1.00  0.00    -0.300 OA 
HETATM    8  N   UNL     1     -10.708   5.801  70.623  1.00  0.00    -0.278 N  
HETATM    9  C   UNL     1     -10.054   4.833  72.838  1.00  0.00    -0.168 C  
HETATM   10  OXT UNL     1      -9.197   4.350  73.564  1.00  0.00    -0.109 OA 
HETATM   11  O   UNL     1     -11.227   5.234  73.367  1.00  0.00    -0.304 OA 
HETATM   12  C   UNL     1     -11.584   6.803  70.872  1.00  0.00    -0.353 C  
ENDROOT
BRANCH   4  13
HETATM   13  C   UNL     1      -7.995   3.217  71.316  1.00  0.00    -0.058 C  
BRANCH  13  14
HETATM   14  S   UNL     1      -6.235   3.579  71.092  1.00  0.00    -0.019 SA 
BRANCH  14  15
HETATM   15  C   UNL     1      -6.046   5.175  71.693  1.00  0.00    -0.029 A  
HETATM   16  N   UNL     1      -6.153   5.595  72.930  1.00  0.00    -0.045 NA 
HETATM   17  C   UNL     1      -5.552   6.307  69.476  1.00  0.00    -0.013 C  
HETATM   18  N   UNL     1      -5.961   6.956  72.882  1.00  0.00    -0.042 NA 
HETATM   19  N   UNL     1      -5.776   6.248  70.892  1.00  0.00    -0.022 NA 
HETATM   20  N   UNL     1      -5.734   7.364  71.641  1.00  0.00    -0.036 NA 
ENDBRANCH  14  15
ENDBRANCH  13  14
ENDBRANCH   4  13
BRANCH   6  21
HETATM   21  N   UNL     1     -10.796   8.394  68.947  1.00  0.00    -0.425 N  
HETATM   22  H   UNL     1      -9.957   8.252  68.385  1.00  0.00     0.000 HD 
HETATM   23  O   UNL     1     -12.211   9.946  69.833  1.00  0.00     0.002 OA 
HETATM   24  C   UNL     1     -11.135   9.683  69.300  1.00  0.00    -0.118 C  
BRANCH  24  25
HETATM   25  CA  UNL     1      -9.994  10.724  69.135  1.00  0.00    -0.187 C  
BRANCH  25  26
HETATM   26  C   UNL     1      -9.366  10.635  67.751  1.00  0.00    -0.154 A  
HETATM   27  C   UNL     1      -9.524  10.189  65.360  1.00  0.00    -0.296 A  
HETATM   28  C   UNL     1      -8.013  10.962  67.574  1.00  0.00    -0.115 A  
HETATM   29  O   UNL     1      -7.658  10.481  63.955  1.00  0.00    -0.322 OA 
HETATM   30  C   UNL     1     -10.115  10.249  66.624  1.00  0.00    -0.281 A  
HETATM   31  C   UNL     1      -7.422  10.909  66.306  1.00  0.00    -0.129 A  
HETATM   32  H   UNL     1      -8.181  10.222  63.205  1.00  0.00     0.000 HD 
HETATM   33  C   UNL     1      -8.187  10.529  65.210  1.00  0.00    -0.146 A  
ENDBRANCH  25  26
BRANCH  25  34
HETATM   34  N   UNL     1     -10.463  12.087  69.375  1.00  0.00    -0.419 N  
HETATM   35  H   UNL     1     -10.322  12.499  70.298  1.00  0.00     0.000 HD 
BRANCH  34  36
HETATM   36  C   UNL     1     -11.083  12.831  68.411  1.00  0.00    -0.262 C  
HETATM   37  O   UNL     1     -12.143  12.466  67.907  1.00  0.00    -0.428 OA 
BRANCH  36  38
HETATM   38  N   UNL     1     -10.449  14.016  68.057  1.00  0.00    -0.237 N  
HETATM   39  C   UNL     1      -9.785  14.074  66.759  1.00  0.00    -0.278 C  
HETATM   40  N   UNL     1      -9.658  16.507  66.931  1.00  0.00    -0.235 N  
HETATM   41  C   UNL     1     -10.023  15.401  66.064  1.00  0.00    -0.324 C  
HETATM   42  C   UNL     1     -10.073  16.501  68.260  1.00  0.00    -0.259 C  
HETATM   43  O   UNL     1     -10.479  15.051  70.125  1.00  0.00    -0.189 OA 
HETATM   44  C   UNL     1     -10.367  15.125  68.903  1.00  0.00    -0.243 C  
HETATM   45  O   UNL     1     -10.180  17.511  68.945  1.00  0.00    -0.344 OA 
BRANCH  40  46
HETATM   46  C   UNL     1      -9.067  17.715  66.367  1.00  0.00    -0.234 C  
HETATM   47  C   UNL     1      -7.575  17.622  66.112  1.00  0.00    -0.315 C  
ENDBRANCH  40  46
ENDBRANCH  36  38
ENDBRANCH  34  36
ENDBRANCH  25  34
ENDBRANCH  24  25
ENDBRANCH   6  21
TORSDOF 10
ENDMDL
MODEL      133
REMARK 921   NORMALIZED FREE ENERGY PREDICTED BY IDOCK:   -4.96 KCAL/MOL
REMARK 922        TOTAL FREE ENERGY PREDICTED BY IDOCK:  -10.16 KCAL/MOL
REMARK 923 INTER-LIGAND FREE ENERGY PREDICTED BY IDOCK:   -9.21 KCAL/MOL
REMARK 924 INTRA-LIGAND FREE ENERGY PREDICTED BY IDOCK:   -0.95 KCAL/MOL
REMARK 927      BINDING AFFINITY PREDICTED BY RF-SCORE:    0.00 PKD
ROOT
HETATM    1  C   UNL     1      -8.752   9.742  68.897  1.00  0.00    -0.136 C  
HETATM    2  S   UNL     1      -8.698   8.255  67.869  1.00  0.00    -0.135 SA 
HETATM    3  C   UNL     1      -8.804   9.181  66.321  1.00  0.00    -0.148 C  
HETATM    4  C   UNL     1      -9.874  10.267  66.284  1.00  0.00    -0.276 C  
HETATM    5  CA  UNL     1     -10.452  10.804  67.399  1.00  0.00    -0.225 C  
HETATM    6  CA  UNL     1      -9.262   9.523  70.366  1.00  0.00    -0.253 C  
HETATM    7  O   UNL     1     -11.272  11.220  70.398  1.00  0.00    -0.133 OA 
HETATM    8  N   UNL     1     -10.000  10.433  68.637  1.00  0.00    -0.169 N  
HETATM    9  C   UNL     1     -11.644  11.738  67.272  1.00  0.00    -0.269 C  
HETATM   10  OXT UNL     1     -12.307  11.853  66.251  1.00  0.00    -0.270 OA 
HETATM   11  O   UNL     1     -11.904  12.531  68.329  1.00  0.00    -0.324 OA 
HETATM   12  C   UNL     1     -10.380  10.549  69.931  1.00  0.00    -0.114 C  
ENDROOT
BRANCH   4  13
HETATM   13  C   UNL     1     -10.284  10.552  64.839  1.00  0.00    -0.300 C  
BRANCH  13  14
HETATM   14  S   UNL     1      -9.543  12.019  64.080  1.00  0.00     0.091 SA 
BRANCH  14  15
HETATM   15  C   UNL     1     -10.834  13.143  63.968  1.00  0.00    -0.318 A  
HETATM   16  N   UNL     1     -11.911  13.072  63.224  1.00  0.00    -0.535 NA 
HETATM   17  C   UNL     1      -9.932  14.848  65.618  1.00  0.00    -0.358 C  
HETATM   18  N   UNL     1     -12.605  14.236  63.456  1.00  0.00    -0.705 NA 
HETATM   19  N   UNL     1     -10.864  14.319  64.663  1.00  0.00    -0.395 NA 
HETATM   20  N   UNL     1     -11.972  15.005  64.331  1.00  0.00    -0.417 NA 
ENDBRANCH  14  15
ENDBRANCH  13  14
ENDBRANCH   4  13
BRANCH   6  21
HETATM   21  N   UNL     1      -9.699   8.133  70.676  1.00  0.00    -0.170 N  
HETATM   22  H   UNL     1      -9.048   7.370  70.492  1.00  0.00     0.000 HD 
HETATM   23  O   UNL     1     -11.708   8.692  71.597  1.00  0.00    -0.274 OA 
HETATM   24  C   UNL     1     -10.937   7.822  71.198  1.00  0.00    -0.239 C  
BRANCH  24  25
HETATM   25  CA  UNL     1     -11.337   6.326  71.076  1.00  0.00    -0.316 C  
BRANCH  25  26
HETATM   26  C   UNL     1     -10.665   5.674  69.875  1.00  0.00    -0.399 A  
HETATM   27  C   UNL     1     -10.492   5.289  67.475  1.00  0.00    -0.193 A  
HETATM   28  C   UNL     1      -9.538   4.859  70.061  1.00  0.00    -0.261 A  
HETATM   29  O   UNL     1      -8.763   3.958  66.590  1.00  0.00    -0.109 OA 
HETATM   30  C   UNL     1     -11.133   5.883  68.564  1.00  0.00    -0.171 A  
HETATM   31  C   UNL     1      -8.892   4.270  68.969  1.00  0.00    -0.136 A  
HETATM   32  H   UNL     1      -9.091   4.113  65.713  1.00  0.00     0.000 HD 
HETATM   33  C   UNL     1      -9.372   4.497  67.684  1.00  0.00    -0.147 A  
ENDBRANCH  25  26
BRANCH  25  34
HETATM   34  N   UNL     1     -11.013   5.576  72.288  1.00  0.00    -0.241 N  
HETATM   35  H   UNL     1     -11.386   4.633  72.396  1.00  0.00     0.000 HD 
BRANCH  34  36
HETATM   36  C   UNL     1     -10.228   6.091  73.281  1.00  0.00    -0.206 C  
HETATM   37  O   UNL     1     -10.655   6.945  74.054  1.00  0.00    -0.349 OA 
BRANCH  36  38
HETATM   38  N   UNL     1      -8.939   5.578  73.364  1.00  0.00    -0.130 N  
HETATM   39  C   UNL     1      -8.769   4.245  73.931  1.00  0.00    -0.097 C  
HETATM   40  N   UNL     1      -6.497   4.153  73.040  1.00  0.00    -0.038 N  
HETATM   41  C   UNL     1      -7.750   3.430  73.157  1.00  0.00    -0.061 C  
HETATM   42  C   UNL     1      -6.513   5.498  72.678  1.00  0.00    -0.064 C  
HETATM   43  O   UNL     1      -7.767   7.525  72.928  1.00  0.00    -0.084 OA 
HETATM   44  C   UNL     1      -7.801   6.297  72.987  1.00  0.00    -0.103 C  
HETATM   45  O   UNL     1      -5.562   6.078  72.169  1.00  0.00    -0.029 OA 
BRANCH  40  46
HETATM   46  C   UNL     1      -5.229   3.432  73.071  1.00  0.00     0.000 C  
HETATM   47  C   UNL     1      -5.192   2.194  72.196  1.00  0.00     0.000 C  
ENDBRANCH  40  46
ENDBRANCH  36  38
ENDBRANCH  34  36
ENDBRANCH  25  34
ENDBRANCH  24  25
ENDBRANCH   6  21
TORSDOF 10
ENDMDL
MODEL      134
REMARK 921   NORMALIZED FREE ENERGY PREDICTED BY IDOCK:   -4.96 KCAL/MOL
REMARK 922        TOTAL FREE ENERGY PREDICTED BY IDOCK:  -10.16 KCAL/MOL
REMARK 923 INTER-LIGAND FREE ENERGY PREDICTED BY IDOCK:   -8.40 KCAL/MOL
REMARK 924 INTRA-LIGAND FREE ENERGY PREDICTED BY IDOCK:   -1.76 KCAL/MOL
REMARK 927      BINDING AFFINITY PREDICTED BY RF-SCORE:    0.00 PKD
ROOT
HETATM    1  C   UNL     1     -12.234  12.070  68.498  1.00  0.00     0.164 C  
HETATM    2  S   UNL     1     -11.572  13.003  69.899  1.00  0.00    -0.109 SA 
HETATM    3  C   UNL     1     -11.610  14.579  69.017  1.00  0.00    -0.298 C  
HETATM    4  C   UNL     1     -11.041  14.547  67.602  1.00  0.00    -0.314 C  
HETATM    5  CA  UNL     1     -10.875  13.404  66.874  1.00  0.00    -0.277 C  
HETATM    6  CA  UNL     1     -11.893  10.538  68.490  1.00  0.00     0.083 C  
HETATM    7  O   UNL     1     -10.706  10.357  66.149  1.00  0.00    -0.131 OA 
HETATM    8  N   UNL     1     -11.321  12.213  67.380  1.00  0.00    -0.304 N  
HETATM    9  C   UNL     1     -10.123  13.437  65.554  1.00  0.00    -0.266 C  
HETATM   10  OXT UNL     1      -9.417  14.370  65.200  1.00  0.00     0.086 OA 
HETATM   11  O   UNL     1     -10.336  12.406  64.713  1.00  0.00    -0.283 OA 
HETATM   12  C   UNL     1     -11.200  10.890  67.115  1.00  0.00    -0.184 C  
ENDROOT
BRANCH   4  13
HETATM   13  C   UNL     1     -10.571  15.944  67.193  1.00  0.00    -0.316 C  
BRANCH  13  14
HETATM   14  S   UNL     1     -10.348  17.131  68.542  1.00  0.00    -0.383 SA 
BRANCH  14  15
HETATM   15  C   UNL     1      -9.998  18.614  67.755  1.00  0.00    -0.346 A  
HETATM   16  N   UNL     1     -10.818  19.398  67.097  1.00  0.00    -0.488 NA 
HETATM   17  C   UNL     1      -7.516  18.690  68.281  1.00  0.00    -0.281 C  
HETATM   18  N   UNL     1     -10.046  20.430  66.618  1.00  0.00    -0.406 NA 
HETATM   19  N   UNL     1      -8.744  19.155  67.702  1.00  0.00    -0.291 NA 
HETATM   20  N   UNL     1      -8.778  20.288  66.979  1.00  0.00    -0.336 NA 
ENDBRANCH  14  15
ENDBRANCH  13  14
ENDBRANCH   4  13
BRANCH   6  21
HETATM   21  N   UNL     1     -11.007  10.089  69.601  1.00  0.00    -0.250 N  
HETATM   22  H   UNL     1     -10.693  10.784  70.279  1.00  0.00     0.000 HD 
HETATM   23  O   UNL     1     -11.053   7.868  69.089  1.00  0.00    -0.012 OA 
HETATM   24  C   UNL     1     -10.588   8.785  69.763  1.00  0.00    -0.224 C  
BRANCH  24  25
HETATM   25  CA  UNL     1      -9.380   8.604  70.722  1.00  0.00    -0.191 C  
BRANCH  25  26
HETATM   26  C   UNL     1      -9.661   7.531  71.764  1.00  0.00    -0.178 A  
HETATM   27  C   UNL     1     -10.740   6.780  73.816  1.00  0.00    -0.228 A  
HETATM   28  C   UNL     1      -9.114   6.248  71.613  1.00  0.00    -0.145 A  
HETATM   29  O   UNL     1     -10.496   4.560  74.562  1.00  0.00    -0.251 OA 
HETATM   30  C   UNL     1     -10.481   7.783  72.881  1.00  0.00    -0.412 A  
HETATM   31  C   UNL     1      -9.380   5.240  72.547  1.00  0.00    -0.154 A  
HETATM   32  H   UNL     1     -11.054   4.747  75.307  1.00  0.00     0.000 HD 
HETATM   33  C   UNL     1     -10.196   5.515  73.637  1.00  0.00    -0.218 A  
ENDBRANCH  25  26
BRANCH  25  34
HETATM   34  N   UNL     1      -8.155   8.275  69.996  1.00  0.00    -0.113 N  
HETATM   35  H   UNL     1      -7.467   7.669  70.442  1.00  0.00     0.000 HD 
BRANCH  34  36
HETATM   36  C   UNL     1      -7.896   8.749  68.739  1.00  0.00    -0.101 C  
HETATM   37  O   UNL     1      -7.658   9.938  68.543  1.00  0.00    -0.078 OA 
BRANCH  36  38
HETATM   38  N   UNL     1      -7.906   7.805  67.720  1.00  0.00    -0.121 N  
HETATM   39  C   UNL     1      -7.965   6.396  68.095  1.00  0.00    -0.109 C  
HETATM   40  N   UNL     1      -8.552   5.807  65.799  1.00  0.00    -0.145 N  
HETATM   41  C   UNL     1      -8.900   5.612  67.195  1.00  0.00    -0.106 C  
HETATM   42  C   UNL     1      -8.289   7.093  65.332  1.00  0.00    -0.118 C  
HETATM   43  O   UNL     1      -7.317   9.190  65.964  1.00  0.00    -0.092 OA 
HETATM   44  C   UNL     1      -7.804   8.135  66.367  1.00  0.00    -0.093 C  
HETATM   45  O   UNL     1      -8.386   7.423  64.156  1.00  0.00    -0.020 OA 
BRANCH  40  46
HETATM   46  C   UNL     1      -8.701   4.712  64.847  1.00  0.00    -0.145 C  
HETATM   47  C   UNL     1     -10.076   4.074  64.837  1.00  0.00    -0.214 C  
ENDBRANCH  40  46
ENDBRANCH  36  38
ENDBRANCH  34  36
ENDBRANCH  25  34
ENDBRANCH  24  25
ENDBRANCH   6  21
TORSDOF 10
ENDMDL
MODEL      135
REMARK 921   NORMALIZED FREE ENERGY PREDICTED BY IDOCK:   -4.92 KCAL/MOL
REMARK 922        TOTAL FREE ENERGY PREDICTED BY IDOCK:  -10.09 KCAL/MOL
REMARK 923 INTER-LIGAND FREE ENERGY PREDICTED BY IDOCK:   -8.97 KCAL/MOL
REMARK 924 INTRA-LIGAND FREE ENERGY PREDICTED BY IDOCK:   -1.12 KCAL/MOL
REMARK 927      BINDING AFFINITY PREDICTED BY RF-SCORE:    0.00 PKD
ROOT
HETATM    1  C   UNL     1     -11.612  11.174  66.698  1.00  0.00     0.332 C  
HETATM    2  S   UNL     1     -10.302  10.772  65.519  1.00  0.00    -0.208 SA 
HETATM    3  C   UNL     1     -10.158   9.062  66.085  1.00  0.00    -0.172 C  
HETATM    4  C   UNL     1     -10.100   8.880  67.598  1.00  0.00    -0.274 C  
HETATM    5  CA  UNL     1     -10.510   9.825  68.495  1.00  0.00    -0.210 C  
HETATM    6  CA  UNL     1     -11.749  12.697  67.055  1.00  0.00    -0.369 C  
HETATM    7  O   UNL     1     -11.468  12.571  69.668  1.00  0.00    -0.250 OA 
HETATM    8  N   UNL     1     -11.099  10.974  68.040  1.00  0.00    -0.262 N  
HETATM    9  C   UNL     1     -10.238   9.644  69.978  1.00  0.00    -0.255 C  
HETATM   10  OXT UNL     1      -9.442   8.832  70.427  1.00  0.00    -0.162 OA 
HETATM   11  O   UNL     1     -10.994  10.372  70.823  1.00  0.00    -0.262 OA 
HETATM   12  C   UNL     1     -11.456  12.189  68.521  1.00  0.00    -0.300 C  
ENDROOT
BRANCH   4  13
HETATM   13  C   UNL     1      -9.400   7.565  67.942  1.00  0.00    -0.138 C  
BRANCH  13  14
HETATM   14  S   UNL     1     -10.387   6.062  67.723  1.00  0.00    -0.232 SA 
BRANCH  14  15
HETATM   15  C   UNL     1     -10.369   5.308  69.264  1.00  0.00    -0.215 A  
HETATM   16  N   UNL     1      -9.761   4.203  69.621  1.00  0.00    -0.214 NA 
HETATM   17  C   UNL     1     -11.850   6.982  70.467  1.00  0.00    -0.290 C  
HETATM   18  N   UNL     1     -10.095   4.000  70.939  1.00  0.00    -0.087 NA 
HETATM   19  N   UNL     1     -11.053   5.795  70.342  1.00  0.00    -0.273 NA 
HETATM   20  N   UNL     1     -10.885   4.966  71.387  1.00  0.00     0.037 NA 
ENDBRANCH  14  15
ENDBRANCH  13  14
ENDBRANCH   4  13
BRANCH   6  21
HETATM   21  N   UNL     1     -10.728  13.581  66.426  1.00  0.00    -0.286 N  
HETATM   22  H   UNL     1     -10.086  13.170  65.748  1.00  0.00     0.000 HD 
HETATM   23  O   UNL     1     -11.438  15.523  67.387  1.00  0.00    -0.271 OA 
HETATM   24  C   UNL     1     -10.604  14.925  66.710  1.00  0.00    -0.305 C  
BRANCH  24  25
HETATM   25  CA  UNL     1      -9.259  15.562  66.265  1.00  0.00    -0.329 C  
BRANCH  25  26
HETATM   26  C   UNL     1      -9.262  17.067  66.492  1.00  0.00    -0.296 A  
HETATM   27  C   UNL     1      -8.245  19.092  67.390  1.00  0.00    -0.302 A  
HETATM   28  C   UNL     1     -10.299  17.853  65.967  1.00  0.00    -0.318 A  
HETATM   29  O   UNL     1      -9.236  21.198  67.032  1.00  0.00    -0.623 OA 
HETATM   30  C   UNL     1      -8.231  17.708  67.207  1.00  0.00    -0.225 A  
HETATM   31  C   UNL     1     -10.308  19.241  66.145  1.00  0.00    -0.578 A  
HETATM   32  H   UNL     1      -8.530  21.613  67.514  1.00  0.00     0.000 HD 
HETATM   33  C   UNL     1      -9.276  19.848  66.850  1.00  0.00    -0.370 A  
ENDBRANCH  25  26
BRANCH  25  34
HETATM   34  N   UNL     1      -8.119  14.963  66.956  1.00  0.00    -0.294 N  
HETATM   35  H   UNL     1      -7.252  14.818  66.439  1.00  0.00     0.000 HD 
BRANCH  34  36
HETATM   36  C   UNL     1      -8.171  14.590  68.270  1.00  0.00    -0.149 C  
HETATM   37  O   UNL     1      -8.917  15.156  69.065  1.00  0.00    -0.197 OA 
BRANCH  36  38
HETATM   38  N   UNL     1      -7.345  13.533  68.634  1.00  0.00    -0.112 N  
HETATM   39  C   UNL     1      -6.286  13.795  69.602  1.00  0.00    -0.121 C  
HETATM   40  N   UNL     1      -5.991  11.393  69.933  1.00  0.00    -0.106 N  
HETATM   41  C   UNL     1      -6.152  12.668  70.609  1.00  0.00     0.164 C  
HETATM   42  C   UNL     1      -6.823  11.076  68.862  1.00  0.00    -0.079 C  
HETATM   43  O   UNL     1      -7.961  12.034  66.983  1.00  0.00    -0.163 OA 
HETATM   44  C   UNL     1      -7.444  12.255  68.076  1.00  0.00    -0.115 C  
HETATM   45  O   UNL     1      -7.054   9.930  68.495  1.00  0.00    -0.070 OA 
BRANCH  40  46
HETATM   46  C   UNL     1      -5.134  10.363  70.507  1.00  0.00    -0.051 C  
HETATM   47  C   UNL     1      -5.617   9.816  71.837  1.00  0.00     0.027 C  
ENDBRANCH  40  46
ENDBRANCH  36  38
ENDBRANCH  34  36
ENDBRANCH  25  34
ENDBRANCH  24  25
ENDBRANCH   6  21
TORSDOF 10
ENDMDL
MODEL      136
REMARK 921   NORMALIZED FREE ENERGY PREDICTED BY IDOCK:   -4.92 KCAL/MOL
REMARK 922        TOTAL FREE ENERGY PREDICTED BY IDOCK:  -10.09 KCAL/MOL
REMARK 923 INTER-LIGAND FREE ENERGY PREDICTED BY IDOCK:   -8.65 KCAL/MOL
REMARK 924 INTRA-LIGAND FREE ENERGY PREDICTED BY IDOCK:   -1.44 KCAL/MOL
REMARK 927      BINDING AFFINITY PREDICTED BY RF-SCORE:    0.00 PKD
ROOT
HETATM    1  C   UNL     1     -12.187  14.792  68.139  1.00  0.00    -0.012 C  
HETATM    2  S   UNL     1     -11.012  14.827  69.513  1.00  0.00    -0.253 SA 
HETATM    3  C   UNL     1     -10.916  16.630  69.537  1.00  0.00    -0.228 C  
HETATM    4  C   UNL     1     -10.732  17.291  68.175  1.00  0.00    -0.363 C  
HETATM    5  CA  UNL     1     -11.008  16.675  66.987  1.00  0.00     0.015 C  
HETATM    6  CA  UNL     1     -12.206  13.462  67.305  1.00  0.00    -0.233 C  
HETATM    7  O   UNL     1     -11.700  14.429  64.911  1.00  0.00    -0.369 OA 
HETATM    8  N   UNL     1     -11.568  15.426  66.991  1.00  0.00    -0.116 N  
HETATM    9  C   UNL     1     -10.615  17.330  65.674  1.00  0.00    -0.166 C  
HETATM   10  OXT UNL     1      -9.828  18.262  65.591  1.00  0.00    -0.462 OA 
HETATM   11  O   UNL     1     -11.250  16.894  64.569  1.00  0.00    -1.057 OA 
HETATM   12  C   UNL     1     -11.812  14.422  66.115  1.00  0.00    -0.382 C  
ENDROOT
BRANCH   4  13
HETATM   13  C   UNL     1     -10.080  18.664  68.340  1.00  0.00    -0.383 C  
BRANCH  13  14
HETATM   14  S   UNL     1      -8.310  18.659  68.719  1.00  0.00    -0.208 SA 
BRANCH  14  15
HETATM   15  C   UNL     1      -7.575  19.386  67.350  1.00  0.00    -0.240 A  
HETATM   16  N   UNL     1      -7.827  20.558  66.819  1.00  0.00    -0.254 NA 
HETATM   17  C   UNL     1      -5.984  17.492  66.785  1.00  0.00    -0.177 C  
HETATM   18  N   UNL     1      -7.012  20.653  65.716  1.00  0.00    -0.164 NA 
HETATM   19  N   UNL     1      -6.611  18.770  66.604  1.00  0.00    -0.188 NA 
HETATM   20  N   UNL     1      -6.268  19.564  65.575  1.00  0.00    -0.209 NA 
ENDBRANCH  14  15
ENDBRANCH  13  14
ENDBRANCH   4  13
BRANCH   6  21
HETATM   21  N   UNL     1     -11.196  12.448  67.723  1.00  0.00    -0.256 N  
HETATM   22  H   UNL     1     -11.152  12.189  68.708  1.00  0.00     0.000 HD 
HETATM   23  O   UNL     1     -10.420  11.979  65.631  1.00  0.00    -0.240 OA 
HETATM   24  C   UNL     1     -10.319  11.842  66.848  1.00  0.00    -0.217 C  
BRANCH  24  25
HETATM   25  CA  UNL     1      -9.113  11.134  67.525  1.00  0.00    -0.146 C  
BRANCH  25  26
HETATM   26  C   UNL     1      -9.580  10.044  68.479  1.00  0.00    -0.157 A  
HETATM   27  C   UNL     1      -9.749   9.096  70.718  1.00  0.00    -0.337 A  
HETATM   28  C   UNL     1     -10.330   8.962  67.993  1.00  0.00    -0.271 A  
HETATM   29  O   UNL     1     -10.941   7.101  71.094  1.00  0.00    -0.241 OA 
HETATM   30  C   UNL     1      -9.297  10.098  69.857  1.00  0.00    -0.134 A  
HETATM   31  C   UNL     1     -10.789   7.962  68.857  1.00  0.00    -0.008 A  
HETATM   32  H   UNL     1     -10.744   7.156  72.021  1.00  0.00     0.000 HD 
HETATM   33  C   UNL     1     -10.499   8.043  70.214  1.00  0.00    -0.222 A  
ENDBRANCH  25  26
BRANCH  25  34
HETATM   34  N   UNL     1      -8.195  10.565  66.540  1.00  0.00    -0.128 N  
HETATM   35  H   UNL     1      -8.555  10.319  65.617  1.00  0.00     0.000 HD 
BRANCH  34  36
HETATM   36  C   UNL     1      -6.872  10.349  66.807  1.00  0.00    -0.091 C  
HETATM   37  O   UNL     1      -5.997  11.051  66.306  1.00  0.00    -0.124 OA 
BRANCH  36  38
HETATM   38  N   UNL     1      -6.592   9.307  67.683  1.00  0.00    -0.063 N  
HETATM   39  C   UNL     1      -5.723   9.587  68.822  1.00  0.00    -0.040 C  
HETATM   40  N   UNL     1      -6.423   7.495  69.871  1.00  0.00    -0.034 N  
HETATM   41  C   UNL     1      -6.222   8.917  70.088  1.00  0.00    -0.037 C  
HETATM   42  C   UNL     1      -7.085   7.064  68.725  1.00  0.00    -0.089 C  
HETATM   43  O   UNL     1      -7.389   7.556  66.399  1.00  0.00    -0.079 OA 
HETATM   44  C   UNL     1      -7.051   8.001  67.494  1.00  0.00    -0.080 C  
HETATM   45  O   UNL     1      -7.653   5.982  68.632  1.00  0.00    -0.088 OA 
BRANCH  40  46
HETATM   46  C   UNL     1      -6.146   6.545  70.942  1.00  0.00    -0.031 C  
HETATM   47  C   UNL     1      -7.184   6.528  72.048  1.00  0.00    -0.086 C  
ENDBRANCH  40  46
ENDBRANCH  36  38
ENDBRANCH  34  36
ENDBRANCH  25  34
ENDBRANCH  24  25
ENDBRANCH   6  21
TORSDOF 10
ENDMDL
MODEL      137
REMARK 921   NORMALIZED FREE ENERGY PREDICTED BY IDOCK:   -4.82 KCAL/MOL
REMARK 922        TOTAL FREE ENERGY PREDICTED BY IDOCK:   -9.94 KCAL/MOL
REMARK 923 INTER-LIGAND FREE ENERGY PREDICTED BY IDOCK:   -8.18 KCAL/MOL
REMARK 924 INTRA-LIGAND FREE ENERGY PREDICTED BY IDOCK:   -1.76 KCAL/MOL
REMARK 927      BINDING AFFINITY PREDICTED BY RF-SCORE:    0.00 PKD
ROOT
HETATM    1  C   UNL     1      -7.855   8.175  65.631  1.00  0.00    -0.098 C  
HETATM    2  S   UNL     1      -6.357   8.646  66.528  1.00  0.00    -0.059 SA 
HETATM    3  C   UNL     1      -5.743   6.950  66.627  1.00  0.00    -0.018 C  
HETATM    4  C   UNL     1      -6.769   5.910  67.064  1.00  0.00    -0.061 C  
HETATM    5  CA  UNL     1      -8.120   6.106  67.014  1.00  0.00    -0.106 C  
HETATM    6  CA  UNL     1      -9.058   9.174  65.763  1.00  0.00    -0.213 C  
HETATM    7  O   UNL     1     -10.891   7.543  66.712  1.00  0.00    -0.292 OA 
HETATM    8  N   UNL     1      -8.613   7.255  66.457  1.00  0.00    -0.126 N  
HETATM    9  C   UNL     1      -9.065   5.100  67.649  1.00  0.00    -0.111 C  
HETATM   10  OXT UNL     1      -8.707   4.241  68.441  1.00  0.00    -0.093 OA 
HETATM   11  O   UNL     1     -10.346   5.129  67.229  1.00  0.00    -0.199 OA 
HETATM   12  C   UNL     1      -9.791   7.918  66.377  1.00  0.00    -0.147 C  
ENDROOT
BRANCH   4  13
HETATM   13  C   UNL     1      -6.064   4.701  67.680  1.00  0.00    -0.028 C  
BRANCH  13  14
HETATM   14  S   UNL     1      -5.156   5.012  69.216  1.00  0.00     0.000 SA 
BRANCH  14  15
HETATM   15  C   UNL     1      -6.326   4.813  70.454  1.00  0.00    -0.026 A  
HETATM   16  N   UNL     1      -6.605   3.732  71.143  1.00  0.00    -0.029 NA 
HETATM   17  C   UNL     1      -7.242   7.179  70.427  1.00  0.00    -0.070 C  
HETATM   18  N   UNL     1      -7.646   4.074  71.973  1.00  0.00    -0.065 NA 
HETATM   19  N   UNL     1      -7.164   5.813  70.859  1.00  0.00    -0.077 NA 
HETATM   20  N   UNL     1      -7.996   5.342  71.804  1.00  0.00    -0.111 NA 
ENDBRANCH  14  15
ENDBRANCH  13  14
ENDBRANCH   4  13
BRANCH   6  21
HETATM   21  N   UNL     1      -8.814  10.330  66.672  1.00  0.00    -0.136 N  
HETATM   22  H   UNL     1      -8.308  10.162  67.541  1.00  0.00     0.000 HD 
HETATM   23  O   UNL     1      -9.704  11.925  65.307  1.00  0.00    -0.240 OA 
HETATM   24  C   UNL     1      -9.236  11.615  66.401  1.00  0.00    -0.212 C  
BRANCH  24  25
HETATM   25  CA  UNL     1      -9.237  12.571  67.626  1.00  0.00    -0.190 C  
BRANCH  25  26
HETATM   26  C   UNL     1      -9.369  14.023  67.189  1.00  0.00    -0.244 A  
HETATM   27  C   UNL     1     -10.717  16.005  66.749  1.00  0.00    -0.259 A  
HETATM   28  C   UNL     1      -8.224  14.757  66.845  1.00  0.00    -0.144 A  
HETATM   29  O   UNL     1      -9.708  18.023  66.077  1.00  0.00    -0.503 OA 
HETATM   30  C   UNL     1     -10.620  14.668  67.137  1.00  0.00    -0.282 A  
HETATM   31  C   UNL     1      -8.321  16.100  66.463  1.00  0.00    -0.352 A  
HETATM   32  H   UNL     1     -10.559  18.442  66.051  1.00  0.00     0.000 HD 
HETATM   33  C   UNL     1      -9.568  16.713  66.425  1.00  0.00    -0.285 A  
ENDBRANCH  25  26
BRANCH  25  34
HETATM   34  N   UNL     1     -10.303  12.243  68.569  1.00  0.00    -0.232 N  
HETATM   35  H   UNL     1     -10.423  12.826  69.397  1.00  0.00     0.000 HD 
BRANCH  34  36
HETATM   36  C   UNL     1     -11.147  11.183  68.385  1.00  0.00    -0.247 C  
HETATM   37  O   UNL     1     -11.801  11.060  67.352  1.00  0.00    -0.523 OA 
BRANCH  36  38
HETATM   38  N   UNL     1     -11.201  10.262  69.424  1.00  0.00    -0.240 N  
HETATM   39  C   UNL     1     -10.026   9.429  69.660  1.00  0.00    -0.197 C  
HETATM   40  N   UNL     1     -10.913   8.796  71.846  1.00  0.00    -0.343 N  
HETATM   41  C   UNL     1      -9.737   9.272  71.141  1.00  0.00    -0.257 C  
HETATM   42  C   UNL     1     -12.150   9.381  71.587  1.00  0.00    -0.388 C  
HETATM   43  O   UNL     1     -13.475  10.347  69.840  1.00  0.00     0.139 OA 
HETATM   44  C   UNL     1     -12.339  10.055  70.208  1.00  0.00    -0.070 C  
HETATM   45  O   UNL     1     -13.092   9.356  72.371  1.00  0.00    -0.416 OA 
BRANCH  40  46
HETATM   46  C   UNL     1     -10.771   7.882  72.974  1.00  0.00    -0.342 C  
HETATM   47  C   UNL     1     -11.024   6.426  72.636  1.00  0.00    -0.284 C  
ENDBRANCH  40  46
ENDBRANCH  36  38
ENDBRANCH  34  36
ENDBRANCH  25  34
ENDBRANCH  24  25
ENDBRANCH   6  21
TORSDOF 10
ENDMDL
MODEL      138
REMARK 921   NORMALIZED FREE ENERGY PREDICTED BY IDOCK:   -4.82 KCAL/MOL
REMARK 922        TOTAL FREE ENERGY PREDICTED BY IDOCK:   -9.93 KCAL/MOL
REMARK 923 INTER-LIGAND FREE ENERGY PREDICTED BY IDOCK:  -12.80 KCAL/MOL
REMARK 924 INTRA-LIGAND FREE ENERGY PREDICTED BY IDOCK:    2.87 KCAL/MOL
REMARK 927      BINDING AFFINITY PREDICTED BY RF-SCORE:    0.00 PKD
ROOT
HETATM    1  C   UNL     1      -9.605  14.848  65.521  1.00  0.00    -0.145 C  
HETATM    2  S   UNL     1      -9.405  13.824  66.999  1.00  0.00    -0.255 SA 
HETATM    3  C   UNL     1      -9.217  12.295  66.055  1.00  0.00    -0.085 C  
HETATM    4  C   UNL     1     -10.239  12.087  64.942  1.00  0.00    -0.302 C  
HETATM    5  CA  UNL     1     -10.991  13.091  64.402  1.00  0.00    -0.374 C  
HETATM    6  CA  UNL     1     -10.369  16.202  65.741  1.00  0.00    -0.378 C  
HETATM    7  O   UNL     1     -12.315  15.905  63.996  1.00  0.00    -0.724 OA 
HETATM    8  N   UNL     1     -10.771  14.383  64.796  1.00  0.00    -0.417 N  
HETATM    9  C   UNL     1     -12.120  12.770  63.438  1.00  0.00    -0.534 C  
HETATM   10  OXT UNL     1     -12.592  11.651  63.296  1.00  0.00    -0.491 OA 
HETATM   11  O   UNL     1     -12.545  13.777  62.649  1.00  0.00    -0.228 OA 
HETATM   12  C   UNL     1     -11.370  15.593  64.684  1.00  0.00    -0.349 C  
ENDROOT
BRANCH   4  13
HETATM   13  C   UNL     1     -10.382  10.597  64.633  1.00  0.00    -0.283 C  
BRANCH  13  14
HETATM   14  S   UNL     1      -8.969   9.556  65.076  1.00  0.00    -0.217 SA 
BRANCH  14  15
HETATM   15  C   UNL     1      -9.570   8.513  66.298  1.00  0.00    -0.236 A  
HETATM   16  N   UNL     1     -10.411   8.794  67.265  1.00  0.00    -0.270 NA 
HETATM   17  C   UNL     1      -8.310   6.424  65.599  1.00  0.00    -0.147 C  
HETATM   18  N   UNL     1     -10.534   7.639  68.001  1.00  0.00    -0.204 NA 
HETATM   19  N   UNL     1      -9.191   7.206  66.419  1.00  0.00    -0.168 NA 
HETATM   20  N   UNL     1      -9.791   6.665  67.494  1.00  0.00    -0.124 NA 
ENDBRANCH  14  15
ENDBRANCH  13  14
ENDBRANCH   4  13
BRANCH   6  21
HETATM   21  N   UNL     1     -10.885  16.411  67.124  1.00  0.00    -0.232 N  
HETATM   22  H   UNL     1     -10.556  17.224  67.644  1.00  0.00     0.000 HD 
HETATM   23  O   UNL     1     -12.349  14.662  67.121  1.00  0.00    -0.214 OA 
HETATM   24  C   UNL     1     -11.785  15.564  67.737  1.00  0.00    -0.088 C  
BRANCH  24  25
HETATM   25  CA  UNL     1     -11.886  15.729  69.279  1.00  0.00    -0.346 C  
BRANCH  25  26
HETATM   26  C   UNL     1     -12.177  14.397  69.956  1.00  0.00    -0.408 A  
HETATM   27  C   UNL     1     -12.015  11.967  70.043  1.00  0.00    -0.400 A  
HETATM   28  C   UNL     1     -12.865  14.369  71.178  1.00  0.00    -0.417 A  
HETATM   29  O   UNL     1     -12.900  10.765  71.864  1.00  0.00    -0.436 OA 
HETATM   30  C   UNL     1     -11.752  13.177  69.397  1.00  0.00    -0.386 A  
HETATM   31  C   UNL     1     -13.122  13.157  71.829  1.00  0.00    -0.478 A  
HETATM   32  H   UNL     1     -12.603   9.952  71.473  1.00  0.00     0.000 HD 
HETATM   33  C   UNL     1     -12.687  11.967  71.256  1.00  0.00    -0.279 A  
ENDBRANCH  25  26
BRANCH  25  34
HETATM   34  N   UNL     1     -10.671  16.313  69.843  1.00  0.00    -0.332 N  
HETATM   35  H   UNL     1     -10.758  17.010  70.582  1.00  0.00     0.000 HD 
BRANCH  34  36
HETATM   36  C   UNL     1      -9.420  15.959  69.417  1.00  0.00    -0.248 C  
HETATM   37  O   UNL     1      -9.007  14.809  69.538  1.00  0.00    -0.036 OA 
BRANCH  36  38
HETATM   38  N   UNL     1      -8.669  16.973  68.834  1.00  0.00    -0.242 N  
HETATM   39  C   UNL     1      -7.272  16.692  68.519  1.00  0.00    -0.183 C  
HETATM   40  N   UNL     1      -7.189  18.683  67.107  1.00  0.00    -0.208 N  
HETATM   41  C   UNL     1      -6.872  17.267  67.174  1.00  0.00    -0.177 C  
HETATM   42  C   UNL     1      -8.434  19.127  67.546  1.00  0.00    -0.288 C  
HETATM   43  O   UNL     1     -10.128  18.732  69.194  1.00  0.00    -0.359 OA 
HETATM   44  C   UNL     1      -9.167  18.255  68.592  1.00  0.00    -0.292 C  
HETATM   45  O   UNL     1      -8.951  20.175  67.178  1.00  0.00    -0.332 OA 
BRANCH  40  46
HETATM   46  C   UNL     1      -6.315  19.595  66.378  1.00  0.00    -0.181 C  
HETATM   47  C   UNL     1      -6.202  19.302  64.895  1.00  0.00    -0.308 C  
ENDBRANCH  40  46
ENDBRANCH  36  38
ENDBRANCH  34  36
ENDBRANCH  25  34
ENDBRANCH  24  25
ENDBRANCH   6  21
TORSDOF 10
ENDMDL
MODEL      139
REMARK 921   NORMALIZED FREE ENERGY PREDICTED BY IDOCK:   -4.80 KCAL/MOL
REMARK 922        TOTAL FREE ENERGY PREDICTED BY IDOCK:   -9.91 KCAL/MOL
REMARK 923 INTER-LIGAND FREE ENERGY PREDICTED BY IDOCK:   -7.54 KCAL/MOL
REMARK 924 INTRA-LIGAND FREE ENERGY PREDICTED BY IDOCK:   -2.37 KCAL/MOL
REMARK 927      BINDING AFFINITY PREDICTED BY RF-SCORE:    0.00 PKD
ROOT
HETATM    1  C   UNL     1      -5.134  16.118  67.471  1.00  0.00    -0.105 C  
HETATM    2  S   UNL     1      -6.423  16.652  66.321  1.00  0.00     0.709 SA 
HETATM    3  C   UNL     1      -6.115  18.409  66.610  1.00  0.00    -0.157 C  
HETATM    4  C   UNL     1      -5.986  18.814  68.075  1.00  0.00    -0.201 C  
HETATM    5  CA  UNL     1      -5.720  17.936  69.087  1.00  0.00    -0.206 C  
HETATM    6  CA  UNL     1      -5.317  14.674  68.060  1.00  0.00    -0.109 C  
HETATM    7  O   UNL     1      -5.313  15.237  70.630  1.00  0.00    -0.132 OA 
HETATM    8  N   UNL     1      -5.458  16.626  68.790  1.00  0.00    -0.122 N  
HETATM    9  C   UNL     1      -5.802  18.388  70.535  1.00  0.00    -0.051 C  
HETATM   10  OXT UNL     1      -6.344  19.424  70.892  1.00  0.00     0.040 OA 
HETATM   11  O   UNL     1      -5.156  17.627  71.441  1.00  0.00    -0.467 OA 
HETATM   12  C   UNL     1      -5.346  15.443  69.439  1.00  0.00    -0.093 C  
ENDROOT
BRANCH   4  13
HETATM   13  C   UNL     1      -6.329  20.295  68.242  1.00  0.00    -0.298 C  
BRANCH  13  14
HETATM   14  S   UNL     1      -7.782  20.879  67.335  1.00  0.00    -0.076 SA 
BRANCH  14  15
HETATM   15  C   UNL     1      -9.030  19.788  67.775  1.00  0.00    -0.325 A  
HETATM   16  N   UNL     1      -9.165  19.115  68.892  1.00  0.00    -0.349 NA 
HETATM   17  C   UNL     1     -10.376  19.942  65.629  1.00  0.00    -0.326 C  
HETATM   18  N   UNL     1     -10.295  18.348  68.735  1.00  0.00    -0.292 NA 
HETATM   19  N   UNL     1     -10.065  19.462  66.945  1.00  0.00    -0.357 NA 
HETATM   20  N   UNL     1     -10.850  18.552  67.547  1.00  0.00    -0.376 NA 
ENDBRANCH  14  15
ENDBRANCH  13  14
ENDBRANCH   4  13
BRANCH   6  21
HETATM   21  N   UNL     1      -6.570  13.983  67.642  1.00  0.00    -0.176 N  
HETATM   22  H   UNL     1      -7.400  14.550  67.472  1.00  0.00     0.000 HD 
HETATM   23  O   UNL     1      -5.675  11.890  67.499  1.00  0.00    -0.071 OA 
HETATM   24  C   UNL     1      -6.666  12.617  67.473  1.00  0.00    -0.156 C  
BRANCH  24  25
HETATM   25  CA  UNL     1      -8.119  12.069  67.428  1.00  0.00    -0.168 C  
BRANCH  25  26
HETATM   26  C   UNL     1      -8.152  10.645  66.890  1.00  0.00    -0.124 A  
HETATM   27  C   UNL     1      -8.050   8.233  67.228  1.00  0.00    -0.109 A  
HETATM   28  C   UNL     1      -8.358  10.418  65.521  1.00  0.00    -0.168 A  
HETATM   29  O   UNL     1      -8.333   6.751  65.421  1.00  0.00    -0.136 OA 
HETATM   30  C   UNL     1      -8.000   9.531  67.739  1.00  0.00    -0.099 A  
HETATM   31  C   UNL     1      -8.415   9.116  65.010  1.00  0.00    -0.187 A  
HETATM   32  H   UNL     1      -8.232   6.012  66.009  1.00  0.00     0.000 HD 
HETATM   33  C   UNL     1      -8.266   8.036  65.872  1.00  0.00    -0.127 A  
ENDBRANCH  25  26
BRANCH  25  34
HETATM   34  N   UNL     1      -8.757  12.113  68.741  1.00  0.00    -0.372 N  
HETATM   35  H   UNL     1      -8.168  12.186  69.571  1.00  0.00     0.000 HD 
BRANCH  34  36
HETATM   36  C   UNL     1     -10.114  12.060  68.901  1.00  0.00    -0.015 C  
HETATM   37  O   UNL     1     -10.623  11.430  69.825  1.00  0.00    -0.002 OA 
BRANCH  36  38
HETATM   38  N   UNL     1     -10.863  12.768  67.970  1.00  0.00    -0.225 N  
HETATM   39  C   UNL     1     -11.022  14.204  68.171  1.00  0.00    -0.249 C  
HETATM   40  N   UNL     1     -11.817  14.439  65.873  1.00  0.00    -0.374 N  
HETATM   41  C   UNL     1     -10.902  14.971  66.868  1.00  0.00    -0.315 C  
HETATM   42  C   UNL     1     -11.906  13.061  65.693  1.00  0.00    -0.399 C  
HETATM   43  O   UNL     1     -11.824  10.975  66.868  1.00  0.00    -0.237 OA 
HETATM   44  C   UNL     1     -11.515  12.164  66.891  1.00  0.00    -0.351 C  
HETATM   45  O   UNL     1     -12.306  12.534  64.662  1.00  0.00    -0.449 OA 
BRANCH  40  46
HETATM   46  C   UNL     1     -12.460  15.333  64.917  1.00  0.00     0.203 C  
HETATM   47  C   UNL     1     -11.496  16.153  64.081  1.00  0.00     0.062 C  
ENDBRANCH  40  46
ENDBRANCH  36  38
ENDBRANCH  34  36
ENDBRANCH  25  34
ENDBRANCH  24  25
ENDBRANCH   6  21
TORSDOF 10
ENDMDL
MODEL      140
REMARK 921   NORMALIZED FREE ENERGY PREDICTED BY IDOCK:   -4.75 KCAL/MOL
REMARK 922        TOTAL FREE ENERGY PREDICTED BY IDOCK:   -9.82 KCAL/MOL
REMARK 923 INTER-LIGAND FREE ENERGY PREDICTED BY IDOCK:   -7.76 KCAL/MOL
REMARK 924 INTRA-LIGAND FREE ENERGY PREDICTED BY IDOCK:   -2.06 KCAL/MOL
REMARK 927      BINDING AFFINITY PREDICTED BY RF-SCORE:    0.00 PKD
ROOT
HETATM    1  C   UNL     1     -10.969   7.774  70.879  1.00  0.00    -0.250 C  
HETATM    2  S   UNL     1     -11.391   6.532  69.634  1.00  0.00    -0.348 SA 
HETATM    3  C   UNL     1     -10.515   5.206  70.493  1.00  0.00    -0.208 C  
HETATM    4  C   UNL     1      -9.113   5.559  70.979  1.00  0.00    -0.163 C  
HETATM    5  CA  UNL     1      -8.662   6.838  71.137  1.00  0.00    -0.136 C  
HETATM    6  CA  UNL     1     -10.988   9.261  70.376  1.00  0.00    -0.255 C  
HETATM    7  O   UNL     1      -8.526   9.968  70.976  1.00  0.00     0.211 OA 
HETATM    8  N   UNL     1      -9.524   7.884  70.945  1.00  0.00    -0.156 N  
HETATM    9  C   UNL     1      -7.197   7.104  71.436  1.00  0.00    -0.077 C  
HETATM   10  OXT UNL     1      -6.314   6.270  71.293  1.00  0.00    -0.045 OA 
HETATM   11  O   UNL     1      -6.898   8.305  71.968  1.00  0.00    -0.072 OA 
HETATM   12  C   UNL     1      -9.470   9.230  70.808  1.00  0.00    -0.271 C  
ENDROOT
BRANCH   4  13
HETATM   13  C   UNL     1      -8.272   4.290  71.124  1.00  0.00    -0.077 C  
BRANCH  13  14
HETATM   14  S   UNL     1      -8.177   3.231  69.659  1.00  0.00    -0.052 SA 
BRANCH  14  15
HETATM   15  C   UNL     1      -7.592   4.262  68.420  1.00  0.00    -0.064 A  
HETATM   16  N   UNL     1      -6.395   4.784  68.295  1.00  0.00    -0.035 NA 
HETATM   17  C   UNL     1      -9.733   4.400  67.065  1.00  0.00    -0.205 C  
HETATM   18  N   UNL     1      -6.445   5.571  67.169  1.00  0.00    -0.043 NA 
HETATM   19  N   UNL     1      -8.366   4.701  67.384  1.00  0.00    -0.105 NA 
HETATM   20  N   UNL     1      -7.646   5.529  66.608  1.00  0.00    -0.087 NA 
ENDBRANCH  14  15
ENDBRANCH  13  14
ENDBRANCH   4  13
BRANCH   6  21
HETATM   21  N   UNL     1     -11.279   9.426  68.924  1.00  0.00    -0.451 N  
HETATM   22  H   UNL     1     -11.700   8.644  68.424  1.00  0.00     0.000 HD 
HETATM   23  O   UNL     1     -10.656  11.615  68.782  1.00  0.00    -0.206 OA 
HETATM   24  C   UNL     1     -11.008  10.581  68.219  1.00  0.00    -0.263 C  
BRANCH  24  25
HETATM   25  CA  UNL     1     -11.013  10.415  66.674  1.00  0.00     0.003 C  
BRANCH  25  26
HETATM   26  C   UNL     1     -11.341  11.731  65.982  1.00  0.00    -0.335 A  
HETATM   27  C   UNL     1     -11.446  14.166  65.966  1.00  0.00    -0.343 A  
HETATM   28  C   UNL     1     -11.824  11.728  64.665  1.00  0.00    -0.203 A  
HETATM   29  O   UNL     1     -12.159  15.328  64.047  1.00  0.00    -0.901 OA 
HETATM   30  C   UNL     1     -11.154  12.970  66.625  1.00  0.00    -0.318 A  
HETATM   31  C   UNL     1     -12.109  12.927  64.003  1.00  0.00    -0.526 A  
HETATM   32  H   UNL     1     -12.023  16.154  64.495  1.00  0.00     0.000 HD 
HETATM   33  C   UNL     1     -11.911  14.136  64.659  1.00  0.00    -0.431 A  
ENDBRANCH  25  26
BRANCH  25  34
HETATM   34  N   UNL     1      -9.736   9.905  66.180  1.00  0.00    -0.218 N  
HETATM   35  H   UNL     1      -9.593   8.896  66.138  1.00  0.00     0.000 HD 
BRANCH  34  36
HETATM   36  C   UNL     1      -8.725  10.729  65.770  1.00  0.00    -0.186 C  
HETATM   37  O   UNL     1      -8.695  11.184  64.629  1.00  0.00    -0.029 OA 
BRANCH  36  38
HETATM   38  N   UNL     1      -7.757  11.022  66.723  1.00  0.00    -0.140 N  
HETATM   39  C   UNL     1      -7.626  12.409  67.159  1.00  0.00    -0.104 C  
HETATM   40  N   UNL     1      -6.288  11.683  69.069  1.00  0.00    -0.065 N  
HETATM   41  C   UNL     1      -7.409  12.509  68.657  1.00  0.00    -0.099 C  
HETATM   42  C   UNL     1      -6.182  10.382  68.585  1.00  0.00    -0.047 C  
HETATM   43  O   UNL     1      -6.587   9.028  66.650  1.00  0.00    -0.066 OA 
HETATM   44  C   UNL     1      -6.871  10.071  67.235  1.00  0.00    -0.082 C  
HETATM   45  O   UNL     1      -5.550   9.495  69.147  1.00  0.00    -0.036 OA 
BRANCH  40  46
HETATM   46  C   UNL     1      -5.414  12.122  70.151  1.00  0.00    -0.122 C  
HETATM   47  C   UNL     1      -5.618  13.564  70.575  1.00  0.00    -0.159 C  
ENDBRANCH  40  46
ENDBRANCH  36  38
ENDBRANCH  34  36
ENDBRANCH  25  34
ENDBRANCH  24  25
ENDBRANCH   6  21
TORSDOF 10
ENDMDL
MODEL      141
REMARK 921   NORMALIZED FREE ENERGY PREDICTED BY IDOCK:   -4.70 KCAL/MOL
REMARK 922        TOTAL FREE ENERGY PREDICTED BY IDOCK:   -9.75 KCAL/MOL
REMARK 923 INTER-LIGAND FREE ENERGY PREDICTED BY IDOCK:   -7.45 KCAL/MOL
REMARK 924 INTRA-LIGAND FREE ENERGY PREDICTED BY IDOCK:   -2.30 KCAL/MOL
REMARK 927      BINDING AFFINITY PREDICTED BY RF-SCORE:    0.00 PKD
ROOT
HETATM    1  C   UNL     1      -7.283  11.584  66.832  1.00  0.00    -0.137 C  
HETATM    2  S   UNL     1      -8.991  11.413  66.263  1.00  0.00    -0.195 SA 
HETATM    3  C   UNL     1      -9.211  13.190  66.024  1.00  0.00     0.098 C  
HETATM    4  C   UNL     1      -8.725  14.067  67.174  1.00  0.00    -0.234 C  
HETATM    5  CA  UNL     1      -7.844  13.648  68.130  1.00  0.00    -0.143 C  
HETATM    6  CA  UNL     1      -6.753  10.407  67.726  1.00  0.00    -0.070 C  
HETATM    7  O   UNL     1      -6.042  11.759  69.868  1.00  0.00    -0.124 OA 
HETATM    8  N   UNL     1      -7.278  12.406  68.026  1.00  0.00    -0.094 N  
HETATM    9  C   UNL     1      -7.563  14.514  69.346  1.00  0.00    -0.033 C  
HETATM   10  OXT UNL     1      -8.261  15.461  69.680  1.00  0.00    -0.235 OA 
HETATM   11  O   UNL     1      -6.427  14.253  70.022  1.00  0.00    -0.148 OA 
HETATM   12  C   UNL     1      -6.556  11.554  68.792  1.00  0.00    -0.070 C  
ENDROOT
BRANCH   4  13
HETATM   13  C   UNL     1      -9.464  15.405  67.164  1.00  0.00    -0.213 C  
BRANCH  13  14
HETATM   14  S   UNL     1      -8.688  16.731  66.205  1.00  0.00    -0.287 SA 
BRANCH  14  15
HETATM   15  C   UNL     1      -9.493  18.157  66.715  1.00  0.00    -0.294 A  
HETATM   16  N   UNL     1     -10.688  18.271  67.243  1.00  0.00    -0.382 NA 
HETATM   17  C   UNL     1      -7.668  19.807  66.092  1.00  0.00    -0.332 C  
HETATM   18  N   UNL     1     -10.889  19.619  67.428  1.00  0.00    -0.439 NA 
HETATM   19  N   UNL     1      -8.953  19.406  66.590  1.00  0.00    -0.329 NA 
HETATM   20  N   UNL     1      -9.836  20.320  67.030  1.00  0.00    -0.445 NA 
ENDBRANCH  14  15
ENDBRANCH  13  14
ENDBRANCH   4  13
BRANCH   6  21
HETATM   21  N   UNL     1      -7.762   9.355  68.038  1.00  0.00    -0.084 N  
HETATM   22  H   UNL     1      -8.517   9.588  68.683  1.00  0.00     0.000 HD 
HETATM   23  O   UNL     1      -6.953   7.784  66.597  1.00  0.00    -0.068 OA 
HETATM   24  C   UNL     1      -7.730   8.085  67.501  1.00  0.00    -0.106 C  
BRANCH  24  25
HETATM   25  CA  UNL     1      -8.613   7.044  68.242  1.00  0.00    -0.129 C  
BRANCH  25  26
HETATM   26  C   UNL     1      -7.834   5.768  68.530  1.00  0.00    -0.097 A  
HETATM   27  C   UNL     1      -6.196   4.516  69.830  1.00  0.00    -0.026 A  
HETATM   28  C   UNL     1      -8.066   4.617  67.763  1.00  0.00    -0.096 A  
HETATM   29  O   UNL     1      -5.772   2.247  69.368  1.00  0.00    -0.020 OA 
HETATM   30  C   UNL     1      -6.888   5.701  69.572  1.00  0.00    -0.061 A  
HETATM   31  C   UNL     1      -7.377   3.428  68.027  1.00  0.00    -0.054 A  
HETATM   32  H   UNL     1      -5.140   2.219  70.076  1.00  0.00     0.000 HD 
HETATM   33  C   UNL     1      -6.452   3.388  69.064  1.00  0.00    -0.030 A  
ENDBRANCH  25  26
BRANCH  25  34
HETATM   34  N   UNL     1      -9.156   7.581  69.488  1.00  0.00    -0.143 N  
HETATM   35  H   UNL     1      -8.539   8.112  70.104  1.00  0.00     0.000 HD 
BRANCH  34  36
HETATM   36  C   UNL     1     -10.458   7.399  69.861  1.00  0.00    -0.231 C  
HETATM   37  O   UNL     1     -10.901   6.280  70.108  1.00  0.00    -0.254 OA 
BRANCH  36  38
HETATM   38  N   UNL     1     -11.229   8.552  69.954  1.00  0.00    -0.110 N  
HETATM   39  C   UNL     1     -12.094   8.703  71.120  1.00  0.00    -0.260 C  
HETATM   40  N   UNL     1     -12.378  11.073  70.604  1.00  0.00    -0.358 N  
HETATM   41  C   UNL     1     -12.072  10.121  71.657  1.00  0.00    -0.285 C  
HETATM   42  C   UNL     1     -11.757  10.946  69.364  1.00  0.00    -0.325 C  
HETATM   43  O   UNL     1     -10.950   9.326  67.792  1.00  0.00    -0.186 OA 
HETATM   44  C   UNL     1     -11.260   9.536  68.963  1.00  0.00     0.065 C  
HETATM   45  O   UNL     1     -11.621  11.871  68.572  1.00  0.00    -0.270 OA 
BRANCH  40  46
HETATM   46  C   UNL     1     -13.142  12.278  70.905  1.00  0.00     0.167 C  
HETATM   47  C   UNL     1     -12.296  13.518  71.123  1.00  0.00    -0.377 C  
ENDBRANCH  40  46
ENDBRANCH  36  38
ENDBRANCH  34  36
ENDBRANCH  25  34
ENDBRANCH  24  25
ENDBRANCH   6  21
TORSDOF 10
ENDMDL
MODEL      142
REMARK 921   NORMALIZED FREE ENERGY PREDICTED BY IDOCK:   -4.69 KCAL/MOL
REMARK 922        TOTAL FREE ENERGY PREDICTED BY IDOCK:   -9.73 KCAL/MOL
REMARK 923 INTER-LIGAND FREE ENERGY PREDICTED BY IDOCK:   -8.42 KCAL/MOL
REMARK 924 INTRA-LIGAND FREE ENERGY PREDICTED BY IDOCK:   -1.31 KCAL/MOL
REMARK 927      BINDING AFFINITY PREDICTED BY RF-SCORE:    0.00 PKD
ROOT
HETATM    1  C   UNL     1     -11.982  12.149  67.150  1.00  0.00    -0.078 C  
HETATM    2  S   UNL     1     -10.395  11.592  66.485  1.00  0.00    -0.232 SA 
HETATM    3  C   UNL     1     -10.555   9.933  67.180  1.00  0.00    -0.228 C  
HETATM    4  C   UNL     1     -10.992   9.878  68.640  1.00  0.00    -0.222 C  
HETATM    5  CA  UNL     1     -11.601  10.912  69.291  1.00  0.00    -0.318 C  
HETATM    6  CA  UNL     1     -12.122  13.701  67.341  1.00  0.00    -0.337 C  
HETATM    7  O   UNL     1     -12.693  13.787  69.907  1.00  0.00    -0.177 OA 
HETATM    8  N   UNL     1     -11.935  12.043  68.595  1.00  0.00    -0.299 N  
HETATM    9  C   UNL     1     -11.826  10.847  70.792  1.00  0.00    -0.319 C  
HETATM   10  OXT UNL     1     -11.270  10.043  71.527  1.00  0.00    -0.248 OA 
HETATM   11  O   UNL     1     -12.760  11.676  71.298  1.00  0.00    -0.393 OA 
HETATM   12  C   UNL     1     -12.343  13.308  68.853  1.00  0.00     0.081 C  
ENDROOT
BRANCH   4  13
HETATM   13  C   UNL     1     -10.528   8.568  69.278  1.00  0.00    -0.215 C  
BRANCH  13  14
HETATM   14  S   UNL     1     -11.207   7.052  68.558  1.00  0.00     0.195 SA 
BRANCH  14  15
HETATM   15  C   UNL     1      -9.855   6.009  68.398  1.00  0.00    -0.130 A  
HETATM   16  N   UNL     1      -9.493   5.022  69.181  1.00  0.00    -0.126 NA 
HETATM   17  C   UNL     1      -8.901   7.030  66.279  1.00  0.00    -0.148 C  
HETATM   18  N   UNL     1      -8.321   4.533  68.651  1.00  0.00    -0.084 NA 
HETATM   19  N   UNL     1      -8.939   6.123  67.391  1.00  0.00    -0.113 NA 
HETATM   20  N   UNL     1      -7.974   5.202  67.560  1.00  0.00    -0.099 NA 
ENDBRANCH  14  15
ENDBRANCH  13  14
ENDBRANCH   4  13
BRANCH   6  21
HETATM   21  N   UNL     1     -10.896  14.484  67.015  1.00  0.00    -0.292 N  
HETATM   22  H   UNL     1     -10.140  14.504  67.699  1.00  0.00     0.000 HD 
HETATM   23  O   UNL     1     -11.519  15.075  64.903  1.00  0.00    -0.386 OA 
HETATM   24  C   UNL     1     -10.729  15.184  65.838  1.00  0.00    -0.334 C  
BRANCH  24  25
HETATM   25  CA  UNL     1      -9.583  16.233  65.862  1.00  0.00    -0.301 C  
BRANCH  25  26
HETATM   26  C   UNL     1      -9.914  17.386  66.800  1.00  0.00    -0.307 A  
HETATM   27  C   UNL     1     -10.055  18.344  69.036  1.00  0.00    -0.274 A  
HETATM   28  C   UNL     1     -10.363  18.607  66.277  1.00  0.00    -0.483 A  
HETATM   29  O   UNL     1     -10.737  20.576  69.349  1.00  0.00    -0.316 OA 
HETATM   30  C   UNL     1      -9.761  17.269  68.195  1.00  0.00    -0.284 A  
HETATM   31  C   UNL     1     -10.650  19.687  67.119  1.00  0.00    -0.611 A  
HETATM   32  H   UNL     1     -10.625  20.480  70.287  1.00  0.00     0.000 HD 
HETATM   33  C   UNL     1     -10.487  19.546  68.493  1.00  0.00    -0.200 A  
ENDBRANCH  25  26
BRANCH  25  34
HETATM   34  N   UNL     1      -8.308  15.634  66.250  1.00  0.00    -0.365 N  
HETATM   35  H   UNL     1      -8.171  14.633  66.108  1.00  0.00     0.000 HD 
BRANCH  34  36
HETATM   36  C   UNL     1      -7.289  16.365  66.797  1.00  0.00    -0.226 C  
HETATM   37  O   UNL     1      -6.972  17.459  66.339  1.00  0.00    -0.224 OA 
BRANCH  36  38
HETATM   38  N   UNL     1      -6.659  15.798  67.898  1.00  0.00    -0.134 N  
HETATM   39  C   UNL     1      -6.088  16.697  68.896  1.00  0.00    -0.154 C  
HETATM   40  N   UNL     1      -5.901  14.837  70.467  1.00  0.00    -0.152 N  
HETATM   41  C   UNL     1      -6.349  16.209  70.308  1.00  0.00     0.134 C  
HETATM   42  C   UNL     1      -6.221  13.894  69.493  1.00  0.00    -0.115 C  
HETATM   43  O   UNL     1      -6.521  13.620  67.131  1.00  0.00    -0.201 OA 
HETATM   44  C   UNL     1      -6.496  14.420  68.064  1.00  0.00    -0.151 C  
HETATM   45  O   UNL     1      -6.259  12.687  69.699  1.00  0.00    -0.120 OA 
BRANCH  40  46
HETATM   46  C   UNL     1      -5.329  14.395  71.734  1.00  0.00    -0.173 C  
HETATM   47  C   UNL     1      -6.153  14.759  72.954  1.00  0.00     0.739 C  
ENDBRANCH  40  46
ENDBRANCH  36  38
ENDBRANCH  34  36
ENDBRANCH  25  34
ENDBRANCH  24  25
ENDBRANCH   6  21
TORSDOF 10
ENDMDL
MODEL      143
REMARK 921   NORMALIZED FREE ENERGY PREDICTED BY IDOCK:   -4.69 KCAL/MOL
REMARK 922        TOTAL FREE ENERGY PREDICTED BY IDOCK:   -9.73 KCAL/MOL
REMARK 923 INTER-LIGAND FREE ENERGY PREDICTED BY IDOCK:   -7.93 KCAL/MOL
REMARK 924 INTRA-LIGAND FREE ENERGY PREDICTED BY IDOCK:   -1.80 KCAL/MOL
REMARK 927      BINDING AFFINITY PREDICTED BY RF-SCORE:    0.00 PKD
ROOT
HETATM    1  C   UNL     1     -10.722   7.382  72.588  1.00  0.00    -0.288 C  
HETATM    2  S   UNL     1     -11.204   6.550  71.056  1.00  0.00    -0.326 SA 
HETATM    3  C   UNL     1     -11.055   4.897  71.771  1.00  0.00     0.245 C  
HETATM    4  C   UNL     1      -9.782   4.648  72.573  1.00  0.00    -0.199 C  
HETATM    5  CA  UNL     1      -8.991   5.642  73.074  1.00  0.00    -0.122 C  
HETATM    6  CA  UNL     1     -10.127   8.824  72.409  1.00  0.00    -0.152 C  
HETATM    7  O   UNL     1      -7.801   8.497  73.594  1.00  0.00    -0.362 OA 
HETATM    8  N   UNL     1      -9.386   6.946  72.945  1.00  0.00    -0.134 N  
HETATM    9  C   UNL     1      -7.643   5.312  73.692  1.00  0.00    -0.095 C  
HETATM   10  OXT UNL     1      -7.076   4.238  73.547  1.00  0.00    -0.065 OA 
HETATM   11  O   UNL     1      -7.109   6.243  74.507  1.00  0.00    -0.092 OA 
HETATM   12  C   UNL     1      -8.861   8.185  73.102  1.00  0.00    -0.257 C  
ENDROOT
BRANCH   4  13
HETATM   13  C   UNL     1      -9.467   3.152  72.608  1.00  0.00    -0.106 C  
BRANCH  13  14
HETATM   14  S   UNL     1      -9.452   2.308  71.006  1.00  0.00    -0.135 SA 
BRANCH  14  15
HETATM   15  C   UNL     1      -7.970   2.785  70.284  1.00  0.00    -0.042 A  
HETATM   16  N   UNL     1      -6.763   2.344  70.542  1.00  0.00    -0.032 NA 
HETATM   17  C   UNL     1      -8.920   4.521  68.695  1.00  0.00    -0.112 C  
HETATM   18  N   UNL     1      -5.918   3.072  69.737  1.00  0.00    -0.022 NA 
HETATM   19  N   UNL     1      -7.883   3.754  69.326  1.00  0.00    -0.052 NA 
HETATM   20  N   UNL     1      -6.594   3.937  68.993  1.00  0.00    -0.040 NA 
ENDBRANCH  14  15
ENDBRANCH  13  14
ENDBRANCH   4  13
BRANCH   6  21
HETATM   21  N   UNL     1      -9.976   9.267  70.994  1.00  0.00    -0.292 N  
HETATM   22  H   UNL     1      -9.184   8.912  70.460  1.00  0.00     0.000 HD 
HETATM   23  O   UNL     1     -11.911  10.470  70.892  1.00  0.00    -0.329 OA 
HETATM   24  C   UNL     1     -10.851  10.132  70.369  1.00  0.00    -0.301 C  
BRANCH  24  25
HETATM   25  CA  UNL     1     -10.310  10.768  69.059  1.00  0.00    -0.215 C  
BRANCH  25  26
HETATM   26  C   UNL     1      -9.953   9.698  68.037  1.00  0.00    -0.190 A  
HETATM   27  C   UNL     1     -10.349   7.537  66.982  1.00  0.00    -0.395 A  
HETATM   28  C   UNL     1      -8.886   9.906  67.150  1.00  0.00    -0.146 A  
HETATM   29  O   UNL     1      -9.021   6.817  65.176  1.00  0.00    -0.361 OA 
HETATM   30  C   UNL     1     -10.683   8.498  67.938  1.00  0.00    -0.148 A  
HETATM   31  C   UNL     1      -8.555   8.946  66.187  1.00  0.00    -0.155 A  
HETATM   32  H   UNL     1      -9.527   6.015  65.122  1.00  0.00     0.000 HD 
HETATM   33  C   UNL     1      -9.296   7.772  66.109  1.00  0.00    -0.100 A  
ENDBRANCH  25  26
BRANCH  25  34
HETATM   34  N   UNL     1     -11.268  11.705  68.475  1.00  0.00    -0.232 N  
HETATM   35  H   UNL     1     -11.793  11.420  67.649  1.00  0.00     0.000 HD 
BRANCH  34  36
HETATM   36  C   UNL     1     -11.487  12.951  68.995  1.00  0.00    -0.308 C  
HETATM   37  O   UNL     1     -12.337  13.140  69.861  1.00  0.00    -0.241 OA 
BRANCH  36  38
HETATM   38  N   UNL     1     -10.682  13.967  68.494  1.00  0.00    -0.249 N  
HETATM   39  C   UNL     1      -9.613  14.475  69.347  1.00  0.00     0.143 C  
HETATM   40  N   UNL     1      -8.595  15.574  67.419  1.00  0.00    -0.169 N  
HETATM   41  C   UNL     1      -8.337  14.720  68.565  1.00  0.00    -0.160 C  
HETATM   42  C   UNL     1      -9.696  15.317  66.607  1.00  0.00    -0.252 C  
HETATM   43  O   UNL     1     -11.964  14.545  66.657  1.00  0.00    -0.393 OA 
HETATM   44  C   UNL     1     -10.885  14.562  67.246  1.00  0.00    -0.297 C  
HETATM   45  O   UNL     1      -9.784  15.685  65.441  1.00  0.00    -0.303 OA 
BRANCH  40  46
HETATM   46  C   UNL     1      -7.592  16.541  66.986  1.00  0.00    -0.205 C  
HETATM   47  C   UNL     1      -8.065  17.982  67.000  1.00  0.00    -0.241 C  
ENDBRANCH  40  46
ENDBRANCH  36  38
ENDBRANCH  34  36
ENDBRANCH  25  34
ENDBRANCH  24  25
ENDBRANCH   6  21
TORSDOF 10
ENDMDL
MODEL      144
REMARK 921   NORMALIZED FREE ENERGY PREDICTED BY IDOCK:   -4.69 KCAL/MOL
REMARK 922        TOTAL FREE ENERGY PREDICTED BY IDOCK:   -9.72 KCAL/MOL
REMARK 923 INTER-LIGAND FREE ENERGY PREDICTED BY IDOCK:   -9.15 KCAL/MOL
REMARK 924 INTRA-LIGAND FREE ENERGY PREDICTED BY IDOCK:   -0.57 KCAL/MOL
REMARK 927      BINDING AFFINITY PREDICTED BY RF-SCORE:    0.00 PKD
ROOT
HETATM    1  C   UNL     1      -5.345  16.202  67.460  1.00  0.00    -0.122 C  
HETATM    2  S   UNL     1      -6.684  16.708  66.355  1.00  0.00     0.298 SA 
HETATM    3  C   UNL     1      -6.364  18.471  66.585  1.00  0.00    -0.181 C  
HETATM    4  C   UNL     1      -6.170  18.914  68.032  1.00  0.00    -0.224 C  
HETATM    5  CA  UNL     1      -5.860  18.062  69.054  1.00  0.00    -0.211 C  
HETATM    6  CA  UNL     1      -5.502  14.774  68.094  1.00  0.00    -0.121 C  
HETATM    7  O   UNL     1      -5.384  15.402  70.646  1.00  0.00    -0.134 OA 
HETATM    8  N   UNL     1      -5.611  16.744  68.779  1.00  0.00    -0.130 N  
HETATM    9  C   UNL     1      -5.877  18.551  70.492  1.00  0.00    -0.065 C  
HETATM   10  OXT UNL     1      -6.404  19.596  70.846  1.00  0.00    -0.095 OA 
HETATM   11  O   UNL     1      -5.193  17.813  71.388  1.00  0.00    -0.408 OA 
HETATM   12  C   UNL     1      -5.470  15.578  69.452  1.00  0.00    -0.107 C  
ENDROOT
BRANCH   4  13
HETATM   13  C   UNL     1      -6.506  20.399  68.177  1.00  0.00    -0.304 C  
BRANCH  13  14
HETATM   14  S   UNL     1      -7.636  21.080  66.937  1.00  0.00     0.125 SA 
BRANCH  14  15
HETATM   15  C   UNL     1      -8.929  19.954  66.871  1.00  0.00    -0.347 A  
HETATM   16  N   UNL     1      -9.375  19.289  65.833  1.00  0.00    -0.409 NA 
HETATM   17  C   UNL     1      -9.601  20.078  69.315  1.00  0.00     0.069 C  
HETATM   18  N   UNL     1     -10.449  18.561  66.287  1.00  0.00    -0.421 NA 
HETATM   19  N   UNL     1      -9.698  19.634  67.954  1.00  0.00    -0.354 NA 
HETATM   20  N   UNL     1     -10.656  18.768  67.580  1.00  0.00    -0.428 NA 
ENDBRANCH  14  15
ENDBRANCH  13  14
ENDBRANCH   4  13
BRANCH   6  21
HETATM   21  N   UNL     1      -6.772  14.073  67.749  1.00  0.00    -0.166 N  
HETATM   22  H   UNL     1      -6.841  13.623  66.837  1.00  0.00     0.000 HD 
HETATM   23  O   UNL     1      -7.789  14.373  69.768  1.00  0.00     0.158 OA 
HETATM   24  C   UNL     1      -7.856  14.001  68.598  1.00  0.00    -0.130 C  
BRANCH  24  25
HETATM   25  CA  UNL     1      -9.189  13.585  67.916  1.00  0.00    -0.211 C  
BRANCH  25  26
HETATM   26  C   UNL     1     -10.387  14.176  68.645  1.00  0.00    -0.243 A  
HETATM   27  C   UNL     1     -11.872  16.042  69.146  1.00  0.00    -0.268 A  
HETATM   28  C   UNL     1     -11.161  13.367  69.490  1.00  0.00    -0.181 A  
HETATM   29  O   UNL     1     -13.721  15.760  70.577  1.00  0.00    -0.743 OA 
HETATM   30  C   UNL     1     -10.760  15.524  68.480  1.00  0.00    -0.259 A  
HETATM   31  C   UNL     1     -12.281  13.885  70.151  1.00  0.00    -0.425 A  
HETATM   32  H   UNL     1     -13.959  16.670  70.451  1.00  0.00     0.000 HD 
HETATM   33  C   UNL     1     -12.629  15.218  69.967  1.00  0.00    -0.242 A  
ENDBRANCH  25  26
BRANCH  25  34
HETATM   34  N   UNL     1      -9.225  13.981  66.509  1.00  0.00    -0.422 N  
HETATM   35  H   UNL     1      -8.778  14.857  66.234  1.00  0.00     0.000 HD 
BRANCH  34  36
HETATM   36  C   UNL     1      -9.834  13.224  65.548  1.00  0.00    -0.136 C  
HETATM   37  O   UNL     1     -10.421  13.745  64.603  1.00  0.00    -0.416 OA 
BRANCH  36  38
HETATM   38  N   UNL     1      -9.731  11.847  65.705  1.00  0.00    -0.233 N  
HETATM   39  C   UNL     1      -8.681  11.152  64.968  1.00  0.00     0.044 C  
HETATM   40  N   UNL     1      -8.996   9.181  66.375  1.00  0.00    -0.142 N  
HETATM   41  C   UNL     1      -8.010  10.088  65.814  1.00  0.00    -0.126 C  
HETATM   42  C   UNL     1     -10.149   9.699  66.958  1.00  0.00    -0.214 C  
HETATM   43  O   UNL     1     -11.751  11.472  66.769  1.00  0.00    -0.510 OA 
HETATM   44  C   UNL     1     -10.616  11.095  66.482  1.00  0.00    -0.262 C  
HETATM   45  O   UNL     1     -10.821   9.100  67.789  1.00  0.00    -0.217 OA 
BRANCH  40  46
HETATM   46  C   UNL     1      -8.681   7.766  66.537  1.00  0.00    -0.148 C  
HETATM   47  C   UNL     1      -7.221   7.479  66.826  1.00  0.00    -0.084 C  
ENDBRANCH  40  46
ENDBRANCH  36  38
ENDBRANCH  34  36
ENDBRANCH  25  34
ENDBRANCH  24  25
ENDBRANCH   6  21
TORSDOF 10
ENDMDL
MODEL      145
REMARK 921   NORMALIZED FREE ENERGY PREDICTED BY IDOCK:   -4.66 KCAL/MOL
REMARK 922        TOTAL FREE ENERGY PREDICTED BY IDOCK:   -9.68 KCAL/MOL
REMARK 923 INTER-LIGAND FREE ENERGY PREDICTED BY IDOCK:   -7.87 KCAL/MOL
REMARK 924 INTRA-LIGAND FREE ENERGY PREDICTED BY IDOCK:   -1.82 KCAL/MOL
REMARK 927      BINDING AFFINITY PREDICTED BY RF-SCORE:    0.00 PKD
ROOT
HETATM    1  C   UNL     1      -8.313   9.416  70.589  1.00  0.00    -0.175 C  
HETATM    2  S   UNL     1      -9.956   8.675  70.729  1.00  0.00    -0.210 SA 
HETATM    3  C   UNL     1      -9.320   7.094  71.328  1.00  0.00    -0.155 C  
HETATM    4  C   UNL     1      -8.137   6.530  70.547  1.00  0.00    -0.117 C  
HETATM    5  CA  UNL     1      -7.342   7.278  69.726  1.00  0.00    -0.084 C  
HETATM    6  CA  UNL     1      -8.199  10.609  69.575  1.00  0.00    -0.021 C  
HETATM    7  O   UNL     1      -6.295   9.686  68.011  1.00  0.00    -0.056 OA 
HETATM    8  N   UNL     1      -7.534   8.631  69.651  1.00  0.00    -0.066 N  
HETATM    9  C   UNL     1      -6.310   6.604  68.836  1.00  0.00    -0.035 C  
HETATM   10  OXT UNL     1      -6.302   5.406  68.596  1.00  0.00    -0.032 OA 
HETATM   11  O   UNL     1      -5.314   7.384  68.372  1.00  0.00    -0.020 OA 
HETATM   12  C   UNL     1      -7.141   9.669  68.876  1.00  0.00    -0.067 C  
ENDROOT
BRANCH   4  13
HETATM   13  C   UNL     1      -8.071   5.012  70.716  1.00  0.00    -0.095 C  
BRANCH  13  14
HETATM   14  S   UNL     1      -9.624   4.118  70.458  1.00  0.00    -0.199 SA 
BRANCH  14  15
HETATM   15  C   UNL     1      -9.907   4.228  68.770  1.00  0.00    -0.050 A  
HETATM   16  N   UNL     1     -10.609   5.126  68.121  1.00  0.00    -0.013 NA 
HETATM   17  C   UNL     1      -8.593   2.171  68.078  1.00  0.00    -0.081 C  
HETATM   18  N   UNL     1     -10.571   4.749  66.799  1.00  0.00    -0.130 NA 
HETATM   19  N   UNL     1      -9.426   3.320  67.870  1.00  0.00    -0.192 NA 
HETATM   20  N   UNL     1      -9.853   3.645  66.637  1.00  0.00    -0.070 NA 
ENDBRANCH  14  15
ENDBRANCH  13  14
ENDBRANCH   4  13
BRANCH   6  21
HETATM   21  N   UNL     1      -9.448  10.908  68.819  1.00  0.00    -0.190 N  
HETATM   22  H   UNL     1     -10.337  10.613  69.220  1.00  0.00     0.000 HD 
HETATM   23  O   UNL     1      -8.457  12.090  67.140  1.00  0.00    -0.166 OA 
HETATM   24  C   UNL     1      -9.465  11.563  67.604  1.00  0.00    -0.168 C  
BRANCH  24  25
HETATM   25  CA  UNL     1     -10.793  11.424  66.810  1.00  0.00    -0.286 C  
BRANCH  25  26
HETATM   26  C   UNL     1     -11.076  12.675  65.990  1.00  0.00    -0.321 A  
HETATM   27  C   UNL     1     -12.265  13.833  64.206  1.00  0.00    -0.444 A  
HETATM   28  C   UNL     1     -10.414  13.874  66.292  1.00  0.00    -0.287 A  
HETATM   29  O   UNL     1     -11.907  16.126  63.811  1.00  0.00    -1.408 OA 
HETATM   30  C   UNL     1     -12.008  12.671  64.935  1.00  0.00    -0.459 A  
HETATM   31  C   UNL     1     -10.677  15.041  65.566  1.00  0.00    -0.372 A  
HETATM   32  H   UNL     1     -12.542  16.105  63.105  1.00  0.00     0.000 HD 
HETATM   33  C   UNL     1     -11.607  15.010  64.533  1.00  0.00    -0.343 A  
ENDBRANCH  25  26
BRANCH  25  34
HETATM   34  N   UNL     1     -10.781  10.254  65.934  1.00  0.00     0.001 N  
HETATM   35  H   UNL     1     -11.339  10.274  65.080  1.00  0.00     0.000 HD 
BRANCH  34  36
HETATM   36  C   UNL     1     -10.051   9.133  66.215  1.00  0.00    -0.249 C  
HETATM   37  O   UNL     1     -10.375   8.372  67.124  1.00  0.00    -0.262 OA 
BRANCH  36  38
HETATM   38  N   UNL     1      -8.944   8.911  65.406  1.00  0.00    -0.198 N  
HETATM   39  C   UNL     1      -8.851   9.658  64.156  1.00  0.00    -0.226 C  
HETATM   40  N   UNL     1      -6.496   9.041  63.961  1.00  0.00    -0.086 N  
HETATM   41  C   UNL     1      -7.438  10.144  63.895  1.00  0.00    -0.121 C  
HETATM   42  C   UNL     1      -6.578   8.133  65.013  1.00  0.00    -0.052 C  
HETATM   43  O   UNL     1      -8.136   7.008  66.444  1.00  0.00    -0.105 OA 
HETATM   44  C   UNL     1      -7.954   7.970  65.701  1.00  0.00    -0.114 C  
HETATM   45  O   UNL     1      -5.639   7.441  65.390  1.00  0.00    -0.032 OA 
BRANCH  40  46
HETATM   46  C   UNL     1      -5.337   9.014  63.075  1.00  0.00    -0.069 C  
HETATM   47  C   UNL     1      -5.128   7.695  62.357  1.00  0.00    -0.046 C  
ENDBRANCH  40  46
ENDBRANCH  36  38
ENDBRANCH  34  36
ENDBRANCH  25  34
ENDBRANCH  24  25
ENDBRANCH   6  21
TORSDOF 10
ENDMDL
MODEL      146
REMARK 921   NORMALIZED FREE ENERGY PREDICTED BY IDOCK:   -4.66 KCAL/MOL
REMARK 922        TOTAL FREE ENERGY PREDICTED BY IDOCK:   -9.67 KCAL/MOL
REMARK 923 INTER-LIGAND FREE ENERGY PREDICTED BY IDOCK:   -8.94 KCAL/MOL
REMARK 924 INTRA-LIGAND FREE ENERGY PREDICTED BY IDOCK:   -0.74 KCAL/MOL
REMARK 927      BINDING AFFINITY PREDICTED BY RF-SCORE:    0.00 PKD
ROOT
HETATM    1  C   UNL     1      -7.817   8.673  67.871  1.00  0.00    -0.103 C  
HETATM    2  S   UNL     1      -8.262   7.553  66.522  1.00  0.00    -0.128 SA 
HETATM    3  C   UNL     1      -8.823   8.890  65.443  1.00  0.00    -0.193 C  
HETATM    4  C   UNL     1      -9.736   9.919  66.102  1.00  0.00    -0.297 C  
HETATM    5  CA  UNL     1      -9.833  10.095  67.454  1.00  0.00    -0.187 C  
HETATM    6  CA  UNL     1      -7.793   8.025  69.300  1.00  0.00    -0.114 C  
HETATM    7  O   UNL     1      -9.504   9.599  70.533  1.00  0.00    -0.256 OA 
HETATM    8  N   UNL     1      -9.009   9.387  68.286  1.00  0.00    -0.128 N  
HETATM    9  C   UNL     1     -10.905  11.002  68.034  1.00  0.00    -0.229 C  
HETATM   10  OXT UNL     1     -11.873  11.398  67.400  1.00  0.00    -0.609 OA 
HETATM   11  O   UNL     1     -10.705  11.445  69.290  1.00  0.00    -0.212 OA 
HETATM   12  C   UNL     1      -8.896   9.111  69.607  1.00  0.00    -0.151 C  
ENDROOT
BRANCH   4  13
HETATM   13  C   UNL     1     -10.602  10.606  65.047  1.00  0.00    -0.117 C  
BRANCH  13  14
HETATM   14  S   UNL     1      -9.829  11.984  64.163  1.00  0.00    -0.133 SA 
BRANCH  14  15
HETATM   15  C   UNL     1     -11.051  13.185  64.087  1.00  0.00    -0.394 A  
HETATM   16  N   UNL     1     -12.186  13.149  63.431  1.00  0.00    -0.708 NA 
HETATM   17  C   UNL     1      -9.917  14.905  65.569  1.00  0.00    -0.358 C  
HETATM   18  N   UNL     1     -12.785  14.368  63.650  1.00  0.00    -0.625 NA 
HETATM   19  N   UNL     1     -10.952  14.394  64.717  1.00  0.00    -0.401 NA 
HETATM   20  N   UNL     1     -12.037  15.135  64.432  1.00  0.00    -0.429 NA 
ENDBRANCH  14  15
ENDBRANCH  13  14
ENDBRANCH   4  13
BRANCH   6  21
HETATM   21  N   UNL     1      -8.216   6.596  69.346  1.00  0.00    -0.122 N  
HETATM   22  H   UNL     1      -7.501   5.887  69.508  1.00  0.00     0.000 HD 
HETATM   23  O   UNL     1     -10.454   6.981  69.147  1.00  0.00    -0.194 OA 
HETATM   24  C   UNL     1      -9.521   6.182  69.181  1.00  0.00    -0.132 C  
BRANCH  24  25
HETATM   25  CA  UNL     1      -9.688   4.669  68.870  1.00  0.00    -0.166 C  
BRANCH  25  26
HETATM   26  C   UNL     1      -9.586   4.401  67.375  1.00  0.00    -0.218 A  
HETATM   27  C   UNL     1     -10.475   4.569  65.112  1.00  0.00    -0.139 A  
HETATM   28  C   UNL     1      -8.457   3.751  66.856  1.00  0.00    -0.105 A  
HETATM   29  O   UNL     1      -9.255   3.743  63.275  1.00  0.00    -0.100 OA 
HETATM   30  C   UNL     1     -10.595   4.810  66.482  1.00  0.00    -0.158 A  
HETATM   31  C   UNL     1      -8.333   3.516  65.482  1.00  0.00    -0.102 A  
HETATM   32  H   UNL     1      -9.944   4.029  62.688  1.00  0.00     0.000 HD 
HETATM   33  C   UNL     1      -9.342   3.934  64.622  1.00  0.00    -0.156 A  
ENDBRANCH  25  26
BRANCH  25  34
HETATM   34  N   UNL     1      -8.705   3.856  69.583  1.00  0.00    -0.072 N  
HETATM   35  H   UNL     1      -7.842   3.597  69.104  1.00  0.00     0.000 HD 
BRANCH  34  36
HETATM   36  C   UNL     1      -8.897   3.430  70.868  1.00  0.00    -0.084 C  
HETATM   37  O   UNL     1      -9.244   2.277  71.112  1.00  0.00    -0.095 OA 
BRANCH  36  38
HETATM   38  N   UNL     1      -8.660   4.372  71.862  1.00  0.00    -0.110 N  
HETATM   39  C   UNL     1      -7.313   4.457  72.416  1.00  0.00    -0.072 C  
HETATM   40  N   UNL     1      -7.862   6.613  73.423  1.00  0.00    -0.091 N  
HETATM   41  C   UNL     1      -6.882   5.896  72.627  1.00  0.00    -0.075 C  
HETATM   42  C   UNL     1      -9.215   6.485  73.121  1.00  0.00    -0.127 C  
HETATM   43  O   UNL     1     -10.856   4.921  72.343  1.00  0.00    -0.202 OA 
HETATM   44  C   UNL     1      -9.658   5.193  72.393  1.00  0.00    -0.148 C  
HETATM   45  O   UNL     1     -10.064   7.313  73.431  1.00  0.00    -0.251 OA 
BRANCH  40  46
HETATM   46  C   UNL     1      -7.430   7.633  74.372  1.00  0.00    -0.143 C  
HETATM   47  C   UNL     1      -6.034   8.170  74.121  1.00  0.00    -0.106 C  
ENDBRANCH  40  46
ENDBRANCH  36  38
ENDBRANCH  34  36
ENDBRANCH  25  34
ENDBRANCH  24  25
ENDBRANCH   6  21
TORSDOF 10
ENDMDL
MODEL      147
REMARK 921   NORMALIZED FREE ENERGY PREDICTED BY IDOCK:   -4.62 KCAL/MOL
REMARK 922        TOTAL FREE ENERGY PREDICTED BY IDOCK:   -9.62 KCAL/MOL
REMARK 923 INTER-LIGAND FREE ENERGY PREDICTED BY IDOCK:   -8.10 KCAL/MOL
REMARK 924 INTRA-LIGAND FREE ENERGY PREDICTED BY IDOCK:   -1.52 KCAL/MOL
REMARK 927      BINDING AFFINITY PREDICTED BY RF-SCORE:    0.00 PKD
ROOT
HETATM    1  C   UNL     1      -8.745  10.163  66.323  1.00  0.00    -0.141 C  
HETATM    2  S   UNL     1     -10.113   9.317  67.148  1.00  0.00    -0.257 SA 
HETATM    3  C   UNL     1     -11.170  10.782  67.151  1.00  0.00    -0.147 C  
HETATM    4  C   UNL     1     -10.495  12.071  67.610  1.00  0.00    -0.226 C  
HETATM    5  CA  UNL     1      -9.142  12.251  67.644  1.00  0.00    -0.184 C  
HETATM    6  CA  UNL     1      -7.326   9.533  66.559  1.00  0.00    -0.090 C  
HETATM    7  O   UNL     1      -6.071  11.620  67.554  1.00  0.00    -0.060 OA 
HETATM    8  N   UNL     1      -8.320  11.270  67.158  1.00  0.00    -0.145 N  
HETATM    9  C   UNL     1      -8.549  13.488  68.297  1.00  0.00    -0.168 C  
HETATM   10  OXT UNL     1      -9.177  14.231  69.036  1.00  0.00    -0.098 OA 
HETATM   11  O   UNL     1      -7.284  13.803  67.953  1.00  0.00    -0.118 OA 
HETATM   12  C   UNL     1      -7.003  10.953  67.170  1.00  0.00    -0.098 C  
ENDROOT
BRANCH   4  13
HETATM   13  C   UNL     1     -11.541  13.051  68.141  1.00  0.00    -0.341 C  
BRANCH  13  14
HETATM   14  S   UNL     1     -11.819  14.533  67.138  1.00  0.00    -0.334 SA 
BRANCH  14  15
HETATM   15  C   UNL     1     -12.247  13.929  65.590  1.00  0.00    -0.452 A  
HETATM   16  N   UNL     1     -12.780  12.769  65.289  1.00  0.00    -0.691 NA 
HETATM   17  C   UNL     1     -11.503  15.940  64.233  1.00  0.00    -0.191 C  
HETATM   18  N   UNL     1     -12.883  12.747  63.918  1.00  0.00    -0.707 NA 
HETATM   19  N   UNL     1     -12.039  14.624  64.433  1.00  0.00    -0.483 NA 
HETATM   20  N   UNL     1     -12.430  13.875  63.387  1.00  0.00    -0.791 NA 
ENDBRANCH  14  15
ENDBRANCH  13  14
ENDBRANCH   4  13
BRANCH   6  21
HETATM   21  N   UNL     1      -7.305   8.372  67.493  1.00  0.00    -0.091 N  
HETATM   22  H   UNL     1      -8.082   7.711  67.458  1.00  0.00     0.000 HD 
HETATM   23  O   UNL     1      -5.253   8.796  68.390  1.00  0.00    -0.033 OA 
HETATM   24  C   UNL     1      -6.293   8.142  68.401  1.00  0.00    -0.050 C  
BRANCH  24  25
HETATM   25  CA  UNL     1      -6.647   7.131  69.526  1.00  0.00    -0.044 C  
BRANCH  25  26
HETATM   26  C   UNL     1      -6.581   5.698  69.018  1.00  0.00    -0.051 A  
HETATM   27  C   UNL     1      -5.351   3.836  68.037  1.00  0.00    -0.012 A  
HETATM   28  C   UNL     1      -7.714   4.875  69.094  1.00  0.00    -0.072 A  
HETATM   29  O   UNL     1      -6.387   1.747  67.710  1.00  0.00    -0.024 OA 
HETATM   30  C   UNL     1      -5.395   5.158  68.483  1.00  0.00    -0.007 A  
HETATM   31  C   UNL     1      -7.668   3.547  68.653  1.00  0.00    -0.055 A  
HETATM   32  H   UNL     1      -5.577   1.400  67.356  1.00  0.00     0.000 HD 
HETATM   33  C   UNL     1      -6.483   3.039  68.135  1.00  0.00    -0.036 A  
ENDBRANCH  25  26
BRANCH  25  34
HETATM   34  N   UNL     1      -5.771   7.282  70.687  1.00  0.00    -0.027 N  
HETATM   35  H   UNL     1      -4.771   7.115  70.572  1.00  0.00     0.000 HD 
BRANCH  34  36
HETATM   36  C   UNL     1      -6.241   7.638  71.920  1.00  0.00    -0.039 C  
HETATM   37  O   UNL     1      -5.539   8.257  72.715  1.00  0.00    -0.045 OA 
BRANCH  36  38
HETATM   38  N   UNL     1      -7.551   7.269  72.200  1.00  0.00    -0.087 N  
HETATM   39  C   UNL     1      -8.556   8.324  72.279  1.00  0.00    -0.194 C  
HETATM   40  N   UNL     1     -10.328   6.649  72.147  1.00  0.00    -0.199 N  
HETATM   41  C   UNL     1      -9.855   7.914  71.614  1.00  0.00    -0.167 C  
HETATM   42  C   UNL     1      -9.433   5.593  72.299  1.00  0.00    -0.144 C  
HETATM   43  O   UNL     1      -7.159   5.087  72.862  1.00  0.00    -0.078 OA 
HETATM   44  C   UNL     1      -7.937   5.953  72.467  1.00  0.00    -0.102 C  
HETATM   45  O   UNL     1      -9.769   4.416  72.343  1.00  0.00    -0.145 OA 
BRANCH  40  46
HETATM   46  C   UNL     1     -11.758   6.407  72.301  1.00  0.00    -0.290 C  
HETATM   47  C   UNL     1     -12.612   6.968  71.181  1.00  0.00    -0.387 C  
ENDBRANCH  40  46
ENDBRANCH  36  38
ENDBRANCH  34  36
ENDBRANCH  25  34
ENDBRANCH  24  25
ENDBRANCH   6  21
TORSDOF 10
ENDMDL
MODEL      148
REMARK 921   NORMALIZED FREE ENERGY PREDICTED BY IDOCK:   -4.62 KCAL/MOL
REMARK 922        TOTAL FREE ENERGY PREDICTED BY IDOCK:   -9.61 KCAL/MOL
REMARK 923 INTER-LIGAND FREE ENERGY PREDICTED BY IDOCK:   -8.58 KCAL/MOL
REMARK 924 INTRA-LIGAND FREE ENERGY PREDICTED BY IDOCK:   -1.03 KCAL/MOL
REMARK 927      BINDING AFFINITY PREDICTED BY RF-SCORE:    0.00 PKD
ROOT
HETATM    1  C   UNL     1     -11.486   9.198  68.749  1.00  0.00     0.635 C  
HETATM    2  S   UNL     1     -10.924  10.178  70.161  1.00  0.00    -0.330 SA 
HETATM    3  C   UNL     1     -11.263  11.756  69.349  1.00  0.00    -0.234 C  
HETATM    4  C   UNL     1     -10.761  11.870  67.913  1.00  0.00    -0.239 C  
HETATM    5  CA  UNL     1     -10.442  10.797  67.131  1.00  0.00    -0.237 C  
HETATM    6  CA  UNL     1     -10.896   7.746  68.663  1.00  0.00     0.052 C  
HETATM    7  O   UNL     1      -9.804   7.849  66.271  1.00  0.00    -0.182 OA 
HETATM    8  N   UNL     1     -10.661   9.531  67.603  1.00  0.00    -0.278 N  
HETATM    9  C   UNL     1      -9.767  11.002  65.786  1.00  0.00    -0.224 C  
HETATM   10  OXT UNL     1      -9.242  12.051  65.444  1.00  0.00    -0.068 OA 
HETATM   11  O   UNL     1      -9.844   9.980  64.911  1.00  0.00    -0.317 OA 
HETATM   12  C   UNL     1     -10.335   8.257  67.278  1.00  0.00    -0.302 C  
ENDROOT
BRANCH   4  13
HETATM   13  C   UNL     1     -10.548  13.339  67.546  1.00  0.00    -0.246 C  
BRANCH  13  14
HETATM   14  S   UNL     1     -12.034  14.262  67.078  1.00  0.00    -0.392 SA 
BRANCH  14  15
HETATM   15  C   UNL     1     -12.353  13.774  65.465  1.00  0.00    -0.475 A  
HETATM   16  N   UNL     1     -12.812  12.621  65.040  1.00  0.00    -0.816 NA 
HETATM   17  C   UNL     1     -11.638  15.923  64.322  1.00  0.00    -0.178 C  
HETATM   18  N   UNL     1     -12.844  12.712  63.669  1.00  0.00    -0.728 NA 
HETATM   19  N   UNL     1     -12.119  14.573  64.382  1.00  0.00    -0.486 NA 
HETATM   20  N   UNL     1     -12.420  13.900  63.257  1.00  0.00    -0.731 NA 
ENDBRANCH  14  15
ENDBRANCH  13  14
ENDBRANCH   4  13
BRANCH   6  21
HETATM   21  N   UNL     1      -9.898   7.413  69.719  1.00  0.00    -0.170 N  
HETATM   22  H   UNL     1      -8.915   7.610  69.533  1.00  0.00     0.000 HD 
HETATM   23  O   UNL     1     -11.403   6.739  71.293  1.00  0.00    -0.262 OA 
HETATM   24  C   UNL     1     -10.234   6.852  70.934  1.00  0.00    -0.197 C  
BRANCH  24  25
HETATM   25  CA  UNL     1      -9.043   6.227  71.711  1.00  0.00    -0.144 C  
BRANCH  25  26
HETATM   26  C   UNL     1      -9.477   4.984  72.475  1.00  0.00    -0.164 A  
HETATM   27  C   UNL     1     -10.808   3.898  74.204  1.00  0.00    -0.233 A  
HETATM   28  C   UNL     1      -8.960   3.729  72.121  1.00  0.00    -0.143 A  
HETATM   29  O   UNL     1     -10.726   1.563  74.498  1.00  0.00    -0.121 OA 
HETATM   30  C   UNL     1     -10.411   5.052  73.527  1.00  0.00    -0.250 A  
HETATM   31  C   UNL     1      -9.364   2.571  72.795  1.00  0.00    -0.132 A  
HETATM   32  H   UNL     1     -11.359   1.629  75.202  1.00  0.00     0.000 HD 
HETATM   33  C   UNL     1     -10.291   2.667  73.826  1.00  0.00    -0.130 A  
ENDBRANCH  25  26
BRANCH  25  34
HETATM   34  N   UNL     1      -7.930   5.895  70.824  1.00  0.00    -0.111 N  
HETATM   35  H   UNL     1      -7.525   4.960  70.873  1.00  0.00     0.000 HD 
BRANCH  34  36
HETATM   36  C   UNL     1      -7.410   6.791  69.931  1.00  0.00    -0.089 C  
HETATM   37  O   UNL     1      -7.026   7.901  70.291  1.00  0.00    -0.048 OA 
BRANCH  36  38
HETATM   38  N   UNL     1      -7.335   6.358  68.613  1.00  0.00    -0.085 N  
HETATM   39  C   UNL     1      -6.771   7.272  67.625  1.00  0.00    -0.065 C  
HETATM   40  N   UNL     1      -6.547   5.426  66.042  1.00  0.00    -0.047 N  
HETATM   41  C   UNL     1      -5.860   6.553  66.648  1.00  0.00    -0.018 C  
HETATM   42  C   UNL     1      -7.283   4.560  66.846  1.00  0.00    -0.076 C  
HETATM   43  O   UNL     1      -8.685   4.488  68.788  1.00  0.00    -0.090 OA 
HETATM   44  C   UNL     1      -7.825   5.123  68.181  1.00  0.00    -0.087 C  
HETATM   45  O   UNL     1      -7.549   3.404  66.537  1.00  0.00    -0.075 OA 
BRANCH  40  46
HETATM   46  C   UNL     1      -6.282   5.069  64.653  1.00  0.00    -0.030 C  
HETATM   47  C   UNL     1      -6.808   6.066  63.639  1.00  0.00    -0.038 C  
ENDBRANCH  40  46
ENDBRANCH  36  38
ENDBRANCH  34  36
ENDBRANCH  25  34
ENDBRANCH  24  25
ENDBRANCH   6  21
TORSDOF 10
ENDMDL
MODEL      149
REMARK 921   NORMALIZED FREE ENERGY PREDICTED BY IDOCK:   -4.61 KCAL/MOL
REMARK 922        TOTAL FREE ENERGY PREDICTED BY IDOCK:   -9.59 KCAL/MOL
REMARK 923 INTER-LIGAND FREE ENERGY PREDICTED BY IDOCK:   -8.17 KCAL/MOL
REMARK 924 INTRA-LIGAND FREE ENERGY PREDICTED BY IDOCK:   -1.42 KCAL/MOL
REMARK 927      BINDING AFFINITY PREDICTED BY RF-SCORE:    0.00 PKD
ROOT
HETATM    1  C   UNL     1      -8.475   9.401  70.750  1.00  0.00    -0.135 C  
HETATM    2  S   UNL     1     -10.145   8.716  70.864  1.00  0.00    -0.227 SA 
HETATM    3  C   UNL     1      -9.575   7.132  71.519  1.00  0.00    -0.157 C  
HETATM    4  C   UNL     1      -8.393   6.511  70.783  1.00  0.00    -0.130 C  
HETATM    5  CA  UNL     1      -7.553   7.211  69.965  1.00  0.00    -0.091 C  
HETATM    6  CA  UNL     1      -8.297  10.564  69.710  1.00  0.00     0.103 C  
HETATM    7  O   UNL     1      -6.386   9.541  68.219  1.00  0.00    -0.052 OA 
HETATM    8  N   UNL     1      -7.699   8.568  69.852  1.00  0.00    -0.088 N  
HETATM    9  C   UNL     1      -6.522   6.483  69.119  1.00  0.00    -0.040 C  
HETATM   10  OXT UNL     1      -6.547   5.279  68.908  1.00  0.00    -0.047 OA 
HETATM   11  O   UNL     1      -5.489   7.218  68.663  1.00  0.00    -0.020 OA 
HETATM   12  C   UNL     1      -7.253   9.573  69.061  1.00  0.00    -0.071 C  
ENDROOT
BRANCH   4  13
HETATM   13  C   UNL     1      -8.380   4.996  70.992  1.00  0.00    -0.118 C  
BRANCH  13  14
HETATM   14  S   UNL     1      -9.941   4.139  70.665  1.00  0.00    -0.019 SA 
BRANCH  14  15
HETATM   15  C   UNL     1     -10.264   3.269  72.108  1.00  0.00    -0.073 A  
HETATM   16  N   UNL     1     -10.086   1.992  72.344  1.00  0.00    -0.146 NA 
HETATM   17  C   UNL     1     -11.156   5.214  73.473  1.00  0.00    -0.297 C  
HETATM   18  N   UNL     1     -10.540   1.780  73.624  1.00  0.00    -0.105 NA 
HETATM   19  N   UNL     1     -10.801   3.846  73.224  1.00  0.00    -0.200 NA 
HETATM   20  N   UNL     1     -10.981   2.906  74.168  1.00  0.00    -0.149 NA 
ENDBRANCH  14  15
ENDBRANCH  13  14
ENDBRANCH   4  13
BRANCH   6  21
HETATM   21  N   UNL     1      -9.516  10.883  68.914  1.00  0.00    -0.251 N  
HETATM   22  H   UNL     1     -10.424  10.619  69.295  1.00  0.00     0.000 HD 
HETATM   23  O   UNL     1      -8.447  12.009  67.244  1.00  0.00    -0.160 OA 
HETATM   24  C   UNL     1      -9.482  11.517  67.689  1.00  0.00    -0.168 C  
BRANCH  24  25
HETATM   25  CA  UNL     1     -10.790  11.399  66.860  1.00  0.00    -0.285 C  
BRANCH  25  26
HETATM   26  C   UNL     1     -11.053  12.671  66.066  1.00  0.00    -0.321 A  
HETATM   27  C   UNL     1     -10.427  14.923  65.375  1.00  0.00    -0.406 A  
HETATM   28  C   UNL     1     -12.181  12.759  65.237  1.00  0.00    -0.535 A  
HETATM   29  O   UNL     1     -11.736  16.113  63.821  1.00  0.00    -1.404 OA 
HETATM   30  C   UNL     1     -10.176  13.772  66.124  1.00  0.00    -0.305 A  
HETATM   31  C   UNL     1     -12.429  13.910  64.481  1.00  0.00    -0.336 A  
HETATM   32  H   UNL     1     -11.131  16.844  63.869  1.00  0.00     0.000 HD 
HETATM   33  C   UNL     1     -11.544  14.980  64.553  1.00  0.00    -0.343 A  
ENDBRANCH  25  26
BRANCH  25  34
HETATM   34  N   UNL     1     -10.759  10.253  65.955  1.00  0.00     0.001 N  
HETATM   35  H   UNL     1     -11.209  10.334  65.043  1.00  0.00     0.000 HD 
BRANCH  34  36
HETATM   36  C   UNL     1     -10.148   9.075  66.283  1.00  0.00    -0.241 C  
HETATM   37  O   UNL     1     -10.591   8.352  67.172  1.00  0.00    -0.311 OA 
BRANCH  36  38
HETATM   38  N   UNL     1      -9.018   8.750  65.542  1.00  0.00    -0.196 N  
HETATM   39  C   UNL     1      -8.596   9.677  64.497  1.00  0.00    -0.188 C  
HETATM   40  N   UNL     1      -6.429   8.558  64.375  1.00  0.00    -0.066 N  
HETATM   41  C   UNL     1      -7.090   9.848  64.470  1.00  0.00    -0.137 C  
HETATM   42  C   UNL     1      -6.849   7.512  65.194  1.00  0.00    -0.047 C  
HETATM   43  O   UNL     1      -8.793   6.546  66.207  1.00  0.00    -0.139 OA 
HETATM   44  C   UNL     1      -8.306   7.559  65.709  1.00  0.00    -0.142 C  
HETATM   45  O   UNL     1      -6.144   6.555  65.491  1.00  0.00    -0.032 OA 
BRANCH  40  46
HETATM   46  C   UNL     1      -5.197   8.421  63.608  1.00  0.00    -0.057 C  
HETATM   47  C   UNL     1      -5.334   7.592  62.346  1.00  0.00    -0.046 C  
ENDBRANCH  40  46
ENDBRANCH  36  38
ENDBRANCH  34  36
ENDBRANCH  25  34
ENDBRANCH  24  25
ENDBRANCH   6  21
TORSDOF 10
ENDMDL
MODEL      150
REMARK 921   NORMALIZED FREE ENERGY PREDICTED BY IDOCK:   -4.59 KCAL/MOL
REMARK 922        TOTAL FREE ENERGY PREDICTED BY IDOCK:   -9.56 KCAL/MOL
REMARK 923 INTER-LIGAND FREE ENERGY PREDICTED BY IDOCK:   -9.12 KCAL/MOL
REMARK 924 INTRA-LIGAND FREE ENERGY PREDICTED BY IDOCK:   -0.44 KCAL/MOL
REMARK 927      BINDING AFFINITY PREDICTED BY RF-SCORE:    0.00 PKD
ROOT
HETATM    1  C   UNL     1      -6.267   9.424  67.892  1.00  0.00    -0.053 C  
HETATM    2  S   UNL     1      -6.574   9.760  69.642  1.00  0.00    -0.059 SA 
HETATM    3  C   UNL     1      -5.708   8.275  70.199  1.00  0.00    -0.022 C  
HETATM    4  C   UNL     1      -6.063   6.995  69.449  1.00  0.00    -0.033 C  
HETATM    5  CA  UNL     1      -6.658   6.974  68.219  1.00  0.00    -0.059 C  
HETATM    6  CA  UNL     1      -7.278  10.090  66.893  1.00  0.00    -0.091 C  
HETATM    7  O   UNL     1      -8.139   7.948  65.633  1.00  0.00    -0.114 OA 
HETATM    8  N   UNL     1      -6.876   8.151  67.556  1.00  0.00    -0.069 N  
HETATM    9  C   UNL     1      -7.153   5.664  67.630  1.00  0.00    -0.071 C  
HETATM   10  OXT UNL     1      -7.300   4.640  68.282  1.00  0.00    -0.064 OA 
HETATM   11  O   UNL     1      -7.350   5.639  66.297  1.00  0.00    -0.076 OA 
HETATM   12  C   UNL     1      -7.567   8.595  66.479  1.00  0.00    -0.088 C  
ENDROOT
BRANCH   4  13
HETATM   13  C   UNL     1      -5.781   5.776  70.327  1.00  0.00    -0.016 C  
BRANCH  13  14
HETATM   14  S   UNL     1      -7.073   5.341  71.517  1.00  0.00    -0.069 SA 
BRANCH  14  15
HETATM   15  C   UNL     1      -7.250   6.743  72.491  1.00  0.00    -0.075 A  
HETATM   16  N   UNL     1      -8.158   7.684  72.402  1.00  0.00    -0.102 NA 
HETATM   17  C   UNL     1      -5.254   6.345  74.007  1.00  0.00    -0.041 C  
HETATM   18  N   UNL     1      -7.838   8.606  73.371  1.00  0.00    -0.411 NA 
HETATM   19  N   UNL     1      -6.392   7.061  73.505  1.00  0.00    -0.065 NA 
HETATM   20  N   UNL     1      -6.760   8.235  74.048  1.00  0.00    -0.129 NA 
ENDBRANCH  14  15
ENDBRANCH  13  14
ENDBRANCH   4  13
BRANCH   6  21
HETATM   21  N   UNL     1      -8.390  10.844  67.539  1.00  0.00    -0.116 N  
HETATM   22  H   UNL     1      -9.202  10.320  67.865  1.00  0.00     0.000 HD 
HETATM   23  O   UNL     1      -7.375  12.885  67.503  1.00  0.00    -0.137 OA 
HETATM   24  C   UNL     1      -8.380  12.211  67.719  1.00  0.00    -0.159 C  
BRANCH  24  25
HETATM   25  CA  UNL     1      -9.767  12.834  68.038  1.00  0.00    -0.220 C  
BRANCH  25  26
HETATM   26  C   UNL     1     -10.538  13.140  66.761  1.00  0.00    -0.267 A  
HETATM   27  C   UNL     1     -12.479  14.059  65.608  1.00  0.00    -0.531 A  
HETATM   28  C   UNL     1      -9.988  12.807  65.514  1.00  0.00    -0.234 A  
HETATM   29  O   UNL     1     -12.598  14.051  63.257  1.00  0.00    -1.073 OA 
HETATM   30  C   UNL     1     -11.796  13.773  66.792  1.00  0.00    -0.454 A  
HETATM   31  C   UNL     1     -10.670  13.101  64.328  1.00  0.00    -0.431 A  
HETATM   32  H   UNL     1     -13.444  14.481  63.297  1.00  0.00     0.000 HD 
HETATM   33  C   UNL     1     -11.907  13.730  64.387  1.00  0.00    -0.427 A  
ENDBRANCH  25  26
BRANCH  25  34
HETATM   34  N   UNL     1     -10.567  11.966  68.899  1.00  0.00    -0.326 N  
HETATM   35  H   UNL     1     -10.779  12.277  69.848  1.00  0.00     0.000 HD 
BRANCH  34  36
HETATM   36  C   UNL     1     -11.043  10.754  68.482  1.00  0.00    -0.262 C  
HETATM   37  O   UNL     1     -11.369  10.565  67.313  1.00  0.00    -0.359 OA 
BRANCH  36  38
HETATM   38  N   UNL     1     -11.115   9.764  69.454  1.00  0.00    -0.207 N  
HETATM   39  C   UNL     1     -11.552  10.150  70.792  1.00  0.00    -0.357 C  
HETATM   40  N   UNL     1     -11.903   7.801  71.358  1.00  0.00    -0.290 N  
HETATM   41  C   UNL     1     -12.495   9.126  71.394  1.00  0.00    -0.328 C  
HETATM   42  C   UNL     1     -11.284   7.358  70.191  1.00  0.00    -0.218 C  
HETATM   43  O   UNL     1      -9.963   8.099  68.335  1.00  0.00    -0.178 OA 
HETATM   44  C   UNL     1     -10.735   8.438  69.229  1.00  0.00    -0.126 C  
HETATM   45  O   UNL     1     -11.123   6.176  69.912  1.00  0.00    -0.347 OA 
BRANCH  40  46
HETATM   46  C   UNL     1     -12.154   6.857  72.441  1.00  0.00    -0.086 C  
HETATM   47  C   UNL     1     -10.907   6.198  72.998  1.00  0.00    -0.284 C  
ENDBRANCH  40  46
ENDBRANCH  36  38
ENDBRANCH  34  36
ENDBRANCH  25  34
ENDBRANCH  24  25
ENDBRANCH   6  21
TORSDOF 10
ENDMDL
MODEL      151
REMARK 921   NORMALIZED FREE ENERGY PREDICTED BY IDOCK:   -4.58 KCAL/MOL
REMARK 922        TOTAL FREE ENERGY PREDICTED BY IDOCK:   -9.55 KCAL/MOL
REMARK 923 INTER-LIGAND FREE ENERGY PREDICTED BY IDOCK:   -9.23 KCAL/MOL
REMARK 924 INTRA-LIGAND FREE ENERGY PREDICTED BY IDOCK:   -0.32 KCAL/MOL
REMARK 927      BINDING AFFINITY PREDICTED BY RF-SCORE:    0.00 PKD
ROOT
HETATM    1  C   UNL     1     -10.654   8.039  72.252  1.00  0.00    -0.291 C  
HETATM    2  S   UNL     1     -11.456   6.809  71.198  1.00  0.00    -0.333 SA 
HETATM    3  C   UNL     1     -11.596   5.592  72.526  1.00  0.00    -0.246 C  
HETATM    4  C   UNL     1     -10.333   5.386  73.356  1.00  0.00    -0.244 C  
HETATM    5  CA  UNL     1      -9.299   6.277  73.403  1.00  0.00    -0.131 C  
HETATM    6  CA  UNL     1      -9.782   9.104  71.497  1.00  0.00    -0.243 C  
HETATM    7  O   UNL     1      -7.474   8.729  72.703  1.00  0.00    -0.345 OA 
HETATM    8  N   UNL     1      -9.414   7.476  72.752  1.00  0.00    -0.158 N  
HETATM    9  C   UNL     1      -7.999   5.908  74.096  1.00  0.00    -0.104 C  
HETATM   10  OXT UNL     1      -7.696   4.764  74.402  1.00  0.00    -0.091 OA 
HETATM   11  O   UNL     1      -7.197   6.929  74.457  1.00  0.00    -0.097 OA 
HETATM   12  C   UNL     1      -8.621   8.511  72.386  1.00  0.00    -0.152 C  
ENDROOT
BRANCH   4  13
HETATM   13  C   UNL     1     -10.348   3.999  73.999  1.00  0.00    -0.189 C  
BRANCH  13  14
HETATM   14  S   UNL     1     -10.397   2.596  72.856  1.00  0.00    -0.150 SA 
BRANCH  14  15
HETATM   15  C   UNL     1      -8.826   2.546  72.169  1.00  0.00    -0.070 A  
HETATM   16  N   UNL     1      -7.745   1.985  72.655  1.00  0.00    -0.050 NA 
HETATM   17  C   UNL     1      -9.342   3.867  70.065  1.00  0.00    -0.176 C  
HETATM   18  N   UNL     1      -6.742   2.264  71.757  1.00  0.00    -0.018 NA 
HETATM   19  N   UNL     1      -8.508   3.146  70.984  1.00  0.00    -0.065 NA 
HETATM   20  N   UNL     1      -7.198   2.976  70.735  1.00  0.00    -0.033 NA 
ENDBRANCH  14  15
ENDBRANCH  13  14
ENDBRANCH   4  13
BRANCH   6  21
HETATM   21  N   UNL     1      -9.682   8.899  70.024  1.00  0.00    -0.169 N  
HETATM   22  H   UNL     1      -9.462   7.965  69.681  1.00  0.00     0.000 HD 
HETATM   23  O   UNL     1     -10.297  11.012  69.426  1.00  0.00    -0.196 OA 
HETATM   24  C   UNL     1      -9.871   9.906  69.100  1.00  0.00    -0.198 C  
BRANCH  24  25
HETATM   25  CA  UNL     1      -9.342   9.588  67.674  1.00  0.00    -0.123 C  
BRANCH  25  26
HETATM   26  C   UNL     1      -9.517   8.113  67.341  1.00  0.00    -0.191 A  
HETATM   27  C   UNL     1     -10.904   6.117  67.154  1.00  0.00    -0.442 A  
HETATM   28  C   UNL     1      -8.429   7.369  66.861  1.00  0.00    -0.123 A  
HETATM   29  O   UNL     1     -10.006   4.099  66.339  1.00  0.00    -0.287 OA 
HETATM   30  C   UNL     1     -10.761   7.467  67.481  1.00  0.00    -0.310 A  
HETATM   31  C   UNL     1      -8.574   6.018  66.526  1.00  0.00    -0.124 A  
HETATM   32  H   UNL     1     -10.853   3.681  66.438  1.00  0.00     0.000 HD 
HETATM   33  C   UNL     1      -9.814   5.407  66.670  1.00  0.00    -0.174 A  
ENDBRANCH  25  26
BRANCH  25  34
HETATM   34  N   UNL     1     -10.000  10.404  66.656  1.00  0.00    -0.202 N  
HETATM   35  H   UNL     1      -9.770  10.244  65.675  1.00  0.00     0.000 HD 
BRANCH  34  36
HETATM   36  C   UNL     1     -10.913  11.373  66.969  1.00  0.00    -0.292 C  
HETATM   37  O   UNL     1     -11.978  11.093  67.513  1.00  0.00    -0.580 OA 
BRANCH  36  38
HETATM   38  N   UNL     1     -10.550  12.674  66.646  1.00  0.00    -0.246 N  
HETATM   39  C   UNL     1     -11.544  13.519  65.992  1.00  0.00    -0.338 C  
HETATM   40  N   UNL     1     -10.194  15.493  66.484  1.00  0.00    -0.273 N  
HETATM   41  C   UNL     1     -11.532  14.932  66.542  1.00  0.00    -0.286 C  
HETATM   42  C   UNL     1      -9.112  14.728  66.912  1.00  0.00    -0.248 C  
HETATM   43  O   UNL     1      -8.268  12.486  66.978  1.00  0.00    -0.176 OA 
HETATM   44  C   UNL     1      -9.270  13.190  66.863  1.00  0.00    -0.236 C  
HETATM   45  O   UNL     1      -8.046  15.205  67.283  1.00  0.00    -0.170 OA 
BRANCH  40  46
HETATM   46  C   UNL     1     -10.007  16.912  66.205  1.00  0.00    -0.309 C  
HETATM   47  C   UNL     1     -10.263  17.823  67.390  1.00  0.00    -0.353 C  
ENDBRANCH  40  46
ENDBRANCH  36  38
ENDBRANCH  34  36
ENDBRANCH  25  34
ENDBRANCH  24  25
ENDBRANCH   6  21
TORSDOF 10
ENDMDL
MODEL      152
REMARK 921   NORMALIZED FREE ENERGY PREDICTED BY IDOCK:   -4.57 KCAL/MOL
REMARK 922        TOTAL FREE ENERGY PREDICTED BY IDOCK:   -9.53 KCAL/MOL
REMARK 923 INTER-LIGAND FREE ENERGY PREDICTED BY IDOCK:   -7.35 KCAL/MOL
REMARK 924 INTRA-LIGAND FREE ENERGY PREDICTED BY IDOCK:   -2.18 KCAL/MOL
REMARK 927      BINDING AFFINITY PREDICTED BY RF-SCORE:    0.00 PKD
ROOT
HETATM    1  C   UNL     1     -10.450  12.184  67.258  1.00  0.00    -0.218 C  
HETATM    2  S   UNL     1      -9.866  10.510  67.611  1.00  0.00    -0.170 SA 
HETATM    3  C   UNL     1     -11.435   9.992  68.343  1.00  0.00     0.061 C  
HETATM    4  C   UNL     1     -12.039  10.969  69.347  1.00  0.00    -0.389 C  
HETATM    5  CA  UNL     1     -11.691  12.288  69.429  1.00  0.00    -0.330 C  
HETATM    6  CA  UNL     1      -9.327  13.273  67.128  1.00  0.00    -0.240 C  
HETATM    7  O   UNL     1     -10.132  14.970  68.970  1.00  0.00    -0.227 OA 
HETATM    8  N   UNL     1     -10.822  12.813  68.511  1.00  0.00    -0.246 N  
HETATM    9  C   UNL     1     -12.194  13.143  70.579  1.00  0.00    -0.328 C  
HETATM   10  OXT UNL     1     -12.685  12.684  71.600  1.00  0.00    -0.283 OA 
HETATM   11  O   UNL     1     -12.161  14.478  70.397  1.00  0.00    -0.282 OA 
HETATM   12  C   UNL     1     -10.093  13.940  68.336  1.00  0.00    -0.237 C  
ENDROOT
BRANCH   4  13
HETATM   13  C   UNL     1     -12.967  10.227  70.309  1.00  0.00    -0.001 C  
BRANCH  13  14
HETATM   14  S   UNL     1     -12.162   9.393  71.700  1.00  0.00    -0.408 SA 
BRANCH  14  15
HETATM   15  C   UNL     1     -11.512   7.958  71.022  1.00  0.00    -0.280 A  
HETATM   16  N   UNL     1     -12.156   6.904  70.580  1.00  0.00    -0.358 NA 
HETATM   17  C   UNL     1      -9.060   8.585  71.206  1.00  0.00    -0.196 C  
HETATM   18  N   UNL     1     -11.188   6.011  70.185  1.00  0.00    -0.369 NA 
HETATM   19  N   UNL     1     -10.171   7.734  70.888  1.00  0.00    -0.199 NA 
HETATM   20  N   UNL     1      -9.972   6.508  70.372  1.00  0.00    -0.178 NA 
ENDBRANCH  14  15
ENDBRANCH  13  14
ENDBRANCH   4  13
BRANCH   6  21
HETATM   21  N   UNL     1      -7.945  12.780  67.389  1.00  0.00    -0.175 N  
HETATM   22  H   UNL     1      -7.817  11.789  67.592  1.00  0.00     0.000 HD 
HETATM   23  O   UNL     1      -6.882  14.754  66.974  1.00  0.00    -0.157 OA 
HETATM   24  C   UNL     1      -6.829  13.591  67.370  1.00  0.00    -0.050 C  
BRANCH  24  25
HETATM   25  CA  UNL     1      -5.570  12.981  68.045  1.00  0.00    -0.106 C  
BRANCH  25  26
HETATM   26  C   UNL     1      -5.545  13.285  69.536  1.00  0.00    -0.087 A  
HETATM   27  C   UNL     1      -5.905  14.798  71.412  1.00  0.00     0.073 A  
HETATM   28  C   UNL     1      -5.160  12.289  70.447  1.00  0.00    -0.103 A  
HETATM   29  O   UNL     1      -5.557  14.076  73.626  1.00  0.00    -0.456 OA 
HETATM   30  C   UNL     1      -5.920  14.545  70.039  1.00  0.00    -0.141 A  
HETATM   31  C   UNL     1      -5.152  12.541  71.823  1.00  0.00    -0.043 A  
HETATM   32  H   UNL     1      -5.816  14.931  73.947  1.00  0.00     0.000 HD 
HETATM   33  C   UNL     1      -5.532  13.792  72.293  1.00  0.00    -0.125 A  
ENDBRANCH  25  26
BRANCH  25  34
HETATM   34  N   UNL     1      -5.488  11.537  67.835  1.00  0.00    -0.044 N  
HETATM   35  H   UNL     1      -5.356  10.930  68.645  1.00  0.00     0.000 HD 
BRANCH  34  36
HETATM   36  C   UNL     1      -5.582  10.968  66.596  1.00  0.00    -0.098 C  
HETATM   37  O   UNL     1      -5.138  11.533  65.599  1.00  0.00    -0.299 OA 
BRANCH  36  38
HETATM   38  N   UNL     1      -6.192   9.720  66.545  1.00  0.00    -0.067 N  
HETATM   39  C   UNL     1      -6.628   9.225  65.244  1.00  0.00    -0.073 C  
HETATM   40  N   UNL     1      -6.875   6.982  66.179  1.00  0.00    -0.056 N  
HETATM   41  C   UNL     1      -6.327   7.748  65.074  1.00  0.00    -0.041 C  
HETATM   42  C   UNL     1      -6.691   7.433  67.483  1.00  0.00    -0.069 C  
HETATM   43  O   UNL     1      -6.552   9.423  68.811  1.00  0.00    -0.051 OA 
HETATM   44  C   UNL     1      -6.458   8.950  67.681  1.00  0.00    -0.061 C  
HETATM   45  O   UNL     1      -6.740   6.706  68.468  1.00  0.00    -0.059 OA 
BRANCH  40  46
HETATM   46  C   UNL     1      -7.408   5.644  65.949  1.00  0.00    -0.073 C  
HETATM   47  C   UNL     1      -8.834   5.617  65.434  1.00  0.00    -0.112 C  
ENDBRANCH  40  46
ENDBRANCH  36  38
ENDBRANCH  34  36
ENDBRANCH  25  34
ENDBRANCH  24  25
ENDBRANCH   6  21
TORSDOF 10
ENDMDL
MODEL      153
REMARK 921   NORMALIZED FREE ENERGY PREDICTED BY IDOCK:   -4.54 KCAL/MOL
REMARK 922        TOTAL FREE ENERGY PREDICTED BY IDOCK:   -9.50 KCAL/MOL
REMARK 923 INTER-LIGAND FREE ENERGY PREDICTED BY IDOCK:   -7.77 KCAL/MOL
REMARK 924 INTRA-LIGAND FREE ENERGY PREDICTED BY IDOCK:   -1.72 KCAL/MOL
REMARK 927      BINDING AFFINITY PREDICTED BY RF-SCORE:    0.00 PKD
ROOT
HETATM    1  C   UNL     1      -6.274  10.547  67.868  1.00  0.00    -0.058 C  
HETATM    2  S   UNL     1      -7.725  10.417  66.796  1.00  0.00    -0.118 SA 
HETATM    3  C   UNL     1      -7.678  12.160  66.326  1.00  0.00     0.552 C  
HETATM    4  C   UNL     1      -7.491  13.141  67.479  1.00  0.00    -0.164 C  
HETATM    5  CA  UNL     1      -7.003  12.790  68.705  1.00  0.00    -0.096 C  
HETATM    6  CA  UNL     1      -6.173   9.460  68.996  1.00  0.00    -0.042 C  
HETATM    7  O   UNL     1      -6.039  11.022  71.109  1.00  0.00    -0.357 OA 
HETATM    8  N   UNL     1      -6.561  11.511  68.913  1.00  0.00    -0.066 N  
HETATM    9  C   UNL     1      -7.032  13.782  69.855  1.00  0.00     0.262 C  
HETATM   10  OXT UNL     1      -7.701  14.805  69.850  1.00  0.00    -0.044 OA 
HETATM   11  O   UNL     1      -6.199  13.536  70.885  1.00  0.00    -0.082 OA 
HETATM   12  C   UNL     1      -6.206  10.717  69.951  1.00  0.00    -0.106 C  
ENDROOT
BRANCH   4  13
HETATM   13  C   UNL     1      -8.051  14.512  67.098  1.00  0.00    -0.168 C  
BRANCH  13  14
HETATM   14  S   UNL     1      -9.646  14.507  66.243  1.00  0.00    -0.289 SA 
BRANCH  14  15
HETATM   15  C   UNL     1     -10.682  13.605  67.270  1.00  0.00    -0.279 A  
HETATM   16  N   UNL     1     -10.974  13.830  68.529  1.00  0.00    -0.253 NA 
HETATM   17  C   UNL     1     -11.347  11.824  65.589  1.00  0.00    -0.233 C  
HETATM   18  N   UNL     1     -11.803  12.801  68.911  1.00  0.00    -0.316 NA 
HETATM   19  N   UNL     1     -11.328  12.470  66.871  1.00  0.00    -0.306 NA 
HETATM   20  N   UNL     1     -12.022  11.964  67.905  1.00  0.00    -0.577 NA 
ENDBRANCH  14  15
ENDBRANCH  13  14
ENDBRANCH   4  13
BRANCH   6  21
HETATM   21  N   UNL     1      -7.330   8.523  69.067  1.00  0.00    -0.079 N  
HETATM   22  H   UNL     1      -7.341   7.722  68.436  1.00  0.00     0.000 HD 
HETATM   23  O   UNL     1      -8.365   9.522  70.836  1.00  0.00    -0.280 OA 
HETATM   24  C   UNL     1      -8.387   8.681  69.940  1.00  0.00    -0.123 C  
BRANCH  24  25
HETATM   25  CA  UNL     1      -9.650   7.847  69.588  1.00  0.00    -0.164 C  
BRANCH  25  26
HETATM   26  C   UNL     1     -10.808   8.189  70.515  1.00  0.00    -0.247 A  
HETATM   27  C   UNL     1     -12.299   7.635  72.361  1.00  0.00    -0.162 A  
HETATM   28  C   UNL     1     -11.455   9.429  70.399  1.00  0.00    -0.272 A  
HETATM   29  O   UNL     1     -13.922   9.172  73.102  1.00  0.00    -1.101 OA 
HETATM   30  C   UNL     1     -11.245   7.295  71.511  1.00  0.00    -0.273 A  
HETATM   31  C   UNL     1     -12.506   9.772  71.256  1.00  0.00    -0.461 A  
HETATM   32  H   UNL     1     -14.200   8.557  73.770  1.00  0.00     0.000 HD 
HETATM   33  C   UNL     1     -12.914   8.872  72.234  1.00  0.00    -0.419 A  
ENDBRANCH  25  26
BRANCH  25  34
HETATM   34  N   UNL     1     -10.058   8.040  68.198  1.00  0.00    -0.190 N  
HETATM   35  H   UNL     1     -10.137   8.991  67.837  1.00  0.00     0.000 HD 
BRANCH  34  36
HETATM   36  C   UNL     1     -10.339   6.994  67.364  1.00  0.00    -0.244 C  
HETATM   37  O   UNL     1     -11.490   6.753  67.008  1.00  0.00    -0.209 OA 
BRANCH  36  38
HETATM   38  N   UNL     1      -9.247   6.246  66.940  1.00  0.00    -0.127 N  
HETATM   39  C   UNL     1      -8.419   6.791  65.870  1.00  0.00    -0.144 C  
HETATM   40  N   UNL     1      -6.673   5.165  66.392  1.00  0.00    -0.056 N  
HETATM   41  C   UNL     1      -6.942   6.568  66.133  1.00  0.00    -0.062 C  
HETATM   42  C   UNL     1      -7.498   4.459  67.263  1.00  0.00    -0.077 C  
HETATM   43  O   UNL     1      -9.772   4.251  67.989  1.00  0.00    -0.157 OA 
HETATM   44  C   UNL     1      -8.943   4.979  67.446  1.00  0.00    -0.110 C  
HETATM   45  O   UNL     1      -7.153   3.442  67.854  1.00  0.00    -0.050 OA 
BRANCH  40  46
HETATM   46  C   UNL     1      -5.426   4.562  65.933  1.00  0.00    -0.013 C  
HETATM   47  C   UNL     1      -5.471   4.035  64.512  1.00  0.00    -0.013 C  
ENDBRANCH  40  46
ENDBRANCH  36  38
ENDBRANCH  34  36
ENDBRANCH  25  34
ENDBRANCH  24  25
ENDBRANCH   6  21
TORSDOF 10
ENDMDL
MODEL      154
REMARK 921   NORMALIZED FREE ENERGY PREDICTED BY IDOCK:   -4.50 KCAL/MOL
REMARK 922        TOTAL FREE ENERGY PREDICTED BY IDOCK:   -9.43 KCAL/MOL
REMARK 923 INTER-LIGAND FREE ENERGY PREDICTED BY IDOCK:   -7.47 KCAL/MOL
REMARK 924 INTRA-LIGAND FREE ENERGY PREDICTED BY IDOCK:   -1.96 KCAL/MOL
REMARK 927      BINDING AFFINITY PREDICTED BY RF-SCORE:    0.00 PKD
ROOT
HETATM    1  C   UNL     1     -11.261  10.677  67.548  1.00  0.00    -0.253 C  
HETATM    2  S   UNL     1     -10.267  10.715  69.059  1.00  0.00    -0.221 SA 
HETATM    3  C   UNL     1     -10.505  12.488  69.309  1.00  0.00     0.230 C  
HETATM    4  C   UNL     1     -10.299  13.354  68.070  1.00  0.00    -0.242 C  
HETATM    5  CA  UNL     1     -10.327  12.872  66.792  1.00  0.00    -0.245 C  
HETATM    6  CA  UNL     1     -10.947   9.492  66.567  1.00  0.00     0.358 C  
HETATM    7  O   UNL     1     -10.370  10.854  64.392  1.00  0.00    -0.337 OA 
HETATM    8  N   UNL     1     -10.648  11.559  66.574  1.00  0.00    -0.248 N  
HETATM    9  C   UNL     1      -9.921  13.760  65.629  1.00  0.00    -0.255 C  
HETATM   10  OXT UNL     1      -9.313  14.813  65.760  1.00  0.00    -0.247 OA 
HETATM   11  O   UNL     1     -10.343  13.383  64.406  1.00  0.00    -0.425 OA 
HETATM   12  C   UNL     1     -10.608  10.661  65.562  1.00  0.00    -0.110 C  
ENDROOT
BRANCH   4  13
HETATM   13  C   UNL     1      -9.930  14.780  68.480  1.00  0.00    -0.228 C  
BRANCH  13  14
HETATM   14  S   UNL     1     -11.273  15.992  68.427  1.00  0.00    -0.351 SA 
BRANCH  14  15
HETATM   15  C   UNL     1     -10.482  17.503  68.244  1.00  0.00    -0.383 A  
HETATM   16  N   UNL     1      -9.952  18.260  69.174  1.00  0.00    -0.265 NA 
HETATM   17  C   UNL     1     -10.729  17.703  65.726  1.00  0.00    -0.110 C  
HETATM   18  N   UNL     1      -9.489  19.381  68.526  1.00  0.00    -0.370 NA 
HETATM   19  N   UNL     1     -10.337  18.130  67.039  1.00  0.00    -0.368 NA 
HETATM   20  N   UNL     1      -9.722  19.311  67.223  1.00  0.00    -0.318 NA 
ENDBRANCH  14  15
ENDBRANCH  13  14
ENDBRANCH   4  13
BRANCH   6  21
HETATM   21  N   UNL     1      -9.821   8.613  66.991  1.00  0.00    -0.197 N  
HETATM   22  H   UNL     1      -8.895   9.028  67.090  1.00  0.00     0.000 HD 
HETATM   23  O   UNL     1     -11.069   6.733  67.317  1.00  0.00    -0.358 OA 
HETATM   24  C   UNL     1      -9.963   7.266  67.256  1.00  0.00    -0.192 C  
BRANCH  24  25
HETATM   25  CA  UNL     1      -8.632   6.466  67.290  1.00  0.00    -0.110 C  
BRANCH  25  26
HETATM   26  C   UNL     1      -8.524   5.530  66.095  1.00  0.00    -0.122 A  
HETATM   27  C   UNL     1      -8.122   5.134  63.724  1.00  0.00    -0.115 A  
HETATM   28  C   UNL     1      -8.694   4.148  66.269  1.00  0.00    -0.115 A  
HETATM   29  O   UNL     1      -8.140   2.949  62.847  1.00  0.00    -0.071 OA 
HETATM   30  C   UNL     1      -8.233   6.012  64.803  1.00  0.00    -0.123 A  
HETATM   31  C   UNL     1      -8.575   3.268  65.188  1.00  0.00    -0.109 A  
HETATM   32  H   UNL     1      -7.941   3.292  61.985  1.00  0.00     0.000 HD 
HETATM   33  C   UNL     1      -8.283   3.771  63.925  1.00  0.00    -0.090 A  
ENDBRANCH  25  26
BRANCH  25  34
HETATM   34  N   UNL     1      -7.469   7.350  67.330  1.00  0.00    -0.101 N  
HETATM   35  H   UNL     1      -7.277   7.946  66.524  1.00  0.00     0.000 HD 
BRANCH  34  36
HETATM   36  C   UNL     1      -6.627   7.407  68.405  1.00  0.00    -0.046 C  
HETATM   37  O   UNL     1      -5.455   7.753  68.280  1.00  0.00    -0.029 OA 
BRANCH  36  38
HETATM   38  N   UNL     1      -7.185   7.068  69.632  1.00  0.00    -0.078 N  
HETATM   39  C   UNL     1      -7.915   8.100  70.359  1.00  0.00    -0.099 C  
HETATM   40  N   UNL     1      -8.885   6.394  71.812  1.00  0.00    -0.139 N  
HETATM   41  C   UNL     1      -9.181   7.555  70.991  1.00  0.00    -0.152 C  
HETATM   42  C   UNL     1      -8.047   5.399  71.314  1.00  0.00    -0.115 C  
HETATM   43  O   UNL     1      -6.109   5.045  69.950  1.00  0.00    -0.020 OA 
HETATM   44  C   UNL     1      -7.029   5.812  70.224  1.00  0.00    -0.058 C  
HETATM   45  O   UNL     1      -8.051   4.241  71.715  1.00  0.00    -0.087 OA 
BRANCH  40  46
HETATM   46  C   UNL     1      -9.633   6.155  73.041  1.00  0.00    -0.150 C  
HETATM   47  C   UNL     1     -10.715   7.179  73.324  1.00  0.00    -0.403 C  
ENDBRANCH  40  46
ENDBRANCH  36  38
ENDBRANCH  34  36
ENDBRANCH  25  34
ENDBRANCH  24  25
ENDBRANCH   6  21
TORSDOF 10
ENDMDL
MODEL      155
REMARK 921   NORMALIZED FREE ENERGY PREDICTED BY IDOCK:   -4.48 KCAL/MOL
REMARK 922        TOTAL FREE ENERGY PREDICTED BY IDOCK:   -9.39 KCAL/MOL
REMARK 923 INTER-LIGAND FREE ENERGY PREDICTED BY IDOCK:   -8.08 KCAL/MOL
REMARK 924 INTRA-LIGAND FREE ENERGY PREDICTED BY IDOCK:   -1.31 KCAL/MOL
REMARK 927      BINDING AFFINITY PREDICTED BY RF-SCORE:    0.00 PKD
ROOT
HETATM    1  C   UNL     1     -10.660   5.490  67.449  1.00  0.00    -0.199 C  
HETATM    2  S   UNL     1      -9.291   5.869  66.330  1.00  0.00    -0.150 SA 
HETATM    3  C   UNL     1      -8.634   4.187  66.377  1.00  0.00    -0.113 C  
HETATM    4  C   UNL     1      -8.521   3.571  67.768  1.00  0.00    -0.107 C  
HETATM    5  CA  UNL     1      -9.198   4.031  68.861  1.00  0.00    -0.148 C  
HETATM    6  CA  UNL     1     -11.253   6.720  68.224  1.00  0.00    -0.058 C  
HETATM    7  O   UNL     1     -10.944   5.879  70.698  1.00  0.00    -0.293 OA 
HETATM    8  N   UNL     1     -10.108   5.043  68.713  1.00  0.00    -0.157 N  
HETATM    9  C   UNL     1      -8.882   3.487  70.244  1.00  0.00    -0.089 C  
HETATM   10  OXT UNL     1      -7.876   2.844  70.505  1.00  0.00    -0.043 OA 
HETATM   11  O   UNL     1      -9.823   3.667  71.192  1.00  0.00    -0.180 OA 
HETATM   12  C   UNL     1     -10.817   5.891  69.495  1.00  0.00    -0.372 C  
ENDROOT
BRANCH   4  13
HETATM   13  C   UNL     1      -7.454   2.475  67.772  1.00  0.00    -0.056 C  
BRANCH  13  14
HETATM   14  S   UNL     1      -5.798   2.981  67.245  1.00  0.00    -0.024 SA 
BRANCH  14  15
HETATM   15  C   UNL     1      -5.573   4.526  67.955  1.00  0.00    -0.017 A  
HETATM   16  N   UNL     1      -5.449   4.826  69.225  1.00  0.00    -0.008 NA 
HETATM   17  C   UNL     1      -5.598   5.883  65.811  1.00  0.00    -0.016 C  
HETATM   18  N   UNL     1      -5.342   6.196  69.279  1.00  0.00    -0.011 NA 
HETATM   19  N   UNL     1      -5.527   5.683  67.230  1.00  0.00    -0.011 NA 
HETATM   20  N   UNL     1      -5.392   6.728  68.065  1.00  0.00    -0.011 NA 
ENDBRANCH  14  15
ENDBRANCH  13  14
ENDBRANCH   4  13
BRANCH   6  21
HETATM   21  N   UNL     1     -10.549   8.011  67.981  1.00  0.00    -0.393 N  
HETATM   22  H   UNL     1      -9.984   8.100  67.137  1.00  0.00     0.000 HD 
HETATM   23  O   UNL     1     -11.407   9.116  69.781  1.00  0.00    -0.126 OA 
HETATM   24  C   UNL     1     -10.621   9.091  68.836  1.00  0.00    -0.180 C  
BRANCH  24  25
HETATM   25  CA  UNL     1      -9.525  10.169  68.614  1.00  0.00    -0.164 C  
BRANCH  25  26
HETATM   26  C   UNL     1      -9.064  10.194  67.164  1.00  0.00    -0.149 A  
HETATM   27  C   UNL     1      -9.526  10.046  64.775  1.00  0.00    -0.366 A  
HETATM   28  C   UNL     1      -7.715  10.429  66.862  1.00  0.00    -0.111 A  
HETATM   29  O   UNL     1      -7.807  10.351  63.196  1.00  0.00    -0.153 OA 
HETATM   30  C   UNL     1      -9.967  10.004  66.099  1.00  0.00    -0.322 A  
HETATM   31  C   UNL     1      -7.275  10.479  65.534  1.00  0.00    -0.103 A  
HETATM   32  H   UNL     1      -8.430  10.224  62.491  1.00  0.00     0.000 HD 
HETATM   33  C   UNL     1      -8.188  10.293  64.503  1.00  0.00    -0.158 A  
ENDBRANCH  25  26
BRANCH  25  34
HETATM   34  N   UNL     1      -9.986  11.500  69.006  1.00  0.00    -0.402 N  
HETATM   35  H   UNL     1      -9.706  11.869  69.915  1.00  0.00     0.000 HD 
BRANCH  34  36
HETATM   36  C   UNL     1     -10.778  12.269  68.200  1.00  0.00    -0.216 C  
HETATM   37  O   UNL     1     -11.827  11.832  67.732  1.00  0.00    -0.541 OA 
BRANCH  36  38
HETATM   38  N   UNL     1     -10.330  13.563  67.966  1.00  0.00    -0.235 N  
HETATM   39  C   UNL     1      -9.408  13.776  66.855  1.00  0.00    -0.261 C  
HETATM   40  N   UNL     1      -9.813  16.181  66.976  1.00  0.00    -0.240 N  
HETATM   41  C   UNL     1      -9.738  15.038  66.083  1.00  0.00    -0.306 C  
HETATM   42  C   UNL     1     -10.516  16.069  68.172  1.00  0.00    -0.269 C  
HETATM   43  O   UNL     1     -11.046  14.538  69.938  1.00  0.00    -0.237 OA 
HETATM   44  C   UNL     1     -10.671  14.652  68.773  1.00  0.00    -0.249 C  
HETATM   45  O   UNL     1     -10.980  17.026  68.782  1.00  0.00    -0.289 OA 
BRANCH  40  46
HETATM   46  C   UNL     1      -9.361  17.493  66.526  1.00  0.00    -0.265 C  
HETATM   47  C   UNL     1      -7.890  17.558  66.165  1.00  0.00    -0.281 C  
ENDBRANCH  40  46
ENDBRANCH  36  38
ENDBRANCH  34  36
ENDBRANCH  25  34
ENDBRANCH  24  25
ENDBRANCH   6  21
TORSDOF 10
ENDMDL
MODEL      156
REMARK 921   NORMALIZED FREE ENERGY PREDICTED BY IDOCK:   -4.41 KCAL/MOL
REMARK 922        TOTAL FREE ENERGY PREDICTED BY IDOCK:   -9.28 KCAL/MOL
REMARK 923 INTER-LIGAND FREE ENERGY PREDICTED BY IDOCK:   -7.93 KCAL/MOL
REMARK 924 INTRA-LIGAND FREE ENERGY PREDICTED BY IDOCK:   -1.35 KCAL/MOL
REMARK 927      BINDING AFFINITY PREDICTED BY RF-SCORE:    0.00 PKD
ROOT
HETATM    1  C   UNL     1      -9.829  11.509  69.045  1.00  0.00     0.007 C  
HETATM    2  S   UNL     1      -8.169  10.850  68.763  1.00  0.00    -0.145 SA 
HETATM    3  C   UNL     1      -7.407  12.486  68.682  1.00  0.00    -0.099 C  
HETATM    4  C   UNL     1      -8.137  13.501  67.808  1.00  0.00    -0.177 C  
HETATM    5  CA  UNL     1      -9.442  13.376  67.425  1.00  0.00    -0.222 C  
HETATM    6  CA  UNL     1     -11.008  10.557  68.632  1.00  0.00    -0.248 C  
HETATM    7  O   UNL     1     -12.276  12.123  66.941  1.00  0.00    -0.537 OA 
HETATM    8  N   UNL     1     -10.190  12.339  67.912  1.00  0.00    -0.196 N  
HETATM    9  C   UNL     1     -10.033  14.326  66.398  1.00  0.00    -0.292 C  
HETATM   10  OXT UNL     1      -9.361  15.051  65.678  1.00  0.00    -0.247 OA 
HETATM   11  O   UNL     1     -11.377  14.415  66.363  1.00  0.00    -0.333 OA 
HETATM   12  C   UNL     1     -11.384  11.748  67.667  1.00  0.00    -0.302 C  
ENDROOT
BRANCH   4  13
HETATM   13  C   UNL     1      -7.163  14.579  67.330  1.00  0.00    -0.137 C  
BRANCH  13  14
HETATM   14  S   UNL     1      -6.680  15.813  68.564  1.00  0.00    -0.123 SA 
BRANCH  14  15
HETATM   15  C   UNL     1      -7.947  16.970  68.533  1.00  0.00    -0.249 A  
HETATM   16  N   UNL     1      -9.232  16.771  68.696  1.00  0.00    -0.249 NA 
HETATM   17  C   UNL     1      -6.516  19.014  68.069  1.00  0.00    -0.224 C  
HETATM   18  N   UNL     1      -9.825  18.001  68.533  1.00  0.00    -0.360 NA 
HETATM   19  N   UNL     1      -7.740  18.298  68.291  1.00  0.00    -0.282 NA 
HETATM   20  N   UNL     1      -8.922  18.939  68.282  1.00  0.00    -0.316 NA 
ENDBRANCH  14  15
ENDBRANCH  13  14
ENDBRANCH   4  13
BRANCH   6  21
HETATM   21  N   UNL     1     -10.584   9.276  67.998  1.00  0.00    -0.330 N  
HETATM   22  H   UNL     1     -10.358   8.489  68.605  1.00  0.00     0.000 HD 
HETATM   23  O   UNL     1     -10.892   9.943  65.839  1.00  0.00     0.141 OA 
HETATM   24  C   UNL     1     -10.482   9.099  66.634  1.00  0.00    -0.167 C  
BRANCH  24  25
HETATM   25  CA  UNL     1      -9.661   7.854  66.200  1.00  0.00    -0.009 C  
BRANCH  25  26
HETATM   26  C   UNL     1      -8.472   8.253  65.337  1.00  0.00    -0.189 A  
HETATM   27  C   UNL     1      -6.845   9.900  64.576  1.00  0.00    -0.124 A  
HETATM   28  C   UNL     1      -7.861   7.303  64.504  1.00  0.00    -0.121 A  
HETATM   29  O   UNL     1      -5.163   9.310  63.037  1.00  0.00    -0.067 OA 
HETATM   30  C   UNL     1      -7.946   9.559  65.363  1.00  0.00    -0.113 A  
HETATM   31  C   UNL     1      -6.753   7.644  63.721  1.00  0.00    -0.057 A  
HETATM   32  H   UNL     1      -4.821  10.195  63.071  1.00  0.00     0.000 HD 
HETATM   33  C   UNL     1      -6.252   8.939  63.770  1.00  0.00    -0.080 A  
ENDBRANCH  25  26
BRANCH  25  34
HETATM   34  N   UNL     1      -9.196   7.083  67.351  1.00  0.00    -0.125 N  
HETATM   35  H   UNL     1      -8.609   7.544  68.046  1.00  0.00     0.000 HD 
BRANCH  34  36
HETATM   36  C   UNL     1      -9.517   5.766  67.532  1.00  0.00    -0.112 C  
HETATM   37  O   UNL     1      -9.513   4.974  66.593  1.00  0.00    -0.130 OA 
BRANCH  36  38
HETATM   38  N   UNL     1      -9.829   5.390  68.832  1.00  0.00    -0.153 N  
HETATM   39  C   UNL     1      -9.183   4.199  69.373  1.00  0.00    -0.143 C  
HETATM   40  N   UNL     1      -9.871   4.844  71.625  1.00  0.00    -0.176 N  
HETATM   41  C   UNL     1      -8.754   4.395  70.814  1.00  0.00    -0.092 C  
HETATM   42  C   UNL     1     -10.693   5.864  71.153  1.00  0.00    -0.265 C  
HETATM   43  O   UNL     1     -11.665   6.760  69.154  1.00  0.00    -0.049 OA 
HETATM   44  C   UNL     1     -10.768   6.060  69.621  1.00  0.00    -0.335 C  
HETATM   45  O   UNL     1     -11.377   6.578  71.878  1.00  0.00    -0.256 OA 
BRANCH  40  46
HETATM   46  C   UNL     1      -9.995   4.402  73.009  1.00  0.00    -0.149 C  
HETATM   47  C   UNL     1      -8.677   4.286  73.750  1.00  0.00    -0.094 C  
ENDBRANCH  40  46
ENDBRANCH  36  38
ENDBRANCH  34  36
ENDBRANCH  25  34
ENDBRANCH  24  25
ENDBRANCH   6  21
TORSDOF 10
ENDMDL
MODEL      157
REMARK 921   NORMALIZED FREE ENERGY PREDICTED BY IDOCK:   -4.41 KCAL/MOL
REMARK 922        TOTAL FREE ENERGY PREDICTED BY IDOCK:   -9.28 KCAL/MOL
REMARK 923 INTER-LIGAND FREE ENERGY PREDICTED BY IDOCK:   -7.35 KCAL/MOL
REMARK 924 INTRA-LIGAND FREE ENERGY PREDICTED BY IDOCK:   -1.93 KCAL/MOL
REMARK 927      BINDING AFFINITY PREDICTED BY RF-SCORE:    0.00 PKD
ROOT
HETATM    1  C   UNL     1      -8.420   9.848  68.550  1.00  0.00    -0.112 C  
HETATM    2  S   UNL     1      -8.495   8.591  67.252  1.00  0.00    -0.123 SA 
HETATM    3  C   UNL     1      -8.953   9.778  65.969  1.00  0.00    -0.155 C  
HETATM    4  C   UNL     1     -10.064  10.752  66.350  1.00  0.00    -0.278 C  
HETATM    5  CA  UNL     1     -10.436  11.016  67.637  1.00  0.00    -0.204 C  
HETATM    6  CA  UNL     1      -8.617   9.313  70.013  1.00  0.00    -0.182 C  
HETATM    7  O   UNL     1     -10.666  10.786  70.756  1.00  0.00     0.325 OA 
HETATM    8  N   UNL     1      -9.729  10.462  68.670  1.00  0.00    -0.168 N  
HETATM    9  C   UNL     1     -11.677  11.846  67.922  1.00  0.00    -0.298 C  
HETATM   10  OXT UNL     1     -12.535  12.090  67.086  1.00  0.00    -0.016 OA 
HETATM   11  O   UNL     1     -11.763  12.399  69.147  1.00  0.00    -0.288 OA 
HETATM   12  C   UNL     1      -9.850  10.298  70.008  1.00  0.00    -0.030 C  
ENDROOT
BRANCH   4  13
HETATM   13  C   UNL     1     -10.767  11.265  65.092  1.00  0.00    -0.246 C  
BRANCH  13  14
HETATM   14  S   UNL     1      -9.948  12.629  64.229  1.00  0.00    -0.082 SA 
BRANCH  14  15
HETATM   15  C   UNL     1     -11.082  13.915  64.285  1.00  0.00    -0.233 A  
HETATM   16  N   UNL     1     -12.307  13.939  63.819  1.00  0.00    -0.720 NA 
HETATM   17  C   UNL     1      -9.610  15.601  65.482  1.00  0.00    -0.202 C  
HETATM   18  N   UNL     1     -12.779  15.207  64.068  1.00  0.00    -0.637 NA 
HETATM   19  N   UNL     1     -10.801  15.136  64.830  1.00  0.00    -0.422 NA 
HETATM   20  N   UNL     1     -11.864  15.945  64.683  1.00  0.00    -0.122 NA 
ENDBRANCH  14  15
ENDBRANCH  13  14
ENDBRANCH   4  13
BRANCH   6  21
HETATM   21  N   UNL     1      -8.911   7.855  70.112  1.00  0.00    -0.150 N  
HETATM   22  H   UNL     1      -8.616   7.251  69.346  1.00  0.00     0.000 HD 
HETATM   23  O   UNL     1      -9.798   7.912  72.212  1.00  0.00    -0.183 OA 
HETATM   24  C   UNL     1      -9.561   7.280  71.184  1.00  0.00    -0.160 C  
BRANCH  24  25
HETATM   25  CA  UNL     1     -10.114   5.853  70.919  1.00  0.00    -0.197 C  
BRANCH  25  26
HETATM   26  C   UNL     1     -10.325   5.613  69.431  1.00  0.00    -0.343 A  
HETATM   27  C   UNL     1     -10.008   4.276  67.418  1.00  0.00    -0.120 A  
HETATM   28  C   UNL     1     -11.088   6.518  68.678  1.00  0.00    -0.348 A  
HETATM   29  O   UNL     1     -10.986   4.923  65.376  1.00  0.00    -0.673 OA 
HETATM   30  C   UNL     1      -9.788   4.485  68.781  1.00  0.00    -0.180 A  
HETATM   31  C   UNL     1     -11.314   6.304  67.314  1.00  0.00    -0.049 A  
HETATM   32  H   UNL     1     -10.619   4.154  64.956  1.00  0.00     0.000 HD 
HETATM   33  C   UNL     1     -10.776   5.180  66.698  1.00  0.00    -0.153 A  
ENDBRANCH  25  26
BRANCH  25  34
HETATM   34  N   UNL     1      -9.233   4.820  71.463  1.00  0.00    -0.138 N  
HETATM   35  H   UNL     1      -9.632   3.913  71.706  1.00  0.00     0.000 HD 
BRANCH  34  36
HETATM   36  C   UNL     1      -7.895   5.024  71.658  1.00  0.00    -0.108 C  
HETATM   37  O   UNL     1      -7.477   5.593  72.664  1.00  0.00    -0.093 OA 
BRANCH  36  38
HETATM   38  N   UNL     1      -7.056   4.538  70.663  1.00  0.00    -0.040 N  
HETATM   39  C   UNL     1      -6.779   3.106  70.643  1.00  0.00    -0.033 C  
HETATM   40  N   UNL     1      -5.888   3.309  68.378  1.00  0.00    -0.022 N  
HETATM   41  C   UNL     1      -6.787   2.551  69.231  1.00  0.00    -0.033 C  
HETATM   42  C   UNL     1      -5.914   4.700  68.421  1.00  0.00    -0.026 C  
HETATM   43  O   UNL     1      -6.218   6.557  69.905  1.00  0.00    -0.035 OA 
HETATM   44  C   UNL     1      -6.422   5.358  69.726  1.00  0.00    -0.035 C  
HETATM   45  O   UNL     1      -5.525   5.417  67.507  1.00  0.00    -0.011 OA 
BRANCH  40  46
HETATM   46  C   UNL     1      -5.137   2.635  67.325  1.00  0.00    -0.008 C  
HETATM   47  C   UNL     1      -5.952   1.653  66.505  1.00  0.00    -0.019 C  
ENDBRANCH  40  46
ENDBRANCH  36  38
ENDBRANCH  34  36
ENDBRANCH  25  34
ENDBRANCH  24  25
ENDBRANCH   6  21
TORSDOF 10
ENDMDL
MODEL      158
REMARK 921   NORMALIZED FREE ENERGY PREDICTED BY IDOCK:   -4.39 KCAL/MOL
REMARK 922        TOTAL FREE ENERGY PREDICTED BY IDOCK:   -9.26 KCAL/MOL
REMARK 923 INTER-LIGAND FREE ENERGY PREDICTED BY IDOCK:   -8.88 KCAL/MOL
REMARK 924 INTRA-LIGAND FREE ENERGY PREDICTED BY IDOCK:   -0.38 KCAL/MOL
REMARK 927      BINDING AFFINITY PREDICTED BY RF-SCORE:    0.00 PKD
ROOT
HETATM    1  C   UNL     1      -5.653  15.790  68.231  1.00  0.00    -0.115 C  
HETATM    2  S   UNL     1      -6.937  15.828  66.958  1.00  0.00     0.018 SA 
HETATM    3  C   UNL     1      -6.355  17.386  66.253  1.00  0.00    -0.218 C  
HETATM    4  C   UNL     1      -6.054  18.486  67.265  1.00  0.00    -0.172 C  
HETATM    5  CA  UNL     1      -5.840  18.259  68.595  1.00  0.00    -0.195 C  
HETATM    6  CA  UNL     1      -5.997  14.942  69.506  1.00  0.00    -0.107 C  
HETATM    7  O   UNL     1      -5.709  16.786  71.360  1.00  0.00     0.359 OA 
HETATM    8  N   UNL     1      -5.795  16.972  69.059  1.00  0.00    -0.155 N  
HETATM    9  C   UNL     1      -5.741  19.423  69.566  1.00  0.00    -0.234 C  
HETATM   10  OXT UNL     1      -6.097  20.562  69.297  1.00  0.00    -0.341 OA 
HETATM   11  O   UNL     1      -5.144  19.174  70.748  1.00  0.00    -0.199 OA 
HETATM   12  C   UNL     1      -5.805  16.322  70.247  1.00  0.00    -0.113 C  
ENDROOT
BRANCH   4  13
HETATM   13  C   UNL     1      -6.163  19.858  66.599  1.00  0.00    -0.181 C  
BRANCH  13  14
HETATM   14  S   UNL     1      -7.715  20.194  65.728  1.00  0.00    -0.059 SA 
BRANCH  14  15
HETATM   15  C   UNL     1      -8.935  19.898  66.896  1.00  0.00    -0.347 A  
HETATM   16  N   UNL     1      -9.166  20.546  68.012  1.00  0.00    -0.070 NA 
HETATM   17  C   UNL     1     -10.006  17.899  65.756  1.00  0.00     0.031 C  
HETATM   18  N   UNL     1     -10.216  19.894  68.615  1.00  0.00    -0.443 NA 
HETATM   19  N   UNL     1      -9.834  18.874  66.796  1.00  0.00    -0.329 NA 
HETATM   20  N   UNL     1     -10.629  18.870  67.880  1.00  0.00    -0.384 NA 
ENDBRANCH  14  15
ENDBRANCH  13  14
ENDBRANCH   4  13
BRANCH   6  21
HETATM   21  N   UNL     1      -7.366  14.352  69.514  1.00  0.00    -0.336 N  
HETATM   22  H   UNL     1      -7.454  13.341  69.613  1.00  0.00     0.000 HD 
HETATM   23  O   UNL     1      -8.501  16.327  69.435  1.00  0.00    -0.200 OA 
HETATM   24  C   UNL     1      -8.519  15.099  69.393  1.00  0.00    -0.190 C  
BRANCH  24  25
HETATM   25  CA  UNL     1      -9.788  14.281  69.029  1.00  0.00    -0.067 C  
BRANCH  25  26
HETATM   26  C   UNL     1     -10.901  14.515  70.041  1.00  0.00    -0.031 A  
HETATM   27  C   UNL     1     -12.927  13.795  71.189  1.00  0.00    -0.370 A  
HETATM   28  C   UNL     1     -10.912  15.687  70.812  1.00  0.00    -0.343 A  
HETATM   29  O   UNL     1     -13.892  15.125  72.876  1.00  0.00    -0.447 OA 
HETATM   30  C   UNL     1     -11.924  13.569  70.245  1.00  0.00    -0.386 A  
HETATM   31  C   UNL     1     -11.913  15.910  71.764  1.00  0.00    -0.573 A  
HETATM   32  H   UNL     1     -14.571  14.474  73.002  1.00  0.00     0.000 HD 
HETATM   33  C   UNL     1     -12.908  14.957  71.948  1.00  0.00    -0.328 A  
ENDBRANCH  25  26
BRANCH  25  34
HETATM   34  N   UNL     1     -10.271  14.597  67.686  1.00  0.00    -0.232 N  
HETATM   35  H   UNL     1     -10.784  15.467  67.540  1.00  0.00     0.000 HD 
BRANCH  34  36
HETATM   36  C   UNL     1     -10.061  13.771  66.617  1.00  0.00    -0.277 C  
HETATM   37  O   UNL     1     -10.053  14.205  65.468  1.00  0.00    -0.329 OA 
BRANCH  36  38
HETATM   38  N   UNL     1      -9.846  12.432  66.918  1.00  0.00    -0.211 N  
HETATM   39  C   UNL     1     -10.999  11.623  67.300  1.00  0.00    -0.267 C  
HETATM   40  N   UNL     1      -9.689   9.591  66.959  1.00  0.00    -0.167 N  
HETATM   41  C   UNL     1     -10.953  10.245  66.670  1.00  0.00     0.040 C  
HETATM   42  C   UNL     1      -8.501  10.301  66.811  1.00  0.00    -0.123 C  
HETATM   43  O   UNL     1      -7.538  12.480  67.067  1.00  0.00    -0.119 OA 
HETATM   44  C   UNL     1      -8.579  11.842  66.930  1.00  0.00    -0.177 C  
HETATM   45  O   UNL     1      -7.410   9.774  66.631  1.00  0.00    -0.092 OA 
BRANCH  40  46
HETATM   46  C   UNL     1      -9.643   8.149  67.175  1.00  0.00    -0.174 C  
HETATM   47  C   UNL     1     -10.992   7.460  67.090  1.00  0.00    -0.225 C  
ENDBRANCH  40  46
ENDBRANCH  36  38
ENDBRANCH  34  36
ENDBRANCH  25  34
ENDBRANCH  24  25
ENDBRANCH   6  21
TORSDOF 10
ENDMDL
MODEL      159
REMARK 921   NORMALIZED FREE ENERGY PREDICTED BY IDOCK:   -4.39 KCAL/MOL
REMARK 922        TOTAL FREE ENERGY PREDICTED BY IDOCK:   -9.25 KCAL/MOL
REMARK 923 INTER-LIGAND FREE ENERGY PREDICTED BY IDOCK:   -6.91 KCAL/MOL
REMARK 924 INTRA-LIGAND FREE ENERGY PREDICTED BY IDOCK:   -2.34 KCAL/MOL
REMARK 927      BINDING AFFINITY PREDICTED BY RF-SCORE:    0.00 PKD
ROOT
HETATM    1  C   UNL     1     -10.322  13.768  67.526  1.00  0.00    -0.241 C  
HETATM    2  S   UNL     1     -10.309  12.012  67.958  1.00  0.00    -0.201 SA 
HETATM    3  C   UNL     1     -11.938  12.073  68.737  1.00  0.00    -0.244 C  
HETATM    4  C   UNL     1     -12.158  13.237  69.696  1.00  0.00    -0.331 C  
HETATM    5  CA  UNL     1     -11.396  14.371  69.705  1.00  0.00    -0.237 C  
HETATM    6  CA  UNL     1      -8.908  14.420  67.324  1.00  0.00    -0.213 C  
HETATM    7  O   UNL     1      -9.058  16.368  69.086  1.00  0.00    -0.250 OA 
HETATM    8  N   UNL     1     -10.430  14.540  68.750  1.00  0.00    -0.241 N  
HETATM    9  C   UNL     1     -11.555  15.394  70.817  1.00  0.00    -0.347 C  
HETATM   10  OXT UNL     1     -12.139  15.168  71.867  1.00  0.00    -0.328 OA 
HETATM   11  O   UNL     1     -11.092  16.634  70.565  1.00  0.00    -0.260 OA 
HETATM   12  C   UNL     1      -9.377  15.355  68.506  1.00  0.00    -0.198 C  
ENDROOT
BRANCH   4  13
HETATM   13  C   UNL     1     -13.249  12.886  70.709  1.00  0.00     0.337 C  
BRANCH  13  14
HETATM   14  S   UNL     1     -12.703  11.978  72.177  1.00  0.00     0.464 SA 
BRANCH  14  15
HETATM   15  C   UNL     1     -13.003  10.332  71.800  1.00  0.00    -0.469 A  
HETATM   16  N   UNL     1     -14.134   9.673  71.881  1.00  0.00    -0.094 NA 
HETATM   17  C   UNL     1     -10.639   9.714  71.115  1.00  0.00    -0.257 C  
HETATM   18  N   UNL     1     -13.841   8.379  71.518  1.00  0.00    -0.350 NA 
HETATM   19  N   UNL     1     -12.029   9.472  71.378  1.00  0.00    -0.358 NA 
HETATM   20  N   UNL     1     -12.557   8.247  71.211  1.00  0.00    -0.267 NA 
ENDBRANCH  14  15
ENDBRANCH  13  14
ENDBRANCH   4  13
BRANCH   6  21
HETATM   21  N   UNL     1      -7.757  13.511  67.592  1.00  0.00    -0.161 N  
HETATM   22  H   UNL     1      -7.956  12.554  67.880  1.00  0.00     0.000 HD 
HETATM   23  O   UNL     1      -6.123  14.975  66.973  1.00  0.00    -0.157 OA 
HETATM   24  C   UNL     1      -6.438  13.897  67.470  1.00  0.00    -0.058 C  
BRANCH  24  25
HETATM   25  CA  UNL     1      -5.419  12.951  68.163  1.00  0.00    -0.085 C  
BRANCH  25  26
HETATM   26  C   UNL     1      -5.386  13.187  69.667  1.00  0.00    -0.086 A  
HETATM   27  C   UNL     1      -5.519  14.667  71.598  1.00  0.00    -0.083 A  
HETATM   28  C   UNL     1      -5.223  12.103  70.542  1.00  0.00    -0.126 A  
HETATM   29  O   UNL     1      -5.384  13.807  73.786  1.00  0.00    -0.401 OA 
HETATM   30  C   UNL     1      -5.536  14.475  70.216  1.00  0.00    -0.122 A  
HETATM   31  C   UNL     1      -5.214  12.295  71.928  1.00  0.00     0.138 A  
HETATM   32  H   UNL     1      -5.490  14.683  74.138  1.00  0.00     0.000 HD 
HETATM   33  C   UNL     1      -5.369  13.576  72.443  1.00  0.00    -0.052 A  
ENDBRANCH  25  26
BRANCH  25  34
HETATM   34  N   UNL     1      -5.711  11.545  67.892  1.00  0.00    -0.044 N  
HETATM   35  H   UNL     1      -5.878  10.918  68.679  1.00  0.00     0.000 HD 
BRANCH  34  36
HETATM   36  C   UNL     1      -5.771  11.039  66.624  1.00  0.00    -0.104 C  
HETATM   37  O   UNL     1      -5.157  11.564  65.698  1.00  0.00    -0.299 OA 
BRANCH  36  38
HETATM   38  N   UNL     1      -6.549   9.899  66.461  1.00  0.00    -0.071 N  
HETATM   39  C   UNL     1      -5.974   8.618  66.859  1.00  0.00    -0.057 C  
HETATM   40  N   UNL     1      -8.191   7.596  66.775  1.00  0.00    -0.121 N  
HETATM   41  C   UNL     1      -6.987   7.745  67.574  1.00  0.00    -0.078 C  
HETATM   42  C   UNL     1      -8.759   8.719  66.177  1.00  0.00    -0.160 C  
HETATM   43  O   UNL     1      -8.212  10.805  65.133  1.00  0.00    -0.137 OA 
HETATM   44  C   UNL     1      -7.821   9.914  65.885  1.00  0.00    -0.116 C  
HETATM   45  O   UNL     1      -9.935   8.791  65.843  1.00  0.00    -0.213 OA 
BRANCH  40  46
HETATM   46  C   UNL     1      -8.928   6.338  66.788  1.00  0.00    -0.125 C  
HETATM   47  C   UNL     1      -8.173   5.177  67.406  1.00  0.00    -0.107 C  
ENDBRANCH  40  46
ENDBRANCH  36  38
ENDBRANCH  34  36
ENDBRANCH  25  34
ENDBRANCH  24  25
ENDBRANCH   6  21
TORSDOF 10
ENDMDL
MODEL      160
REMARK 921   NORMALIZED FREE ENERGY PREDICTED BY IDOCK:   -4.37 KCAL/MOL
REMARK 922        TOTAL FREE ENERGY PREDICTED BY IDOCK:   -9.21 KCAL/MOL
REMARK 923 INTER-LIGAND FREE ENERGY PREDICTED BY IDOCK:   -9.76 KCAL/MOL
REMARK 924 INTRA-LIGAND FREE ENERGY PREDICTED BY IDOCK:    0.55 KCAL/MOL
REMARK 927      BINDING AFFINITY PREDICTED BY RF-SCORE:    0.00 PKD
ROOT
HETATM    1  C   UNL     1      -7.897  10.328  69.011  1.00  0.00    -0.114 C  
HETATM    2  S   UNL     1      -6.504  10.769  70.077  1.00  0.00    -0.152 SA 
HETATM    3  C   UNL     1      -6.439   9.143  70.861  1.00  0.00    -0.074 C  
HETATM    4  C   UNL     1      -7.784   8.585  71.315  1.00  0.00    -0.126 C  
HETATM    5  CA  UNL     1      -8.989   9.030  70.851  1.00  0.00    -0.243 C  
HETATM    6  CA  UNL     1      -8.760  11.536  68.501  1.00  0.00    -0.138 C  
HETATM    7  O   UNL     1     -11.124  10.806  69.394  1.00  0.00    -0.229 OA 
HETATM    8  N   UNL     1      -9.021   9.966  69.853  1.00  0.00    -0.217 N  
HETATM    9  C   UNL     1     -10.281   8.559  71.496  1.00  0.00    -0.250 C  
HETATM   10  OXT UNL     1     -10.332   8.001  72.583  1.00  0.00    -0.278 OA 
HETATM   11  O   UNL     1     -11.405   8.701  70.767  1.00  0.00    -0.261 OA 
HETATM   12  C   UNL     1      -9.922  10.786  69.261  1.00  0.00    -0.159 C  
ENDROOT
BRANCH   4  13
HETATM   13  C   UNL     1      -7.579   7.572  72.442  1.00  0.00    -0.086 C  
BRANCH  13  14
HETATM   14  S   UNL     1      -7.187   5.882  71.926  1.00  0.00    -0.094 SA 
BRANCH  14  15
HETATM   15  C   UNL     1      -8.319   5.538  70.684  1.00  0.00    -0.117 A  
HETATM   16  N   UNL     1      -8.208   5.768  69.398  1.00  0.00    -0.107 NA 
HETATM   17  C   UNL     1     -10.128   4.534  72.154  1.00  0.00    -0.195 C  
HETATM   18  N   UNL     1      -9.397   5.359  68.840  1.00  0.00    -0.123 NA 
HETATM   19  N   UNL     1      -9.544   4.981  70.922  1.00  0.00    -0.168 NA 
HETATM   20  N   UNL     1     -10.220   4.880  69.764  1.00  0.00    -0.253 NA 
ENDBRANCH  14  15
ENDBRANCH  13  14
ENDBRANCH   4  13
BRANCH   6  21
HETATM   21  N   UNL     1      -8.348  12.867  69.032  1.00  0.00    -0.284 N  
HETATM   22  H   UNL     1      -8.126  12.943  70.024  1.00  0.00     0.000 HD 
HETATM   23  O   UNL     1      -8.344  13.955  67.028  1.00  0.00    -0.178 OA 
HETATM   24  C   UNL     1      -8.252  14.002  68.253  1.00  0.00    -0.153 C  
BRANCH  24  25
HETATM   25  CA  UNL     1      -8.200  15.334  69.050  1.00  0.00    -0.205 C  
BRANCH  25  26
HETATM   26  C   UNL     1      -7.361  16.376  68.323  1.00  0.00    -0.158 A  
HETATM   27  C   UNL     1      -6.564  17.420  66.270  1.00  0.00    -0.279 A  
HETATM   28  C   UNL     1      -6.614  17.309  69.057  1.00  0.00    -0.230 A  
HETATM   29  O   UNL     1      -5.133  19.288  66.346  1.00  0.00    -0.157 OA 
HETATM   30  C   UNL     1      -7.327  16.446  66.917  1.00  0.00    -0.269 A  
HETATM   31  C   UNL     1      -5.855  18.290  68.408  1.00  0.00    -0.183 A  
HETATM   32  H   UNL     1      -5.125  19.322  65.397  1.00  0.00     0.000 HD 
HETATM   33  C   UNL     1      -5.843  18.339  67.019  1.00  0.00    -0.145 A  
ENDBRANCH  25  26
BRANCH  25  34
HETATM   34  N   UNL     1      -9.537  15.868  69.302  1.00  0.00    -0.253 N  
HETATM   35  H   UNL     1      -9.638  16.864  69.500  1.00  0.00     0.000 HD 
BRANCH  34  36
HETATM   36  C   UNL     1     -10.657  15.084  69.283  1.00  0.00    -0.247 C  
HETATM   37  O   UNL     1     -11.155  14.659  70.322  1.00  0.00    -0.200 OA 
BRANCH  36  38
HETATM   38  N   UNL     1     -11.191  14.820  68.028  1.00  0.00    -0.286 N  
HETATM   39  C   UNL     1     -11.116  15.870  67.019  1.00  0.00    -0.119 C  
HETATM   40  N   UNL     1     -11.662  14.242  65.282  1.00  0.00    -0.345 N  
HETATM   41  C   UNL     1     -10.756  15.315  65.654  1.00  0.00    -0.365 C  
HETATM   42  C   UNL     1     -11.972  13.254  66.213  1.00  0.00    -0.417 C  
HETATM   43  O   UNL     1     -12.351  12.887  68.550  1.00  0.00    -0.076 OA 
HETATM   44  C   UNL     1     -11.845  13.627  67.709  1.00  0.00    -0.368 C  
HETATM   45  O   UNL     1     -12.370  12.135  65.911  1.00  0.00    -0.561 OA 
BRANCH  40  46
HETATM   46  C   UNL     1     -12.058  14.069  63.889  1.00  0.00    -0.311 C  
HETATM   47  C   UNL     1     -11.860  12.664  63.352  1.00  0.00    -0.594 C  
ENDBRANCH  40  46
ENDBRANCH  36  38
ENDBRANCH  34  36
ENDBRANCH  25  34
ENDBRANCH  24  25
ENDBRANCH   6  21
TORSDOF 10
ENDMDL
MODEL      161
REMARK 921   NORMALIZED FREE ENERGY PREDICTED BY IDOCK:   -4.35 KCAL/MOL
REMARK 922        TOTAL FREE ENERGY PREDICTED BY IDOCK:   -9.19 KCAL/MOL
REMARK 923 INTER-LIGAND FREE ENERGY PREDICTED BY IDOCK:   -6.95 KCAL/MOL
REMARK 924 INTRA-LIGAND FREE ENERGY PREDICTED BY IDOCK:   -2.25 KCAL/MOL
REMARK 927      BINDING AFFINITY PREDICTED BY RF-SCORE:    0.00 PKD
ROOT
HETATM    1  C   UNL     1      -7.806   9.155  68.044  1.00  0.00    -0.100 C  
HETATM    2  S   UNL     1      -8.055   8.124  66.578  1.00  0.00    -0.108 SA 
HETATM    3  C   UNL     1      -8.755   9.476  65.605  1.00  0.00    -0.149 C  
HETATM    4  C   UNL     1      -9.818  10.308  66.316  1.00  0.00    -0.276 C  
HETATM    5  CA  UNL     1      -9.980  10.337  67.672  1.00  0.00    -0.179 C  
HETATM    6  CA  UNL     1      -7.741   8.378  69.407  1.00  0.00    -0.097 C  
HETATM    7  O   UNL     1      -9.684   9.589  70.703  1.00  0.00    -0.261 OA 
HETATM    8  N   UNL     1      -9.095   9.664  68.471  1.00  0.00    -0.130 N  
HETATM    9  C   UNL     1     -11.181  11.036  68.286  1.00  0.00    -0.277 C  
HETATM   10  OXT UNL     1     -12.172  11.363  67.650  1.00  0.00    -0.485 OA 
HETATM   11  O   UNL     1     -11.081  11.376  69.586  1.00  0.00    -0.238 OA 
HETATM   12  C   UNL     1      -8.988   9.277  69.764  1.00  0.00    -0.172 C  
ENDROOT
BRANCH   4  13
HETATM   13  C   UNL     1     -10.734  10.977  65.292  1.00  0.00    -0.164 C  
BRANCH  13  14
HETATM   14  S   UNL     1     -10.182  12.585  64.667  1.00  0.00    -0.264 SA 
BRANCH  14  15
HETATM   15  C   UNL     1     -10.473  13.672  65.961  1.00  0.00    -0.300 A  
HETATM   16  N   UNL     1      -9.609  14.177  66.808  1.00  0.00    -0.271 NA 
HETATM   17  C   UNL     1     -12.983  13.888  65.654  1.00  0.00    -0.315 C  
HETATM   18  N   UNL     1     -10.342  14.948  67.678  1.00  0.00    -0.240 NA 
HETATM   19  N   UNL     1     -11.718  14.133  66.285  1.00  0.00    -0.374 NA 
HETATM   20  N   UNL     1     -11.632  14.925  67.368  1.00  0.00    -0.354 NA 
ENDBRANCH  14  15
ENDBRANCH  13  14
ENDBRANCH   4  13
BRANCH   6  21
HETATM   21  N   UNL     1      -7.970   6.909  69.301  1.00  0.00    -0.114 N  
HETATM   22  H   UNL     1      -7.857   6.468  68.389  1.00  0.00     0.000 HD 
HETATM   23  O   UNL     1      -8.323   6.542  71.523  1.00  0.00    -0.119 OA 
HETATM   24  C   UNL     1      -8.327   6.115  70.371  1.00  0.00    -0.125 C  
BRANCH  24  25
HETATM   25  CA  UNL     1      -8.896   4.722  69.984  1.00  0.00    -0.086 C  
BRANCH  25  26
HETATM   26  C   UNL     1      -9.585   4.767  68.628  1.00  0.00    -0.223 A  
HETATM   27  C   UNL     1     -11.113   5.816  67.044  1.00  0.00    -0.062 A  
HETATM   28  C   UNL     1      -9.294   3.793  67.661  1.00  0.00    -0.240 A  
HETATM   29  O   UNL     1     -11.398   4.932  64.881  1.00  0.00    -0.558 OA 
HETATM   30  C   UNL     1     -10.504   5.783  68.300  1.00  0.00    -0.281 A  
HETATM   31  C   UNL     1      -9.900   3.830  66.400  1.00  0.00    -0.072 A  
HETATM   32  H   UNL     1     -12.013   5.627  64.677  1.00  0.00     0.000 HD 
HETATM   33  C   UNL     1     -10.799   4.847  66.102  1.00  0.00    -0.050 A  
ENDBRANCH  25  26
BRANCH  25  34
HETATM   34  N   UNL     1      -7.856   3.695  69.972  1.00  0.00    -0.047 N  
HETATM   35  H   UNL     1      -8.127   2.720  70.099  1.00  0.00     0.000 HD 
BRANCH  34  36
HETATM   36  C   UNL     1      -6.532   3.993  69.798  1.00  0.00    -0.033 C  
HETATM   37  O   UNL     1      -5.846   4.414  70.725  1.00  0.00    -0.012 OA 
BRANCH  36  38
HETATM   38  N   UNL     1      -6.024   3.773  68.524  1.00  0.00    -0.026 N  
HETATM   39  C   UNL     1      -5.673   2.406  68.153  1.00  0.00    -0.019 C  
HETATM   40  N   UNL     1      -5.569   3.067  65.805  1.00  0.00    -0.017 N  
HETATM   41  C   UNL     1      -6.095   2.082  66.733  1.00  0.00    -0.023 C  
HETATM   42  C   UNL     1      -5.671   4.421  66.112  1.00  0.00    -0.022 C  
HETATM   43  O   UNL     1      -5.609   5.973  67.937  1.00  0.00    -0.008 OA 
HETATM   44  C   UNL     1      -5.779   4.800  67.608  1.00  0.00    -0.021 C  
HETATM   45  O   UNL     1      -5.644   5.314  65.273  1.00  0.00    -0.013 OA 
BRANCH  40  46
HETATM   46  C   UNL     1      -5.150   2.662  64.467  1.00  0.00    -0.008 C  
HETATM   47  C   UNL     1      -6.120   1.734  63.762  1.00  0.00    -0.013 C  
ENDBRANCH  40  46
ENDBRANCH  36  38
ENDBRANCH  34  36
ENDBRANCH  25  34
ENDBRANCH  24  25
ENDBRANCH   6  21
TORSDOF 10
ENDMDL
MODEL      162
REMARK 921   NORMALIZED FREE ENERGY PREDICTED BY IDOCK:   -4.35 KCAL/MOL
REMARK 922        TOTAL FREE ENERGY PREDICTED BY IDOCK:   -9.19 KCAL/MOL
REMARK 923 INTER-LIGAND FREE ENERGY PREDICTED BY IDOCK:   -7.13 KCAL/MOL
REMARK 924 INTRA-LIGAND FREE ENERGY PREDICTED BY IDOCK:   -2.06 KCAL/MOL
REMARK 927      BINDING AFFINITY PREDICTED BY RF-SCORE:    0.00 PKD
ROOT
HETATM    1  C   UNL     1     -11.473  10.667  67.714  1.00  0.00    -0.137 C  
HETATM    2  S   UNL     1     -11.190  10.591  69.499  1.00  0.00    -0.291 SA 
HETATM    3  C   UNL     1     -11.720  12.296  69.772  1.00  0.00    -0.298 C  
HETATM    4  C   UNL     1     -11.135  13.322  68.807  1.00  0.00    -0.303 C  
HETATM    5  CA  UNL     1     -10.584  13.003  67.599  1.00  0.00    -0.224 C  
HETATM    6  CA  UNL     1     -10.648   9.640  66.860  1.00  0.00    -0.171 C  
HETATM    7  O   UNL     1      -9.407  11.302  65.241  1.00  0.00    -0.219 OA 
HETATM    8  N   UNL     1     -10.628  11.707  67.160  1.00  0.00    -0.223 N  
HETATM    9  C   UNL     1      -9.851  14.057  66.788  1.00  0.00    -0.273 C  
HETATM   10  OXT UNL     1      -9.480  15.128  67.246  1.00  0.00    -0.204 OA 
HETATM   11  O   UNL     1      -9.692  13.804  65.474  1.00  0.00    -0.196 OA 
HETATM   12  C   UNL     1     -10.074  10.947  66.186  1.00  0.00    -0.239 C  
ENDROOT
BRANCH   4  13
HETATM   13  C   UNL     1     -11.138  14.710  69.450  1.00  0.00    -0.268 C  
BRANCH  13  14
HETATM   14  S   UNL     1     -12.764  15.471  69.682  1.00  0.00     0.314 SA 
BRANCH  14  15
HETATM   15  C   UNL     1     -13.213  15.044  71.282  1.00  0.00    -0.432 A  
HETATM   16  N   UNL     1     -14.038  14.102  71.670  1.00  0.00    -0.380 NA 
HETATM   17  C   UNL     1     -11.821  16.786  72.492  1.00  0.00     0.017 C  
HETATM   18  N   UNL     1     -14.097  14.195  73.041  1.00  0.00    -0.196 NA 
HETATM   19  N   UNL     1     -12.753  15.700  72.388  1.00  0.00    -0.388 NA 
HETATM   20  N   UNL     1     -13.318  15.171  73.488  1.00  0.00    -0.414 NA 
ENDBRANCH  14  15
ENDBRANCH  13  14
ENDBRANCH   4  13
BRANCH   6  21
HETATM   21  N   UNL     1      -9.693   8.802  67.639  1.00  0.00    -0.162 N  
HETATM   22  H   UNL     1      -8.803   9.215  67.915  1.00  0.00     0.000 HD 
HETATM   23  O   UNL     1     -11.058   6.989  67.857  1.00  0.00    -0.160 OA 
HETATM   24  C   UNL     1      -9.950   7.498  68.008  1.00  0.00    -0.172 C  
BRANCH  24  25
HETATM   25  CA  UNL     1      -8.699   6.691  68.454  1.00  0.00    -0.122 C  
BRANCH  25  26
HETATM   26  C   UNL     1      -9.078   5.590  69.435  1.00  0.00    -0.134 A  
HETATM   27  C   UNL     1      -9.473   3.243  69.959  1.00  0.00    -0.231 A  
HETATM   28  C   UNL     1      -9.356   5.908  70.773  1.00  0.00    -0.180 A  
HETATM   29  O   UNL     1     -10.028   2.575  72.148  1.00  0.00    -0.149 OA 
HETATM   30  C   UNL     1      -9.139   4.239  69.040  1.00  0.00    -0.187 A  
HETATM   31  C   UNL     1      -9.683   4.908  71.695  1.00  0.00    -0.231 A  
HETATM   32  H   UNL     1     -10.061   1.669  71.864  1.00  0.00     0.000 HD 
HETATM   33  C   UNL     1      -9.731   3.583  71.280  1.00  0.00    -0.166 A  
ENDBRANCH  25  26
BRANCH  25  34
HETATM   34  N   UNL     1      -7.992   6.112  67.314  1.00  0.00    -0.102 N  
HETATM   35  H   UNL     1      -8.523   5.576  66.628  1.00  0.00     0.000 HD 
BRANCH  34  36
HETATM   36  C   UNL     1      -6.645   6.262  67.132  1.00  0.00    -0.058 C  
HETATM   37  O   UNL     1      -5.949   5.334  66.728  1.00  0.00    -0.021 OA 
BRANCH  36  38
HETATM   38  N   UNL     1      -6.131   7.521  67.418  1.00  0.00    -0.046 N  
HETATM   39  C   UNL     1      -5.874   8.423  66.301  1.00  0.00    -0.044 C  
HETATM   40  N   UNL     1      -5.677  10.296  67.856  1.00  0.00    -0.041 N  
HETATM   41  C   UNL     1      -6.291   9.846  66.619  1.00  0.00    -0.069 C  
HETATM   42  C   UNL     1      -5.687   9.459  68.969  1.00  0.00    -0.036 C  
HETATM   43  O   UNL     1      -5.545   7.159  69.627  1.00  0.00    -0.021 OA 
HETATM   44  C   UNL     1      -5.794   7.938  68.709  1.00  0.00    -0.035 C  
HETATM   45  O   UNL     1      -5.579   9.858  70.122  1.00  0.00    -0.039 OA 
BRANCH  40  46
HETATM   46  C   UNL     1      -5.265  11.687  68.005  1.00  0.00    -0.045 C  
HETATM   47  C   UNL     1      -6.219  12.692  67.389  1.00  0.00    -0.149 C  
ENDBRANCH  40  46
ENDBRANCH  36  38
ENDBRANCH  34  36
ENDBRANCH  25  34
ENDBRANCH  24  25
ENDBRANCH   6  21
TORSDOF 10
ENDMDL
MODEL      163
REMARK 921   NORMALIZED FREE ENERGY PREDICTED BY IDOCK:   -4.33 KCAL/MOL
REMARK 922        TOTAL FREE ENERGY PREDICTED BY IDOCK:   -9.16 KCAL/MOL
REMARK 923 INTER-LIGAND FREE ENERGY PREDICTED BY IDOCK:   -7.47 KCAL/MOL
REMARK 924 INTRA-LIGAND FREE ENERGY PREDICTED BY IDOCK:   -1.69 KCAL/MOL
REMARK 927      BINDING AFFINITY PREDICTED BY RF-SCORE:    0.00 PKD
ROOT
HETATM    1  C   UNL     1     -11.655   9.681  68.833  1.00  0.00     0.378 C  
HETATM    2  S   UNL     1     -11.083  10.877  70.063  1.00  0.00    -0.140 SA 
HETATM    3  C   UNL     1     -11.291  12.289  68.956  1.00  0.00    -0.280 C  
HETATM    4  C   UNL     1     -10.731  12.102  67.550  1.00  0.00    -0.265 C  
HETATM    5  CA  UNL     1     -10.452  10.884  66.998  1.00  0.00    -0.244 C  
HETATM    6  CA  UNL     1     -11.155   8.208  69.048  1.00  0.00     0.256 C  
HETATM    7  O   UNL     1      -9.972   7.796  66.735  1.00  0.00    -0.230 OA 
HETATM    8  N   UNL     1     -10.769   9.744  67.687  1.00  0.00    -0.277 N  
HETATM    9  C   UNL     1      -9.717  10.793  65.672  1.00  0.00    -0.237 C  
HETATM   10  OXT UNL     1      -9.113  11.728  65.166  1.00  0.00    -0.017 OA 
HETATM   11  O   UNL     1      -9.827   9.630  65.000  1.00  0.00    -0.268 OA 
HETATM   12  C   UNL     1     -10.513   8.416  67.621  1.00  0.00    -0.239 C  
ENDROOT
BRANCH   4  13
HETATM   13  C   UNL     1     -10.412  13.460  66.925  1.00  0.00    -0.273 C  
BRANCH  13  14
HETATM   14  S   UNL     1     -11.625  14.772  67.220  1.00  0.00    -0.339 SA 
BRANCH  14  15
HETATM   15  C   UNL     1     -10.680  16.157  67.582  1.00  0.00    -0.318 A  
HETATM   16  N   UNL     1     -10.254  17.087  66.761  1.00  0.00    -0.292 NA 
HETATM   17  C   UNL     1     -10.424  15.743  70.072  1.00  0.00    -0.306 C  
HETATM   18  N   UNL     1      -9.501  17.947  67.526  1.00  0.00    -0.256 NA 
HETATM   19  N   UNL     1     -10.217  16.440  68.835  1.00  0.00    -0.242 NA 
HETATM   20  N   UNL     1      -9.471  17.558  68.793  1.00  0.00    -0.273 NA 
ENDBRANCH  14  15
ENDBRANCH  13  14
ENDBRANCH   4  13
BRANCH   6  21
HETATM   21  N   UNL     1     -10.220   8.025  70.194  1.00  0.00    -0.199 N  
HETATM   22  H   UNL     1      -9.218   8.075  70.012  1.00  0.00     0.000 HD 
HETATM   23  O   UNL     1     -11.820   7.883  71.813  1.00  0.00    -0.270 OA 
HETATM   24  C   UNL     1     -10.637   7.793  71.488  1.00  0.00    -0.213 C  
BRANCH  24  25
HETATM   25  CA  UNL     1      -9.536   7.245  72.438  1.00  0.00    -0.150 C  
BRANCH  25  26
HETATM   26  C   UNL     1      -9.843   5.818  72.868  1.00  0.00    -0.174 A  
HETATM   27  C   UNL     1     -10.513   4.196  74.559  1.00  0.00    -0.275 A  
HETATM   28  C   UNL     1      -9.771   4.774  71.933  1.00  0.00    -0.219 A  
HETATM   29  O   UNL     1     -10.765   1.920  74.012  1.00  0.00    -0.120 OA 
HETATM   30  C   UNL     1     -10.220   5.510  74.189  1.00  0.00    -0.282 A  
HETATM   31  C   UNL     1     -10.072   3.458  72.303  1.00  0.00    -0.219 A  
HETATM   32  H   UNL     1     -11.021   1.732  74.907  1.00  0.00     0.000 HD 
HETATM   33  C   UNL     1     -10.446   3.183  73.613  1.00  0.00    -0.161 A  
ENDBRANCH  25  26
BRANCH  25  34
HETATM   34  N   UNL     1      -8.212   7.299  71.821  1.00  0.00    -0.103 N  
HETATM   35  H   UNL     1      -7.883   6.491  71.293  1.00  0.00     0.000 HD 
BRANCH  34  36
HETATM   36  C   UNL     1      -7.398   8.393  71.925  1.00  0.00    -0.097 C  
HETATM   37  O   UNL     1      -7.300   9.017  72.979  1.00  0.00    -0.311 OA 
BRANCH  36  38
HETATM   38  N   UNL     1      -6.689   8.733  70.780  1.00  0.00    -0.046 N  
HETATM   39  C   UNL     1      -6.452   7.689  69.788  1.00  0.00    -0.031 C  
HETATM   40  N   UNL     1      -5.820   9.386  68.150  1.00  0.00    -0.038 N  
HETATM   41  C   UNL     1      -6.634   8.205  68.374  1.00  0.00    -0.059 C  
HETATM   42  C   UNL     1      -5.805  10.399  69.106  1.00  0.00    -0.037 C  
HETATM   43  O   UNL     1      -5.893  10.793  71.468  1.00  0.00    -0.334 OA 
HETATM   44  C   UNL     1      -6.146  10.002  70.562  1.00  0.00    -0.100 C  
HETATM   45  O   UNL     1      -5.506  11.562  68.862  1.00  0.00    -0.043 OA 
BRANCH  40  46
HETATM   46  C   UNL     1      -5.210   9.620  66.846  1.00  0.00    -0.041 C  
HETATM   47  C   UNL     1      -6.202   9.895  65.732  1.00  0.00    -0.082 C  
ENDBRANCH  40  46
ENDBRANCH  36  38
ENDBRANCH  34  36
ENDBRANCH  25  34
ENDBRANCH  24  25
ENDBRANCH   6  21
TORSDOF 10
ENDMDL
MODEL      164
REMARK 921   NORMALIZED FREE ENERGY PREDICTED BY IDOCK:   -4.32 KCAL/MOL
REMARK 922        TOTAL FREE ENERGY PREDICTED BY IDOCK:   -9.13 KCAL/MOL
REMARK 923 INTER-LIGAND FREE ENERGY PREDICTED BY IDOCK:   -8.06 KCAL/MOL
REMARK 924 INTRA-LIGAND FREE ENERGY PREDICTED BY IDOCK:   -1.08 KCAL/MOL
REMARK 927      BINDING AFFINITY PREDICTED BY RF-SCORE:    0.00 PKD
ROOT
HETATM    1  C   UNL     1     -10.928  10.429  68.286  1.00  0.00    -0.270 C  
HETATM    2  S   UNL     1      -9.132  10.395  68.074  1.00  0.00    -0.138 SA 
HETATM    3  C   UNL     1      -9.044   8.592  68.125  1.00  0.00    -0.138 C  
HETATM    4  C   UNL     1      -9.833   7.933  69.252  1.00  0.00    -0.177 C  
HETATM    5  CA  UNL     1     -10.841   8.550  69.937  1.00  0.00    -0.205 C  
HETATM    6  CA  UNL     1     -11.508  11.760  68.884  1.00  0.00    -0.297 C  
HETATM    7  O   UNL     1     -12.759  10.797  70.988  1.00  0.00    -0.360 OA 
HETATM    8  N   UNL     1     -11.251   9.798  69.551  1.00  0.00    -0.187 N  
HETATM    9  C   UNL     1     -11.442   7.897  71.170  1.00  0.00    -0.273 C  
HETATM   10  OXT UNL     1     -10.920   6.966  71.766  1.00  0.00    -0.224 OA 
HETATM   11  O   UNL     1     -12.659   8.333  71.550  1.00  0.00    -0.304 OA 
HETATM   12  C   UNL     1     -12.024  10.802  70.027  1.00  0.00    -0.347 C  
ENDROOT
BRANCH   4  13
HETATM   13  C   UNL     1      -9.241   6.561  69.576  1.00  0.00    -0.142 C  
BRANCH  13  14
HETATM   14  S   UNL     1     -10.001   5.151  68.732  1.00  0.00    -0.151 SA 
BRANCH  14  15
HETATM   15  C   UNL     1      -9.362   5.208  67.141  1.00  0.00    -0.124 A  
HETATM   16  N   UNL     1      -9.924   5.686  66.056  1.00  0.00    -0.050 NA 
HETATM   17  C   UNL     1      -7.136   4.095  67.637  1.00  0.00    -0.063 C  
HETATM   18  N   UNL     1      -9.031   5.453  65.037  1.00  0.00    -0.090 NA 
HETATM   19  N   UNL     1      -8.137   4.704  66.808  1.00  0.00    -0.103 NA 
HETATM   20  N   UNL     1      -7.938   4.851  65.486  1.00  0.00    -0.098 NA 
ENDBRANCH  14  15
ENDBRANCH  13  14
ENDBRANCH   4  13
BRANCH   6  21
HETATM   21  N   UNL     1     -10.483  12.775  69.259  1.00  0.00    -0.419 N  
HETATM   22  H   UNL     1      -9.800  12.529  69.976  1.00  0.00     0.000 HD 
HETATM   23  O   UNL     1     -11.088  14.337  67.713  1.00  0.00    -0.265 OA 
HETATM   24  C   UNL     1     -10.409  14.030  68.690  1.00  0.00    -0.238 C  
BRANCH  24  25
HETATM   25  CA  UNL     1      -9.548  15.052  69.481  1.00  0.00    -0.085 C  
BRANCH  25  26
HETATM   26  C   UNL     1      -8.353  15.516  68.660  1.00  0.00    -0.172 A  
HETATM   27  C   UNL     1      -7.070  15.545  66.588  1.00  0.00     0.580 A  
HETATM   28  C   UNL     1      -7.419  16.400  69.220  1.00  0.00    -0.202 A  
HETATM   29  O   UNL     1      -5.128  16.862  66.392  1.00  0.00    -0.347 OA 
HETATM   30  C   UNL     1      -8.164  15.095  67.329  1.00  0.00    -0.234 A  
HETATM   31  C   UNL     1      -6.327  16.857  68.474  1.00  0.00    -0.152 A  
HETATM   32  H   UNL     1      -5.019  16.569  65.495  1.00  0.00     0.000 HD 
HETATM   33  C   UNL     1      -6.167  16.429  67.161  1.00  0.00    -0.168 A  
ENDBRANCH  25  26
BRANCH  25  34
HETATM   34  N   UNL     1     -10.333  16.210  69.904  1.00  0.00    -0.248 N  
HETATM   35  H   UNL     1     -10.363  16.448  70.896  1.00  0.00     0.000 HD 
BRANCH  34  36
HETATM   36  C   UNL     1     -11.030  16.988  69.021  1.00  0.00    -0.103 C  
HETATM   37  O   UNL     1     -12.225  16.799  68.810  1.00  0.00     0.545 OA 
BRANCH  36  38
HETATM   38  N   UNL     1     -10.306  17.998  68.400  1.00  0.00    -0.380 N  
HETATM   39  C   UNL     1      -9.953  19.172  69.192  1.00  0.00    -0.274 C  
HETATM   40  N   UNL     1      -8.335  19.838  67.488  1.00  0.00    -0.304 N  
HETATM   41  C   UNL     1      -8.536  19.634  68.912  1.00  0.00    -0.187 C  
HETATM   42  C   UNL     1      -8.787  18.875  66.589  1.00  0.00    -0.316 C  
HETATM   43  O   UNL     1     -10.550  17.299  66.208  1.00  0.00    -0.286 OA 
HETATM   44  C   UNL     1      -9.955  17.971  67.048  1.00  0.00    -0.329 C  
HETATM   45  O   UNL     1      -8.336  18.736  65.458  1.00  0.00    -0.198 OA 
BRANCH  40  46
HETATM   46  C   UNL     1      -7.471  20.914  67.017  1.00  0.00    -0.228 C  
HETATM   47  C   UNL     1      -6.030  20.807  67.478  1.00  0.00    -0.305 C  
ENDBRANCH  40  46
ENDBRANCH  36  38
ENDBRANCH  34  36
ENDBRANCH  25  34
ENDBRANCH  24  25
ENDBRANCH   6  21
TORSDOF 10
ENDMDL
MODEL      165
REMARK 921   NORMALIZED FREE ENERGY PREDICTED BY IDOCK:   -4.26 KCAL/MOL
REMARK 922        TOTAL FREE ENERGY PREDICTED BY IDOCK:   -9.04 KCAL/MOL
REMARK 923 INTER-LIGAND FREE ENERGY PREDICTED BY IDOCK:   -8.05 KCAL/MOL
REMARK 924 INTRA-LIGAND FREE ENERGY PREDICTED BY IDOCK:   -0.99 KCAL/MOL
REMARK 927      BINDING AFFINITY PREDICTED BY RF-SCORE:    0.00 PKD
ROOT
HETATM    1  C   UNL     1      -8.965  11.990  67.474  1.00  0.00    -0.174 C  
HETATM    2  S   UNL     1     -10.494  11.511  68.314  1.00  0.00    -0.206 SA 
HETATM    3  C   UNL     1     -11.314  13.082  67.966  1.00  0.00    -0.290 C  
HETATM    4  C   UNL     1     -10.480  14.328  68.248  1.00  0.00    -0.247 C  
HETATM    5  CA  UNL     1      -9.119  14.322  68.368  1.00  0.00    -0.194 C  
HETATM    6  CA  UNL     1      -7.676  11.225  67.941  1.00  0.00    -0.110 C  
HETATM    7  O   UNL     1      -6.180  13.267  68.658  1.00  0.00    -0.074 OA 
HETATM    8  N   UNL     1      -8.428  13.164  68.135  1.00  0.00    -0.167 N  
HETATM    9  C   UNL     1      -8.386  15.565  68.841  1.00  0.00    -0.205 C  
HETATM   10  OXT UNL     1      -8.938  16.514  69.380  1.00  0.00    -0.147 OA 
HETATM   11  O   UNL     1      -7.070  15.633  68.559  1.00  0.00    -0.111 OA 
HETATM   12  C   UNL     1      -7.178  12.675  68.317  1.00  0.00    -0.113 C  
ENDROOT
BRANCH   4  13
HETATM   13  C   UNL     1     -11.395  15.526  68.504  1.00  0.00    -0.351 C  
BRANCH  13  14
HETATM   14  S   UNL     1     -12.895  15.187  69.459  1.00  0.00     0.440 SA 
BRANCH  14  15
HETATM   15  C   UNL     1     -12.416  15.377  71.094  1.00  0.00    -0.402 A  
HETATM   16  N   UNL     1     -11.699  16.338  71.624  1.00  0.00    -0.475 NA 
HETATM   17  C   UNL     1     -13.502  13.271  72.004  1.00  0.00    -0.507 C  
HETATM   18  N   UNL     1     -11.552  16.009  72.951  1.00  0.00    -0.291 NA 
HETATM   19  N   UNL     1     -12.725  14.476  72.074  1.00  0.00    -0.328 NA 
HETATM   20  N   UNL     1     -12.173  14.871  73.234  1.00  0.00    -0.344 NA 
ENDBRANCH  14  15
ENDBRANCH  13  14
ENDBRANCH   4  13
BRANCH   6  21
HETATM   21  N   UNL     1      -7.889  10.267  69.063  1.00  0.00    -0.104 N  
HETATM   22  H   UNL     1      -8.840   9.954  69.256  1.00  0.00     0.000 HD 
HETATM   23  O   UNL     1      -5.687   9.983  69.582  1.00  0.00    -0.037 OA 
HETATM   24  C   UNL     1      -6.868   9.782  69.854  1.00  0.00    -0.085 C  
BRANCH  24  25
HETATM   25  CA  UNL     1      -7.333   9.128  71.185  1.00  0.00    -0.067 C  
BRANCH  25  26
HETATM   26  C   UNL     1      -8.769   8.635  71.082  1.00  0.00    -0.244 A  
HETATM   27  C   UNL     1     -10.664   7.840  69.772  1.00  0.00    -0.236 A  
HETATM   28  C   UNL     1      -9.541   8.480  72.244  1.00  0.00    -0.377 A  
HETATM   29  O   UNL     1     -12.672   7.202  70.823  1.00  0.00    -0.593 OA 
HETATM   30  C   UNL     1      -9.350   8.306  69.842  1.00  0.00    -0.159 A  
HETATM   31  C   UNL     1     -10.855   8.005  72.173  1.00  0.00    -0.342 A  
HETATM   32  H   UNL     1     -13.046   6.982  69.978  1.00  0.00     0.000 HD 
HETATM   33  C   UNL     1     -11.402   7.684  70.937  1.00  0.00    -0.276 A  
ENDBRANCH  25  26
BRANCH  25  34
HETATM   34  N   UNL     1      -6.461   8.024  71.581  1.00  0.00    -0.040 N  
HETATM   35  H   UNL     1      -5.978   8.077  72.478  1.00  0.00     0.000 HD 
BRANCH  34  36
HETATM   36  C   UNL     1      -6.267   6.923  70.794  1.00  0.00    -0.036 C  
HETATM   37  O   UNL     1      -5.359   6.881  69.967  1.00  0.00    -0.018 OA 
BRANCH  36  38
HETATM   38  N   UNL     1      -7.145   5.866  71.002  1.00  0.00    -0.067 N  
HETATM   39  C   UNL     1      -7.294   5.359  72.362  1.00  0.00    -0.094 C  
HETATM   40  N   UNL     1      -9.316   4.162  71.696  1.00  0.00    -0.132 N  
HETATM   41  C   UNL     1      -8.741   5.049  72.692  1.00  0.00    -0.119 C  
HETATM   42  C   UNL     1      -9.104   4.421  70.345  1.00  0.00    -0.106 C  
HETATM   43  O   UNL     1      -7.481   5.259  68.795  1.00  0.00    -0.072 OA 
HETATM   44  C   UNL     1      -7.842   5.233  69.969  1.00  0.00    -0.080 C  
HETATM   45  O   UNL     1      -9.836   4.014  69.451  1.00  0.00    -0.185 OA 
BRANCH  40  46
HETATM   46  C   UNL     1     -10.290   3.151  72.091  1.00  0.00     0.008 C  
HETATM   47  C   UNL     1     -11.085   3.501  73.335  1.00  0.00    -0.291 C  
ENDBRANCH  40  46
ENDBRANCH  36  38
ENDBRANCH  34  36
ENDBRANCH  25  34
ENDBRANCH  24  25
ENDBRANCH   6  21
TORSDOF 10
ENDMDL
MODEL      166
REMARK 921   NORMALIZED FREE ENERGY PREDICTED BY IDOCK:   -4.25 KCAL/MOL
REMARK 922        TOTAL FREE ENERGY PREDICTED BY IDOCK:   -9.03 KCAL/MOL
REMARK 923 INTER-LIGAND FREE ENERGY PREDICTED BY IDOCK:   -9.33 KCAL/MOL
REMARK 924 INTRA-LIGAND FREE ENERGY PREDICTED BY IDOCK:    0.30 KCAL/MOL
REMARK 927      BINDING AFFINITY PREDICTED BY RF-SCORE:    0.00 PKD
ROOT
HETATM    1  C   UNL     1      -8.126   9.338  68.458  1.00  0.00    -0.106 C  
HETATM    2  S   UNL     1      -9.357  10.054  69.573  1.00  0.00    -0.219 SA 
HETATM    3  C   UNL     1      -9.842   8.453  70.253  1.00  0.00    -0.181 C  
HETATM    4  C   UNL     1     -10.086   7.355  69.223  1.00  0.00    -0.186 C  
HETATM    5  CA  UNL     1      -9.618   7.397  67.941  1.00  0.00    -0.141 C  
HETATM    6  CA  UNL     1      -7.774  10.209  67.201  1.00  0.00    -0.092 C  
HETATM    7  O   UNL     1      -8.339   8.488  65.293  1.00  0.00    -0.143 OA 
HETATM    8  N   UNL     1      -8.802   8.426  67.556  1.00  0.00    -0.135 N  
HETATM    9  C   UNL     1     -10.068   6.361  66.925  1.00  0.00    -0.187 C  
HETATM   10  OXT UNL     1     -11.031   5.626  67.088  1.00  0.00    -0.218 OA 
HETATM   11  O   UNL     1      -9.291   6.209  65.834  1.00  0.00    -0.116 OA 
HETATM   12  C   UNL     1      -8.297   8.946  66.412  1.00  0.00    -0.116 C  
ENDROOT
BRANCH   4  13
HETATM   13  C   UNL     1     -11.028   6.295  69.796  1.00  0.00    -0.378 C  
BRANCH  13  14
HETATM   14  S   UNL     1     -10.233   4.875  70.589  1.00  0.00    -0.169 SA 
BRANCH  14  15
HETATM   15  C   UNL     1     -10.265   5.243  72.264  1.00  0.00    -0.199 A  
HETATM   16  N   UNL     1     -11.238   5.046  73.120  1.00  0.00    -0.320 NA 
HETATM   17  C   UNL     1      -7.940   6.246  72.426  1.00  0.00    -0.104 C  
HETATM   18  N   UNL     1     -10.792   5.554  74.318  1.00  0.00    -0.163 NA 
HETATM   19  N   UNL     1      -9.228   5.846  72.917  1.00  0.00    -0.138 NA 
HETATM   20  N   UNL     1      -9.567   6.048  74.202  1.00  0.00    -0.161 NA 
ENDBRANCH  14  15
ENDBRANCH  13  14
ENDBRANCH   4  13
BRANCH   6  21
HETATM   21  N   UNL     1      -8.562  11.467  67.070  1.00  0.00    -0.155 N  
HETATM   22  H   UNL     1      -9.424  11.442  66.526  1.00  0.00     0.000 HD 
HETATM   23  O   UNL     1      -7.257  12.735  68.445  1.00  0.00    -0.100 OA 
HETATM   24  C   UNL     1      -8.188  12.664  67.645  1.00  0.00    -0.174 C  
BRANCH  24  25
HETATM   25  CA  UNL     1      -8.912  13.914  67.073  1.00  0.00    -0.240 C  
BRANCH  25  26
HETATM   26  C   UNL     1     -10.076  14.330  67.961  1.00  0.00    -0.227 A  
HETATM   27  C   UNL     1     -11.796  15.927  68.616  1.00  0.00    -0.243 A  
HETATM   28  C   UNL     1     -10.545  13.457  68.954  1.00  0.00    -0.181 A  
HETATM   29  O   UNL     1     -13.319  15.418  70.338  1.00  0.00    -0.696 OA 
HETATM   30  C   UNL     1     -10.719  15.572  67.802  1.00  0.00    -0.297 A  
HETATM   31  C   UNL     1     -11.629  13.810  69.765  1.00  0.00    -0.324 A  
HETATM   32  H   UNL     1     -13.742  16.259  70.214  1.00  0.00     0.000 HD 
HETATM   33  C   UNL     1     -12.249  15.041  69.583  1.00  0.00    -0.258 A  
ENDBRANCH  25  26
BRANCH  25  34
HETATM   34  N   UNL     1      -7.996  15.041  66.903  1.00  0.00    -0.322 N  
HETATM   35  H   UNL     1      -7.626  15.237  65.973  1.00  0.00     0.000 HD 
BRANCH  34  36
HETATM   36  C   UNL     1      -7.617  15.842  67.944  1.00  0.00    -0.131 C  
HETATM   37  O   UNL     1      -7.711  15.462  69.109  1.00  0.00    -0.171 OA 
BRANCH  36  38
HETATM   38  N   UNL     1      -7.113  17.089  67.597  1.00  0.00    -0.142 N  
HETATM   39  C   UNL     1      -6.940  17.386  66.179  1.00  0.00    -0.263 C  
HETATM   40  N   UNL     1      -6.692  19.758  66.704  1.00  0.00    -0.192 N  
HETATM   41  C   UNL     1      -7.367  18.802  65.845  1.00  0.00    -0.226 C  
HETATM   42  C   UNL     1      -6.619  19.516  68.074  1.00  0.00    -0.237 C  
HETATM   43  O   UNL     1      -6.392  17.762  69.691  1.00  0.00    -0.241 OA 
HETATM   44  C   UNL     1      -6.711  18.043  68.537  1.00  0.00    -0.225 C  
HETATM   45  O   UNL     1      -6.453  20.393  68.913  1.00  0.00    -0.308 OA 
BRANCH  40  46
HETATM   46  C   UNL     1      -6.300  21.063  66.183  1.00  0.00    -0.233 C  
HETATM   47  C   UNL     1      -5.704  21.026  64.789  1.00  0.00    -0.271 C  
ENDBRANCH  40  46
ENDBRANCH  36  38
ENDBRANCH  34  36
ENDBRANCH  25  34
ENDBRANCH  24  25
ENDBRANCH   6  21
TORSDOF 10
ENDMDL
MODEL      167
REMARK 921   NORMALIZED FREE ENERGY PREDICTED BY IDOCK:   -4.22 KCAL/MOL
REMARK 922        TOTAL FREE ENERGY PREDICTED BY IDOCK:   -8.99 KCAL/MOL
REMARK 923 INTER-LIGAND FREE ENERGY PREDICTED BY IDOCK:   -7.01 KCAL/MOL
REMARK 924 INTRA-LIGAND FREE ENERGY PREDICTED BY IDOCK:   -1.98 KCAL/MOL
REMARK 927      BINDING AFFINITY PREDICTED BY RF-SCORE:    0.00 PKD
ROOT
HETATM    1  C   UNL     1      -7.975  10.623  68.856  1.00  0.00    -0.132 C  
HETATM    2  S   UNL     1      -7.314   9.941  67.317  1.00  0.00    -0.087 SA 
HETATM    3  C   UNL     1      -7.939  11.303  66.309  1.00  0.00    -0.086 C  
HETATM    4  C   UNL     1      -9.388  11.697  66.573  1.00  0.00    -0.216 C  
HETATM    5  CA  UNL     1     -10.071  11.369  67.710  1.00  0.00    -0.181 C  
HETATM    6  CA  UNL     1      -8.226   9.578  70.000  1.00  0.00    -0.170 C  
HETATM    7  O   UNL     1     -10.785  10.003  70.441  1.00  0.00    -0.287 OA 
HETATM    8  N   UNL     1      -9.416  10.729  68.727  1.00  0.00    -0.177 N  
HETATM    9  C   UNL     1     -11.564  11.629  67.810  1.00  0.00    -0.289 C  
HETATM   10  OXT UNL     1     -12.275  11.879  66.846  1.00  0.00    -0.493 OA 
HETATM   11  O   UNL     1     -12.088  11.665  69.051  1.00  0.00    -0.313 OA 
HETATM   12  C   UNL     1      -9.718  10.079  69.876  1.00  0.00    -0.203 C  
ENDROOT
BRANCH   4  13
HETATM   13  C   UNL     1      -9.981  12.380  65.340  1.00  0.00    -0.236 C  
BRANCH  13  14
HETATM   14  S   UNL     1     -10.164  14.178  65.441  1.00  0.00    -0.350 SA 
BRANCH  14  15
HETATM   15  C   UNL     1      -9.420  14.602  66.927  1.00  0.00    -0.246 A  
HETATM   16  N   UNL     1      -8.143  14.601  67.226  1.00  0.00    -0.202 NA 
HETATM   17  C   UNL     1     -11.537  15.156  68.212  1.00  0.00    -0.339 C  
HETATM   18  N   UNL     1      -8.066  14.971  68.548  1.00  0.00    -0.140 NA 
HETATM   19  N   UNL     1     -10.124  14.982  68.035  1.00  0.00    -0.222 NA 
HETATM   20  N   UNL     1      -9.272  15.203  69.051  1.00  0.00    -0.211 NA 
ENDBRANCH  14  15
ENDBRANCH  13  14
ENDBRANCH   4  13
BRANCH   6  21
HETATM   21  N   UNL     1      -7.952   8.161  69.624  1.00  0.00    -0.113 N  
HETATM   22  H   UNL     1      -8.445   7.772  68.821  1.00  0.00     0.000 HD 
HETATM   23  O   UNL     1      -6.320   7.794  71.173  1.00  0.00    -0.035 OA 
HETATM   24  C   UNL     1      -7.068   7.350  70.304  1.00  0.00    -0.064 C  
BRANCH  24  25
HETATM   25  CA  UNL     1      -7.221   5.832  70.010  1.00  0.00    -0.069 C  
BRANCH  25  26
HETATM   26  C   UNL     1      -8.272   5.202  70.913  1.00  0.00    -0.110 A  
HETATM   27  C   UNL     1     -10.596   4.751  71.491  1.00  0.00    -0.065 A  
HETATM   28  C   UNL     1      -7.875   4.433  72.018  1.00  0.00    -0.090 A  
HETATM   29  O   UNL     1     -11.137   3.397  73.340  1.00  0.00    -0.209 OA 
HETATM   30  C   UNL     1      -9.649   5.351  70.659  1.00  0.00    -0.228 A  
HETATM   31  C   UNL     1      -8.825   3.825  72.847  1.00  0.00    -0.102 A  
HETATM   32  H   UNL     1     -12.061   3.506  73.151  1.00  0.00     0.000 HD 
HETATM   33  C   UNL     1     -10.178   3.985  72.570  1.00  0.00    -0.166 A  
ENDBRANCH  25  26
BRANCH  25  34
HETATM   34  N   UNL     1      -7.561   5.582  68.611  1.00  0.00    -0.080 N  
HETATM   35  H   UNL     1      -8.057   6.305  68.089  1.00  0.00     0.000 HD 
BRANCH  34  36
HETATM   36  C   UNL     1      -7.239   4.415  67.974  1.00  0.00    -0.064 C  
HETATM   37  O   UNL     1      -6.506   3.582  68.502  1.00  0.00    -0.035 OA 
BRANCH  36  38
HETATM   38  N   UNL     1      -7.802   4.235  66.717  1.00  0.00    -0.097 N  
HETATM   39  C   UNL     1      -8.824   3.205  66.568  1.00  0.00    -0.144 C  
HETATM   40  N   UNL     1      -9.470   4.155  64.413  1.00  0.00    -0.159 N  
HETATM   41  C   UNL     1      -9.968   3.670  65.687  1.00  0.00     0.025 C  
HETATM   42  C   UNL     1      -8.373   5.013  64.388  1.00  0.00    -0.136 C  
HETATM   43  O   UNL     1      -6.296   5.486  65.484  1.00  0.00    -0.036 OA 
HETATM   44  C   UNL     1      -7.397   4.948  65.585  1.00  0.00    -0.077 C  
HETATM   45  O   UNL     1      -8.129   5.779  63.463  1.00  0.00    -0.116 OA 
BRANCH  40  46
HETATM   46  C   UNL     1     -10.242   3.938  63.194  1.00  0.00    -0.171 C  
HETATM   47  C   UNL     1      -9.907   2.653  62.462  1.00  0.00    -0.091 C  
ENDBRANCH  40  46
ENDBRANCH  36  38
ENDBRANCH  34  36
ENDBRANCH  25  34
ENDBRANCH  24  25
ENDBRANCH   6  21
TORSDOF 10
ENDMDL
MODEL      168
REMARK 921   NORMALIZED FREE ENERGY PREDICTED BY IDOCK:   -4.20 KCAL/MOL
REMARK 922        TOTAL FREE ENERGY PREDICTED BY IDOCK:   -8.95 KCAL/MOL
REMARK 923 INTER-LIGAND FREE ENERGY PREDICTED BY IDOCK:   -7.03 KCAL/MOL
REMARK 924 INTRA-LIGAND FREE ENERGY PREDICTED BY IDOCK:   -1.92 KCAL/MOL
REMARK 927      BINDING AFFINITY PREDICTED BY RF-SCORE:    0.00 PKD
ROOT
HETATM    1  C   UNL     1      -8.289   9.194  70.767  1.00  0.00    -0.208 C  
HETATM    2  S   UNL     1      -7.646   8.684  69.155  1.00  0.00    -0.090 SA 
HETATM    3  C   UNL     1      -8.205  10.189  68.327  1.00  0.00    -0.110 C  
HETATM    4  C   UNL     1      -9.638  10.609  68.636  1.00  0.00    -0.179 C  
HETATM    5  CA  UNL     1     -10.343  10.169  69.721  1.00  0.00    -0.259 C  
HETATM    6  CA  UNL     1      -8.593   8.024  71.769  1.00  0.00    -0.133 C  
HETATM    7  O   UNL     1     -11.134   8.501  72.256  1.00  0.00    -0.342 OA 
HETATM    8  N   UNL     1      -9.723   9.378  70.650  1.00  0.00    -0.267 N  
HETATM    9  C   UNL     1     -11.824  10.480  69.851  1.00  0.00    -0.282 C  
HETATM   10  OXT UNL     1     -12.516  10.880  68.926  1.00  0.00    -0.431 OA 
HETATM   11  O   UNL     1     -12.355  10.381  71.085  1.00  0.00    -0.331 OA 
HETATM   12  C   UNL     1     -10.061   8.601  71.707  1.00  0.00    -0.310 C  
ENDROOT
BRANCH   4  13
HETATM   13  C   UNL     1     -10.192  11.467  67.499  1.00  0.00    -0.184 C  
BRANCH  13  14
HETATM   14  S   UNL     1     -11.006  10.569  66.153  1.00  0.00     0.255 SA 
BRANCH  14  15
HETATM   15  C   UNL     1     -10.137  11.024  64.746  1.00  0.00    -0.308 A  
HETATM   16  N   UNL     1     -10.374  12.025  63.933  1.00  0.00    -0.366 NA 
HETATM   17  C   UNL     1      -8.397   9.178  64.821  1.00  0.00    -0.169 C  
HETATM   18  N   UNL     1      -9.429  11.931  62.938  1.00  0.00    -0.260 NA 
HETATM   19  N   UNL     1      -9.056  10.332  64.278  1.00  0.00    -0.221 NA 
HETATM   20  N   UNL     1      -8.622  10.899  63.139  1.00  0.00    -0.132 NA 
ENDBRANCH  14  15
ENDBRANCH  13  14
ENDBRANCH   4  13
BRANCH   6  21
HETATM   21  N   UNL     1      -8.377   6.656  71.217  1.00  0.00    -0.123 N  
HETATM   22  H   UNL     1      -8.684   6.467  70.262  1.00  0.00     0.000 HD 
HETATM   23  O   UNL     1      -7.247   5.826  73.014  1.00  0.00    -0.087 OA 
HETATM   24  C   UNL     1      -7.786   5.632  71.927  1.00  0.00    -0.106 C  
BRANCH  24  25
HETATM   25  CA  UNL     1      -8.013   4.214  71.334  1.00  0.00    -0.077 C  
BRANCH  25  26
HETATM   26  C   UNL     1      -9.185   3.517  72.010  1.00  0.00    -0.171 A  
HETATM   27  C   UNL     1     -10.462   1.507  72.528  1.00  0.00    -0.228 A  
HETATM   28  C   UNL     1     -10.082   4.257  72.795  1.00  0.00    -0.214 A  
HETATM   29  O   UNL     1     -12.345   1.606  73.937  1.00  0.00    -0.071 OA 
HETATM   30  C   UNL     1      -9.390   2.129  71.886  1.00  0.00    -0.170 A  
HETATM   31  C   UNL     1     -11.152   3.632  73.444  1.00  0.00    -0.297 A  
HETATM   32  H   UNL     1     -12.465   0.669  73.845  1.00  0.00     0.000 HD 
HETATM   33  C   UNL     1     -11.327   2.259  73.308  1.00  0.00    -0.113 A  
ENDBRANCH  25  26
BRANCH  25  34
HETATM   34  N   UNL     1      -8.234   4.259  69.890  1.00  0.00    -0.062 N  
HETATM   35  H   UNL     1      -8.970   4.863  69.524  1.00  0.00     0.000 HD 
BRANCH  34  36
HETATM   36  C   UNL     1      -7.491   3.522  69.010  1.00  0.00    -0.052 C  
HETATM   37  O   UNL     1      -6.812   2.572  69.389  1.00  0.00    -0.033 OA 
BRANCH  36  38
HETATM   38  N   UNL     1      -7.570   3.908  67.677  1.00  0.00    -0.067 N  
HETATM   39  C   UNL     1      -6.363   4.432  67.045  1.00  0.00    -0.040 C  
HETATM   40  N   UNL     1      -7.392   4.155  64.848  1.00  0.00    -0.071 N  
HETATM   41  C   UNL     1      -6.196   3.907  65.632  1.00  0.00    -0.031 C  
HETATM   42  C   UNL     1      -8.641   3.869  65.395  1.00  0.00    -0.114 C  
HETATM   43  O   UNL     1      -9.872   3.890  67.450  1.00  0.00    -0.168 OA 
HETATM   44  C   UNL     1      -8.755   3.875  66.938  1.00  0.00    -0.111 C  
HETATM   45  O   UNL     1      -9.644   3.653  64.726  1.00  0.00    -0.155 OA 
BRANCH  40  46
HETATM   46  C   UNL     1      -7.285   4.476  63.429  1.00  0.00    -0.049 C  
HETATM   47  C   UNL     1      -7.803   5.851  63.057  1.00  0.00    -0.098 C  
ENDBRANCH  40  46
ENDBRANCH  36  38
ENDBRANCH  34  36
ENDBRANCH  25  34
ENDBRANCH  24  25
ENDBRANCH   6  21
TORSDOF 10
ENDMDL
MODEL      169
REMARK 921   NORMALIZED FREE ENERGY PREDICTED BY IDOCK:   -4.17 KCAL/MOL
REMARK 922        TOTAL FREE ENERGY PREDICTED BY IDOCK:   -8.90 KCAL/MOL
REMARK 923 INTER-LIGAND FREE ENERGY PREDICTED BY IDOCK:   -7.86 KCAL/MOL
REMARK 924 INTRA-LIGAND FREE ENERGY PREDICTED BY IDOCK:   -1.04 KCAL/MOL
REMARK 927      BINDING AFFINITY PREDICTED BY RF-SCORE:    0.00 PKD
ROOT
HETATM    1  C   UNL     1      -9.984   8.898  67.598  1.00  0.00    -0.196 C  
HETATM    2  S   UNL     1     -11.094   9.733  68.756  1.00  0.00    -0.028 SA 
HETATM    3  C   UNL     1     -11.129  11.264  67.799  1.00  0.00    -0.271 C  
HETATM    4  C   UNL     1      -9.769  11.769  67.327  1.00  0.00    -0.188 C  
HETATM    5  CA  UNL     1      -8.651  10.987  67.256  1.00  0.00    -0.130 C  
HETATM    6  CA  UNL     1      -9.148   7.715  68.204  1.00  0.00    -0.132 C  
HETATM    7  O   UNL     1      -6.718   8.546  67.635  1.00  0.00    -0.064 OA 
HETATM    8  N   UNL     1      -8.745   9.649  67.528  1.00  0.00    -0.126 N  
HETATM    9  C   UNL     1      -7.297  11.611  66.964  1.00  0.00    -0.143 C  
HETATM   10  OXT UNL     1      -7.073  12.811  67.041  1.00  0.00    -0.054 OA 
HETATM   11  O   UNL     1      -6.334  10.781  66.515  1.00  0.00    -0.093 OA 
HETATM   12  C   UNL     1      -7.920   8.601  67.759  1.00  0.00    -0.107 C  
ENDROOT
BRANCH   4  13
HETATM   13  C   UNL     1      -9.822  13.277  67.086  1.00  0.00    -0.237 C  
BRANCH  13  14
HETATM   14  S   UNL     1     -11.475  14.015  67.050  1.00  0.00    -0.370 SA 
BRANCH  14  15
HETATM   15  C   UNL     1     -12.087  13.622  65.496  1.00  0.00    -0.411 A  
HETATM   16  N   UNL     1     -12.635  12.500  65.099  1.00  0.00    -0.650 NA 
HETATM   17  C   UNL     1     -11.551  15.829  64.362  1.00  0.00    -0.240 C  
HETATM   18  N   UNL     1     -12.911  12.669  63.762  1.00  0.00    -0.737 NA 
HETATM   19  N   UNL     1     -12.037  14.481  64.434  1.00  0.00    -0.486 NA 
HETATM   20  N   UNL     1     -12.546  13.875  63.347  1.00  0.00    -0.769 NA 
ENDBRANCH  14  15
ENDBRANCH  13  14
ENDBRANCH   4  13
BRANCH   6  21
HETATM   21  N   UNL     1      -9.337   7.501  69.667  1.00  0.00    -0.154 N  
HETATM   22  H   UNL     1      -9.429   8.321  70.266  1.00  0.00     0.000 HD 
HETATM   23  O   UNL     1      -9.457   5.226  69.583  1.00  0.00    -0.125 OA 
HETATM   24  C   UNL     1      -9.395   6.254  70.254  1.00  0.00    -0.161 C  
BRANCH  24  25
HETATM   25  CA  UNL     1      -9.197   6.251  71.795  1.00  0.00    -0.144 C  
BRANCH  25  26
HETATM   26  C   UNL     1      -9.750   4.976  72.417  1.00  0.00    -0.190 A  
HETATM   27  C   UNL     1     -10.828   3.791  74.253  1.00  0.00    -0.154 A  
HETATM   28  C   UNL     1      -9.723   3.775  71.692  1.00  0.00    -0.239 A  
HETATM   29  O   UNL     1     -11.339   1.499  74.073  1.00  0.00    -0.154 OA 
HETATM   30  C   UNL     1     -10.312   4.968  73.708  1.00  0.00    -0.274 A  
HETATM   31  C   UNL     1     -10.247   2.597  72.236  1.00  0.00    -0.195 A  
HETATM   32  H   UNL     1     -11.717   1.514  74.944  1.00  0.00     0.000 HD 
HETATM   33  C   UNL     1     -10.801   2.619  73.511  1.00  0.00    -0.194 A  
ENDBRANCH  25  26
BRANCH  25  34
HETATM   34  N   UNL     1      -7.792   6.408  72.162  1.00  0.00    -0.099 N  
HETATM   35  H   UNL     1      -7.413   7.350  72.264  1.00  0.00     0.000 HD 
BRANCH  34  36
HETATM   36  C   UNL     1      -6.964   5.341  72.375  1.00  0.00    -0.080 C  
HETATM   37  O   UNL     1      -6.754   4.912  73.507  1.00  0.00    -0.064 OA 
BRANCH  36  38
HETATM   38  N   UNL     1      -6.400   4.775  71.238  1.00  0.00    -0.018 N  
HETATM   39  C   UNL     1      -6.238   3.325  71.205  1.00  0.00    -0.018 C  
HETATM   40  N   UNL     1      -5.852   3.422  68.795  1.00  0.00    -0.022 N  
HETATM   41  C   UNL     1      -6.594   2.750  69.847  1.00  0.00    -0.033 C  
HETATM   42  C   UNL     1      -5.766   4.812  68.798  1.00  0.00    -0.020 C  
HETATM   43  O   UNL     1      -5.604   6.710  70.251  1.00  0.00    -0.018 OA 
HETATM   44  C   UNL     1      -5.928   5.528  70.159  1.00  0.00    -0.021 C  
HETATM   45  O   UNL     1      -5.537   5.482  67.798  1.00  0.00    -0.011 OA 
BRANCH  40  46
HETATM   46  C   UNL     1      -5.400   2.675  67.627  1.00  0.00    -0.017 C  
HETATM   47  C   UNL     1      -6.426   2.572  66.515  1.00  0.00    -0.028 C  
ENDBRANCH  40  46
ENDBRANCH  36  38
ENDBRANCH  34  36
ENDBRANCH  25  34
ENDBRANCH  24  25
ENDBRANCH   6  21
TORSDOF 10
ENDMDL
MODEL      170
REMARK 921   NORMALIZED FREE ENERGY PREDICTED BY IDOCK:   -4.17 KCAL/MOL
REMARK 922        TOTAL FREE ENERGY PREDICTED BY IDOCK:   -8.90 KCAL/MOL
REMARK 923 INTER-LIGAND FREE ENERGY PREDICTED BY IDOCK:   -8.16 KCAL/MOL
REMARK 924 INTRA-LIGAND FREE ENERGY PREDICTED BY IDOCK:   -0.73 KCAL/MOL
REMARK 927      BINDING AFFINITY PREDICTED BY RF-SCORE:    0.00 PKD
ROOT
HETATM    1  C   UNL     1     -10.735  13.603  69.174  1.00  0.00    -0.104 C  
HETATM    2  S   UNL     1      -8.992  13.874  69.570  1.00  0.00     1.165 SA 
HETATM    3  C   UNL     1      -8.849  15.312  68.487  1.00  0.00    -0.185 C  
HETATM    4  C   UNL     1      -9.443  15.139  67.092  1.00  0.00    -0.224 C  
HETATM    5  CA  UNL     1     -10.353  14.173  66.768  1.00  0.00    -0.274 C  
HETATM    6  CA  UNL     1     -11.254  12.138  69.395  1.00  0.00    -0.182 C  
HETATM    7  O   UNL     1     -12.150  11.612  66.978  1.00  0.00    -0.547 OA 
HETATM    8  N   UNL     1     -10.849  13.358  67.749  1.00  0.00    -0.248 N  
HETATM    9  C   UNL     1     -10.745  13.946  65.318  1.00  0.00    -0.345 C  
HETATM   10  OXT UNL     1     -10.116  14.389  64.368  1.00  0.00    -0.117 OA 
HETATM   11  O   UNL     1     -11.902  13.290  65.102  1.00  0.00    -0.320 OA 
HETATM   12  C   UNL     1     -11.568  12.215  67.850  1.00  0.00    -0.347 C  
ENDROOT
BRANCH   4  13
HETATM   13  C   UNL     1      -8.773  16.103  66.112  1.00  0.00    -0.323 C  
BRANCH  13  14
HETATM   14  S   UNL     1      -7.868  17.484  66.854  1.00  0.00    -0.245 SA 
BRANCH  14  15
HETATM   15  C   UNL     1      -8.911  18.832  66.665  1.00  0.00    -0.314 A  
HETATM   16  N   UNL     1      -9.080  19.587  65.607  1.00  0.00    -0.233 NA 
HETATM   17  C   UNL     1      -9.890  18.822  69.006  1.00  0.00    -0.300 C  
HETATM   18  N   UNL     1      -9.982  20.557  65.977  1.00  0.00    -0.131 NA 
HETATM   19  N   UNL     1      -9.704  19.310  67.670  1.00  0.00    -0.316 NA 
HETATM   20  N   UNL     1     -10.366  20.397  67.237  1.00  0.00    -0.290 NA 
ENDBRANCH  14  15
ENDBRANCH  13  14
ENDBRANCH   4  13
BRANCH   6  21
HETATM   21  N   UNL     1     -10.212  11.164  69.828  1.00  0.00    -0.371 N  
HETATM   22  H   UNL     1      -9.271  11.264  69.448  1.00  0.00     0.000 HD 
HETATM   23  O   UNL     1     -11.509  10.051  71.337  1.00  0.00    -0.360 OA 
HETATM   24  C   UNL     1     -10.452  10.136  70.715  1.00  0.00     0.093 C  
BRANCH  24  25
HETATM   25  CA  UNL     1      -9.369   9.022  70.727  1.00  0.00    -0.249 C  
BRANCH  25  26
HETATM   26  C   UNL     1      -9.880   7.767  71.420  1.00  0.00    -0.195 A  
HETATM   27  C   UNL     1     -10.480   5.404  71.387  1.00  0.00    -0.294 A  
HETATM   28  C   UNL     1     -10.201   7.802  72.785  1.00  0.00    -0.360 A  
HETATM   29  O   UNL     1     -11.195   4.316  73.349  1.00  0.00    -0.268 OA 
HETATM   30  C   UNL     1     -10.025   6.548  70.729  1.00  0.00    -0.205 A  
HETATM   31  C   UNL     1     -10.650   6.654  73.447  1.00  0.00    -0.333 A  
HETATM   32  H   UNL     1     -11.283   3.503  72.867  1.00  0.00     0.000 HD 
HETATM   33  C   UNL     1     -10.779   5.463  72.741  1.00  0.00    -0.247 A  
ENDBRANCH  25  26
BRANCH  25  34
HETATM   34  N   UNL     1      -8.919   8.689  69.377  1.00  0.00    -0.144 N  
HETATM   35  H   UNL     1      -7.944   8.424  69.236  1.00  0.00     0.000 HD 
BRANCH  34  36
HETATM   36  C   UNL     1      -9.755   8.719  68.295  1.00  0.00    -0.158 C  
HETATM   37  O   UNL     1     -10.975   8.757  68.433  1.00  0.00    -0.025 OA 
BRANCH  36  38
HETATM   38  N   UNL     1      -9.138   8.720  67.051  1.00  0.00    -0.130 N  
HETATM   39  C   UNL     1      -8.617   9.986  66.547  1.00  0.00    -0.125 C  
HETATM   40  N   UNL     1      -7.331   8.786  64.853  1.00  0.00    -0.091 N  
HETATM   41  C   UNL     1      -7.268   9.814  65.877  1.00  0.00    -0.103 C  
HETATM   42  C   UNL     1      -7.963   7.578  65.134  1.00  0.00    -0.128 C  
HETATM   43  O   UNL     1      -9.801   6.621  66.337  1.00  0.00    -0.137 OA 
HETATM   44  C   UNL     1      -9.045   7.586  66.239  1.00  0.00    -0.157 C  
HETATM   45  O   UNL     1      -7.734   6.534  64.534  1.00  0.00    -0.095 OA 
BRANCH  40  46
HETATM   46  C   UNL     1      -6.546   8.921  63.631  1.00  0.00    -0.089 C  
HETATM   47  C   UNL     1      -6.323  10.353  63.185  1.00  0.00    -0.109 C  
ENDBRANCH  40  46
ENDBRANCH  36  38
ENDBRANCH  34  36
ENDBRANCH  25  34
ENDBRANCH  24  25
ENDBRANCH   6  21
TORSDOF 10
ENDMDL
MODEL      171
REMARK 921   NORMALIZED FREE ENERGY PREDICTED BY IDOCK:   -4.15 KCAL/MOL
REMARK 922        TOTAL FREE ENERGY PREDICTED BY IDOCK:   -8.87 KCAL/MOL
REMARK 923 INTER-LIGAND FREE ENERGY PREDICTED BY IDOCK:   -8.18 KCAL/MOL
REMARK 924 INTRA-LIGAND FREE ENERGY PREDICTED BY IDOCK:   -0.69 KCAL/MOL
REMARK 927      BINDING AFFINITY PREDICTED BY RF-SCORE:    0.00 PKD
ROOT
HETATM    1  C   UNL     1     -10.872  13.522  68.992  1.00  0.00    -0.192 C  
HETATM    2  S   UNL     1      -9.166  13.969  69.394  1.00  0.00     0.760 SA 
HETATM    3  C   UNL     1      -9.148  15.379  68.264  1.00  0.00    -0.187 C  
HETATM    4  C   UNL     1      -9.707  15.105  66.871  1.00  0.00    -0.248 C  
HETATM    5  CA  UNL     1     -10.517  14.047  66.571  1.00  0.00    -0.281 C  
HETATM    6  CA  UNL     1     -11.252  12.022  69.258  1.00  0.00    -0.229 C  
HETATM    7  O   UNL     1     -12.067  11.335  66.852  1.00  0.00    -0.093 OA 
HETATM    8  N   UNL     1     -10.945  13.221  67.575  1.00  0.00    -0.258 N  
HETATM    9  C   UNL     1     -10.870  13.736  65.127  1.00  0.00    -0.345 C  
HETATM   10  OXT UNL     1     -10.274  14.206  64.168  1.00  0.00     0.021 OA 
HETATM   11  O   UNL     1     -11.957  12.967  64.924  1.00  0.00    -0.347 OA 
HETATM   12  C   UNL     1     -11.554  12.019  67.709  1.00  0.00    -0.330 C  
ENDROOT
BRANCH   4  13
HETATM   13  C   UNL     1      -9.120  16.095  65.865  1.00  0.00    -0.233 C  
BRANCH  13  14
HETATM   14  S   UNL     1      -7.923  17.281  66.527  1.00  0.00    -0.306 SA 
BRANCH  14  15
HETATM   15  C   UNL     1      -8.859  18.667  66.910  1.00  0.00    -0.287 A  
HETATM   16  N   UNL     1      -9.959  18.733  67.621  1.00  0.00    -0.329 NA 
HETATM   17  C   UNL     1      -7.446  20.373  65.672  1.00  0.00    -0.073 C  
HETATM   18  N   UNL     1     -10.345  20.053  67.593  1.00  0.00    -0.391 NA 
HETATM   19  N   UNL     1      -8.555  19.922  66.464  1.00  0.00    -0.336 NA 
HETATM   20  N   UNL     1      -9.494  20.786  66.887  1.00  0.00    -0.262 NA 
ENDBRANCH  14  15
ENDBRANCH  13  14
ENDBRANCH   4  13
BRANCH   6  21
HETATM   21  N   UNL     1     -10.128  11.166  69.732  1.00  0.00    -0.308 N  
HETATM   22  H   UNL     1      -9.176  11.448  69.498  1.00  0.00     0.000 HD 
HETATM   23  O   UNL     1     -11.402   9.703  70.928  1.00  0.00    -0.300 OA 
HETATM   24  C   UNL     1     -10.305  10.015  70.471  1.00  0.00    -0.147 C  
BRANCH  24  25
HETATM   25  CA  UNL     1      -9.067   9.078  70.521  1.00  0.00    -0.221 C  
BRANCH  25  26
HETATM   26  C   UNL     1      -9.271   7.952  71.525  1.00  0.00    -0.171 A  
HETATM   27  C   UNL     1      -8.544   5.883  72.588  1.00  0.00    -0.119 A  
HETATM   28  C   UNL     1     -10.392   7.961  72.369  1.00  0.00    -0.333 A  
HETATM   29  O   UNL     1      -9.794   4.924  74.338  1.00  0.00    -0.147 OA 
HETATM   30  C   UNL     1      -8.347   6.897  71.649  1.00  0.00    -0.109 A  
HETATM   31  C   UNL     1     -10.586   6.948  73.315  1.00  0.00    -0.353 A  
HETATM   32  H   UNL     1      -9.158   4.222  74.410  1.00  0.00     0.000 HD 
HETATM   33  C   UNL     1      -9.655   5.921  73.419  1.00  0.00    -0.143 A  
ENDBRANCH  25  26
BRANCH  25  34
HETATM   34  N   UNL     1      -8.759   8.515  69.208  1.00  0.00    -0.133 N  
HETATM   35  H   UNL     1      -7.809   8.605  68.846  1.00  0.00     0.000 HD 
BRANCH  34  36
HETATM   36  C   UNL     1      -9.695   7.874  68.446  1.00  0.00    -0.160 C  
HETATM   37  O   UNL     1     -10.593   8.494  67.882  1.00  0.00    -0.220 OA 
BRANCH  36  38
HETATM   38  N   UNL     1      -9.552   6.495  68.343  1.00  0.00    -0.123 N  
HETATM   39  C   UNL     1      -8.752   5.971  67.241  1.00  0.00    -0.105 C  
HETATM   40  N   UNL     1      -8.658   3.794  68.342  1.00  0.00    -0.092 N  
HETATM   41  C   UNL     1      -7.870   4.820  67.684  1.00  0.00    -0.090 C  
HETATM   42  C   UNL     1      -9.601   4.162  69.298  1.00  0.00    -0.186 C  
HETATM   43  O   UNL     1     -11.191   5.868  69.850  1.00  0.00    -0.378 OA 
HETATM   44  C   UNL     1     -10.183   5.592  69.202  1.00  0.00    -0.236 C  
HETATM   45  O   UNL     1     -10.012   3.411  70.174  1.00  0.00    -0.022 OA 
BRANCH  40  46
HETATM   46  C   UNL     1      -8.311   2.386  68.179  1.00  0.00    -0.063 C  
HETATM   47  C   UNL     1      -8.064   1.965  66.743  1.00  0.00    -0.074 C  
ENDBRANCH  40  46
ENDBRANCH  36  38
ENDBRANCH  34  36
ENDBRANCH  25  34
ENDBRANCH  24  25
ENDBRANCH   6  21
TORSDOF 10
ENDMDL
MODEL      172
REMARK 921   NORMALIZED FREE ENERGY PREDICTED BY IDOCK:   -4.12 KCAL/MOL
REMARK 922        TOTAL FREE ENERGY PREDICTED BY IDOCK:   -8.83 KCAL/MOL
REMARK 923 INTER-LIGAND FREE ENERGY PREDICTED BY IDOCK:   -7.49 KCAL/MOL
REMARK 924 INTRA-LIGAND FREE ENERGY PREDICTED BY IDOCK:   -1.34 KCAL/MOL
REMARK 927      BINDING AFFINITY PREDICTED BY RF-SCORE:    0.00 PKD
ROOT
HETATM    1  C   UNL     1     -11.231   9.873  67.524  1.00  0.00     0.086 C  
HETATM    2  S   UNL     1     -11.092   9.561  69.300  1.00  0.00    -0.007 SA 
HETATM    3  C   UNL     1     -11.759  11.177  69.754  1.00  0.00    -0.345 C  
HETATM    4  C   UNL     1     -11.169  12.362  68.996  1.00  0.00    -0.320 C  
HETATM    5  CA  UNL     1     -10.500  12.249  67.811  1.00  0.00    -0.209 C  
HETATM    6  CA  UNL     1     -10.269   9.028  66.617  1.00  0.00    -0.263 C  
HETATM    7  O   UNL     1      -9.016  10.971  65.361  1.00  0.00    -0.198 OA 
HETATM    8  N   UNL     1     -10.417  11.028  67.197  1.00  0.00    -0.220 N  
HETATM    9  C   UNL     1      -9.776  13.448  67.222  1.00  0.00    -0.232 C  
HETATM   10  OXT UNL     1      -9.520  14.463  67.854  1.00  0.00    -0.204 OA 
HETATM   11  O   UNL     1      -9.492  13.394  65.906  1.00  0.00    -0.166 OA 
HETATM   12  C   UNL     1      -9.733  10.448  66.183  1.00  0.00    -0.209 C  
ENDROOT
BRANCH   4  13
HETATM   13  C   UNL     1     -11.322  13.641  69.819  1.00  0.00    -0.112 C  
BRANCH  13  14
HETATM   14  S   UNL     1     -12.967  13.947  70.509  1.00  0.00     0.017 SA 
BRANCH  14  15
HETATM   15  C   UNL     1     -12.669  14.804  71.965  1.00  0.00    -0.329 A  
HETATM   16  N   UNL     1     -13.071  14.510  73.178  1.00  0.00    -0.571 NA 
HETATM   17  C   UNL     1     -11.305  16.695  70.962  1.00  0.00     0.145 C  
HETATM   18  N   UNL     1     -12.616  15.529  73.982  1.00  0.00    -0.603 NA 
HETATM   19  N   UNL     1     -11.963  15.973  72.014  1.00  0.00    -0.497 NA 
HETATM   20  N   UNL     1     -11.941  16.428  73.278  1.00  0.00    -0.465 NA 
ENDBRANCH  14  15
ENDBRANCH  13  14
ENDBRANCH   4  13
BRANCH   6  21
HETATM   21  N   UNL     1      -9.326   8.143  67.359  1.00  0.00    -0.139 N  
HETATM   22  H   UNL     1      -8.436   8.536  67.665  1.00  0.00     0.000 HD 
HETATM   23  O   UNL     1     -10.703   6.329  67.464  1.00  0.00    -0.243 OA 
HETATM   24  C   UNL     1      -9.593   6.822  67.654  1.00  0.00    -0.125 C  
BRANCH  24  25
HETATM   25  CA  UNL     1      -8.351   5.985  68.068  1.00  0.00    -0.116 C  
BRANCH  25  26
HETATM   26  C   UNL     1      -7.907   5.068  66.937  1.00  0.00    -0.096 A  
HETATM   27  C   UNL     1      -7.321   2.861  66.085  1.00  0.00    -0.071 A  
HETATM   28  C   UNL     1      -7.699   5.590  65.652  1.00  0.00    -0.088 A  
HETATM   29  O   UNL     1      -6.775   2.552  63.816  1.00  0.00    -0.029 OA 
HETATM   30  C   UNL     1      -7.713   3.688  67.139  1.00  0.00    -0.079 A  
HETATM   31  C   UNL     1      -7.313   4.760  64.594  1.00  0.00    -0.067 A  
HETATM   32  H   UNL     1      -6.653   1.623  63.970  1.00  0.00     0.000 HD 
HETATM   33  C   UNL     1      -7.134   3.400  64.820  1.00  0.00    -0.061 A  
ENDBRANCH  25  26
BRANCH  25  34
HETATM   34  N   UNL     1      -7.236   6.836  68.478  1.00  0.00    -0.082 N  
HETATM   35  H   UNL     1      -6.830   7.476  67.796  1.00  0.00     0.000 HD 
BRANCH  34  36
HETATM   36  C   UNL     1      -6.716   6.805  69.743  1.00  0.00    -0.050 C  
HETATM   37  O   UNL     1      -5.517   6.980  69.943  1.00  0.00    -0.018 OA 
BRANCH  36  38
HETATM   38  N   UNL     1      -7.627   6.583  70.768  1.00  0.00    -0.087 N  
HETATM   39  C   UNL     1      -7.934   5.201  71.122  1.00  0.00    -0.103 C  
HETATM   40  N   UNL     1      -8.962   5.959  73.202  1.00  0.00    -0.131 N  
HETATM   41  C   UNL     1      -8.027   5.011  72.623  1.00  0.00    -0.098 C  
HETATM   42  C   UNL     1      -8.907   7.297  72.820  1.00  0.00    -0.127 C  
HETATM   43  O   UNL     1      -8.472   8.729  70.949  1.00  0.00    -0.140 OA 
HETATM   44  C   UNL     1      -8.303   7.611  71.431  1.00  0.00    -0.107 C  
HETATM   45  O   UNL     1      -9.338   8.219  73.502  1.00  0.00    -0.210 OA 
BRANCH  40  46
HETATM   46  C   UNL     1      -9.792   5.569  74.337  1.00  0.00    -0.213 C  
HETATM   47  C   UNL     1     -10.481   4.227  74.176  1.00  0.00    -0.307 C  
ENDBRANCH  40  46
ENDBRANCH  36  38
ENDBRANCH  34  36
ENDBRANCH  25  34
ENDBRANCH  24  25
ENDBRANCH   6  21
TORSDOF 10
ENDMDL
MODEL      173
REMARK 921   NORMALIZED FREE ENERGY PREDICTED BY IDOCK:   -4.09 KCAL/MOL
REMARK 922        TOTAL FREE ENERGY PREDICTED BY IDOCK:   -8.78 KCAL/MOL
REMARK 923 INTER-LIGAND FREE ENERGY PREDICTED BY IDOCK:   -8.15 KCAL/MOL
REMARK 924 INTRA-LIGAND FREE ENERGY PREDICTED BY IDOCK:   -0.63 KCAL/MOL
REMARK 927      BINDING AFFINITY PREDICTED BY RF-SCORE:    0.00 PKD
ROOT
HETATM    1  C   UNL     1      -6.380  10.254  67.854  1.00  0.00    -0.060 C  
HETATM    2  S   UNL     1      -7.941  10.036  66.967  1.00  0.00    -0.106 SA 
HETATM    3  C   UNL     1      -7.976  11.743  66.376  1.00  0.00     0.065 C  
HETATM    4  C   UNL     1      -7.677  12.803  67.430  1.00  0.00    -0.165 C  
HETATM    5  CA  UNL     1      -7.047  12.543  68.614  1.00  0.00    -0.100 C  
HETATM    6  CA  UNL     1      -6.134   9.250  69.036  1.00  0.00    -0.043 C  
HETATM    7  O   UNL     1      -5.788  10.956  71.008  1.00  0.00    -0.310 OA 
HETATM    8  N   UNL     1      -6.563  11.286  68.857  1.00  0.00    -0.061 N  
HETATM    9  C   UNL     1      -6.962  13.613  69.689  1.00  0.00     0.157 C  
HETATM   10  OXT UNL     1      -7.644  14.628  69.690  1.00  0.00    -0.103 OA 
HETATM   11  O   UNL     1      -6.013  13.446  70.631  1.00  0.00    -0.172 OA 
HETATM   12  C   UNL     1      -6.080  10.569  69.899  1.00  0.00    -0.079 C  
ENDROOT
BRANCH   4  13
HETATM   13  C   UNL     1      -8.298  14.140  67.023  1.00  0.00    -0.118 C  
BRANCH  13  14
HETATM   14  S   UNL     1     -10.108  14.196  66.997  1.00  0.00    -0.265 SA 
BRANCH  14  15
HETATM   15  C   UNL     1     -10.480  15.651  66.168  1.00  0.00    -0.317 A  
HETATM   16  N   UNL     1     -10.800  15.809  64.907  1.00  0.00    -0.496 NA 
HETATM   17  C   UNL     1     -10.176  17.234  68.128  1.00  0.00    -0.343 C  
HETATM   18  N   UNL     1     -10.954  17.163  64.725  1.00  0.00    -0.924 NA 
HETATM   19  N   UNL     1     -10.451  16.880  66.765  1.00  0.00    -0.292 NA 
HETATM   20  N   UNL     1     -10.740  17.825  65.854  1.00  0.00    -0.333 NA 
ENDBRANCH  14  15
ENDBRANCH  13  14
ENDBRANCH   4  13
BRANCH   6  21
HETATM   21  N   UNL     1      -7.260   8.309  69.302  1.00  0.00    -0.063 N  
HETATM   22  H   UNL     1      -7.196   7.363  68.927  1.00  0.00     0.000 HD 
HETATM   23  O   UNL     1      -8.457   9.711  70.643  1.00  0.00    -0.212 OA 
HETATM   24  C   UNL     1      -8.383   8.651  70.026  1.00  0.00    -0.124 C  
BRANCH  24  25
HETATM   25  CA  UNL     1      -9.587   7.684  69.853  1.00  0.00    -0.160 C  
BRANCH  25  26
HETATM   26  C   UNL     1     -10.751   8.091  70.745  1.00  0.00    -0.236 A  
HETATM   27  C   UNL     1     -12.724   9.450  71.191  1.00  0.00    -0.342 A  
HETATM   28  C   UNL     1     -10.955   7.440  71.971  1.00  0.00    -0.273 A  
HETATM   29  O   UNL     1     -13.984   9.136  73.155  1.00  0.00    -1.101 OA 
HETATM   30  C   UNL     1     -11.654   9.103  70.365  1.00  0.00    -0.181 A  
HETATM   31  C   UNL     1     -12.032   7.783  72.795  1.00  0.00    -0.183 A  
HETATM   32  H   UNL     1     -14.585   9.818  72.880  1.00  0.00     0.000 HD 
HETATM   33  C   UNL     1     -12.911   8.782  72.393  1.00  0.00    -0.383 A  
ENDBRANCH  25  26
BRANCH  25  34
HETATM   34  N   UNL     1     -10.033   7.617  68.463  1.00  0.00    -0.174 N  
HETATM   35  H   UNL     1      -9.985   8.460  67.891  1.00  0.00     0.000 HD 
BRANCH  34  36
HETATM   36  C   UNL     1     -10.513   6.467  67.901  1.00  0.00    -0.222 C  
HETATM   37  O   UNL     1     -11.720   6.270  67.783  1.00  0.00     0.396 OA 
BRANCH  36  38
HETATM   38  N   UNL     1      -9.556   5.559  67.465  1.00  0.00    -0.117 N  
HETATM   39  C   UNL     1      -9.402   5.365  66.027  1.00  0.00    -0.156 C  
HETATM   40  N   UNL     1      -7.270   4.235  66.405  1.00  0.00    -0.074 N  
HETATM   41  C   UNL     1      -7.944   5.259  65.626  1.00  0.00    -0.106 C  
HETATM   42  C   UNL     1      -7.466   4.184  67.783  1.00  0.00    -0.068 C  
HETATM   43  O   UNL     1      -9.111   4.532  69.490  1.00  0.00    -0.095 OA 
HETATM   44  C   UNL     1      -8.781   4.785  68.333  1.00  0.00    -0.101 C  
HETATM   45  O   UNL     1      -6.678   3.663  68.564  1.00  0.00    -0.044 OA 
BRANCH  40  46
HETATM   46  C   UNL     1      -6.226   3.420  65.796  1.00  0.00    -0.031 C  
HETATM   47  C   UNL     1      -6.734   2.185  65.077  1.00  0.00    -0.031 C  
ENDBRANCH  40  46
ENDBRANCH  36  38
ENDBRANCH  34  36
ENDBRANCH  25  34
ENDBRANCH  24  25
ENDBRANCH   6  21
TORSDOF 10
ENDMDL
MODEL      174
REMARK 921   NORMALIZED FREE ENERGY PREDICTED BY IDOCK:   -4.09 KCAL/MOL
REMARK 922        TOTAL FREE ENERGY PREDICTED BY IDOCK:   -8.77 KCAL/MOL
REMARK 923 INTER-LIGAND FREE ENERGY PREDICTED BY IDOCK:   -7.42 KCAL/MOL
REMARK 924 INTRA-LIGAND FREE ENERGY PREDICTED BY IDOCK:   -1.34 KCAL/MOL
REMARK 927      BINDING AFFINITY PREDICTED BY RF-SCORE:    0.00 PKD
ROOT
HETATM    1  C   UNL     1      -7.850   9.675  70.241  1.00  0.00    -0.178 C  
HETATM    2  S   UNL     1      -9.577   9.439  70.725  1.00  0.00    -0.206 SA 
HETATM    3  C   UNL     1      -9.381   7.662  70.987  1.00  0.00    -0.152 C  
HETATM    4  C   UNL     1      -8.643   6.918  69.879  1.00  0.00    -0.141 C  
HETATM    5  CA  UNL     1      -7.840   7.527  68.957  1.00  0.00    -0.120 C  
HETATM    6  CA  UNL     1      -7.569  10.937  69.351  1.00  0.00    -0.094 C  
HETATM    7  O   UNL     1      -6.452   9.778  67.271  1.00  0.00    -0.067 OA 
HETATM    8  N   UNL     1      -7.590   8.869  69.064  1.00  0.00    -0.084 N  
HETATM    9  C   UNL     1      -7.300   6.743  67.773  1.00  0.00    -0.096 C  
HETATM   10  OXT UNL     1      -7.737   5.656  67.424  1.00  0.00    -0.098 OA 
HETATM   11  O   UNL     1      -6.226   7.262  67.146  1.00  0.00    -0.042 OA 
HETATM   12  C   UNL     1      -7.052   9.862  68.317  1.00  0.00    -0.076 C  
ENDROOT
BRANCH   4  13
HETATM   13  C   UNL     1      -9.044   5.442  69.879  1.00  0.00    -0.135 C  
BRANCH  13  14
HETATM   14  S   UNL     1     -10.032   4.890  71.292  1.00  0.00    -0.203 SA 
BRANCH  14  15
HETATM   15  C   UNL     1      -9.220   3.491  71.864  1.00  0.00    -0.117 A  
HETATM   16  N   UNL     1      -8.167   2.898  71.355  1.00  0.00    -0.062 NA 
HETATM   17  C   UNL     1     -10.712   3.038  73.866  1.00  0.00    -0.201 C  
HETATM   18  N   UNL     1      -7.937   1.798  72.147  1.00  0.00    -0.044 NA 
HETATM   19  N   UNL     1      -9.628   2.786  72.960  1.00  0.00    -0.094 NA 
HETATM   20  N   UNL     1      -8.826   1.720  73.128  1.00  0.00    -0.062 NA 
ENDBRANCH  14  15
ENDBRANCH  13  14
ENDBRANCH   4  13
BRANCH   6  21
HETATM   21  N   UNL     1      -8.782  11.717  68.971  1.00  0.00    -0.371 N  
HETATM   22  H   UNL     1      -9.652  11.528  69.468  1.00  0.00     0.000 HD 
HETATM   23  O   UNL     1      -7.752  13.077  67.459  1.00  0.00    -0.148 OA 
HETATM   24  C   UNL     1      -8.790  12.680  67.984  1.00  0.00    -0.195 C  
BRANCH  24  25
HETATM   25  CA  UNL     1     -10.204  13.081  67.479  1.00  0.00    -0.221 C  
BRANCH  25  26
HETATM   26  C   UNL     1     -10.225  14.524  66.995  1.00  0.00    -0.262 A  
HETATM   27  C   UNL     1      -9.940  16.190  65.239  1.00  0.00    -0.007 A  
HETATM   28  C   UNL     1     -10.596  15.552  67.874  1.00  0.00    -0.274 A  
HETATM   29  O   UNL     1     -10.373  18.466  65.657  1.00  0.00    -0.605 OA 
HETATM   30  C   UNL     1      -9.898  14.862  65.667  1.00  0.00    -0.372 A  
HETATM   31  C   UNL     1     -10.645  16.882  67.442  1.00  0.00    -0.294 A  
HETATM   32  H   UNL     1     -10.152  18.674  64.757  1.00  0.00     0.000 HD 
HETATM   33  C   UNL     1     -10.322  17.187  66.125  1.00  0.00    -0.322 A  
ENDBRANCH  25  26
BRANCH  25  34
HETATM   34  N   UNL     1     -10.669  12.197  66.413  1.00  0.00    -0.248 N  
HETATM   35  H   UNL     1     -10.953  12.609  65.523  1.00  0.00     0.000 HD 
BRANCH  34  36
HETATM   36  C   UNL     1     -10.740  10.840  66.561  1.00  0.00    -0.181 C  
HETATM   37  O   UNL     1     -11.270  10.333  67.547  1.00  0.00    -0.295 OA 
BRANCH  36  38
HETATM   38  N   UNL     1     -10.193  10.087  65.529  1.00  0.00    -0.247 N  
HETATM   39  C   UNL     1     -10.123  10.694  64.204  1.00  0.00    -0.334 C  
HETATM   40  N   UNL     1      -8.570   8.951  63.486  1.00  0.00    -0.143 N  
HETATM   41  C   UNL     1      -8.810  10.383  63.511  1.00  0.00    -0.212 C  
HETATM   42  C   UNL     1      -8.771   8.202  64.643  1.00  0.00     0.168 C  
HETATM   43  O   UNL     1     -10.167   8.028  66.583  1.00  0.00    -0.285 OA 
HETATM   44  C   UNL     1      -9.765   8.766  65.686  1.00  0.00     0.054 C  
HETATM   45  O   UNL     1      -8.237   7.120  64.856  1.00  0.00    -0.129 OA 
BRANCH  40  46
HETATM   46  C   UNL     1      -7.907   8.339  62.340  1.00  0.00    -0.144 C  
HETATM   47  C   UNL     1      -6.448   7.997  62.570  1.00  0.00    -0.086 C  
ENDBRANCH  40  46
ENDBRANCH  36  38
ENDBRANCH  34  36
ENDBRANCH  25  34
ENDBRANCH  24  25
ENDBRANCH   6  21
TORSDOF 10
ENDMDL
MODEL      175
REMARK 921   NORMALIZED FREE ENERGY PREDICTED BY IDOCK:   -4.08 KCAL/MOL
REMARK 922        TOTAL FREE ENERGY PREDICTED BY IDOCK:   -8.76 KCAL/MOL
REMARK 923 INTER-LIGAND FREE ENERGY PREDICTED BY IDOCK:   -6.81 KCAL/MOL
REMARK 924 INTRA-LIGAND FREE ENERGY PREDICTED BY IDOCK:   -1.94 KCAL/MOL
REMARK 927      BINDING AFFINITY PREDICTED BY RF-SCORE:    0.00 PKD
ROOT
HETATM    1  C   UNL     1     -10.650   7.815  67.255  1.00  0.00    -0.306 C  
HETATM    2  S   UNL     1     -10.682   9.115  68.512  1.00  0.00    -0.055 SA 
HETATM    3  C   UNL     1     -11.285  10.372  67.363  1.00  0.00    -0.129 C  
HETATM    4  C   UNL     1     -10.560  10.429  66.022  1.00  0.00    -0.136 C  
HETATM    5  CA  UNL     1      -9.800   9.410  65.524  1.00  0.00    -0.161 C  
HETATM    6  CA  UNL     1      -9.668   6.625  67.545  1.00  0.00    -0.127 C  
HETATM    7  O   UNL     1      -8.194   6.720  65.368  1.00  0.00    -0.128 OA 
HETATM    8  N   UNL     1      -9.741   8.221  66.200  1.00  0.00    -0.174 N  
HETATM    9  C   UNL     1      -8.956   9.620  64.278  1.00  0.00    -0.229 C  
HETATM   10  OXT UNL     1      -8.693  10.721  63.816  1.00  0.00    -0.160 OA 
HETATM   11  O   UNL     1      -8.564   8.511  63.621  1.00  0.00    -0.086 OA 
HETATM   12  C   UNL     1      -9.010   7.081  66.185  1.00  0.00    -0.136 C  
ENDROOT
BRANCH   4  13
HETATM   13  C   UNL     1     -10.703  11.821  65.406  1.00  0.00    -0.283 C  
BRANCH  13  14
HETATM   14  S   UNL     1      -9.744  13.139  66.195  1.00  0.00    -0.207 SA 
BRANCH  14  15
HETATM   15  C   UNL     1     -10.813  13.815  67.353  1.00  0.00    -0.277 A  
HETATM   16  N   UNL     1     -12.123  13.857  67.321  1.00  0.00    -0.400 NA 
HETATM   17  C   UNL     1      -9.055  14.645  68.983  1.00  0.00    -0.097 C  
HETATM   18  N   UNL     1     -12.504  14.544  68.450  1.00  0.00     0.056 NA 
HETATM   19  N   UNL     1     -10.386  14.446  68.487  1.00  0.00    -0.242 NA 
HETATM   20  N   UNL     1     -11.450  14.910  69.166  1.00  0.00    -0.285 NA 
ENDBRANCH  14  15
ENDBRANCH  13  14
ENDBRANCH   4  13
BRANCH   6  21
HETATM   21  N   UNL     1      -8.848   6.778  68.781  1.00  0.00    -0.131 N  
HETATM   22  H   UNL     1      -9.081   7.535  69.423  1.00  0.00     0.000 HD 
HETATM   23  O   UNL     1      -7.558   4.925  68.467  1.00  0.00    -0.076 OA 
HETATM   24  C   UNL     1      -7.793   5.951  69.103  1.00  0.00    -0.095 C  
BRANCH  24  25
HETATM   25  CA  UNL     1      -6.842   6.507  70.198  1.00  0.00    -0.058 C  
BRANCH  25  26
HETATM   26  C   UNL     1      -6.458   7.951  69.910  1.00  0.00    -0.037 A  
HETATM   27  C   UNL     1      -6.050   9.781  68.353  1.00  0.00    -0.046 A  
HETATM   28  C   UNL     1      -6.184   8.828  70.971  1.00  0.00    -0.047 A  
HETATM   29  O   UNL     1      -5.494  11.930  69.139  1.00  0.00    -0.051 OA 
HETATM   30  C   UNL     1      -6.388   8.448  68.594  1.00  0.00    -0.053 A  
HETATM   31  C   UNL     1      -5.852  10.165  70.729  1.00  0.00    -0.094 A  
HETATM   32  H   UNL     1      -5.455  12.248  68.245  1.00  0.00     0.000 HD 
HETATM   33  C   UNL     1      -5.795  10.631  69.420  1.00  0.00    -0.039 A  
ENDBRANCH  25  26
BRANCH  25  34
HETATM   34  N   UNL     1      -7.434   6.412  71.531  1.00  0.00    -0.088 N  
HETATM   35  H   UNL     1      -7.025   6.957  72.290  1.00  0.00     0.000 HD 
BRANCH  34  36
HETATM   36  C   UNL     1      -8.516   5.620  71.799  1.00  0.00    -0.127 C  
HETATM   37  O   UNL     1      -8.419   4.396  71.826  1.00  0.00    -0.106 OA 
BRANCH  36  38
HETATM   38  N   UNL     1      -9.709   6.287  72.048  1.00  0.00    -0.152 N  
HETATM   39  C   UNL     1      -9.705   7.339  73.060  1.00  0.00    -0.186 C  
HETATM   40  N   UNL     1     -11.862   8.138  72.241  1.00  0.00    -0.358 N  
HETATM   41  C   UNL     1     -10.521   8.541  72.626  1.00  0.00    -0.155 C  
HETATM   42  C   UNL     1     -12.034   7.030  71.414  1.00  0.00    -0.340 C  
HETATM   43  O   UNL     1     -11.141   4.861  70.923  1.00  0.00     0.251 OA 
HETATM   44  C   UNL     1     -10.916   5.961  71.425  1.00  0.00    -0.263 C  
HETATM   45  O   UNL     1     -13.026   6.846  70.720  1.00  0.00    -0.193 OA 
BRANCH  40  46
HETATM   46  C   UNL     1     -12.997   9.010  72.519  1.00  0.00    -0.361 C  
HETATM   47  C   UNL     1     -13.376   9.930  71.374  1.00  0.00    -0.447 C  
ENDBRANCH  40  46
ENDBRANCH  36  38
ENDBRANCH  34  36
ENDBRANCH  25  34
ENDBRANCH  24  25
ENDBRANCH   6  21
TORSDOF 10
ENDMDL
MODEL      176
REMARK 921   NORMALIZED FREE ENERGY PREDICTED BY IDOCK:   -3.83 KCAL/MOL
REMARK 922        TOTAL FREE ENERGY PREDICTED BY IDOCK:   -8.36 KCAL/MOL
REMARK 923 INTER-LIGAND FREE ENERGY PREDICTED BY IDOCK:   -6.13 KCAL/MOL
REMARK 924 INTRA-LIGAND FREE ENERGY PREDICTED BY IDOCK:   -2.23 KCAL/MOL
REMARK 927      BINDING AFFINITY PREDICTED BY RF-SCORE:    0.00 PKD
ROOT
HETATM    1  C   UNL     1     -10.408   4.964  65.926  1.00  0.00    -0.236 C  
HETATM    2  S   UNL     1      -9.032   5.384  64.830  1.00  0.00     0.086 SA 
HETATM    3  C   UNL     1      -8.248   3.766  65.005  1.00  0.00    -0.097 C  
HETATM    4  C   UNL     1      -8.138   3.246  66.435  1.00  0.00    -0.088 C  
HETATM    5  CA  UNL     1      -8.889   3.715  67.474  1.00  0.00    -0.125 C  
HETATM    6  CA  UNL     1     -11.123   6.187  66.603  1.00  0.00    -0.049 C  
HETATM    7  O   UNL     1     -10.841   5.525  69.134  1.00  0.00    -0.251 OA 
HETATM    8  N   UNL     1      -9.870   4.640  67.233  1.00  0.00    -0.186 N  
HETATM    9  C   UNL     1      -8.583   3.284  68.898  1.00  0.00    -0.080 C  
HETATM   10  OXT UNL     1      -7.540   2.740  69.232  1.00  0.00    -0.044 OA 
HETATM   11  O   UNL     1      -9.569   3.444  69.802  1.00  0.00    -0.175 OA 
HETATM   12  C   UNL     1     -10.671   5.474  67.937  1.00  0.00    -0.093 C  
ENDROOT
BRANCH   4  13
HETATM   13  C   UNL     1      -6.990   2.242  66.543  1.00  0.00    -0.044 C  
BRANCH  13  14
HETATM   14  S   UNL     1      -5.362   2.842  66.023  1.00  0.00    -0.013 SA 
BRANCH  14  15
HETATM   15  C   UNL     1      -5.244   4.410  66.708  1.00  0.00    -0.008 A  
HETATM   16  N   UNL     1      -5.222   4.743  67.976  1.00  0.00    -0.010 NA 
HETATM   17  C   UNL     1      -5.159   5.715  64.533  1.00  0.00    -0.009 C  
HETATM   18  N   UNL     1      -5.166   6.117  68.002  1.00  0.00    -0.004 NA 
HETATM   19  N   UNL     1      -5.184   5.551  65.959  1.00  0.00    -0.009 NA 
HETATM   20  N   UNL     1      -5.146   6.619  66.774  1.00  0.00    -0.009 NA 
ENDBRANCH  14  15
ENDBRANCH  13  14
ENDBRANCH   4  13
BRANCH   6  21
HETATM   21  N   UNL     1     -10.514   7.513  66.301  1.00  0.00    -0.300 N  
HETATM   22  H   UNL     1     -10.245   7.712  65.338  1.00  0.00     0.000 HD 
HETATM   23  O   UNL     1     -10.740   8.385  68.396  1.00  0.00    -0.146 OA 
HETATM   24  C   UNL     1     -10.295   8.486  67.254  1.00  0.00    -0.302 C  
BRANCH  24  25
HETATM   25  CA  UNL     1      -9.311   9.608  66.824  1.00  0.00    -0.152 C  
BRANCH  25  26
HETATM   26  C   UNL     1      -9.932  10.507  65.764  1.00  0.00    -0.318 A  
HETATM   27  C   UNL     1     -11.196  12.489  65.122  1.00  0.00    -0.342 A  
HETATM   28  C   UNL     1      -9.780  10.195  64.405  1.00  0.00    -0.345 A  
HETATM   29  O   UNL     1     -11.552  13.007  62.853  1.00  0.00    -0.716 OA 
HETATM   30  C   UNL     1     -10.648  11.669  66.110  1.00  0.00    -0.306 A  
HETATM   31  C   UNL     1     -10.323  11.021  63.414  1.00  0.00    -0.373 A  
HETATM   32  H   UNL     1     -12.029  13.789  63.105  1.00  0.00     0.000 HD 
HETATM   33  C   UNL     1     -11.021  12.165  63.784  1.00  0.00    -0.431 A  
ENDBRANCH  25  26
BRANCH  25  34
HETATM   34  N   UNL     1      -8.878  10.416  67.962  1.00  0.00    -0.129 N  
HETATM   35  H   UNL     1      -9.534  11.082  68.369  1.00  0.00     0.000 HD 
BRANCH  34  36
HETATM   36  C   UNL     1      -7.625  10.314  68.501  1.00  0.00    -0.089 C  
HETATM   37  O   UNL     1      -6.645  10.786  67.931  1.00  0.00    -0.062 OA 
BRANCH  36  38
HETATM   38  N   UNL     1      -7.543   9.663  69.726  1.00  0.00    -0.106 N  
HETATM   39  C   UNL     1      -8.666   9.799  70.648  1.00  0.00     0.175 C  
HETATM   40  N   UNL     1      -7.811   7.930  71.967  1.00  0.00    -0.096 N  
HETATM   41  C   UNL     1      -8.993   8.486  71.333  1.00  0.00    -0.204 C  
HETATM   42  C   UNL     1      -6.609   7.897  71.265  1.00  0.00    -0.041 C  
HETATM   43  O   UNL     1      -5.295   9.119  69.675  1.00  0.00    -0.034 OA 
HETATM   44  C   UNL     1      -6.421   8.940  70.137  1.00  0.00    -0.039 C  
HETATM   45  O   UNL     1      -5.694   7.122  71.516  1.00  0.00    -0.035 OA 
BRANCH  40  46
HETATM   46  C   UNL     1      -7.928   7.203  73.226  1.00  0.00    -0.096 C  
HETATM   47  C   UNL     1      -7.323   7.918  74.419  1.00  0.00    -0.198 C  
ENDBRANCH  40  46
ENDBRANCH  36  38
ENDBRANCH  34  36
ENDBRANCH  25  34
ENDBRANCH  24  25
ENDBRANCH   6  21
TORSDOF 10
ENDMDL
MODEL      177
REMARK 921   NORMALIZED FREE ENERGY PREDICTED BY IDOCK:   -3.79 KCAL/MOL
REMARK 922        TOTAL FREE ENERGY PREDICTED BY IDOCK:   -8.30 KCAL/MOL
REMARK 923 INTER-LIGAND FREE ENERGY PREDICTED BY IDOCK:   -7.18 KCAL/MOL
REMARK 924 INTRA-LIGAND FREE ENERGY PREDICTED BY IDOCK:   -1.12 KCAL/MOL
REMARK 927      BINDING AFFINITY PREDICTED BY RF-SCORE:    0.00 PKD
ROOT
HETATM    1  C   UNL     1     -11.265   9.818  68.896  1.00  0.00    -0.030 C  
HETATM    2  S   UNL     1      -9.460   9.938  68.920  1.00  0.00    -0.179 SA 
HETATM    3  C   UNL     1      -9.232   8.175  69.238  1.00  0.00    -0.151 C  
HETATM    4  C   UNL     1     -10.114   7.592  70.337  1.00  0.00    -0.196 C  
HETATM    5  CA  UNL     1     -11.255   8.188  70.794  1.00  0.00    -0.261 C  
HETATM    6  CA  UNL     1     -12.030  11.150  69.220  1.00  0.00    -0.351 C  
HETATM    7  O   UNL     1     -13.479  10.348  71.263  1.00  0.00    -0.290 OA 
HETATM    8  N   UNL     1     -11.708   9.327  70.186  1.00  0.00    -0.062 N  
HETATM    9  C   UNL     1     -11.966   7.643  72.021  1.00  0.00    -0.302 C  
HETATM   10  OXT UNL     1     -11.458   6.855  72.805  1.00  0.00    -0.235 OA 
HETATM   11  O   UNL     1     -13.256   8.000  72.177  1.00  0.00    -0.273 OA 
HETATM   12  C   UNL     1     -12.621  10.302  70.412  1.00  0.00    -0.204 C  
ENDROOT
BRANCH   4  13
HETATM   13  C   UNL     1      -9.462   6.340  70.925  1.00  0.00    -0.172 C  
BRANCH  13  14
HETATM   14  S   UNL     1      -7.980   6.616  71.929  1.00  0.00    -0.102 SA 
BRANCH  14  15
HETATM   15  C   UNL     1      -7.156   5.112  71.899  1.00  0.00    -0.075 A  
HETATM   16  N   UNL     1      -6.899   4.346  70.867  1.00  0.00    -0.035 NA 
HETATM   17  C   UNL     1      -6.689   4.942  74.388  1.00  0.00    -0.071 C  
HETATM   18  N   UNL     1      -6.264   3.236  71.371  1.00  0.00    -0.014 NA 
HETATM   19  N   UNL     1      -6.675   4.501  73.023  1.00  0.00    -0.054 NA 
HETATM   20  N   UNL     1      -6.125   3.320  72.687  1.00  0.00    -0.009 NA 
ENDBRANCH  14  15
ENDBRANCH  13  14
ENDBRANCH   4  13
BRANCH   6  21
HETATM   21  N   UNL     1     -11.155  12.304  69.574  1.00  0.00    -0.464 N  
HETATM   22  H   UNL     1     -10.830  12.384  70.537  1.00  0.00     0.000 HD 
HETATM   23  O   UNL     1     -10.976  13.151  67.465  1.00  0.00    -0.253 OA 
HETATM   24  C   UNL     1     -10.762  13.268  68.670  1.00  0.00    -0.259 C  
BRANCH  24  25
HETATM   25  CA  UNL     1     -10.199  14.568  69.309  1.00  0.00    -0.109 C  
BRANCH  25  26
HETATM   26  C   UNL     1      -8.860  14.947  68.692  1.00  0.00    -0.179 A  
HETATM   27  C   UNL     1      -6.453  15.290  68.862  1.00  0.00    -0.103 A  
HETATM   28  C   UNL     1      -8.785  15.281  67.332  1.00  0.00    -0.194 A  
HETATM   29  O   UNL     1      -5.187  15.901  66.973  1.00  0.00    -0.330 OA 
HETATM   30  C   UNL     1      -7.673  14.954  69.451  1.00  0.00    -0.150 A  
HETATM   31  C   UNL     1      -7.560  15.610  66.740  1.00  0.00    -0.125 A  
HETATM   32  H   UNL     1      -4.397  15.897  67.500  1.00  0.00     0.000 HD 
HETATM   33  C   UNL     1      -6.404  15.604  67.511  1.00  0.00    -0.151 A  
ENDBRANCH  25  26
BRANCH  25  34
HETATM   34  N   UNL     1     -11.133  15.684  69.181  1.00  0.00    -0.263 N  
HETATM   35  H   UNL     1     -11.972  15.560  68.614  1.00  0.00     0.000 HD 
BRANCH  34  36
HETATM   36  C   UNL     1     -10.925  16.889  69.792  1.00  0.00     0.044 C  
HETATM   37  O   UNL     1     -11.214  17.063  70.974  1.00  0.00     0.202 OA 
BRANCH  36  38
HETATM   38  N   UNL     1     -10.360  17.882  69.001  1.00  0.00    -0.308 N  
HETATM   39  C   UNL     1      -9.641  18.961  69.670  1.00  0.00     0.385 C  
HETATM   40  N   UNL     1      -8.646  19.620  67.539  1.00  0.00    -0.302 N  
HETATM   41  C   UNL     1      -8.367  19.329  68.934  1.00  0.00    -0.303 C  
HETATM   42  C   UNL     1      -9.472  18.766  66.813  1.00  0.00    -0.319 C  
HETATM   43  O   UNL     1     -11.409  17.368  67.004  1.00  0.00     0.309 OA 
HETATM   44  C   UNL     1     -10.498  17.927  67.611  1.00  0.00    -0.397 C  
HETATM   45  O   UNL     1      -9.453  18.675  65.591  1.00  0.00    -0.326 OA 
BRANCH  40  46
HETATM   46  C   UNL     1      -7.892  20.655  66.842  1.00  0.00    -0.205 C  
HETATM   47  C   UNL     1      -6.395  20.609  67.083  1.00  0.00    -0.308 C  
ENDBRANCH  40  46
ENDBRANCH  36  38
ENDBRANCH  34  36
ENDBRANCH  25  34
ENDBRANCH  24  25
ENDBRANCH   6  21
TORSDOF 10
ENDMDL
MODEL      178
REMARK 921   NORMALIZED FREE ENERGY PREDICTED BY IDOCK:   -3.70 KCAL/MOL
REMARK 922        TOTAL FREE ENERGY PREDICTED BY IDOCK:   -8.16 KCAL/MOL
REMARK 923 INTER-LIGAND FREE ENERGY PREDICTED BY IDOCK:   -7.26 KCAL/MOL
REMARK 924 INTRA-LIGAND FREE ENERGY PREDICTED BY IDOCK:   -0.90 KCAL/MOL
REMARK 927      BINDING AFFINITY PREDICTED BY RF-SCORE:    0.00 PKD
ROOT
HETATM    1  C   UNL     1      -8.328  11.693  67.341  1.00  0.00    -0.152 C  
HETATM    2  S   UNL     1      -9.940  11.427  68.116  1.00  0.00    -0.195 SA 
HETATM    3  C   UNL     1     -10.451  13.148  67.911  1.00  0.00    -0.240 C  
HETATM    4  C   UNL     1      -9.413  14.189  68.318  1.00  0.00    -0.211 C  
HETATM    5  CA  UNL     1      -8.080  13.922  68.450  1.00  0.00    -0.145 C  
HETATM    6  CA  UNL     1      -7.212  10.665  67.745  1.00  0.00    -0.088 C  
HETATM    7  O   UNL     1      -5.390  12.324  68.667  1.00  0.00    -0.053 OA 
HETATM    8  N   UNL     1      -7.604  12.683  68.115  1.00  0.00    -0.121 N  
HETATM    9  C   UNL     1      -7.145  14.961  69.046  1.00  0.00    -0.130 C  
HETATM   10  OXT UNL     1      -7.529  15.941  69.668  1.00  0.00    -0.192 OA 
HETATM   11  O   UNL     1      -5.832  14.811  68.785  1.00  0.00    -0.082 OA 
HETATM   12  C   UNL     1      -6.470  11.958  68.262  1.00  0.00    -0.052 C  
ENDROOT
BRANCH   4  13
HETATM   13  C   UNL     1     -10.101  15.505  68.679  1.00  0.00    -0.210 C  
BRANCH  13  14
HETATM   14  S   UNL     1     -11.908  15.453  68.778  1.00  0.00    -0.267 SA 
BRANCH  14  15
HETATM   15  C   UNL     1     -12.234  14.509  70.173  1.00  0.00    -0.342 A  
HETATM   16  N   UNL     1     -12.573  13.244  70.237  1.00  0.00    -0.157 NA 
HETATM   17  C   UNL     1     -11.869  16.332  71.900  1.00  0.00    -0.462 C  
HETATM   18  N   UNL     1     -12.769  12.974  71.571  1.00  0.00    -0.301 NA 
HETATM   19  N   UNL     1     -12.202  15.013  71.442  1.00  0.00    -0.304 NA 
HETATM   20  N   UNL     1     -12.547  14.050  72.314  1.00  0.00    -0.230 NA 
ENDBRANCH  14  15
ENDBRANCH  13  14
ENDBRANCH   4  13
BRANCH   6  21
HETATM   21  N   UNL     1      -7.625   9.664  68.769  1.00  0.00    -0.075 N  
HETATM   22  H   UNL     1      -8.523   9.793  69.235  1.00  0.00     0.000 HD 
HETATM   23  O   UNL     1      -5.849   8.261  68.490  1.00  0.00    -0.038 OA 
HETATM   24  C   UNL     1      -6.859   8.572  69.119  1.00  0.00    -0.058 C  
BRANCH  24  25
HETATM   25  CA  UNL     1      -7.270   7.891  70.454  1.00  0.00    -0.053 C  
BRANCH  25  26
HETATM   26  C   UNL     1      -8.782   7.895  70.629  1.00  0.00    -0.135 A  
HETATM   27  C   UNL     1     -10.771   8.235  71.996  1.00  0.00    -0.366 A  
HETATM   28  C   UNL     1      -9.613   7.586  69.542  1.00  0.00    -0.156 A  
HETATM   29  O   UNL     1     -12.923   7.988  71.072  1.00  0.00    -0.518 OA 
HETATM   30  C   UNL     1      -9.382   8.222  71.861  1.00  0.00    -0.282 A  
HETATM   31  C   UNL     1     -11.006   7.607  69.676  1.00  0.00    -0.145 A  
HETATM   32  H   UNL     1     -13.309   8.214  71.910  1.00  0.00     0.000 HD 
HETATM   33  C   UNL     1     -11.571   7.938  70.902  1.00  0.00    -0.273 A  
ENDBRANCH  25  26
BRANCH  25  34
HETATM   34  N   UNL     1      -6.768   6.522  70.542  1.00  0.00    -0.055 N  
HETATM   35  H   UNL     1      -5.851   6.360  70.960  1.00  0.00     0.000 HD 
BRANCH  34  36
HETATM   36  C   UNL     1      -7.480   5.448  70.085  1.00  0.00    -0.069 C  
HETATM   37  O   UNL     1      -7.605   5.231  68.882  1.00  0.00    -0.079 OA 
BRANCH  36  38
HETATM   38  N   UNL     1      -8.030   4.625  71.060  1.00  0.00    -0.080 N  
HETATM   39  C   UNL     1      -9.429   4.235  70.915  1.00  0.00    -0.169 C  
HETATM   40  N   UNL     1      -9.117   2.488  72.593  1.00  0.00    -0.077 N  
HETATM   41  C   UNL     1      -9.647   2.777  71.272  1.00  0.00    -0.157 C  
HETATM   42  C   UNL     1      -7.853   2.955  72.941  1.00  0.00    -0.055 C  
HETATM   43  O   UNL     1      -6.352   4.800  72.643  1.00  0.00    -0.034 OA 
HETATM   44  C   UNL     1      -7.330   4.205  72.194  1.00  0.00    -0.065 C  
HETATM   45  O   UNL     1      -7.161   2.456  73.821  1.00  0.00    -0.027 OA 
BRANCH  40  46
HETATM   46  C   UNL     1      -9.794   1.529  73.459  1.00  0.00    -0.072 C  
HETATM   47  C   UNL     1     -11.233   1.882  73.780  1.00  0.00    -0.288 C  
ENDBRANCH  40  46
ENDBRANCH  36  38
ENDBRANCH  34  36
ENDBRANCH  25  34
ENDBRANCH  24  25
ENDBRANCH   6  21
TORSDOF 10
ENDMDL
MODEL      179
REMARK 921   NORMALIZED FREE ENERGY PREDICTED BY IDOCK:   -3.67 KCAL/MOL
REMARK 922        TOTAL FREE ENERGY PREDICTED BY IDOCK:   -8.11 KCAL/MOL
REMARK 923 INTER-LIGAND FREE ENERGY PREDICTED BY IDOCK:   -7.17 KCAL/MOL
REMARK 924 INTRA-LIGAND FREE ENERGY PREDICTED BY IDOCK:   -0.93 KCAL/MOL
REMARK 927      BINDING AFFINITY PREDICTED BY RF-SCORE:    0.00 PKD
ROOT
HETATM    1  C   UNL     1      -8.213  11.273  67.671  1.00  0.00    -0.120 C  
HETATM    2  S   UNL     1      -9.899  11.122  68.308  1.00  0.00    -0.196 SA 
HETATM    3  C   UNL     1     -10.346  12.811  67.849  1.00  0.00    -0.226 C  
HETATM    4  C   UNL     1      -9.328  13.881  68.230  1.00  0.00    -0.209 C  
HETATM    5  CA  UNL     1      -8.021  13.617  68.525  1.00  0.00    -0.127 C  
HETATM    6  CA  UNL     1      -7.166  10.289  68.304  1.00  0.00    -0.083 C  
HETATM    7  O   UNL     1      -5.404  12.025  69.199  1.00  0.00    -0.054 OA 
HETATM    8  N   UNL     1      -7.545  12.341  68.390  1.00  0.00    -0.123 N  
HETATM    9  C   UNL     1      -7.125  14.709  69.083  1.00  0.00    -0.135 C  
HETATM   10  OXT UNL     1      -7.545  15.762  69.542  1.00  0.00    -0.227 OA 
HETATM   11  O   UNL     1      -5.796  14.514  68.974  1.00  0.00    -0.086 OA 
HETATM   12  C   UNL     1      -6.447  11.626  68.735  1.00  0.00    -0.064 C  
ENDROOT
BRANCH   4  13
HETATM   13  C   UNL     1     -10.017  15.240  68.360  1.00  0.00    -0.220 C  
BRANCH  13  14
HETATM   14  S   UNL     1      -9.832  16.360  66.950  1.00  0.00    -0.271 SA 
BRANCH  14  15
HETATM   15  C   UNL     1      -9.186  17.798  67.625  1.00  0.00    -0.249 A  
HETATM   16  N   UNL     1      -9.607  18.464  68.673  1.00  0.00    -0.336 NA 
HETATM   17  C   UNL     1      -7.296  18.123  65.963  1.00  0.00    -0.255 C  
HETATM   18  N   UNL     1      -8.787  19.564  68.773  1.00  0.00    -0.349 NA 
HETATM   19  N   UNL     1      -8.115  18.458  67.093  1.00  0.00    -0.235 NA 
HETATM   20  N   UNL     1      -7.875  19.570  67.810  1.00  0.00    -0.281 NA 
ENDBRANCH  14  15
ENDBRANCH  13  14
ENDBRANCH   4  13
BRANCH   6  21
HETATM   21  N   UNL     1      -7.701   9.423  69.394  1.00  0.00    -0.080 N  
HETATM   22  H   UNL     1      -7.808   9.830  70.323  1.00  0.00     0.000 HD 
HETATM   23  O   UNL     1      -8.112   7.595  68.095  1.00  0.00    -0.121 OA 
HETATM   24  C   UNL     1      -8.058   8.104  69.213  1.00  0.00    -0.117 C  
BRANCH  24  25
HETATM   25  CA  UNL     1      -8.208   7.285  70.525  1.00  0.00    -0.124 C  
BRANCH  25  26
HETATM   26  C   UNL     1      -9.658   7.249  70.987  1.00  0.00    -0.158 A  
HETATM   27  C   UNL     1     -11.334   7.035  72.743  1.00  0.00    -0.256 A  
HETATM   28  C   UNL     1     -10.693   7.437  70.058  1.00  0.00    -0.258 A  
HETATM   29  O   UNL     1     -13.627   7.239  72.251  1.00  0.00    -0.508 OA 
HETATM   30  C   UNL     1      -9.998   7.049  72.339  1.00  0.00    -0.184 A  
HETATM   31  C   UNL     1     -12.032   7.430  70.466  1.00  0.00    -0.140 A  
HETATM   32  H   UNL     1     -13.837   7.107  73.168  1.00  0.00     0.000 HD 
HETATM   33  C   UNL     1     -12.339   7.236  71.807  1.00  0.00    -0.341 A  
ENDBRANCH  25  26
BRANCH  25  34
HETATM   34  N   UNL     1      -7.705   5.921  70.375  1.00  0.00    -0.094 N  
HETATM   35  H   UNL     1      -6.740   5.722  70.639  1.00  0.00     0.000 HD 
BRANCH  34  36
HETATM   36  C   UNL     1      -8.480   4.902  69.894  1.00  0.00    -0.079 C  
HETATM   37  O   UNL     1      -9.333   4.364  70.595  1.00  0.00    -0.126 OA 
BRANCH  36  38
HETATM   38  N   UNL     1      -8.248   4.535  68.574  1.00  0.00    -0.082 N  
HETATM   39  C   UNL     1      -6.863   4.403  68.134  1.00  0.00    -0.055 C  
HETATM   40  N   UNL     1      -7.608   3.215  66.136  1.00  0.00    -0.076 N  
HETATM   41  C   UNL     1      -6.668   3.192  67.242  1.00  0.00    -0.045 C  
HETATM   42  C   UNL     1      -8.948   3.507  66.380  1.00  0.00    -0.145 C  
HETATM   43  O   UNL     1     -10.388   4.844  67.751  1.00  0.00    -0.106 OA 
HETATM   44  C   UNL     1      -9.269   4.347  67.639  1.00  0.00    -0.143 C  
HETATM   45  O   UNL     1      -9.864   3.169  65.641  1.00  0.00     0.012 OA 
BRANCH  40  46
HETATM   46  C   UNL     1      -7.209   2.712  64.826  1.00  0.00    -0.058 C  
HETATM   47  C   UNL     1      -6.774   3.787  63.849  1.00  0.00    -0.043 C  
ENDBRANCH  40  46
ENDBRANCH  36  38
ENDBRANCH  34  36
ENDBRANCH  25  34
ENDBRANCH  24  25
ENDBRANCH   6  21
TORSDOF 10
ENDMDL
MODEL      180
REMARK 921   NORMALIZED FREE ENERGY PREDICTED BY IDOCK:   -3.44 KCAL/MOL
REMARK 922        TOTAL FREE ENERGY PREDICTED BY IDOCK:   -7.75 KCAL/MOL
REMARK 923 INTER-LIGAND FREE ENERGY PREDICTED BY IDOCK:   -7.30 KCAL/MOL
REMARK 924 INTRA-LIGAND FREE ENERGY PREDICTED BY IDOCK:   -0.45 KCAL/MOL
REMARK 927      BINDING AFFINITY PREDICTED BY RF-SCORE:    0.00 PKD
ROOT
HETATM    1  C   UNL     1     -11.109   8.819  68.517  1.00  0.00     0.293 C  
HETATM    2  S   UNL     1     -10.384  10.246  69.360  1.00  0.00    -0.248 SA 
HETATM    3  C   UNL     1     -10.215  11.205  67.839  1.00  0.00    -0.180 C  
HETATM    4  C   UNL     1      -9.613  10.452  66.658  1.00  0.00    -0.219 C  
HETATM    5  CA  UNL     1      -9.559   9.090  66.571  1.00  0.00    -0.223 C  
HETATM    6  CA  UNL     1     -10.947   7.446  69.261  1.00  0.00    -0.070 C  
HETATM    7  O   UNL     1      -9.722   6.066  67.386  1.00  0.00    -0.109 OA 
HETATM    8  N   UNL     1     -10.154   8.330  67.542  1.00  0.00    -0.206 N  
HETATM    9  C   UNL     1      -8.771   8.422  65.457  1.00  0.00    -0.162 C  
HETATM   10  OXT UNL     1      -7.952   9.007  64.763  1.00  0.00    -0.115 OA 
HETATM   11  O   UNL     1      -9.077   7.138  65.188  1.00  0.00     0.269 OA 
HETATM   12  C   UNL     1     -10.179   7.037  67.944  1.00  0.00    -0.183 C  
ENDROOT
BRANCH   4  13
HETATM   13  C   UNL     1      -8.974  11.436  65.677  1.00  0.00    -0.123 C  
BRANCH  13  14
HETATM   14  S   UNL     1      -9.950  11.835  64.206  1.00  0.00    -0.240 SA 
BRANCH  14  15
HETATM   15  C   UNL     1     -11.280  12.738  64.805  1.00  0.00    -0.305 A  
HETATM   16  N   UNL     1     -12.546  12.399  64.833  1.00  0.00    -0.600 NA 
HETATM   17  C   UNL     1      -9.983  14.798  65.523  1.00  0.00    -0.356 C  
HETATM   18  N   UNL     1     -13.212  13.480  65.361  1.00  0.00    -0.531 NA 
HETATM   19  N   UNL     1     -11.156  13.997  65.320  1.00  0.00    -0.312 NA 
HETATM   20  N   UNL     1     -12.372  14.462  65.659  1.00  0.00    -0.371 NA 
ENDBRANCH  14  15
ENDBRANCH  13  14
ENDBRANCH   4  13
BRANCH   6  21
HETATM   21  N   UNL     1     -10.151   7.508  70.520  1.00  0.00    -0.188 N  
HETATM   22  H   UNL     1      -9.164   7.252  70.479  1.00  0.00     0.000 HD 
HETATM   23  O   UNL     1     -11.806   8.367  71.831  1.00  0.00    -0.293 OA 
HETATM   24  C   UNL     1     -10.677   7.891  71.736  1.00  0.00    -0.232 C  
BRANCH  24  25
HETATM   25  CA  UNL     1      -9.809   7.512  72.968  1.00  0.00    -0.238 C  
BRANCH  25  26
HETATM   26  C   UNL     1     -10.020   6.056  73.360  1.00  0.00    -0.186 A  
HETATM   27  C   UNL     1      -9.225   3.978  74.354  1.00  0.00    -0.115 A  
HETATM   28  C   UNL     1     -11.255   5.437  73.117  1.00  0.00    -0.355 A  
HETATM   29  O   UNL     1     -10.637   2.101  74.511  1.00  0.00    -0.138 OA 
HETATM   30  C   UNL     1      -9.006   5.307  73.987  1.00  0.00    -0.119 A  
HETATM   31  C   UNL     1     -11.477   4.107  73.491  1.00  0.00    -0.228 A  
HETATM   32  H   UNL     1      -9.943   1.612  74.936  1.00  0.00     0.000 HD 
HETATM   33  C   UNL     1     -10.460   3.392  74.113  1.00  0.00    -0.194 A  
ENDBRANCH  25  26
BRANCH  25  34
HETATM   34  N   UNL     1      -8.389   7.756  72.726  1.00  0.00    -0.123 N  
HETATM   35  H   UNL     1      -7.714   7.468  73.435  1.00  0.00     0.000 HD 
BRANCH  34  36
HETATM   36  C   UNL     1      -7.929   8.354  71.586  1.00  0.00    -0.134 C  
HETATM   37  O   UNL     1      -8.079   9.558  71.393  1.00  0.00    -0.252 OA 
BRANCH  36  38
HETATM   38  N   UNL     1      -7.279   7.522  70.684  1.00  0.00    -0.066 N  
HETATM   39  C   UNL     1      -6.986   6.155  71.103  1.00  0.00    -0.068 C  
HETATM   40  N   UNL     1      -6.530   5.539  68.785  1.00  0.00    -0.041 N  
HETATM   41  C   UNL     1      -7.244   5.158  69.990  1.00  0.00    -0.059 C  
HETATM   42  C   UNL     1      -6.570   6.863  68.355  1.00  0.00    -0.062 C  
HETATM   43  O   UNL     1      -6.627   9.124  69.147  1.00  0.00    -0.049 OA 
HETATM   44  C   UNL     1      -6.841   7.946  69.426  1.00  0.00    -0.047 C  
HETATM   45  O   UNL     1      -6.368   7.210  67.198  1.00  0.00    -0.048 OA 
BRANCH  40  46
HETATM   46  C   UNL     1      -5.974   4.515  67.908  1.00  0.00    -0.027 C  
HETATM   47  C   UNL     1      -6.873   3.311  67.702  1.00  0.00    -0.049 C  
ENDBRANCH  40  46
ENDBRANCH  36  38
ENDBRANCH  34  36
ENDBRANCH  25  34
ENDBRANCH  24  25
ENDBRANCH   6  21
TORSDOF 10
ENDMDL
MODEL      181
REMARK 921   NORMALIZED FREE ENERGY PREDICTED BY IDOCK:   -3.37 KCAL/MOL
REMARK 922        TOTAL FREE ENERGY PREDICTED BY IDOCK:   -7.64 KCAL/MOL
REMARK 923 INTER-LIGAND FREE ENERGY PREDICTED BY IDOCK:   -7.69 KCAL/MOL
REMARK 924 INTRA-LIGAND FREE ENERGY PREDICTED BY IDOCK:    0.06 KCAL/MOL
REMARK 927      BINDING AFFINITY PREDICTED BY RF-SCORE:    0.00 PKD
ROOT
HETATM    1  C   UNL     1      -6.520  10.756  69.248  1.00  0.00    -0.067 C  
HETATM    2  S   UNL     1      -7.222   9.585  70.434  1.00  0.00    -0.137 SA 
HETATM    3  C   UNL     1      -6.040   8.283  70.023  1.00  0.00    -0.028 C  
HETATM    4  C   UNL     1      -5.829   8.041  68.532  1.00  0.00    -0.039 C  
HETATM    5  CA  UNL     1      -6.159   8.944  67.561  1.00  0.00    -0.051 C  
HETATM    6  CA  UNL     1      -7.498  11.882  68.757  1.00  0.00    -0.100 C  
HETATM    7  O   UNL     1      -7.394  11.464  66.162  1.00  0.00    -0.020 OA 
HETATM    8  N   UNL     1      -6.622  10.181  67.921  1.00  0.00    -0.065 N  
HETATM    9  C   UNL     1      -6.098   8.550  66.095  1.00  0.00    -0.052 C  
HETATM   10  OXT UNL     1      -6.023   7.393  65.707  1.00  0.00    -0.036 OA 
HETATM   11  O   UNL     1      -6.038   9.557  65.202  1.00  0.00    -0.066 OA 
HETATM   12  C   UNL     1      -7.217  11.249  67.339  1.00  0.00    -0.110 C  
ENDROOT
BRANCH   4  13
HETATM   13  C   UNL     1      -5.331   6.615  68.295  1.00  0.00    -0.012 C  
BRANCH  13  14
HETATM   14  S   UNL     1      -6.506   5.293  68.680  1.00  0.00    -0.041 SA 
BRANCH  14  15
HETATM   15  C   UNL     1      -7.740   5.458  67.500  1.00  0.00    -0.092 A  
HETATM   16  N   UNL     1      -8.726   6.322  67.472  1.00  0.00    -0.107 NA 
HETATM   17  C   UNL     1      -7.010   3.555  65.989  1.00  0.00    -0.062 C  
HETATM   18  N   UNL     1      -9.464   6.012  66.353  1.00  0.00    -0.157 NA 
HETATM   19  N   UNL     1      -7.851   4.637  66.414  1.00  0.00    -0.098 NA 
HETATM   20  N   UNL     1      -8.939   4.982  65.703  1.00  0.00    -0.145 NA 
ENDBRANCH  14  15
ENDBRANCH  13  14
ENDBRANCH   4  13
BRANCH   6  21
HETATM   21  N   UNL     1      -8.888  11.776  69.285  1.00  0.00    -0.138 N  
HETATM   22  H   UNL     1      -9.131  10.958  69.844  1.00  0.00     0.000 HD 
HETATM   23  O   UNL     1      -9.605  13.807  68.536  1.00  0.00    -0.216 OA 
HETATM   24  C   UNL     1      -9.864  12.724  69.057  1.00  0.00     0.306 C  
BRANCH  24  25
HETATM   25  CA  UNL     1     -11.314  12.246  69.344  1.00  0.00    -0.228 C  
BRANCH  25  26
HETATM   26  C   UNL     1     -12.033  13.206  70.281  1.00  0.00    -0.366 A  
HETATM   27  C   UNL     1     -12.465  15.457  71.110  1.00  0.00    -0.463 A  
HETATM   28  C   UNL     1     -12.987  12.719  71.187  1.00  0.00    -0.244 A  
HETATM   29  O   UNL     1     -14.073  15.836  72.787  1.00  0.00    -0.576 OA 
HETATM   30  C   UNL     1     -11.782  14.592  70.253  1.00  0.00    -0.356 A  
HETATM   31  C   UNL     1     -13.677  13.588  72.040  1.00  0.00    -0.568 A  
HETATM   32  H   UNL     1     -13.893  16.767  72.752  1.00  0.00     0.000 HD 
HETATM   33  C   UNL     1     -13.412  14.951  71.988  1.00  0.00    -0.388 A  
ENDBRANCH  25  26
BRANCH  25  34
HETATM   34  N   UNL     1     -12.087  12.087  68.114  1.00  0.00    -0.138 N  
HETATM   35  H   UNL     1     -12.869  11.433  68.107  1.00  0.00     0.000 HD 
BRANCH  34  36
HETATM   36  C   UNL     1     -11.801  12.783  66.973  1.00  0.00    -0.361 C  
HETATM   37  O   UNL     1     -12.248  13.912  66.786  1.00  0.00    -0.429 OA 
BRANCH  36  38
HETATM   38  N   UNL     1     -10.973  12.140  66.061  1.00  0.00    -0.281 N  
HETATM   39  C   UNL     1     -10.389  10.862  66.453  1.00  0.00    -0.251 C  
HETATM   40  N   UNL     1      -9.782  10.425  64.128  1.00  0.00    -0.318 N  
HETATM   41  C   UNL     1     -10.406   9.862  65.312  1.00  0.00     0.140 C  
HETATM   42  C   UNL     1     -10.111  11.718  63.730  1.00  0.00    -0.391 C  
HETATM   43  O   UNL     1     -10.677  13.888  64.574  1.00  0.00    -0.412 OA 
HETATM   44  C   UNL     1     -10.627  12.685  64.822  1.00  0.00    -0.317 C  
HETATM   45  O   UNL     1      -9.979  12.132  62.584  1.00  0.00     0.114 OA 
BRANCH  40  46
HETATM   46  C   UNL     1      -9.004   9.573  63.236  1.00  0.00    -0.182 C  
HETATM   47  C   UNL     1      -7.713  10.198  62.743  1.00  0.00    -0.147 C  
ENDBRANCH  40  46
ENDBRANCH  36  38
ENDBRANCH  34  36
ENDBRANCH  25  34
ENDBRANCH  24  25
ENDBRANCH   6  21
TORSDOF 10
ENDMDL
MODEL      182
REMARK 921   NORMALIZED FREE ENERGY PREDICTED BY IDOCK:   -3.36 KCAL/MOL
REMARK 922        TOTAL FREE ENERGY PREDICTED BY IDOCK:   -7.62 KCAL/MOL
REMARK 923 INTER-LIGAND FREE ENERGY PREDICTED BY IDOCK:   -7.72 KCAL/MOL
REMARK 924 INTRA-LIGAND FREE ENERGY PREDICTED BY IDOCK:    0.10 KCAL/MOL
REMARK 927      BINDING AFFINITY PREDICTED BY RF-SCORE:    0.00 PKD
ROOT
HETATM    1  C   UNL     1     -11.766  15.482  67.720  1.00  0.00    -0.088 C  
HETATM    2  S   UNL     1     -10.534  14.784  66.595  1.00  0.00    -0.293 SA 
HETATM    3  C   UNL     1     -11.431  13.229  66.393  1.00  0.00    -0.329 C  
HETATM    4  C   UNL     1     -11.937  12.596  67.685  1.00  0.00    -0.309 C  
HETATM    5  CA  UNL     1     -12.081  13.277  68.860  1.00  0.00    -0.222 C  
HETATM    6  CA  UNL     1     -11.238  16.611  68.675  1.00  0.00    -0.235 C  
HETATM    7  O   UNL     1     -11.871  15.559  71.002  1.00  0.00    -0.310 OA 
HETATM    8  N   UNL     1     -11.856  14.627  68.888  1.00  0.00    -0.314 N  
HETATM    9  C   UNL     1     -12.402  12.532  70.144  1.00  0.00    -0.138 C  
HETATM   10  OXT UNL     1     -12.290  11.321  70.272  1.00  0.00    -0.312 OA 
HETATM   11  O   UNL     1     -12.919  13.262  71.152  1.00  0.00    -0.296 OA 
HETATM   12  C   UNL     1     -11.697  15.610  69.806  1.00  0.00    -0.357 C  
ENDROOT
BRANCH   4  13
HETATM   13  C   UNL     1     -12.118  11.090  67.497  1.00  0.00     0.897 C  
BRANCH  13  14
HETATM   14  S   UNL     1     -10.597  10.112  67.420  1.00  0.00    -0.271 SA 
BRANCH  14  15
HETATM   15  C   UNL     1     -10.114  10.196  65.777  1.00  0.00    -0.254 A  
HETATM   16  N   UNL     1     -10.401  11.121  64.892  1.00  0.00    -0.296 NA 
HETATM   17  C   UNL     1      -8.779   8.039  65.712  1.00  0.00    -0.146 C  
HETATM   18  N   UNL     1      -9.822  10.707  63.716  1.00  0.00    -0.320 NA 
HETATM   19  N   UNL     1      -9.357   9.235  65.169  1.00  0.00    -0.219 NA 
HETATM   20  N   UNL     1      -9.185   9.555  63.875  1.00  0.00    -0.145 NA 
ENDBRANCH  14  15
ENDBRANCH  13  14
ENDBRANCH   4  13
BRANCH   6  21
HETATM   21  N   UNL     1      -9.777  16.889  68.567  1.00  0.00    -0.253 N  
HETATM   22  H   UNL     1      -9.482  17.721  68.055  1.00  0.00     0.000 HD 
HETATM   23  O   UNL     1      -9.086  15.163  69.885  1.00  0.00    -0.089 OA 
HETATM   24  C   UNL     1      -8.805  16.084  69.121  1.00  0.00    -0.245 C  
BRANCH  24  25
HETATM   25  CA  UNL     1      -7.372  16.321  68.568  1.00  0.00    -0.169 C  
BRANCH  25  26
HETATM   26  C   UNL     1      -6.819  17.660  69.034  1.00  0.00    -0.240 A  
HETATM   27  C   UNL     1      -5.358  18.984  70.466  1.00  0.00    -0.231 A  
HETATM   28  C   UNL     1      -7.245  18.846  68.416  1.00  0.00    -0.309 A  
HETATM   29  O   UNL     1      -5.246  21.325  70.238  1.00  0.00    -0.566 OA 
HETATM   30  C   UNL     1      -5.865  17.747  70.066  1.00  0.00    -0.221 A  
HETATM   31  C   UNL     1      -6.731  20.086  68.813  1.00  0.00    -0.344 A  
HETATM   32  H   UNL     1      -4.601  21.363  70.933  1.00  0.00     0.000 HD 
HETATM   33  C   UNL     1      -5.787  20.141  69.831  1.00  0.00    -0.334 A  
ENDBRANCH  25  26
BRANCH  25  34
HETATM   34  N   UNL     1      -6.457  15.250  68.956  1.00  0.00    -0.106 N  
HETATM   35  H   UNL     1      -6.222  15.138  69.942  1.00  0.00     0.000 HD 
BRANCH  34  36
HETATM   36  C   UNL     1      -5.904  14.391  68.047  1.00  0.00    -0.143 C  
HETATM   37  O   UNL     1      -5.501  14.790  66.957  1.00  0.00     0.095 OA 
BRANCH  36  38
HETATM   38  N   UNL     1      -5.817  13.062  68.442  1.00  0.00    -0.071 N  
HETATM   39  C   UNL     1      -5.170  12.769  69.716  1.00  0.00    -0.083 C  
HETATM   40  N   UNL     1      -6.102  10.512  69.673  1.00  0.00    -0.049 N  
HETATM   41  C   UNL     1      -5.911  11.697  70.491  1.00  0.00    -0.078 C  
HETATM   42  C   UNL     1      -6.549  10.650  68.361  1.00  0.00    -0.055 C  
HETATM   43  O   UNL     1      -6.402  12.069  66.436  1.00  0.00     0.001 OA 
HETATM   44  C   UNL     1      -6.264  11.997  67.655  1.00  0.00    -0.096 C  
HETATM   45  O   UNL     1      -7.115   9.761  67.737  1.00  0.00    -0.085 OA 
BRANCH  40  46
HETATM   46  C   UNL     1      -6.053   9.187  70.280  1.00  0.00    -0.040 C  
HETATM   47  C   UNL     1      -5.399   9.149  71.648  1.00  0.00    -0.054 C  
ENDBRANCH  40  46
ENDBRANCH  36  38
ENDBRANCH  34  36
ENDBRANCH  25  34
ENDBRANCH  24  25
ENDBRANCH   6  21
TORSDOF 10
ENDMDL
MODEL      183
REMARK 921   NORMALIZED FREE ENERGY PREDICTED BY IDOCK:   -3.35 KCAL/MOL
REMARK 922        TOTAL FREE ENERGY PREDICTED BY IDOCK:   -7.60 KCAL/MOL
REMARK 923 INTER-LIGAND FREE ENERGY PREDICTED BY IDOCK:   -6.69 KCAL/MOL
REMARK 924 INTRA-LIGAND FREE ENERGY PREDICTED BY IDOCK:   -0.92 KCAL/MOL
REMARK 927      BINDING AFFINITY PREDICTED BY RF-SCORE:    0.00 PKD
ROOT
HETATM    1  C   UNL     1     -11.477   9.182  68.754  1.00  0.00     0.635 C  
HETATM    2  S   UNL     1     -10.892  10.172  70.150  1.00  0.00    -0.314 SA 
HETATM    3  C   UNL     1     -11.207  11.743  69.317  1.00  0.00    -0.256 C  
HETATM    4  C   UNL     1     -10.709  11.828  67.877  1.00  0.00    -0.241 C  
HETATM    5  CA  UNL     1     -10.411  10.739  67.110  1.00  0.00    -0.237 C  
HETATM    6  CA  UNL     1     -10.912   7.718  68.686  1.00  0.00     0.166 C  
HETATM    7  O   UNL     1      -9.828   7.768  66.289  1.00  0.00    -0.164 OA 
HETATM    8  N   UNL     1     -10.651   9.483  67.601  1.00  0.00    -0.264 N  
HETATM    9  C   UNL     1      -9.739  10.913  65.759  1.00  0.00    -0.224 C  
HETATM   10  OXT UNL     1      -9.196  11.948  65.401  1.00  0.00    -0.109 OA 
HETATM   11  O   UNL     1      -9.837   9.880  64.899  1.00  0.00    -0.315 OA 
HETATM   12  C   UNL     1     -10.348   8.200  67.293  1.00  0.00    -0.303 C  
ENDROOT
BRANCH   4  13
HETATM   13  C   UNL     1     -10.473  13.288  67.488  1.00  0.00    -0.235 C  
BRANCH  13  14
HETATM   14  S   UNL     1     -11.822  14.436  67.861  1.00  0.00    -0.321 SA 
BRANCH  14  15
HETATM   15  C   UNL     1     -11.035  15.894  68.304  1.00  0.00    -0.329 A  
HETATM   16  N   UNL     1     -10.815  16.366  69.507  1.00  0.00    -0.327 NA 
HETATM   17  C   UNL     1     -10.530  16.722  65.959  1.00  0.00    -0.293 C  
HETATM   18  N   UNL     1     -10.198  17.582  69.327  1.00  0.00    -0.260 NA 
HETATM   19  N   UNL     1     -10.550  16.789  67.392  1.00  0.00    -0.315 NA 
HETATM   20  N   UNL     1     -10.035  17.849  68.038  1.00  0.00    -0.315 NA 
ENDBRANCH  14  15
ENDBRANCH  13  14
ENDBRANCH   4  13
BRANCH   6  21
HETATM   21  N   UNL     1      -9.916   7.383  69.743  1.00  0.00    -0.186 N  
HETATM   22  H   UNL     1      -8.932   7.571  69.555  1.00  0.00     0.000 HD 
HETATM   23  O   UNL     1     -11.425   6.730  71.322  1.00  0.00    -0.271 OA 
HETATM   24  C   UNL     1     -10.255   6.832  70.961  1.00  0.00    -0.197 C  
BRANCH  24  25
HETATM   25  CA  UNL     1      -9.069   6.202  71.742  1.00  0.00    -0.144 C  
BRANCH  25  26
HETATM   26  C   UNL     1      -9.510   4.960  72.504  1.00  0.00    -0.164 A  
HETATM   27  C   UNL     1     -10.884   3.872  74.198  1.00  0.00    -0.233 A  
HETATM   28  C   UNL     1      -8.962   3.709  72.183  1.00  0.00    -0.137 A  
HETATM   29  O   UNL     1     -10.776   1.543  74.522  1.00  0.00    -0.121 OA 
HETATM   30  C   UNL     1     -10.481   5.025  73.522  1.00  0.00    -0.278 A  
HETATM   31  C   UNL     1      -9.371   2.553  72.855  1.00  0.00    -0.126 A  
HETATM   32  H   UNL     1     -11.434   1.606  75.203  1.00  0.00     0.000 HD 
HETATM   33  C   UNL     1     -10.335   2.646  73.853  1.00  0.00    -0.135 A  
ENDBRANCH  25  26
BRANCH  25  34
HETATM   34  N   UNL     1      -7.955   5.865  70.857  1.00  0.00    -0.109 N  
HETATM   35  H   UNL     1      -7.845   4.898  70.552  1.00  0.00     0.000 HD 
BRANCH  34  36
HETATM   36  C   UNL     1      -7.055   6.798  70.422  1.00  0.00    -0.068 C  
HETATM   37  O   UNL     1      -6.449   7.517  71.213  1.00  0.00    -0.039 OA 
BRANCH  36  38
HETATM   38  N   UNL     1      -6.865   6.863  69.047  1.00  0.00    -0.066 N  
HETATM   39  C   UNL     1      -7.172   8.121  68.374  1.00  0.00    -0.093 C  
HETATM   40  N   UNL     1      -5.963   7.358  66.394  1.00  0.00    -0.036 N  
HETATM   41  C   UNL     1      -6.136   8.463  67.321  1.00  0.00    -0.055 C  
HETATM   42  C   UNL     1      -5.836   6.063  66.888  1.00  0.00    -0.017 C  
HETATM   43  O   UNL     1      -6.597   4.603  68.630  1.00  0.00    -0.043 OA 
HETATM   44  C   UNL     1      -6.455   5.772  68.276  1.00  0.00    -0.046 C  
HETATM   45  O   UNL     1      -5.300   5.149  66.274  1.00  0.00    -0.011 OA 
BRANCH  40  46
HETATM   46  C   UNL     1      -5.693   7.620  64.985  1.00  0.00    -0.037 C  
HETATM   47  C   UNL     1      -5.439   9.079  64.657  1.00  0.00    -0.054 C  
ENDBRANCH  40  46
ENDBRANCH  36  38
ENDBRANCH  34  36
ENDBRANCH  25  34
ENDBRANCH  24  25
ENDBRANCH   6  21
TORSDOF 10
ENDMDL
MODEL      184
REMARK 921   NORMALIZED FREE ENERGY PREDICTED BY IDOCK:   -3.33 KCAL/MOL
REMARK 922        TOTAL FREE ENERGY PREDICTED BY IDOCK:   -7.58 KCAL/MOL
REMARK 923 INTER-LIGAND FREE ENERGY PREDICTED BY IDOCK:   -6.91 KCAL/MOL
REMARK 924 INTRA-LIGAND FREE ENERGY PREDICTED BY IDOCK:   -0.67 KCAL/MOL
REMARK 927      BINDING AFFINITY PREDICTED BY RF-SCORE:    0.00 PKD
ROOT
HETATM    1  C   UNL     1      -7.495   8.673  67.718  1.00  0.00    -0.097 C  
HETATM    2  S   UNL     1      -7.858   7.684  66.248  1.00  0.00    -0.094 SA 
HETATM    3  C   UNL     1      -8.578   9.075  65.348  1.00  0.00    -0.177 C  
HETATM    4  C   UNL     1      -9.574   9.917  66.139  1.00  0.00    -0.275 C  
HETATM    5  CA  UNL     1      -9.655   9.918  67.503  1.00  0.00    -0.157 C  
HETATM    6  CA  UNL     1      -7.371   7.863  69.057  1.00  0.00    -0.088 C  
HETATM    7  O   UNL     1      -9.200   9.092  70.494  1.00  0.00    -0.182 OA 
HETATM    8  N   UNL     1      -8.743   9.204  68.232  1.00  0.00    -0.129 N  
HETATM    9  C   UNL     1     -10.798  10.633  68.202  1.00  0.00    -0.245 C  
HETATM   10  OXT UNL     1     -11.817  11.000  67.634  1.00  0.00    -0.599 OA 
HETATM   11  O   UNL     1     -10.612  10.940  69.501  1.00  0.00    -0.229 OA 
HETATM   12  C   UNL     1      -8.570   8.785  69.508  1.00  0.00    -0.130 C  
ENDROOT
BRANCH   4  13
HETATM   13  C   UNL     1     -10.531  10.634  65.186  1.00  0.00    -0.201 C  
BRANCH  13  14
HETATM   14  S   UNL     1      -9.786  11.882  64.107  1.00  0.00    -0.165 SA 
BRANCH  14  15
HETATM   15  C   UNL     1     -10.859  13.218  64.191  1.00  0.00    -0.343 A  
HETATM   16  N   UNL     1     -10.671  14.375  64.779  1.00  0.00    -0.417 NA 
HETATM   17  C   UNL     1     -12.777  12.185  62.889  1.00  0.00     0.401 C  
HETATM   18  N   UNL     1     -11.839  15.079  64.605  1.00  0.00    -0.412 NA 
HETATM   19  N   UNL     1     -12.112  13.207  63.647  1.00  0.00    -0.595 NA 
HETATM   20  N   UNL     1     -12.726  14.372  63.917  1.00  0.00    -0.721 NA 
ENDBRANCH  14  15
ENDBRANCH  13  14
ENDBRANCH   4  13
BRANCH   6  21
HETATM   21  N   UNL     1      -7.645   6.403  68.933  1.00  0.00    -0.098 N  
HETATM   22  H   UNL     1      -6.851   5.767  68.870  1.00  0.00     0.000 HD 
HETATM   23  O   UNL     1      -9.912   6.548  69.132  1.00  0.00    -0.142 OA 
HETATM   24  C   UNL     1      -8.916   5.867  68.898  1.00  0.00    -0.118 C  
BRANCH  24  25
HETATM   25  CA  UNL     1      -8.990   4.406  68.374  1.00  0.00    -0.115 C  
BRANCH  25  26
HETATM   26  C   UNL     1      -9.119   4.373  66.858  1.00  0.00    -0.136 A  
HETATM   27  C   UNL     1      -8.154   4.070  64.640  1.00  0.00    -0.093 A  
HETATM   28  C   UNL     1     -10.369   4.584  66.257  1.00  0.00    -0.227 A  
HETATM   29  O   UNL     1      -9.501   4.195  62.714  1.00  0.00    -0.124 OA 
HETATM   30  C   UNL     1      -8.011   4.113  66.028  1.00  0.00    -0.094 A  
HETATM   31  C   UNL     1     -10.513   4.534  64.866  1.00  0.00    -0.045 A  
HETATM   32  H   UNL     1      -8.743   4.015  62.171  1.00  0.00     0.000 HD 
HETATM   33  C   UNL     1      -9.403   4.271  64.071  1.00  0.00    -0.141 A  
ENDBRANCH  25  26
BRANCH  25  34
HETATM   34  N   UNL     1      -7.828   3.622  68.786  1.00  0.00    -0.055 N  
HETATM   35  H   UNL     1      -6.927   3.812  68.348  1.00  0.00     0.000 HD 
BRANCH  34  36
HETATM   36  C   UNL     1      -7.902   2.643  69.738  1.00  0.00    -0.042 C  
HETATM   37  O   UNL     1      -7.590   1.482  69.484  1.00  0.00    -0.042 OA 
BRANCH  36  38
HETATM   38  N   UNL     1      -8.334   3.050  70.994  1.00  0.00    -0.061 N  
HETATM   39  C   UNL     1      -7.478   3.959  71.749  1.00  0.00    -0.056 C  
HETATM   40  N   UNL     1      -9.330   4.445  73.265  1.00  0.00    -0.119 N  
HETATM   41  C   UNL     1      -8.283   5.036  72.451  1.00  0.00    -0.120 C  
HETATM   42  C   UNL     1     -10.120   3.428  72.734  1.00  0.00    -0.161 C  
HETATM   43  O   UNL     1     -10.055   1.529  71.274  1.00  0.00    -0.113 OA 
HETATM   44  C   UNL     1      -9.510   2.585  71.589  1.00  0.00    -0.136 C  
HETATM   45  O   UNL     1     -11.240   3.150  73.145  1.00  0.00    -0.115 OA 
BRANCH  40  46
HETATM   46  C   UNL     1      -9.706   5.059  74.534  1.00  0.00    -0.168 C  
HETATM   47  C   UNL     1     -10.843   6.058  74.433  1.00  0.00     0.470 C  
ENDBRANCH  40  46
ENDBRANCH  36  38
ENDBRANCH  34  36
ENDBRANCH  25  34
ENDBRANCH  24  25
ENDBRANCH   6  21
TORSDOF 10
ENDMDL
MODEL      185
REMARK 921   NORMALIZED FREE ENERGY PREDICTED BY IDOCK:   -3.33 KCAL/MOL
REMARK 922        TOTAL FREE ENERGY PREDICTED BY IDOCK:   -7.57 KCAL/MOL
REMARK 923 INTER-LIGAND FREE ENERGY PREDICTED BY IDOCK:   -6.76 KCAL/MOL
REMARK 924 INTRA-LIGAND FREE ENERGY PREDICTED BY IDOCK:   -0.81 KCAL/MOL
REMARK 927      BINDING AFFINITY PREDICTED BY RF-SCORE:    0.00 PKD
ROOT
HETATM    1  C   UNL     1      -6.776   7.625  67.183  1.00  0.00    -0.067 C  
HETATM    2  S   UNL     1      -7.199   7.809  68.932  1.00  0.00    -0.082 SA 
HETATM    3  C   UNL     1      -6.491   6.211  69.390  1.00  0.00    -0.043 C  
HETATM    4  C   UNL     1      -6.875   5.045  68.485  1.00  0.00    -0.055 C  
HETATM    5  CA  UNL     1      -7.368   5.194  67.220  1.00  0.00    -0.082 C  
HETATM    6  CA  UNL     1      -7.652   8.467  66.189  1.00  0.00    -0.089 C  
HETATM    7  O   UNL     1      -8.561   6.537  64.649  1.00  0.00     0.032 OA 
HETATM    8  N   UNL     1      -7.446   6.445  66.671  1.00  0.00    -0.081 N  
HETATM    9  C   UNL     1      -7.907   3.993  66.461  1.00  0.00    -0.093 C  
HETATM   10  OXT UNL     1      -8.180   2.925  66.988  1.00  0.00    -0.084 OA 
HETATM   11  O   UNL     1      -7.996   4.117  65.122  1.00  0.00    -0.091 OA 
HETATM   12  C   UNL     1      -8.013   7.048  65.599  1.00  0.00    -0.123 C  
ENDROOT
BRANCH   4  13
HETATM   13  C   UNL     1      -6.753   3.725  69.248  1.00  0.00    -0.041 C  
BRANCH  13  14
HETATM   14  S   UNL     1      -7.953   3.467  70.579  1.00  0.00    -0.053 SA 
BRANCH  14  15
HETATM   15  C   UNL     1      -7.012   2.915  71.903  1.00  0.00    -0.030 A  
HETATM   16  N   UNL     1      -6.256   1.846  71.973  1.00  0.00    -0.013 NA 
HETATM   17  C   UNL     1      -7.609   4.769  73.530  1.00  0.00    -0.087 C  
HETATM   18  N   UNL     1      -5.758   1.821  73.254  1.00  0.00     0.000 NA 
HETATM   19  N   UNL     1      -6.972   3.553  73.110  1.00  0.00    -0.039 NA 
HETATM   20  N   UNL     1      -6.192   2.859  73.957  1.00  0.00    -0.015 NA 
ENDBRANCH  14  15
ENDBRANCH  13  14
ENDBRANCH   4  13
BRANCH   6  21
HETATM   21  N   UNL     1      -8.756   9.238  66.827  1.00  0.00    -0.126 N  
HETATM   22  H   UNL     1      -8.563  10.191  67.134  1.00  0.00     0.000 HD 
HETATM   23  O   UNL     1     -10.376   7.661  66.538  1.00  0.00    -0.222 OA 
HETATM   24  C   UNL     1     -10.024   8.733  67.025  1.00  0.00    -0.240 C  
BRANCH  24  25
HETATM   25  CA  UNL     1     -10.889   9.528  68.041  1.00  0.00    -0.168 C  
BRANCH  25  26
HETATM   26  C   UNL     1     -10.684   9.013  69.459  1.00  0.00    -0.215 A  
HETATM   27  C   UNL     1      -9.586   9.125  71.632  1.00  0.00    -0.226 A  
HETATM   28  C   UNL     1     -11.453   7.939  69.931  1.00  0.00     0.132 A  
HETATM   29  O   UNL     1     -10.194   7.652  73.365  1.00  0.00    -0.323 OA 
HETATM   30  C   UNL     1      -9.747   9.602  70.330  1.00  0.00    -0.314 A  
HETATM   31  C   UNL     1     -11.296   7.465  71.239  1.00  0.00    -0.289 A  
HETATM   32  H   UNL     1      -9.560   8.064  73.939  1.00  0.00     0.000 HD 
HETATM   33  C   UNL     1     -10.367   8.069  72.079  1.00  0.00    -0.236 A  
ENDBRANCH  25  26
BRANCH  25  34
HETATM   34  N   UNL     1     -10.604  10.960  67.992  1.00  0.00    -0.188 N  
HETATM   35  H   UNL     1      -9.695  11.269  67.648  1.00  0.00     0.000 HD 
BRANCH  34  36
HETATM   36  C   UNL     1     -11.510  11.904  68.391  1.00  0.00    -0.299 C  
HETATM   37  O   UNL     1     -12.582  11.584  68.899  1.00  0.00    -0.203 OA 
BRANCH  36  38
HETATM   38  N   UNL     1     -11.133  13.227  68.199  1.00  0.00    -0.247 N  
HETATM   39  C   UNL     1     -11.516  14.201  69.216  1.00  0.00    -0.292 C  
HETATM   40  N   UNL     1      -9.933  15.806  68.276  1.00  0.00    -0.219 N  
HETATM   41  C   UNL     1     -10.397  15.183  69.503  1.00  0.00    -0.243 C  
HETATM   42  C   UNL     1      -9.695  15.016  67.155  1.00  0.00    -0.226 C  
HETATM   43  O   UNL     1     -10.485  13.080  65.983  1.00  0.00    -0.270 OA 
HETATM   44  C   UNL     1     -10.462  13.676  67.059  1.00  0.00    -0.270 C  
HETATM   45  O   UNL     1      -8.949  15.340  66.239  1.00  0.00    -0.299 OA 
BRANCH  40  46
HETATM   46  C   UNL     1      -9.499  17.199  68.280  1.00  0.00    -0.276 C  
HETATM   47  C   UNL     1     -10.608  18.200  68.022  1.00  0.00    -0.359 C  
ENDBRANCH  40  46
ENDBRANCH  36  38
ENDBRANCH  34  36
ENDBRANCH  25  34
ENDBRANCH  24  25
ENDBRANCH   6  21
TORSDOF 10
ENDMDL
MODEL      186
REMARK 921   NORMALIZED FREE ENERGY PREDICTED BY IDOCK:   -3.07 KCAL/MOL
REMARK 922        TOTAL FREE ENERGY PREDICTED BY IDOCK:   -7.16 KCAL/MOL
REMARK 923 INTER-LIGAND FREE ENERGY PREDICTED BY IDOCK:   -6.91 KCAL/MOL
REMARK 924 INTRA-LIGAND FREE ENERGY PREDICTED BY IDOCK:   -0.25 KCAL/MOL
REMARK 927      BINDING AFFINITY PREDICTED BY RF-SCORE:    0.00 PKD
ROOT
HETATM    1  C   UNL     1     -11.720  10.837  67.736  1.00  0.00     0.111 C  
HETATM    2  S   UNL     1     -11.621  10.295  69.459  1.00  0.00    -0.120 SA 
HETATM    3  C   UNL     1     -12.614  11.674  70.071  1.00  0.00     0.019 C  
HETATM    4  C   UNL     1     -12.225  13.047  69.532  1.00  0.00    -0.198 C  
HETATM    5  CA  UNL     1     -11.482  13.238  68.402  1.00  0.00    -0.314 C  
HETATM    6  CA  UNL     1     -10.563  10.328  66.805  1.00  0.00    -0.185 C  
HETATM    7  O   UNL     1      -9.646  12.634  65.932  1.00  0.00    -0.236 OA 
HETATM    8  N   UNL     1     -11.130  12.158  67.637  1.00  0.00    -0.251 N  
HETATM    9  C   UNL     1     -10.974  14.624  68.042  1.00  0.00    -0.267 C  
HETATM   10  OXT UNL     1     -10.956  15.562  68.825  1.00  0.00    -0.243 OA 
HETATM   11  O   UNL     1     -10.613  14.819  66.759  1.00  0.00    -0.291 OA 
HETATM   12  C   UNL     1     -10.291  11.871  66.614  1.00  0.00    -0.211 C  
ENDROOT
BRANCH   4  13
HETATM   13  C   UNL     1     -12.669  14.140  70.505  1.00  0.00    -0.309 C  
BRANCH  13  14
HETATM   14  S   UNL     1     -12.802  13.646  72.242  1.00  0.00    -0.186 SA 
BRANCH  14  15
HETATM   15  C   UNL     1     -12.592  15.105  73.120  1.00  0.00    -0.473 A  
HETATM   16  N   UNL     1     -13.014  15.394  74.327  1.00  0.00    -0.201 NA 
HETATM   17  C   UNL     1     -11.295  16.374  71.347  1.00  0.00    -0.086 C  
HETATM   18  N   UNL     1     -12.635  16.696  74.555  1.00  0.00    -0.711 NA 
HETATM   19  N   UNL     1     -11.947  16.197  72.613  1.00  0.00    -0.526 NA 
HETATM   20  N   UNL     1     -11.985  17.195  73.512  1.00  0.00     0.034 NA 
ENDBRANCH  14  15
ENDBRANCH  13  14
ENDBRANCH   4  13
BRANCH   6  21
HETATM   21  N   UNL     1      -9.509   9.533  67.496  1.00  0.00    -0.130 N  
HETATM   22  H   UNL     1      -8.850  10.025  68.098  1.00  0.00     0.000 HD 
HETATM   23  O   UNL     1     -10.227   7.486  66.792  1.00  0.00    -0.263 OA 
HETATM   24  C   UNL     1      -9.377   8.166  67.364  1.00  0.00    -0.141 C  
BRANCH  24  25
HETATM   25  CA  UNL     1      -8.009   7.597  67.832  1.00  0.00    -0.118 C  
BRANCH  25  26
HETATM   26  C   UNL     1      -7.245   6.980  66.669  1.00  0.00    -0.083 A  
HETATM   27  C   UNL     1      -6.201   5.067  65.577  1.00  0.00    -0.034 A  
HETATM   28  C   UNL     1      -6.898   7.768  65.562  1.00  0.00    -0.052 A  
HETATM   29  O   UNL     1      -5.232   5.281  63.442  1.00  0.00    -0.009 OA 
HETATM   30  C   UNL     1      -6.888   5.617  66.661  1.00  0.00    -0.063 A  
HETATM   31  C   UNL     1      -6.217   7.214  64.472  1.00  0.00    -0.037 A  
HETATM   32  H   UNL     1      -5.003   4.359  63.452  1.00  0.00     0.000 HD 
HETATM   33  C   UNL     1      -5.880   5.866  64.489  1.00  0.00    -0.025 A  
ENDBRANCH  25  26
BRANCH  25  34
HETATM   34  N   UNL     1      -7.186   8.621  68.473  1.00  0.00    -0.079 N  
HETATM   35  H   UNL     1      -6.297   8.875  68.043  1.00  0.00     0.000 HD 
BRANCH  34  36
HETATM   36  C   UNL     1      -7.564   9.251  69.626  1.00  0.00    -0.084 C  
HETATM   37  O   UNL     1      -7.715  10.469  69.667  1.00  0.00    -0.154 OA 
BRANCH  36  38
HETATM   38  N   UNL     1      -7.776   8.428  70.725  1.00  0.00    -0.076 N  
HETATM   39  C   UNL     1      -9.151   8.211  71.161  1.00  0.00    -0.154 C  
HETATM   40  N   UNL     1      -8.422   6.324  72.530  1.00  0.00    -0.121 N  
HETATM   41  C   UNL     1      -9.397   6.766  71.549  1.00  0.00    -0.153 C  
HETATM   42  C   UNL     1      -7.075   6.619  72.336  1.00  0.00    -0.073 C  
HETATM   43  O   UNL     1      -5.593   8.298  71.482  1.00  0.00    -0.034 OA 
HETATM   44  C   UNL     1      -6.739   7.852  71.464  1.00  0.00    -0.047 C  
HETATM   45  O   UNL     1      -6.159   5.983  72.844  1.00  0.00    -0.046 OA 
BRANCH  40  46
HETATM   46  C   UNL     1      -8.810   5.389  73.579  1.00  0.00    -0.119 C  
HETATM   47  C   UNL     1      -9.895   4.410  73.174  1.00  0.00    -0.173 C  
ENDBRANCH  40  46
ENDBRANCH  36  38
ENDBRANCH  34  36
ENDBRANCH  25  34
ENDBRANCH  24  25
ENDBRANCH   6  21
TORSDOF 10
ENDMDL
MODEL      187
REMARK 921   NORMALIZED FREE ENERGY PREDICTED BY IDOCK:   -2.96 KCAL/MOL
REMARK 922        TOTAL FREE ENERGY PREDICTED BY IDOCK:   -6.99 KCAL/MOL
REMARK 923 INTER-LIGAND FREE ENERGY PREDICTED BY IDOCK:   -5.62 KCAL/MOL
REMARK 924 INTRA-LIGAND FREE ENERGY PREDICTED BY IDOCK:   -1.37 KCAL/MOL
REMARK 927      BINDING AFFINITY PREDICTED BY RF-SCORE:    0.00 PKD
ROOT
HETATM    1  C   UNL     1      -8.199  11.439  66.287  1.00  0.00    -0.088 C  
HETATM    2  S   UNL     1      -6.399  11.536  66.426  1.00  0.00     0.119 SA 
HETATM    3  C   UNL     1      -6.182   9.744  66.373  1.00  0.00    -0.068 C  
HETATM    4  C   UNL     1      -7.117   8.948  67.278  1.00  0.00    -0.083 C  
HETATM    5  CA  UNL     1      -8.281   9.442  67.793  1.00  0.00    -0.114 C  
HETATM    6  CA  UNL     1      -8.984  12.678  66.847  1.00  0.00    -0.213 C  
HETATM    7  O   UNL     1     -10.532  11.472  68.599  1.00  0.00    -0.191 OA 
HETATM    8  N   UNL     1      -8.706  10.689  67.419  1.00  0.00    -0.126 N  
HETATM    9  C   UNL     1      -9.052   8.656  68.839  1.00  0.00    -0.145 C  
HETATM   10  OXT UNL     1      -8.582   7.715  69.462  1.00  0.00    -0.131 OA 
HETATM   11  O   UNL     1     -10.349   8.982  69.003  1.00  0.00    -0.210 OA 
HETATM   12  C   UNL     1      -9.632  11.601  67.802  1.00  0.00    -0.178 C  
ENDROOT
BRANCH   4  13
HETATM   13  C   UNL     1      -6.493   7.594  67.618  1.00  0.00    -0.058 C  
BRANCH  13  14
HETATM   14  S   UNL     1      -6.722   6.285  66.389  1.00  0.00    -0.058 SA 
BRANCH  14  15
HETATM   15  C   UNL     1      -8.342   5.766  66.612  1.00  0.00    -0.109 A  
HETATM   16  N   UNL     1      -9.440   6.307  66.142  1.00  0.00    -0.107 NA 
HETATM   17  C   UNL     1      -7.846   3.754  68.077  1.00  0.00    -0.073 C  
HETATM   18  N   UNL     1     -10.474   5.551  66.641  1.00  0.00    -0.271 NA 
HETATM   19  N   UNL     1      -8.682   4.683  67.372  1.00  0.00    -0.104 NA 
HETATM   20  N   UNL     1     -10.021   4.558  67.395  1.00  0.00    -0.156 NA 
ENDBRANCH  14  15
ENDBRANCH  13  14
ENDBRANCH   4  13
BRANCH   6  21
HETATM   21  N   UNL     1      -8.130  13.723  67.482  1.00  0.00    -0.173 N  
HETATM   22  H   UNL     1      -7.467  13.433  68.201  1.00  0.00     0.000 HD 
HETATM   23  O   UNL     1      -8.841  15.459  66.187  1.00  0.00    -0.307 OA 
HETATM   24  C   UNL     1      -8.190  15.060  67.150  1.00  0.00    -0.222 C  
BRANCH  24  25
HETATM   25  CA  UNL     1      -7.526  16.016  68.180  1.00  0.00    -0.128 C  
BRANCH  25  26
HETATM   26  C   UNL     1      -7.175  17.352  67.542  1.00  0.00    -0.184 A  
HETATM   27  C   UNL     1      -7.074  18.833  65.608  1.00  0.00    -0.219 A  
HETATM   28  C   UNL     1      -6.646  18.386  68.328  1.00  0.00    -0.224 A  
HETATM   29  O   UNL     1      -6.295  21.045  65.825  1.00  0.00    -0.355 OA 
HETATM   30  C   UNL     1      -7.387  17.594  66.171  1.00  0.00    -0.344 A  
HETATM   31  C   UNL     1      -6.339  19.630  67.766  1.00  0.00    -0.236 A  
HETATM   32  H   UNL     1      -6.448  21.190  64.899  1.00  0.00     0.000 HD 
HETATM   33  C   UNL     1      -6.562  19.843  66.411  1.00  0.00    -0.203 A  
ENDBRANCH  25  26
BRANCH  25  34
HETATM   34  N   UNL     1      -8.380  16.236  69.345  1.00  0.00    -0.130 N  
HETATM   35  H   UNL     1      -7.957  16.223  70.273  1.00  0.00     0.000 HD 
BRANCH  34  36
HETATM   36  C   UNL     1      -9.725  16.459  69.238  1.00  0.00    -0.221 C  
HETATM   37  O   UNL     1     -10.165  17.410  68.597  1.00  0.00    -0.321 OA 
BRANCH  36  38
HETATM   38  N   UNL     1     -10.545  15.541  69.882  1.00  0.00    -0.294 N  
HETATM   39  C   UNL     1     -10.361  15.347  71.316  1.00  0.00     0.782 C  
HETATM   40  N   UNL     1     -12.509  14.192  71.439  1.00  0.00    -0.350 N  
HETATM   41  C   UNL     1     -11.686  15.225  72.043  1.00  0.00    -0.447 C  
HETATM   42  C   UNL     1     -12.635  14.141  70.053  1.00  0.00    -0.214 C  
HETATM   43  O   UNL     1     -11.432  14.504  68.013  1.00  0.00    -0.290 OA 
HETATM   44  C   UNL     1     -11.490  14.756  69.215  1.00  0.00    -0.296 C  
HETATM   45  O   UNL     1     -13.575  13.609  69.474  1.00  0.00     2.032 OA 
BRANCH  40  46
HETATM   46  C   UNL     1     -13.375  13.366  72.272  1.00  0.00    -0.544 C  
HETATM   47  C   UNL     1     -13.167  11.873  72.103  1.00  0.00    -0.366 C  
ENDBRANCH  40  46
ENDBRANCH  36  38
ENDBRANCH  34  36
ENDBRANCH  25  34
ENDBRANCH  24  25
ENDBRANCH   6  21
TORSDOF 10
ENDMDL
MODEL      188
REMARK 921   NORMALIZED FREE ENERGY PREDICTED BY IDOCK:   -2.94 KCAL/MOL
REMARK 922        TOTAL FREE ENERGY PREDICTED BY IDOCK:   -6.95 KCAL/MOL
REMARK 923 INTER-LIGAND FREE ENERGY PREDICTED BY IDOCK:   -6.46 KCAL/MOL
REMARK 924 INTRA-LIGAND FREE ENERGY PREDICTED BY IDOCK:   -0.48 KCAL/MOL
REMARK 927      BINDING AFFINITY PREDICTED BY RF-SCORE:    0.00 PKD
ROOT
HETATM    1  C   UNL     1      -7.463  10.648  69.669  1.00  0.00    -0.115 C  
HETATM    2  S   UNL     1      -6.703  10.426  68.043  1.00  0.00    -0.065 SA 
HETATM    3  C   UNL     1      -7.751  11.668  67.255  1.00  0.00    -0.154 C  
HETATM    4  C   UNL     1      -9.238  11.566  67.579  1.00  0.00    -0.166 C  
HETATM    5  CA  UNL     1      -9.738  10.887  68.654  1.00  0.00    -0.185 C  
HETATM    6  CA  UNL     1      -7.337   9.423  70.642  1.00  0.00    -0.131 C  
HETATM    7  O   UNL     1      -9.882   8.991  71.149  1.00  0.00    -0.248 OA 
HETATM    8  N   UNL     1      -8.874  10.334  69.562  1.00  0.00    -0.177 N  
HETATM    9  C   UNL     1     -11.234  10.669  68.796  1.00  0.00    -0.279 C  
HETATM   10  OXT UNL     1     -12.032  10.830  67.884  1.00  0.00    -0.518 OA 
HETATM   11  O   UNL     1     -11.685  10.367  70.029  1.00  0.00    -0.260 OA 
HETATM   12  C   UNL     1      -8.914   9.465  70.599  1.00  0.00    -0.228 C  
ENDROOT
BRANCH   4  13
HETATM   13  C   UNL     1     -10.065  12.208  66.465  1.00  0.00    -0.209 C  
BRANCH  13  14
HETATM   14  S   UNL     1     -10.737  13.850  66.825  1.00  0.00    -0.282 SA 
BRANCH  14  15
HETATM   15  C   UNL     1     -11.252  14.447  65.302  1.00  0.00    -0.345 A  
HETATM   16  N   UNL     1     -10.918  15.571  64.714  1.00  0.00    -0.428 NA 
HETATM   17  C   UNL     1     -12.782  12.518  64.690  1.00  0.00    -0.349 C  
HETATM   18  N   UNL     1     -11.632  15.607  63.540  1.00  0.00     0.240 NA 
HETATM   19  N   UNL     1     -12.143  13.788  64.502  1.00  0.00    -0.416 NA 
HETATM   20  N   UNL     1     -12.385  14.524  63.404  1.00  0.00    -0.446 NA 
ENDBRANCH  14  15
ENDBRANCH  13  14
ENDBRANCH   4  13
BRANCH   6  21
HETATM   21  N   UNL     1      -6.673   8.224  70.054  1.00  0.00    -0.042 N  
HETATM   22  H   UNL     1      -6.344   8.279  69.091  1.00  0.00     0.000 HD 
HETATM   23  O   UNL     1      -6.700   6.958  71.951  1.00  0.00    -0.056 OA 
HETATM   24  C   UNL     1      -6.481   7.045  70.744  1.00  0.00    -0.047 C  
BRANCH  24  25
HETATM   25  CA  UNL     1      -6.143   5.818  69.853  1.00  0.00    -0.026 C  
BRANCH  25  26
HETATM   26  C   UNL     1      -7.186   4.721  70.011  1.00  0.00    -0.054 A  
HETATM   27  C   UNL     1      -7.798   2.412  70.497  1.00  0.00    -0.047 A  
HETATM   28  C   UNL     1      -8.547   5.020  69.849  1.00  0.00    -0.110 A  
HETATM   29  O   UNL     1     -10.056   1.746  70.530  1.00  0.00     0.118 OA 
HETATM   30  C   UNL     1      -6.825   3.400  70.340  1.00  0.00    -0.033 A  
HETATM   31  C   UNL     1      -9.524   4.031  70.014  1.00  0.00    -0.260 A  
HETATM   32  H   UNL     1      -9.794   0.862  70.755  1.00  0.00     0.000 HD 
HETATM   33  C   UNL     1      -9.139   2.737  70.343  1.00  0.00    -0.114 A  
ENDBRANCH  25  26
BRANCH  25  34
HETATM   34  N   UNL     1      -6.028   6.187  68.444  1.00  0.00    -0.015 N  
HETATM   35  H   UNL     1      -5.536   7.047  68.200  1.00  0.00     0.000 HD 
BRANCH  34  36
HETATM   36  C   UNL     1      -6.554   5.423  67.439  1.00  0.00    -0.053 C  
HETATM   37  O   UNL     1      -6.600   4.198  67.527  1.00  0.00    -0.044 OA 
BRANCH  36  38
HETATM   38  N   UNL     1      -7.037   6.118  66.337  1.00  0.00    -0.067 N  
HETATM   39  C   UNL     1      -8.464   6.416  66.290  1.00  0.00    -0.131 C  
HETATM   40  N   UNL     1      -8.069   8.033  64.503  1.00  0.00    -0.148 N  
HETATM   41  C   UNL     1      -8.730   7.819  65.778  1.00  0.00    -0.133 C  
HETATM   42  C   UNL     1      -6.746   7.631  64.341  1.00  0.00    -0.048 C  
HETATM   43  O   UNL     1      -5.178   5.932  64.972  1.00  0.00    -0.012 OA 
HETATM   44  C   UNL     1      -6.237   6.490  65.253  1.00  0.00    -0.034 C  
HETATM   45  O   UNL     1      -5.989   8.102  63.501  1.00  0.00    -0.069 OA 
BRANCH  40  46
HETATM   46  C   UNL     1      -8.699   8.864  63.483  1.00  0.00    -0.015 C  
HETATM   47  C   UNL     1      -9.026  10.273  63.937  1.00  0.00    -0.259 C  
ENDBRANCH  40  46
ENDBRANCH  36  38
ENDBRANCH  34  36
ENDBRANCH  25  34
ENDBRANCH  24  25
ENDBRANCH   6  21
TORSDOF 10
ENDMDL
MODEL      189
REMARK 921   NORMALIZED FREE ENERGY PREDICTED BY IDOCK:   -2.82 KCAL/MOL
REMARK 922        TOTAL FREE ENERGY PREDICTED BY IDOCK:   -6.76 KCAL/MOL
REMARK 923 INTER-LIGAND FREE ENERGY PREDICTED BY IDOCK:   -8.50 KCAL/MOL
REMARK 924 INTRA-LIGAND FREE ENERGY PREDICTED BY IDOCK:    1.74 KCAL/MOL
REMARK 927      BINDING AFFINITY PREDICTED BY RF-SCORE:    0.00 PKD
ROOT
HETATM    1  C   UNL     1      -8.159   9.180  68.503  1.00  0.00    -0.103 C  
HETATM    2  S   UNL     1      -9.412   9.706  69.696  1.00  0.00    -0.223 SA 
HETATM    3  C   UNL     1      -9.769   8.020  70.239  1.00  0.00    -0.175 C  
HETATM    4  C   UNL     1      -9.959   7.002  69.119  1.00  0.00    -0.165 C  
HETATM    5  CA  UNL     1      -9.523   7.190  67.838  1.00  0.00    -0.130 C  
HETATM    6  CA  UNL     1      -7.896  10.180  67.322  1.00  0.00    -0.103 C  
HETATM    7  O   UNL     1      -8.383   8.597  65.278  1.00  0.00    -0.149 OA 
HETATM    8  N   UNL     1      -8.790   8.304  67.533  1.00  0.00    -0.135 N  
HETATM    9  C   UNL     1      -9.923   6.217  66.742  1.00  0.00    -0.170 C  
HETATM   10  OXT UNL     1     -10.829   5.404  66.855  1.00  0.00    -0.237 OA 
HETATM   11  O   UNL     1      -9.162   6.217  65.630  1.00  0.00    -0.067 OA 
HETATM   12  C   UNL     1      -8.348   8.957  66.432  1.00  0.00    -0.116 C  
ENDROOT
BRANCH   4  13
HETATM   13  C   UNL     1     -10.812   5.832  69.611  1.00  0.00    -0.348 C  
BRANCH  13  14
HETATM   14  S   UNL     1      -9.938   4.556  70.552  1.00  0.00    -0.167 SA 
BRANCH  14  15
HETATM   15  C   UNL     1      -8.950   3.768  69.392  1.00  0.00    -0.115 A  
HETATM   16  N   UNL     1      -9.307   2.901  68.475  1.00  0.00    -0.190 NA 
HETATM   17  C   UNL     1      -6.739   4.806  70.081  1.00  0.00    -0.037 C  
HETATM   18  N   UNL     1      -8.147   2.532  67.836  1.00  0.00    -0.062 NA 
HETATM   19  N   UNL     1      -7.599   3.950  69.314  1.00  0.00    -0.053 NA 
HETATM   20  N   UNL     1      -7.098   3.165  68.343  1.00  0.00    -0.049 NA 
ENDBRANCH  14  15
ENDBRANCH  13  14
ENDBRANCH   4  13
BRANCH   6  21
HETATM   21  N   UNL     1      -8.773  11.386  67.316  1.00  0.00    -0.144 N  
HETATM   22  H   UNL     1      -9.703  11.304  66.905  1.00  0.00     0.000 HD 
HETATM   23  O   UNL     1      -7.363  12.737  68.491  1.00  0.00    -0.107 OA 
HETATM   24  C   UNL     1      -8.395  12.606  67.837  1.00  0.00    -0.172 C  
BRANCH  24  25
HETATM   25  CA  UNL     1      -9.272  13.805  67.385  1.00  0.00    -0.221 C  
BRANCH  25  26
HETATM   26  C   UNL     1     -10.326  14.140  68.431  1.00  0.00    -0.249 A  
HETATM   27  C   UNL     1     -12.382  13.620  69.631  1.00  0.00    -0.257 A  
HETATM   28  C   UNL     1     -10.193  15.297  69.213  1.00  0.00    -0.250 A  
HETATM   29  O   UNL     1     -13.156  15.021  71.358  1.00  0.00    -0.331 OA 
HETATM   30  C   UNL     1     -11.436  13.303  68.655  1.00  0.00    -0.339 A  
HETATM   31  C   UNL     1     -11.138  15.611  70.196  1.00  0.00    -0.347 A  
HETATM   32  H   UNL     1     -13.896  14.443  71.497  1.00  0.00     0.000 HD 
HETATM   33  C   UNL     1     -12.221  14.764  70.400  1.00  0.00    -0.336 A  
ENDBRANCH  25  26
BRANCH  25  34
HETATM   34  N   UNL     1      -8.465  14.991  67.102  1.00  0.00    -0.204 N  
HETATM   35  H   UNL     1      -8.462  15.368  66.154  1.00  0.00     0.000 HD 
BRANCH  34  36
HETATM   36  C   UNL     1      -7.715  15.614  68.061  1.00  0.00    -0.126 C  
HETATM   37  O   UNL     1      -7.415  15.044  69.107  1.00  0.00    -0.142 OA 
BRANCH  36  38
HETATM   38  N   UNL     1      -7.311  16.911  67.767  1.00  0.00    -0.152 N  
HETATM   39  C   UNL     1      -7.483  17.386  66.398  1.00  0.00    -0.305 C  
HETATM   40  N   UNL     1      -7.121  19.682  67.148  1.00  0.00    -0.203 N  
HETATM   41  C   UNL     1      -7.980  18.818  66.357  1.00  0.00    -0.282 C  
HETATM   42  C   UNL     1      -6.722  19.275  68.418  1.00  0.00    -0.263 C  
HETATM   43  O   UNL     1      -6.112  17.343  69.698  1.00  0.00    -0.239 OA 
HETATM   44  C   UNL     1      -6.698  17.753  68.698  1.00  0.00    -0.230 C  
HETATM   45  O   UNL     1      -6.362  20.046  69.299  1.00  0.00    -0.299 OA 
BRANCH  40  46
HETATM   46  C   UNL     1      -6.867  21.053  66.719  1.00  0.00    -0.256 C  
HETATM   47  C   UNL     1      -5.890  21.178  65.566  1.00  0.00    -0.252 C  
ENDBRANCH  40  46
ENDBRANCH  36  38
ENDBRANCH  34  36
ENDBRANCH  25  34
ENDBRANCH  24  25
ENDBRANCH   6  21
TORSDOF 10
ENDMDL
MODEL      190
REMARK 921   NORMALIZED FREE ENERGY PREDICTED BY IDOCK:   -2.70 KCAL/MOL
REMARK 922        TOTAL FREE ENERGY PREDICTED BY IDOCK:   -6.57 KCAL/MOL
REMARK 923 INTER-LIGAND FREE ENERGY PREDICTED BY IDOCK:   -6.49 KCAL/MOL
REMARK 924 INTRA-LIGAND FREE ENERGY PREDICTED BY IDOCK:   -0.07 KCAL/MOL
REMARK 927      BINDING AFFINITY PREDICTED BY RF-SCORE:    0.00 PKD
ROOT
HETATM    1  C   UNL     1     -10.650  10.778  66.407  1.00  0.00    -0.203 C  
HETATM    2  S   UNL     1      -8.976  11.029  65.770  1.00  0.00    -0.187 SA 
HETATM    3  C   UNL     1      -8.831   9.336  65.156  1.00  0.00    -0.198 C  
HETATM    4  C   UNL     1      -9.274   8.250  66.131  1.00  0.00    -0.250 C  
HETATM    5  CA  UNL     1     -10.078   8.479  67.212  1.00  0.00    -0.251 C  
HETATM    6  CA  UNL     1     -11.083  11.754  67.558  1.00  0.00    -0.272 C  
HETATM    7  O   UNL     1     -11.702  10.003  69.420  1.00  0.00    -0.099 OA 
HETATM    8  N   UNL     1     -10.608   9.727  67.404  1.00  0.00    -0.267 N  
HETATM    9  C   UNL     1     -10.311   7.385  68.240  1.00  0.00    -0.194 C  
HETATM   10  OXT UNL     1      -9.625   6.377  68.323  1.00  0.00    -0.124 OA 
HETATM   11  O   UNL     1     -11.393   7.523  69.031  1.00  0.00     0.172 OA 
HETATM   12  C   UNL     1     -11.251  10.416  68.376  1.00  0.00    -0.258 C  
ENDROOT
BRANCH   4  13
HETATM   13  C   UNL     1      -8.582   6.929  65.796  1.00  0.00    -0.131 C  
BRANCH  13  14
HETATM   14  S   UNL     1      -7.818   6.829  64.158  1.00  0.00    -0.080 SA 
BRANCH  14  15
HETATM   15  C   UNL     1      -8.100   5.215  63.650  1.00  0.00    -0.111 A  
HETATM   16  N   UNL     1      -9.155   4.468  63.866  1.00  0.00    -0.139 NA 
HETATM   17  C   UNL     1      -5.890   4.853  62.455  1.00  0.00    -0.014 C  
HETATM   18  N   UNL     1      -8.873   3.247  63.300  1.00  0.00    -0.092 NA 
HETATM   19  N   UNL     1      -7.186   4.481  62.948  1.00  0.00    -0.039 NA 
HETATM   20  N   UNL     1      -7.671   3.245  62.739  1.00  0.00    -0.058 NA 
ENDBRANCH  14  15
ENDBRANCH  13  14
ENDBRANCH   4  13
BRANCH   6  21
HETATM   21  N   UNL     1     -10.022  12.698  68.009  1.00  0.00    -0.214 N  
HETATM   22  H   UNL     1      -9.123  12.312  68.297  1.00  0.00     0.000 HD 
HETATM   23  O   UNL     1     -11.179  14.615  67.577  1.00  0.00    -0.307 OA 
HETATM   24  C   UNL     1     -10.190  14.067  68.059  1.00  0.00    -0.238 C  
BRANCH  24  25
HETATM   25  CA  UNL     1      -9.135  14.820  68.915  1.00  0.00    -0.168 C  
BRANCH  25  26
HETATM   26  C   UNL     1      -8.110  15.519  68.033  1.00  0.00    -0.140 A  
HETATM   27  C   UNL     1      -7.496  16.664  65.970  1.00  0.00     0.188 A  
HETATM   28  C   UNL     1      -6.798  15.704  68.494  1.00  0.00    -0.115 A  
HETATM   29  O   UNL     1      -5.320  17.509  65.664  1.00  0.00    -0.227 OA 
HETATM   30  C   UNL     1      -8.447  16.011  66.757  1.00  0.00    -0.295 A  
HETATM   31  C   UNL     1      -5.847  16.364  67.709  1.00  0.00    -0.151 A  
HETATM   32  H   UNL     1      -5.567  17.837  64.807  1.00  0.00     0.000 HD 
HETATM   33  C   UNL     1      -6.209  16.844  66.455  1.00  0.00    -0.092 A  
ENDBRANCH  25  26
BRANCH  25  34
HETATM   34  N   UNL     1      -9.757  15.793  69.811  1.00  0.00    -0.251 N  
HETATM   35  H   UNL     1      -9.550  15.743  70.809  1.00  0.00     0.000 HD 
BRANCH  34  36
HETATM   36  C   UNL     1     -10.605  16.767  69.362  1.00  0.00    -0.318 C  
HETATM   37  O   UNL     1     -11.824  16.637  69.441  1.00  0.00     0.179 OA 
BRANCH  36  38
HETATM   38  N   UNL     1     -10.001  17.901  68.835  1.00  0.00    -0.358 N  
HETATM   39  C   UNL     1      -9.059  18.630  69.679  1.00  0.00     0.720 C  
HETATM   40  N   UNL     1      -8.240  19.842  67.723  1.00  0.00    -0.300 N  
HETATM   41  C   UNL     1      -7.842  19.088  68.899  1.00  0.00    -0.297 C  
HETATM   42  C   UNL     1      -9.261  19.355  66.911  1.00  0.00    -0.322 C  
HETATM   43  O   UNL     1     -11.342  18.168  66.969  1.00  0.00     0.294 OA 
HETATM   44  C   UNL     1     -10.294  18.407  67.566  1.00  0.00    -0.393 C  
HETATM   45  O   UNL     1      -9.400  19.663  65.733  1.00  0.00    -0.386 OA 
BRANCH  40  46
HETATM   46  C   UNL     1      -7.433  20.968  67.267  1.00  0.00    -0.216 C  
HETATM   47  C   UNL     1      -5.937  20.728  67.322  1.00  0.00    -0.288 C  
ENDBRANCH  40  46
ENDBRANCH  36  38
ENDBRANCH  34  36
ENDBRANCH  25  34
ENDBRANCH  24  25
ENDBRANCH   6  21
TORSDOF 10
ENDMDL
MODEL      191
REMARK 921   NORMALIZED FREE ENERGY PREDICTED BY IDOCK:   -2.65 KCAL/MOL
REMARK 922        TOTAL FREE ENERGY PREDICTED BY IDOCK:   -6.50 KCAL/MOL
REMARK 923 INTER-LIGAND FREE ENERGY PREDICTED BY IDOCK:   -6.29 KCAL/MOL
REMARK 924 INTRA-LIGAND FREE ENERGY PREDICTED BY IDOCK:   -0.21 KCAL/MOL
REMARK 927      BINDING AFFINITY PREDICTED BY RF-SCORE:    0.00 PKD
ROOT
HETATM    1  C   UNL     1     -11.273  10.095  67.079  1.00  0.00     0.198 C  
HETATM    2  S   UNL     1     -10.936   9.680  68.806  1.00  0.00    -0.055 SA 
HETATM    3  C   UNL     1     -11.956  11.025  69.449  1.00  0.00    -0.337 C  
HETATM    4  C   UNL     1     -11.738  12.382  68.786  1.00  0.00    -0.379 C  
HETATM    5  CA  UNL     1     -11.146  12.546  67.566  1.00  0.00    -0.267 C  
HETATM    6  CA  UNL     1     -10.194   9.605  66.048  1.00  0.00    -0.185 C  
HETATM    7  O   UNL     1      -9.563  11.904  64.936  1.00  0.00    -0.185 OA 
HETATM    8  N   UNL     1     -10.802  11.444  66.831  1.00  0.00    -0.272 N  
HETATM    9  C   UNL     1     -10.791  13.936  67.066  1.00  0.00    -0.285 C  
HETATM   10  OXT UNL     1     -10.756  14.925  67.784  1.00  0.00    -0.261 OA 
HETATM   11  O   UNL     1     -10.595  14.068  65.740  1.00  0.00    -0.283 OA 
HETATM   12  C   UNL     1     -10.065  11.146  65.734  1.00  0.00    -0.249 C  
ENDROOT
BRANCH   4  13
HETATM   13  C   UNL     1     -12.151  13.505  69.738  1.00  0.00    -0.318 C  
BRANCH  13  14
HETATM   14  S   UNL     1     -12.572  12.998  71.424  1.00  0.00    -0.134 SA 
BRANCH  14  15
HETATM   15  C   UNL     1     -12.555  14.456  72.328  1.00  0.00    -0.280 A  
HETATM   16  N   UNL     1     -13.172  14.722  73.453  1.00  0.00    -0.551 NA 
HETATM   17  C   UNL     1     -11.040  15.784  70.784  1.00  0.00    -0.341 C  
HETATM   18  N   UNL     1     -12.880  16.035  73.741  1.00  0.00    -0.594 NA 
HETATM   19  N   UNL     1     -11.877  15.574  71.930  1.00  0.00    -0.388 NA 
HETATM   20  N   UNL     1     -12.092  16.564  72.814  1.00  0.00    -0.466 NA 
ENDBRANCH  14  15
ENDBRANCH  13  14
ENDBRANCH   4  13
BRANCH   6  21
HETATM   21  N   UNL     1      -9.010   8.934  66.655  1.00  0.00    -0.131 N  
HETATM   22  H   UNL     1      -8.206   9.509  66.906  1.00  0.00     0.000 HD 
HETATM   23  O   UNL     1      -9.925   6.849  66.773  1.00  0.00    -0.182 OA 
HETATM   24  C   UNL     1      -8.942   7.577  66.895  1.00  0.00    -0.135 C  
BRANCH  24  25
HETATM   25  CA  UNL     1      -7.510   7.033  67.152  1.00  0.00    -0.095 C  
BRANCH  25  26
HETATM   26  C   UNL     1      -7.011   6.219  65.966  1.00  0.00    -0.065 A  
HETATM   27  C   UNL     1      -5.432   5.846  64.147  1.00  0.00    -0.017 A  
HETATM   28  C   UNL     1      -7.667   5.033  65.605  1.00  0.00    -0.087 A  
HETATM   29  O   UNL     1      -5.602   3.937  62.778  1.00  0.00    -0.012 OA 
HETATM   30  C   UNL     1      -5.883   6.615  65.221  1.00  0.00    -0.030 A  
HETATM   31  C   UNL     1      -7.210   4.258  64.533  1.00  0.00    -0.069 A  
HETATM   32  H   UNL     1      -4.837   4.218  62.290  1.00  0.00     0.000 HD 
HETATM   33  C   UNL     1      -6.092   4.670  63.818  1.00  0.00    -0.018 A  
ENDBRANCH  25  26
BRANCH  25  34
HETATM   34  N   UNL     1      -6.565   8.109  67.442  1.00  0.00    -0.057 N  
HETATM   35  H   UNL     1      -5.829   8.312  66.766  1.00  0.00     0.000 HD 
BRANCH  34  36
HETATM   36  C   UNL     1      -6.630   8.854  68.587  1.00  0.00    -0.054 C  
HETATM   37  O   UNL     1      -6.846   8.331  69.677  1.00  0.00    -0.043 OA 
BRANCH  36  38
HETATM   38  N   UNL     1      -6.421  10.219  68.434  1.00  0.00    -0.049 N  
HETATM   39  C   UNL     1      -5.531  10.659  67.365  1.00  0.00    -0.040 C  
HETATM   40  N   UNL     1      -6.372  12.940  67.601  1.00  0.00    -0.146 N  
HETATM   41  C   UNL     1      -6.071  11.883  66.651  1.00  0.00     0.058 C  
HETATM   42  C   UNL     1      -7.068  12.634  68.768  1.00  0.00    -0.087 C  
HETATM   43  O   UNL     1      -7.344  10.932  70.432  1.00  0.00     0.053 OA 
HETATM   44  C   UNL     1      -6.972  11.180  69.287  1.00  0.00    -0.118 C  
HETATM   45  O   UNL     1      -7.711  13.454  69.412  1.00  0.00     0.279 OA 
BRANCH  40  46
HETATM   46  C   UNL     1      -6.159  14.335  67.235  1.00  0.00     0.501 C  
HETATM   47  C   UNL     1      -5.139  15.059  68.093  1.00  0.00    -0.114 C  
ENDBRANCH  40  46
ENDBRANCH  36  38
ENDBRANCH  34  36
ENDBRANCH  25  34
ENDBRANCH  24  25
ENDBRANCH   6  21
TORSDOF 10
ENDMDL
MODEL      192
REMARK 921   NORMALIZED FREE ENERGY PREDICTED BY IDOCK:   -2.54 KCAL/MOL
REMARK 922        TOTAL FREE ENERGY PREDICTED BY IDOCK:   -6.33 KCAL/MOL
REMARK 923 INTER-LIGAND FREE ENERGY PREDICTED BY IDOCK:   -6.04 KCAL/MOL
REMARK 924 INTRA-LIGAND FREE ENERGY PREDICTED BY IDOCK:   -0.29 KCAL/MOL
REMARK 927      BINDING AFFINITY PREDICTED BY RF-SCORE:    0.00 PKD
ROOT
HETATM    1  C   UNL     1      -9.833   9.721  70.372  1.00  0.00    -0.209 C  
HETATM    2  S   UNL     1      -8.357   8.774  69.932  1.00  0.00    -0.132 SA 
HETATM    3  C   UNL     1      -7.401  10.244  69.498  1.00  0.00    -0.132 C  
HETATM    4  C   UNL     1      -8.125  11.253  68.612  1.00  0.00    -0.145 C  
HETATM    5  CA  UNL     1      -9.482  11.296  68.459  1.00  0.00    -0.191 C  
HETATM    6  CA  UNL     1     -11.187   8.930  70.290  1.00  0.00    -0.197 C  
HETATM    7  O   UNL     1     -12.503  10.469  68.611  1.00  0.00    -0.112 OA 
HETATM    8  N   UNL     1     -10.270  10.458  69.202  1.00  0.00    -0.210 N  
HETATM    9  C   UNL     1     -10.107  12.201  67.412  1.00  0.00    -0.199 C  
HETATM   10  OXT UNL     1      -9.478  12.717  66.500  1.00  0.00    -0.241 OA 
HETATM   11  O   UNL     1     -11.411  12.501  67.575  1.00  0.00    -0.273 OA 
HETATM   12  C   UNL     1     -11.558  10.043  69.235  1.00  0.00     0.018 C  
ENDROOT
BRANCH   4  13
HETATM   13  C   UNL     1      -7.111  12.095  67.838  1.00  0.00    -0.101 C  
BRANCH  13  14
HETATM   14  S   UNL     1      -6.322  13.436  68.765  1.00  0.00    -0.102 SA 
BRANCH  14  15
HETATM   15  C   UNL     1      -7.325  14.799  68.487  1.00  0.00    -0.118 A  
HETATM   16  N   UNL     1      -8.591  14.953  68.795  1.00  0.00    -0.171 NA 
HETATM   17  C   UNL     1      -5.593  16.255  67.338  1.00  0.00    -0.128 C  
HETATM   18  N   UNL     1      -8.944  16.194  68.320  1.00  0.00    -0.185 NA 
HETATM   19  N   UNL     1      -6.894  15.927  67.850  1.00  0.00    -0.131 NA 
HETATM   20  N   UNL     1      -7.915  16.795  67.739  1.00  0.00    -0.175 NA 
ENDBRANCH  14  15
ENDBRANCH  13  14
ENDBRANCH   4  13
BRANCH   6  21
HETATM   21  N   UNL     1     -11.065   7.531  69.788  1.00  0.00    -0.416 N  
HETATM   22  H   UNL     1     -11.241   6.768  70.440  1.00  0.00     0.000 HD 
HETATM   23  O   UNL     1     -10.660   8.073  67.610  1.00  0.00    -0.235 OA 
HETATM   24  C   UNL     1     -10.726   7.215  68.489  1.00  0.00    -0.152 C  
BRANCH  24  25
HETATM   25  CA  UNL     1     -10.270   5.745  68.275  1.00  0.00    -0.187 C  
BRANCH  25  26
HETATM   26  C   UNL     1      -9.713   5.541  66.873  1.00  0.00    -0.163 A  
HETATM   27  C   UNL     1      -7.969   5.864  65.202  1.00  0.00    -0.121 A  
HETATM   28  C   UNL     1     -10.435   4.787  65.936  1.00  0.00    -0.313 A  
HETATM   29  O   UNL     1      -8.159   4.901  63.062  1.00  0.00    -0.081 OA 
HETATM   30  C   UNL     1      -8.469   6.077  66.488  1.00  0.00    -0.115 A  
HETATM   31  C   UNL     1      -9.930   4.568  64.650  1.00  0.00     0.003 A  
HETATM   32  H   UNL     1      -7.316   5.267  62.821  1.00  0.00     0.000 HD 
HETATM   33  C   UNL     1      -8.697   5.104  64.298  1.00  0.00    -0.071 A  
ENDBRANCH  25  26
BRANCH  25  34
HETATM   34  N   UNL     1      -9.275   5.337  69.264  1.00  0.00    -0.110 N  
HETATM   35  H   UNL     1      -8.697   6.054  69.704  1.00  0.00     0.000 HD 
BRANCH  34  36
HETATM   36  C   UNL     1      -9.088   4.031  69.622  1.00  0.00    -0.121 C  
HETATM   37  O   UNL     1      -9.421   3.112  68.878  1.00  0.00    -0.168 OA 
BRANCH  36  38
HETATM   38  N   UNL     1      -8.491   3.820  70.859  1.00  0.00    -0.070 N  
HETATM   39  C   UNL     1      -7.057   3.554  70.890  1.00  0.00    -0.033 C  
HETATM   40  N   UNL     1      -7.027   3.982  73.294  1.00  0.00    -0.056 N  
HETATM   41  C   UNL     1      -6.374   4.281  72.032  1.00  0.00    -0.021 C  
HETATM   42  C   UNL     1      -8.416   4.021  73.372  1.00  0.00    -0.089 C  
HETATM   43  O   UNL     1     -10.410   3.559  72.125  1.00  0.00    -0.133 OA 
HETATM   44  C   UNL     1      -9.205   3.793  72.061  1.00  0.00    -0.121 C  
HETATM   45  O   UNL     1      -9.036   4.188  74.416  1.00  0.00    -0.100 OA 
BRANCH  40  46
HETATM   46  C   UNL     1      -6.240   3.873  74.517  1.00  0.00    -0.030 C  
HETATM   47  C   UNL     1      -5.271   2.707  74.535  1.00  0.00     0.000 C  
ENDBRANCH  40  46
ENDBRANCH  36  38
ENDBRANCH  34  36
ENDBRANCH  25  34
ENDBRANCH  24  25
ENDBRANCH   6  21
TORSDOF 10
ENDMDL
MODEL      193
REMARK 921   NORMALIZED FREE ENERGY PREDICTED BY IDOCK:   -2.14 KCAL/MOL
REMARK 922        TOTAL FREE ENERGY PREDICTED BY IDOCK:   -5.69 KCAL/MOL
REMARK 923 INTER-LIGAND FREE ENERGY PREDICTED BY IDOCK:   -4.66 KCAL/MOL
REMARK 924 INTRA-LIGAND FREE ENERGY PREDICTED BY IDOCK:   -1.03 KCAL/MOL
REMARK 927      BINDING AFFINITY PREDICTED BY RF-SCORE:    0.00 PKD
ROOT
HETATM    1  C   UNL     1      -6.039   8.385  69.938  1.00  0.00    -0.031 C  
HETATM    2  S   UNL     1      -5.905   7.262  68.528  1.00  0.00    -0.024 SA 
HETATM    3  C   UNL     1      -6.733   8.399  67.395  1.00  0.00    -0.063 C  
HETATM    4  C   UNL     1      -8.015   9.030  67.928  1.00  0.00    -0.102 C  
HETATM    5  CA  UNL     1      -8.342   9.086  69.253  1.00  0.00    -0.122 C  
HETATM    6  CA  UNL     1      -5.988   7.699  71.350  1.00  0.00    -0.035 C  
HETATM    7  O   UNL     1      -8.271   8.549  72.342  1.00  0.00    -0.266 OA 
HETATM    8  N   UNL     1      -7.445   8.642  70.187  1.00  0.00    -0.051 N  
HETATM    9  C   UNL     1      -9.721   9.555  69.685  1.00  0.00    -0.200 C  
HETATM   10  OXT UNL     1     -10.674   9.646  68.924  1.00  0.00    -0.218 OA 
HETATM   11  O   UNL     1      -9.846   9.966  70.962  1.00  0.00    -0.007 OA 
HETATM   12  C   UNL     1      -7.421   8.343  71.508  1.00  0.00    -0.098 C  
ENDROOT
BRANCH   4  13
HETATM   13  C   UNL     1      -8.915   9.455  66.767  1.00  0.00    -0.131 C  
BRANCH  13  14
HETATM   14  S   UNL     1      -8.964  11.229  66.411  1.00  0.00    -0.191 SA 
BRANCH  14  15
HETATM   15  C   UNL     1      -7.337  11.746  66.580  1.00  0.00     0.021 A  
HETATM   16  N   UNL     1      -6.254  11.197  66.086  1.00  0.00    -0.112 NA 
HETATM   17  C   UNL     1      -7.785  13.775  68.037  1.00  0.00    -0.152 C  
HETATM   18  N   UNL     1      -5.204  11.956  66.546  1.00  0.00    -0.332 NA 
HETATM   19  N   UNL     1      -6.972  12.836  67.319  1.00  0.00    -0.126 NA 
HETATM   20  N   UNL     1      -5.633  12.958  67.302  1.00  0.00    -0.347 NA 
ENDBRANCH  14  15
ENDBRANCH  13  14
ENDBRANCH   4  13
BRANCH   6  21
HETATM   21  N   UNL     1      -5.911   6.211  71.319  1.00  0.00    -0.030 N  
HETATM   22  H   UNL     1      -5.612   5.761  70.454  1.00  0.00     0.000 HD 
HETATM   23  O   UNL     1      -6.431   5.880  73.514  1.00  0.00    -0.069 OA 
HETATM   24  C   UNL     1      -6.223   5.410  72.398  1.00  0.00    -0.035 C  
BRANCH  24  25
HETATM   25  CA  UNL     1      -6.460   3.914  72.049  1.00  0.00    -0.015 C  
BRANCH  25  26
HETATM   26  C   UNL     1      -7.853   3.467  72.468  1.00  0.00    -0.067 A  
HETATM   27  C   UNL     1      -9.339   1.931  73.641  1.00  0.00    -0.084 A  
HETATM   28  C   UNL     1      -8.974   4.220  72.089  1.00  0.00    -0.142 A  
HETATM   29  O   UNL     1     -11.663   2.302  73.685  1.00  0.00    -0.221 OA 
HETATM   30  C   UNL     1      -8.054   2.315  73.253  1.00  0.00    -0.051 A  
HETATM   31  C   UNL     1     -10.262   3.839  72.484  1.00  0.00    -0.232 A  
HETATM   32  H   UNL     1     -11.779   1.524  74.217  1.00  0.00     0.000 HD 
HETATM   33  C   UNL     1     -10.430   2.700  73.263  1.00  0.00    -0.154 A  
ENDBRANCH  25  26
BRANCH  25  34
HETATM   34  N   UNL     1      -6.268   3.652  70.624  1.00  0.00    -0.018 N  
HETATM   35  H   UNL     1      -5.661   4.273  70.088  1.00  0.00     0.000 HD 
BRANCH  34  36
HETATM   36  C   UNL     1      -6.871   2.607  69.982  1.00  0.00    -0.033 C  
HETATM   37  O   UNL     1      -7.069   1.537  70.552  1.00  0.00    -0.032 OA 
BRANCH  36  38
HETATM   38  N   UNL     1      -7.251   2.841  68.666  1.00  0.00    -0.048 N  
HETATM   39  C   UNL     1      -6.450   2.239  67.606  1.00  0.00    -0.032 C  
HETATM   40  N   UNL     1      -8.227   2.703  65.997  1.00  0.00    -0.085 N  
HETATM   41  C   UNL     1      -7.317   1.686  66.491  1.00  0.00    -0.056 C  
HETATM   42  C   UNL     1      -8.935   3.488  66.904  1.00  0.00    -0.152 C  
HETATM   43  O   UNL     1      -8.765   4.549  69.046  1.00  0.00    -0.082 OA 
HETATM   44  C   UNL     1      -8.320   3.668  68.312  1.00  0.00    -0.083 C  
HETATM   45  O   UNL     1      -9.983   4.063  66.635  1.00  0.00    -0.199 OA 
BRANCH  40  46
HETATM   46  C   UNL     1      -8.575   2.749  64.581  1.00  0.00    -0.094 C  
HETATM   47  C   UNL     1      -8.020   1.600  63.762  1.00  0.00    -0.061 C  
ENDBRANCH  40  46
ENDBRANCH  36  38
ENDBRANCH  34  36
ENDBRANCH  25  34
ENDBRANCH  24  25
ENDBRANCH   6  21
TORSDOF 10
ENDMDL
MODEL      194
REMARK 921   NORMALIZED FREE ENERGY PREDICTED BY IDOCK:   -1.75 KCAL/MOL
REMARK 922        TOTAL FREE ENERGY PREDICTED BY IDOCK:   -5.06 KCAL/MOL
REMARK 923 INTER-LIGAND FREE ENERGY PREDICTED BY IDOCK:   -5.59 KCAL/MOL
REMARK 924 INTRA-LIGAND FREE ENERGY PREDICTED BY IDOCK:    0.53 KCAL/MOL
REMARK 927      BINDING AFFINITY PREDICTED BY RF-SCORE:    0.00 PKD
ROOT
HETATM    1  C   UNL     1     -10.938  14.415  67.280  1.00  0.00    -0.297 C  
HETATM    2  S   UNL     1     -10.857  12.611  67.374  1.00  0.00    -0.250 SA 
HETATM    3  C   UNL     1     -12.384  12.476  68.329  1.00  0.00     0.424 C  
HETATM    4  C   UNL     1     -12.502  13.437  69.507  1.00  0.00    -0.018 C  
HETATM    5  CA  UNL     1     -11.756  14.574  69.640  1.00  0.00    -0.307 C  
HETATM    6  CA  UNL     1      -9.565  15.137  67.044  1.00  0.00    -0.226 C  
HETATM    7  O   UNL     1      -9.528  16.724  69.142  1.00  0.00    -0.243 OA 
HETATM    8  N   UNL     1     -10.911  14.946  68.629  1.00  0.00    -0.242 N  
HETATM    9  C   UNL     1     -11.796  15.371  70.932  1.00  0.00    -0.356 C  
HETATM   10  OXT UNL     1     -12.251  14.938  71.981  1.00  0.00    -0.335 OA 
HETATM   11  O   UNL     1     -11.378  16.650  70.864  1.00  0.00    -0.226 OA 
HETATM   12  C   UNL     1      -9.902  15.825  68.424  1.00  0.00    -0.206 C  
ENDROOT
BRANCH   4  13
HETATM   13  C   UNL     1     -13.463  12.872  70.553  1.00  0.00     1.117 C  
BRANCH  13  14
HETATM   14  S   UNL     1     -12.698  11.994  71.939  1.00  0.00     0.033 SA 
BRANCH  14  15
HETATM   15  C   UNL     1     -12.004  10.595  71.231  1.00  0.00    -0.245 A  
HETATM   16  N   UNL     1     -10.953  10.515  70.450  1.00  0.00    -0.252 NA 
HETATM   17  C   UNL     1     -13.648   8.902  72.164  1.00  0.00    -0.453 C  
HETATM   18  N   UNL     1     -10.836   9.188  70.112  1.00  0.00    -0.234 NA 
HETATM   19  N   UNL     1     -12.521   9.341  71.391  1.00  0.00    -0.327 NA 
HETATM   20  N   UNL     1     -11.791   8.463  70.680  1.00  0.00    -0.166 NA 
ENDBRANCH  14  15
ENDBRANCH  13  14
ENDBRANCH   4  13
BRANCH   6  21
HETATM   21  N   UNL     1      -8.381  14.233  67.007  1.00  0.00    -0.351 N  
HETATM   22  H   UNL     1      -8.522  13.266  66.716  1.00  0.00     0.000 HD 
HETATM   23  O   UNL     1      -6.829  15.815  67.544  1.00  0.00    -0.156 OA 
HETATM   24  C   UNL     1      -7.105  14.634  67.344  1.00  0.00    -0.128 C  
BRANCH  24  25
HETATM   25  CA  UNL     1      -6.110  13.472  67.620  1.00  0.00    -0.111 C  
BRANCH  25  26
HETATM   26  C   UNL     1      -5.895  13.276  69.114  1.00  0.00    -0.080 A  
HETATM   27  C   UNL     1      -5.189  11.915  71.008  1.00  0.00    -0.128 A  
HETATM   28  C   UNL     1      -6.178  14.322  70.005  1.00  0.00    -0.157 A  
HETATM   29  O   UNL     1      -5.226  12.784  73.196  1.00  0.00    -0.367 OA 
HETATM   30  C   UNL     1      -5.394  12.068  69.636  1.00  0.00    -0.073 A  
HETATM   31  C   UNL     1      -5.965  14.171  71.380  1.00  0.00    -0.119 A  
HETATM   32  H   UNL     1      -4.884  11.963  73.529  1.00  0.00     0.000 HD 
HETATM   33  C   UNL     1      -5.466  12.969  71.867  1.00  0.00     0.115 A  
ENDBRANCH  25  26
BRANCH  25  34
HETATM   34  N   UNL     1      -6.561  12.218  67.020  1.00  0.00    -0.327 N  
HETATM   35  H   UNL     1      -6.292  12.009  66.058  1.00  0.00     0.000 HD 
BRANCH  34  36
HETATM   36  C   UNL     1      -7.329  11.314  67.698  1.00  0.00    -0.100 C  
HETATM   37  O   UNL     1      -8.046  11.660  68.634  1.00  0.00    -0.150 OA 
BRANCH  36  38
HETATM   38  N   UNL     1      -7.255   9.999  67.253  1.00  0.00    -0.085 N  
HETATM   39  C   UNL     1      -7.847   9.682  65.958  1.00  0.00    -0.102 C  
HETATM   40  N   UNL     1      -6.659   7.549  65.935  1.00  0.00    -0.045 N  
HETATM   41  C   UNL     1      -6.976   8.734  65.158  1.00  0.00    -0.079 C  
HETATM   42  C   UNL     1      -6.249   7.687  67.258  1.00  0.00    -0.053 C  
HETATM   43  O   UNL     1      -6.586   9.004  69.232  1.00  0.00    -0.048 OA 
HETATM   44  C   UNL     1      -6.698   8.964  68.008  1.00  0.00    -0.069 C  
HETATM   45  O   UNL     1      -5.591   6.846  67.859  1.00  0.00    -0.015 OA 
BRANCH  40  46
HETATM   46  C   UNL     1      -6.546   6.251  65.278  1.00  0.00    -0.043 C  
HETATM   47  C   UNL     1      -7.857   5.698  64.755  1.00  0.00    -0.112 C  
ENDBRANCH  40  46
ENDBRANCH  36  38
ENDBRANCH  34  36
ENDBRANCH  25  34
ENDBRANCH  24  25
ENDBRANCH   6  21
TORSDOF 10
ENDMDL
MODEL      195
REMARK 921   NORMALIZED FREE ENERGY PREDICTED BY IDOCK:   -1.60 KCAL/MOL
REMARK 922        TOTAL FREE ENERGY PREDICTED BY IDOCK:   -4.84 KCAL/MOL
REMARK 923 INTER-LIGAND FREE ENERGY PREDICTED BY IDOCK:   -6.20 KCAL/MOL
REMARK 924 INTRA-LIGAND FREE ENERGY PREDICTED BY IDOCK:    1.36 KCAL/MOL
REMARK 927      BINDING AFFINITY PREDICTED BY RF-SCORE:    0.00 PKD
ROOT
HETATM    1  C   UNL     1     -11.628   7.900  69.305  1.00  0.00     0.791 C  
HETATM    2  S   UNL     1     -10.753   9.289  70.063  1.00  0.00    -0.242 SA 
HETATM    3  C   UNL     1     -10.548  10.165  68.497  1.00  0.00    -0.216 C  
HETATM    4  C   UNL     1     -10.053   9.312  67.333  1.00  0.00    -0.280 C  
HETATM    5  CA  UNL     1     -10.123   7.948  67.306  1.00  0.00    -0.238 C  
HETATM    6  CA  UNL     1     -11.564   6.550  70.103  1.00  0.00    -0.402 C  
HETATM    7  O   UNL     1     -10.528   4.987  68.258  1.00  0.00    -0.072 OA 
HETATM    8  N   UNL     1     -10.752   7.286  68.326  1.00  0.00    -0.163 N  
HETATM    9  C   UNL     1      -9.434   7.166  66.201  1.00  0.00     0.002 C  
HETATM   10  OXT UNL     1      -8.588   7.645  65.459  1.00  0.00    -0.143 OA 
HETATM   11  O   UNL     1      -9.861   5.905  65.998  1.00  0.00    -0.071 OA 
HETATM   12  C   UNL     1     -10.879   6.018  68.785  1.00  0.00    -0.322 C  
ENDROOT
BRANCH   4  13
HETATM   13  C   UNL     1      -9.361  10.192  66.292  1.00  0.00    -0.172 C  
BRANCH  13  14
HETATM   14  S   UNL     1     -10.210  11.734  65.869  1.00  0.00    -0.247 SA 
BRANCH  14  15
HETATM   15  C   UNL     1      -9.736  12.836  67.095  1.00  0.00    -0.216 A  
HETATM   16  N   UNL     1      -8.564  12.957  67.670  1.00  0.00    -0.169 NA 
HETATM   17  C   UNL     1     -11.968  14.014  67.362  1.00  0.00    -0.404 C  
HETATM   18  N   UNL     1      -8.710  13.944  68.616  1.00  0.00    -0.125 NA 
HETATM   19  N   UNL     1     -10.590  13.741  67.658  1.00  0.00    -0.241 NA 
HETATM   20  N   UNL     1      -9.945  14.427  68.618  1.00  0.00    -0.239 NA 
ENDBRANCH  14  15
ENDBRANCH  13  14
ENDBRANCH   4  13
BRANCH   6  21
HETATM   21  N   UNL     1     -10.727   6.591  71.336  1.00  0.00    -0.232 N  
HETATM   22  H   UNL     1      -9.996   5.889  71.446  1.00  0.00     0.000 HD 
HETATM   23  O   UNL     1     -11.630   8.499  72.198  1.00  0.00    -0.332 OA 
HETATM   24  C   UNL     1     -10.886   7.529  72.334  1.00  0.00    -0.276 C  
BRANCH  24  25
HETATM   25  CA  UNL     1     -10.202   7.167  73.681  1.00  0.00    -0.359 C  
BRANCH  25  26
HETATM   26  C   UNL     1     -10.143   5.659  73.879  1.00  0.00    -0.232 A  
HETATM   27  C   UNL     1     -11.165   3.450  73.762  1.00  0.00    -0.236 A  
HETATM   28  C   UNL     1      -8.962   5.059  74.341  1.00  0.00    -0.111 A  
HETATM   29  O   UNL     1      -9.940   1.524  74.339  1.00  0.00    -0.074 OA 
HETATM   30  C   UNL     1     -11.246   4.833  73.589  1.00  0.00    -0.332 A  
HETATM   31  C   UNL     1      -8.879   3.672  74.507  1.00  0.00    -0.097 A  
HETATM   32  H   UNL     1     -10.693   0.982  74.135  1.00  0.00     0.000 HD 
HETATM   33  C   UNL     1      -9.982   2.880  74.209  1.00  0.00    -0.120 A  
ENDBRANCH  25  26
BRANCH  25  34
HETATM   34  N   UNL     1      -8.856   7.728  73.774  1.00  0.00    -0.249 N  
HETATM   35  H   UNL     1      -8.374   7.704  74.673  1.00  0.00     0.000 HD 
BRANCH  34  36
HETATM   36  C   UNL     1      -8.216   8.284  72.701  1.00  0.00    -0.162 C  
HETATM   37  O   UNL     1      -8.372   9.467  72.408  1.00  0.00     0.285 OA 
BRANCH  36  38
HETATM   38  N   UNL     1      -7.380   7.435  71.986  1.00  0.00    -0.071 N  
HETATM   39  C   UNL     1      -6.339   6.724  72.720  1.00  0.00    -0.054 C  
HETATM   40  N   UNL     1      -6.012   5.232  70.815  1.00  0.00    -0.020 N  
HETATM   41  C   UNL     1      -6.202   5.288  72.254  1.00  0.00    -0.031 C  
HETATM   42  C   UNL     1      -6.823   6.003  69.987  1.00  0.00    -0.057 C  
HETATM   43  O   UNL     1      -7.948   8.114  69.848  1.00  0.00    -0.104 OA 
HETATM   44  C   UNL     1      -7.450   7.278  70.599  1.00  0.00    -0.079 C  
HETATM   45  O   UNL     1      -7.031   5.747  68.807  1.00  0.00    -0.063 OA 
BRANCH  40  46
HETATM   46  C   UNL     1      -5.147   4.213  70.230  1.00  0.00     0.000 C  
HETATM   47  C   UNL     1      -5.856   2.920  69.874  1.00  0.00    -0.019 C  
ENDBRANCH  40  46
ENDBRANCH  36  38
ENDBRANCH  34  36
ENDBRANCH  25  34
ENDBRANCH  24  25
ENDBRANCH   6  21
TORSDOF 10
ENDMDL
MODEL      196
REMARK 921   NORMALIZED FREE ENERGY PREDICTED BY IDOCK:   -1.54 KCAL/MOL
REMARK 922        TOTAL FREE ENERGY PREDICTED BY IDOCK:   -4.73 KCAL/MOL
REMARK 923 INTER-LIGAND FREE ENERGY PREDICTED BY IDOCK:   -6.27 KCAL/MOL
REMARK 924 INTRA-LIGAND FREE ENERGY PREDICTED BY IDOCK:    1.54 KCAL/MOL
REMARK 927      BINDING AFFINITY PREDICTED BY RF-SCORE:    0.00 PKD
ROOT
HETATM    1  C   UNL     1     -11.299  10.792  68.029  1.00  0.00    -0.307 C  
HETATM    2  S   UNL     1      -9.591  11.141  67.545  1.00  0.00    -0.170 SA 
HETATM    3  C   UNL     1      -9.216   9.411  67.189  1.00  0.00    -0.134 C  
HETATM    4  C   UNL     1      -9.668   8.414  68.252  1.00  0.00    -0.170 C  
HETATM    5  CA  UNL     1     -10.613   8.688  69.198  1.00  0.00    -0.178 C  
HETATM    6  CA  UNL     1     -11.957  11.852  68.982  1.00  0.00    -0.262 C  
HETATM    7  O   UNL     1     -12.627  10.291  70.990  1.00  0.00    -0.329 OA 
HETATM    8  N   UNL     1     -11.278   9.885  69.160  1.00  0.00    -0.159 N  
HETATM    9  C   UNL     1     -10.865   7.714  70.336  1.00  0.00    -0.244 C  
HETATM   10  OXT UNL     1     -10.102   6.804  70.630  1.00  0.00    -0.187 OA 
HETATM   11  O   UNL     1     -12.042   7.831  70.981  1.00  0.00    -0.302 OA 
HETATM   12  C   UNL     1     -12.095  10.616  69.954  1.00  0.00    -0.299 C  
ENDROOT
BRANCH   4  13
HETATM   13  C   UNL     1      -8.820   7.144  68.176  1.00  0.00    -0.126 C  
BRANCH  13  14
HETATM   14  S   UNL     1      -7.059   7.345  68.545  1.00  0.00    -0.087 SA 
BRANCH  14  15
HETATM   15  C   UNL     1      -7.026   8.148  70.060  1.00  0.00    -0.040 A  
HETATM   16  N   UNL     1      -7.774   9.144  70.468  1.00  0.00    -0.117 NA 
HETATM   17  C   UNL     1      -5.135   6.813  71.101  1.00  0.00    -0.023 C  
HETATM   18  N   UNL     1      -7.327   9.457  71.730  1.00  0.00    -0.233 NA 
HETATM   19  N   UNL     1      -6.141   7.835  71.053  1.00  0.00    -0.034 NA 
HETATM   20  N   UNL     1      -6.328   8.665  72.094  1.00  0.00    -0.072 NA 
ENDBRANCH  14  15
ENDBRANCH  13  14
ENDBRANCH   4  13
BRANCH   6  21
HETATM   21  N   UNL     1     -11.050  12.955  69.410  1.00  0.00    -0.453 N  
HETATM   22  H   UNL     1     -10.995  13.175  70.404  1.00  0.00     0.000 HD 
HETATM   23  O   UNL     1     -10.171  13.382  67.350  1.00  0.00    -0.234 OA 
HETATM   24  C   UNL     1     -10.283  13.694  68.534  1.00  0.00    -0.234 C  
BRANCH  24  25
HETATM   25  CA  UNL     1      -9.730  15.024  69.117  1.00  0.00    -0.212 C  
BRANCH  25  26
HETATM   26  C   UNL     1      -8.519  15.506  68.330  1.00  0.00    -0.163 A  
HETATM   27  C   UNL     1      -7.489  16.282  66.262  1.00  0.00     0.118 A  
HETATM   28  C   UNL     1      -7.283  15.663  68.974  1.00  0.00    -0.160 A  
HETATM   29  O   UNL     1      -5.221  16.912  66.209  1.00  0.00    -0.361 OA 
HETATM   30  C   UNL     1      -8.607  15.825  66.961  1.00  0.00    -0.247 A  
HETATM   31  C   UNL     1      -6.163  16.128  68.275  1.00  0.00    -0.121 A  
HETATM   32  H   UNL     1      -5.300  17.125  65.287  1.00  0.00     0.000 HD 
HETATM   33  C   UNL     1      -6.280  16.439  66.925  1.00  0.00    -0.043 A  
ENDBRANCH  25  26
BRANCH  25  34
HETATM   34  N   UNL     1     -10.749  16.070  69.142  1.00  0.00    -0.251 N  
HETATM   35  H   UNL     1     -11.630  15.910  68.655  1.00  0.00     0.000 HD 
BRANCH  34  36
HETATM   36  C   UNL     1     -10.566  17.258  69.795  1.00  0.00     0.216 C  
HETATM   37  O   UNL     1     -10.889  17.395  70.972  1.00  0.00     0.824 OA 
BRANCH  36  38
HETATM   38  N   UNL     1      -9.985  18.277  69.050  1.00  0.00    -0.328 N  
HETATM   39  C   UNL     1      -8.973  19.105  69.698  1.00  0.00     0.508 C  
HETATM   40  N   UNL     1      -8.281  19.966  67.520  1.00  0.00    -0.313 N  
HETATM   41  C   UNL     1      -7.810  19.400  68.771  1.00  0.00    -0.357 C  
HETATM   42  C   UNL     1      -9.366  19.383  66.870  1.00  0.00    -0.329 C  
HETATM   43  O   UNL     1     -11.455  18.276  67.264  1.00  0.00     0.418 OA 
HETATM   44  C   UNL     1     -10.363  18.580  67.740  1.00  0.00    -0.402 C  
HETATM   45  O   UNL     1      -9.586  19.502  65.671  1.00  0.00    -0.338 OA 
BRANCH  40  46
HETATM   46  C   UNL     1      -7.492  20.982  66.832  1.00  0.00    -0.083 C  
HETATM   47  C   UNL     1      -6.301  20.439  66.068  1.00  0.00    -0.249 C  
ENDBRANCH  40  46
ENDBRANCH  36  38
ENDBRANCH  34  36
ENDBRANCH  25  34
ENDBRANCH  24  25
ENDBRANCH   6  21
TORSDOF 10
ENDMDL
MODEL      197
REMARK 921   NORMALIZED FREE ENERGY PREDICTED BY IDOCK:   -1.03 KCAL/MOL
REMARK 922        TOTAL FREE ENERGY PREDICTED BY IDOCK:   -3.92 KCAL/MOL
REMARK 923 INTER-LIGAND FREE ENERGY PREDICTED BY IDOCK:   -5.74 KCAL/MOL
REMARK 924 INTRA-LIGAND FREE ENERGY PREDICTED BY IDOCK:    1.82 KCAL/MOL
REMARK 927      BINDING AFFINITY PREDICTED BY RF-SCORE:    0.00 PKD
ROOT
HETATM    1  C   UNL     1      -9.651  14.902  65.209  1.00  0.00     0.071 C  
HETATM    2  S   UNL     1      -9.248  13.965  66.702  1.00  0.00    -0.195 SA 
HETATM    3  C   UNL     1      -9.013  12.414  65.805  1.00  0.00     0.290 C  
HETATM    4  C   UNL     1     -10.103  12.077  64.793  1.00  0.00    -0.286 C  
HETATM    5  CA  UNL     1     -10.977  12.994  64.281  1.00  0.00    -0.399 C  
HETATM    6  CA  UNL     1     -10.503  16.201  65.442  1.00  0.00    -0.373 C  
HETATM    7  O   UNL     1     -12.555  15.674  63.883  1.00  0.00    -0.697 OA 
HETATM    8  N   UNL     1     -10.832  14.316  64.605  1.00  0.00    -0.395 N  
HETATM    9  C   UNL     1     -12.152  12.542  63.431  1.00  0.00    -0.529 C  
HETATM   10  OXT UNL     1     -12.541  11.384  63.373  1.00  0.00    -0.182 OA 
HETATM   11  O   UNL     1     -12.721  13.476  62.644  1.00  0.00    -0.199 OA 
HETATM   12  C   UNL     1     -11.535  15.468  64.498  1.00  0.00    -0.308 C  
ENDROOT
BRANCH   4  13
HETATM   13  C   UNL     1     -10.150  10.567  64.554  1.00  0.00    -0.332 C  
BRANCH  13  14
HETATM   14  S   UNL     1      -8.714   9.629  65.135  1.00  0.00    -0.180 SA 
BRANCH  14  15
HETATM   15  C   UNL     1      -9.383   8.230  65.868  1.00  0.00    -0.096 A  
HETATM   16  N   UNL     1     -10.342   8.160  66.760  1.00  0.00    -0.321 NA 
HETATM   17  C   UNL     1      -7.928   6.514  64.695  1.00  0.00    -0.116 C  
HETATM   18  N   UNL     1     -10.476   6.825  67.062  1.00  0.00    -0.268 NA 
HETATM   19  N   UNL     1      -8.941   6.965  65.606  1.00  0.00    -0.019 NA 
HETATM   20  N   UNL     1      -9.623   6.088  66.364  1.00  0.00    -0.155 NA 
ENDBRANCH  14  15
ENDBRANCH  13  14
ENDBRANCH   4  13
BRANCH   6  21
HETATM   21  N   UNL     1     -10.919  16.431  66.855  1.00  0.00    -0.108 N  
HETATM   22  H   UNL     1     -10.572  17.264  67.330  1.00  0.00     0.000 HD 
HETATM   23  O   UNL     1     -12.332  14.647  67.002  1.00  0.00    -0.225 OA 
HETATM   24  C   UNL     1     -11.747  15.577  67.554  1.00  0.00     0.002 C  
BRANCH  24  25
HETATM   25  CA  UNL     1     -11.736  15.778  69.094  1.00  0.00    -0.388 C  
BRANCH  25  26
HETATM   26  C   UNL     1     -11.982  14.463  69.821  1.00  0.00    -0.385 A  
HETATM   27  C   UNL     1     -13.045  13.171  71.593  1.00  0.00    -0.444 A  
HETATM   28  C   UNL     1     -11.384  13.283  69.356  1.00  0.00    -0.280 A  
HETATM   29  O   UNL     1     -12.719  10.845  71.749  1.00  0.00    -0.398 OA 
HETATM   30  C   UNL     1     -12.819  14.390  70.951  1.00  0.00    -0.419 A  
HETATM   31  C   UNL     1     -11.616  12.060  69.995  1.00  0.00    -0.275 A  
HETATM   32  H   UNL     1     -13.290  10.814  72.507  1.00  0.00     0.000 HD 
HETATM   33  C   UNL     1     -12.451  12.016  71.106  1.00  0.00    -0.249 A  
ENDBRANCH  25  26
BRANCH  25  34
HETATM   34  N   UNL     1     -10.480  16.367  69.556  1.00  0.00    -0.299 N  
HETATM   35  H   UNL     1     -10.250  17.319  69.270  1.00  0.00     0.000 HD 
BRANCH  34  36
HETATM   36  C   UNL     1      -9.602  15.691  70.356  1.00  0.00     0.671 C  
HETATM   37  O   UNL     1      -9.862  15.459  71.534  1.00  0.00     1.374 OA 
BRANCH  36  38
HETATM   38  N   UNL     1      -8.422  15.279  69.750  1.00  0.00    -0.117 N  
HETATM   39  C   UNL     1      -7.771  14.080  70.267  1.00  0.00     1.433 C  
HETATM   40  N   UNL     1      -6.381  13.969  68.262  1.00  0.00    -0.101 N  
HETATM   41  C   UNL     1      -7.238  13.203  69.149  1.00  0.00     0.077 C  
HETATM   42  C   UNL     1      -6.795  15.225  67.825  1.00  0.00    -0.168 C  
HETATM   43  O   UNL     1      -7.989  17.185  68.512  1.00  0.00    -0.238 OA 
HETATM   44  C   UNL     1      -7.802  15.987  68.717  1.00  0.00    -0.190 C  
HETATM   45  O   UNL     1      -6.380  15.762  66.805  1.00  0.00    -0.209 OA 
BRANCH  40  46
HETATM   46  C   UNL     1      -5.215  13.342  67.649  1.00  0.00    -0.002 C  
HETATM   47  C   UNL     1      -5.391  11.871  67.329  1.00  0.00    -0.113 C  
ENDBRANCH  40  46
ENDBRANCH  36  38
ENDBRANCH  34  36
ENDBRANCH  25  34
ENDBRANCH  24  25
ENDBRANCH   6  21
TORSDOF 10
ENDMDL
MODEL      198
REMARK 921   NORMALIZED FREE ENERGY PREDICTED BY IDOCK:   -0.93 KCAL/MOL
REMARK 922        TOTAL FREE ENERGY PREDICTED BY IDOCK:   -3.77 KCAL/MOL
REMARK 923 INTER-LIGAND FREE ENERGY PREDICTED BY IDOCK:   -5.04 KCAL/MOL
REMARK 924 INTRA-LIGAND FREE ENERGY PREDICTED BY IDOCK:    1.27 KCAL/MOL
REMARK 927      BINDING AFFINITY PREDICTED BY RF-SCORE:    0.00 PKD
ROOT
HETATM    1  C   UNL     1      -5.876  12.377  68.409  1.00  0.00    -0.056 C  
HETATM    2  S   UNL     1      -7.086  11.339  67.555  1.00  0.00    -0.106 SA 
HETATM    3  C   UNL     1      -7.715  12.701  66.548  1.00  0.00     0.593 C  
HETATM    4  C   UNL     1      -8.007  13.991  67.307  1.00  0.00    -0.157 C  
HETATM    5  CA  UNL     1      -7.493  14.282  68.539  1.00  0.00    -0.121 C  
HETATM    6  CA  UNL     1      -5.415  11.852  69.815  1.00  0.00    -0.087 C  
HETATM    7  O   UNL     1      -6.045  13.931  71.298  1.00  0.00    -0.179 OA 
HETATM    8  N   UNL     1      -6.588  13.429  69.110  1.00  0.00    -0.104 N  
HETATM    9  C   UNL     1      -7.987  15.496  69.308  1.00  0.00    -0.238 C  
HETATM   10  OXT UNL     1      -9.008  16.106  69.029  1.00  0.00    -0.227 OA 
HETATM   11  O   UNL     1      -7.187  15.951  70.293  1.00  0.00     0.318 OA 
HETATM   12  C   UNL     1      -6.007  13.226  70.316  1.00  0.00    -0.134 C  
ENDROOT
BRANCH   4  13
HETATM   13  C   UNL     1      -9.047  14.821  66.553  1.00  0.00    -0.260 C  
BRANCH  13  14
HETATM   14  S   UNL     1     -10.134  13.902  65.435  1.00  0.00    -0.271 SA 
BRANCH  14  15
HETATM   15  C   UNL     1     -11.074  12.909  66.470  1.00  0.00    -0.286 A  
HETATM   16  N   UNL     1     -11.704  13.247  67.569  1.00  0.00    -0.348 NA 
HETATM   17  C   UNL     1     -10.785  10.734  65.195  1.00  0.00    -0.089 C  
HETATM   18  N   UNL     1     -12.265  12.089  68.053  1.00  0.00    -0.360 NA 
HETATM   19  N   UNL     1     -11.253  11.570  66.263  1.00  0.00    -0.271 NA 
HETATM   20  N   UNL     1     -11.992  11.059  67.263  1.00  0.00    -0.100 NA 
ENDBRANCH  14  15
ENDBRANCH  13  14
ENDBRANCH   4  13
BRANCH   6  21
HETATM   21  N   UNL     1      -6.100  10.610  70.274  1.00  0.00    -0.109 N  
HETATM   22  H   UNL     1      -5.531   9.869  70.684  1.00  0.00     0.000 HD 
HETATM   23  O   UNL     1      -8.226  11.313  69.845  1.00  0.00     0.673 OA 
HETATM   24  C   UNL     1      -7.461  10.408  70.173  1.00  0.00     0.021 C  
BRANCH  24  25
HETATM   25  CA  UNL     1      -7.913   8.931  70.333  1.00  0.00    -0.117 C  
BRANCH  25  26
HETATM   26  C   UNL     1      -9.347   8.846  70.835  1.00  0.00    -0.295 A  
HETATM   27  C   UNL     1     -10.969   8.368  72.590  1.00  0.00    -0.318 A  
HETATM   28  C   UNL     1     -10.407   9.214  69.992  1.00  0.00    -0.231 A  
HETATM   29  O   UNL     1     -13.271   8.704  72.226  1.00  0.00    -0.382 OA 
HETATM   30  C   UNL     1      -9.647   8.423  72.144  1.00  0.00    -0.367 A  
HETATM   31  C   UNL     1     -11.731   9.166  70.442  1.00  0.00    -0.124 A  
HETATM   32  H   UNL     1     -13.454   8.420  73.114  1.00  0.00     0.000 HD 
HETATM   33  C   UNL     1     -11.998   8.749  71.741  1.00  0.00    -0.349 A  
ENDBRANCH  25  26
BRANCH  25  34
HETATM   34  N   UNL     1      -7.785   8.186  69.081  1.00  0.00    -0.097 N  
HETATM   35  H   UNL     1      -7.349   8.643  68.280  1.00  0.00     0.000 HD 
BRANCH  34  36
HETATM   36  C   UNL     1      -8.229   6.900  68.943  1.00  0.00    -0.121 C  
HETATM   37  O   UNL     1      -9.052   6.599  68.083  1.00  0.00    -0.121 OA 
BRANCH  36  38
HETATM   38  N   UNL     1      -7.680   5.972  69.819  1.00  0.00    -0.094 N  
HETATM   39  C   UNL     1      -6.277   5.612  69.643  1.00  0.00    -0.029 C  
HETATM   40  N   UNL     1      -6.259   4.591  71.861  1.00  0.00    -0.020 N  
HETATM   41  C   UNL     1      -5.554   5.497  70.971  1.00  0.00    -0.009 C  
HETATM   42  C   UNL     1      -7.640   4.699  71.995  1.00  0.00    -0.089 C  
HETATM   43  O   UNL     1      -9.641   5.205  70.778  1.00  0.00    -0.160 OA 
HETATM   44  C   UNL     1      -8.418   5.327  70.815  1.00  0.00    -0.122 C  
HETATM   45  O   UNL     1      -8.264   4.295  72.970  1.00  0.00    -0.089 OA 
BRANCH  40  46
HETATM   46  C   UNL     1      -5.511   3.736  72.776  1.00  0.00     0.000 C  
HETATM   47  C   UNL     1      -5.688   2.250  72.530  1.00  0.00    -0.008 C  
ENDBRANCH  40  46
ENDBRANCH  36  38
ENDBRANCH  34  36
ENDBRANCH  25  34
ENDBRANCH  24  25
ENDBRANCH   6  21
TORSDOF 10
ENDMDL
MODEL      199
REMARK 921   NORMALIZED FREE ENERGY PREDICTED BY IDOCK:   -0.87 KCAL/MOL
REMARK 922        TOTAL FREE ENERGY PREDICTED BY IDOCK:   -3.67 KCAL/MOL
REMARK 923 INTER-LIGAND FREE ENERGY PREDICTED BY IDOCK:   -4.02 KCAL/MOL
REMARK 924 INTRA-LIGAND FREE ENERGY PREDICTED BY IDOCK:    0.35 KCAL/MOL
REMARK 927      BINDING AFFINITY PREDICTED BY RF-SCORE:    0.00 PKD
ROOT
HETATM    1  C   UNL     1      -5.877   8.587  69.839  1.00  0.00    -0.025 C  
HETATM    2  S   UNL     1      -5.837   7.744  68.239  1.00  0.00    -0.037 SA 
HETATM    3  C   UNL     1      -6.679   9.090  67.378  1.00  0.00    -0.069 C  
HETATM    4  C   UNL     1      -7.918   9.638  68.080  1.00  0.00    -0.100 C  
HETATM    5  CA  UNL     1      -8.185   9.453  69.407  1.00  0.00    -0.119 C  
HETATM    6  CA  UNL     1      -5.786   7.648  71.094  1.00  0.00    -0.035 C  
HETATM    7  O   UNL     1      -7.998   8.346  72.335  1.00  0.00    -0.159 OA 
HETATM    8  N   UNL     1      -7.262   8.822  70.198  1.00  0.00    -0.050 N  
HETATM    9  C   UNL     1      -9.530   9.862  69.983  1.00  0.00    -0.202 C  
HETATM   10  OXT UNL     1     -10.511  10.115  69.299  1.00  0.00    -0.196 OA 
HETATM   11  O   UNL     1      -9.587  10.030  71.319  1.00  0.00     0.398 OA 
HETATM   12  C   UNL     1      -7.190   8.282  71.437  1.00  0.00    -0.080 C  
ENDROOT
BRANCH   4  13
HETATM   13  C   UNL     1      -8.853  10.292  67.063  1.00  0.00    -0.136 C  
BRANCH  13  14
HETATM   14  S   UNL     1      -9.029  12.089  67.188  1.00  0.00    -0.192 SA 
BRANCH  14  15
HETATM   15  C   UNL     1     -10.645  12.398  66.703  1.00  0.00    -0.231 A  
HETATM   16  N   UNL     1     -11.542  11.543  66.274  1.00  0.00    -0.354 NA 
HETATM   17  C   UNL     1     -10.628  14.908  67.075  1.00  0.00    -0.289 C  
HETATM   18  N   UNL     1     -12.656  12.289  65.969  1.00  0.00    -0.029 NA 
HETATM   19  N   UNL     1     -11.193  13.649  66.683  1.00  0.00    -0.306 NA 
HETATM   20  N   UNL     1     -12.451  13.577  66.213  1.00  0.00    -0.370 NA 
ENDBRANCH  14  15
ENDBRANCH  13  14
ENDBRANCH   4  13
BRANCH   6  21
HETATM   21  N   UNL     1      -5.755   6.190  70.784  1.00  0.00    -0.018 N  
HETATM   22  H   UNL     1      -5.654   5.907  69.810  1.00  0.00     0.000 HD 
HETATM   23  O   UNL     1      -5.815   5.465  72.944  1.00  0.00    -0.022 OA 
HETATM   24  C   UNL     1      -5.856   5.205  71.744  1.00  0.00    -0.024 C  
BRANCH  24  25
HETATM   25  CA  UNL     1      -6.199   3.794  71.192  1.00  0.00    -0.015 C  
BRANCH  25  26
HETATM   26  C   UNL     1      -7.511   3.282  71.771  1.00  0.00    -0.051 A  
HETATM   27  C   UNL     1      -8.872   1.497  72.719  1.00  0.00    -0.065 A  
HETATM   28  C   UNL     1      -8.595   4.158  71.930  1.00  0.00    -0.117 A  
HETATM   29  O   UNL     1     -11.076   1.914  73.436  1.00  0.00    -0.143 OA 
HETATM   30  C   UNL     1      -7.666   1.942  72.176  1.00  0.00    -0.044 A  
HETATM   31  C   UNL     1      -9.802   3.713  72.482  1.00  0.00    -0.218 A  
HETATM   32  H   UNL     1     -11.161   1.008  73.706  1.00  0.00     0.000 HD 
HETATM   33  C   UNL     1      -9.926   2.386  72.877  1.00  0.00    -0.127 A  
ENDBRANCH  25  26
BRANCH  25  34
HETATM   34  N   UNL     1      -6.268   3.783  69.733  1.00  0.00    -0.027 N  
HETATM   35  H   UNL     1      -5.483   4.160  69.201  1.00  0.00     0.000 HD 
BRANCH  34  36
HETATM   36  C   UNL     1      -7.346   3.288  69.052  1.00  0.00    -0.049 C  
HETATM   37  O   UNL     1      -7.909   2.257  69.413  1.00  0.00    -0.043 OA 
BRANCH  36  38
HETATM   38  N   UNL     1      -7.761   4.028  67.952  1.00  0.00    -0.067 N  
HETATM   39  C   UNL     1      -6.735   4.639  67.113  1.00  0.00    -0.051 C  
HETATM   40  N   UNL     1      -8.395   5.030  65.365  1.00  0.00    -0.126 N  
HETATM   41  C   UNL     1      -7.066   4.513  65.638  1.00  0.00    -0.067 C  
HETATM   42  C   UNL     1      -9.453   4.672  66.197  1.00  0.00    -0.169 C  
HETATM   43  O   UNL     1     -10.007   4.195  68.479  1.00  0.00    -0.064 OA 
HETATM   44  C   UNL     1      -9.104   4.262  67.647  1.00  0.00    -0.134 C  
HETATM   45  O   UNL     1     -10.629   4.702  65.854  1.00  0.00    -0.304 OA 
BRANCH  40  46
HETATM   46  C   UNL     1      -8.668   5.720  64.110  1.00  0.00     0.201 C  
HETATM   47  C   UNL     1      -9.556   4.950  63.152  1.00  0.00     0.303 C  
ENDBRANCH  40  46
ENDBRANCH  36  38
ENDBRANCH  34  36
ENDBRANCH  25  34
ENDBRANCH  24  25
ENDBRANCH   6  21
TORSDOF 10
ENDMDL
MODEL      200
REMARK 921   NORMALIZED FREE ENERGY PREDICTED BY IDOCK:   -0.09 KCAL/MOL
REMARK 922        TOTAL FREE ENERGY PREDICTED BY IDOCK:   -2.45 KCAL/MOL
REMARK 923 INTER-LIGAND FREE ENERGY PREDICTED BY IDOCK:   -3.31 KCAL/MOL
REMARK 924 INTRA-LIGAND FREE ENERGY PREDICTED BY IDOCK:    0.86 KCAL/MOL
REMARK 927      BINDING AFFINITY PREDICTED BY RF-SCORE:    0.00 PKD
ROOT
HETATM    1  C   UNL     1      -6.194  10.296  67.764  1.00  0.00    -0.056 C  
HETATM    2  S   UNL     1      -7.839  10.277  67.013  1.00  0.00    -0.108 SA 
HETATM    3  C   UNL     1      -7.982  12.078  67.006  1.00  0.00    -0.150 C  
HETATM    4  C   UNL     1      -7.592  12.768  68.309  1.00  0.00    -0.134 C  
HETATM    5  CA  UNL     1      -6.826  12.185  69.279  1.00  0.00    -0.052 C  
HETATM    6  CA  UNL     1      -5.792   8.986  68.532  1.00  0.00    -0.042 C  
HETATM    7  O   UNL     1      -5.267  10.001  70.902  1.00  0.00    -0.046 OA 
HETATM    8  N   UNL     1      -6.288  10.946  69.057  1.00  0.00    -0.046 N  
HETATM    9  C   UNL     1      -6.646  12.864  70.625  1.00  0.00     1.066 C  
HETATM   10  OXT UNL     1      -7.348  13.785  71.019  1.00  0.00     1.653 OA 
HETATM   11  O   UNL     1      -5.594  12.465  71.366  1.00  0.00    -0.384 OA 
HETATM   12  C   UNL     1      -5.673   9.967  69.763  1.00  0.00    -0.042 C  
ENDROOT
BRANCH   4  13
HETATM   13  C   UNL     1      -8.287  14.125  68.415  1.00  0.00    -0.161 C  
BRANCH  13  14
HETATM   14  S   UNL     1      -8.587  14.985  66.850  1.00  0.00    -0.238 SA 
BRANCH  14  15
HETATM   15  C   UNL     1      -9.258  16.495  67.311  1.00  0.00    -0.216 A  
HETATM   16  N   UNL     1      -8.633  17.563  67.745  1.00  0.00    -0.226 NA 
HETATM   17  C   UNL     1     -11.694  15.916  66.896  1.00  0.00     0.551 C  
HETATM   18  N   UNL     1      -9.615  18.485  68.024  1.00  0.00    -0.301 NA 
HETATM   19  N   UNL     1     -10.600  16.751  67.303  1.00  0.00    -0.306 NA 
HETATM   20  N   UNL     1     -10.819  17.996  67.760  1.00  0.00    -0.324 NA 
ENDBRANCH  14  15
ENDBRANCH  13  14
ENDBRANCH   4  13
BRANCH   6  21
HETATM   21  N   UNL     1      -6.857   7.946  68.593  1.00  0.00    -0.061 N  
HETATM   22  H   UNL     1      -6.766   7.126  67.993  1.00  0.00     0.000 HD 
HETATM   23  O   UNL     1      -8.055   8.900  70.282  1.00  0.00    -0.098 OA 
HETATM   24  C   UNL     1      -7.959   8.031  69.418  1.00  0.00    -0.116 C  
BRANCH  24  25
HETATM   25  CA  UNL     1      -9.122   7.069  69.051  1.00  0.00    -0.135 C  
BRANCH  25  26
HETATM   26  C   UNL     1     -10.366   7.371  69.874  1.00  0.00    -0.222 A  
HETATM   27  C   UNL     1     -12.152   6.672  71.378  1.00  0.00    -0.400 A  
HETATM   28  C   UNL     1     -10.874   8.679  69.922  1.00  0.00    -0.210 A  
HETATM   29  O   UNL     1     -13.718   8.230  72.195  1.00  0.00    -0.447 OA 
HETATM   30  C   UNL     1     -11.022   6.370  70.616  1.00  0.00    -0.355 A  
HETATM   31  C   UNL     1     -12.002   8.982  70.692  1.00  0.00    -0.138 A  
HETATM   32  H   UNL     1     -14.144   7.542  72.692  1.00  0.00     0.000 HD 
HETATM   33  C   UNL     1     -12.627   7.975  71.418  1.00  0.00    -0.289 A  
ENDBRANCH  25  26
BRANCH  25  34
HETATM   34  N   UNL     1      -9.448   7.130  67.627  1.00  0.00    -0.126 N  
HETATM   35  H   UNL     1      -9.369   8.025  67.143  1.00  0.00     0.000 HD 
BRANCH  34  36
HETATM   36  C   UNL     1      -9.856   6.034  66.919  1.00  0.00    -0.158 C  
HETATM   37  O   UNL     1     -11.044   5.840  66.673  1.00  0.00    -0.227 OA 
BRANCH  36  38
HETATM   38  N   UNL     1      -8.848   5.178  66.492  1.00  0.00    -0.116 N  
HETATM   39  C   UNL     1      -8.543   4.015  67.319  1.00  0.00    -0.101 C  
HETATM   40  N   UNL     1      -7.280   3.033  65.474  1.00  0.00    -0.069 N  
HETATM   41  C   UNL     1      -8.297   2.777  66.479  1.00  0.00    -0.093 C  
HETATM   42  C   UNL     1      -7.340   4.203  64.722  1.00  0.00    -0.071 C  
HETATM   43  O   UNL     1      -7.932   6.522  64.846  1.00  0.00    -0.115 OA 
HETATM   44  C   UNL     1      -8.079   5.409  65.349  1.00  0.00    -0.120 C  
HETATM   45  O   UNL     1      -6.814   4.334  63.623  1.00  0.00    -0.042 OA 
BRANCH  40  46
HETATM   46  C   UNL     1      -6.346   1.980  65.093  1.00  0.00    -0.023 C  
HETATM   47  C   UNL     1      -5.858   2.064  63.660  1.00  0.00    -0.009 C  
ENDBRANCH  40  46
ENDBRANCH  36  38
ENDBRANCH  34  36
ENDBRANCH  25  34
ENDBRANCH  24  25
ENDBRANCH   6  21
TORSDOF 10
ENDMDL
MODEL      201
REMARK 921   NORMALIZED FREE ENERGY PREDICTED BY IDOCK:    0.06 KCAL/MOL
REMARK 922        TOTAL FREE ENERGY PREDICTED BY IDOCK:   -2.20 KCAL/MOL
REMARK 923 INTER-LIGAND FREE ENERGY PREDICTED BY IDOCK:   -2.82 KCAL/MOL
REMARK 924 INTRA-LIGAND FREE ENERGY PREDICTED BY IDOCK:    0.62 KCAL/MOL
REMARK 927      BINDING AFFINITY PREDICTED BY RF-SCORE:    0.00 PKD
ROOT
HETATM    1  C   UNL     1      -5.739   8.621  69.887  1.00  0.00    -0.028 C  
HETATM    2  S   UNL     1      -5.757   7.523  68.449  1.00  0.00    -0.028 SA 
HETATM    3  C   UNL     1      -6.740   8.661  67.448  1.00  0.00    -0.063 C  
HETATM    4  C   UNL     1      -7.959   9.256  68.146  1.00  0.00    -0.099 C  
HETATM    5  CA  UNL     1      -8.121   9.284  69.502  1.00  0.00    -0.111 C  
HETATM    6  CA  UNL     1      -5.502   7.913  71.268  1.00  0.00    -0.034 C  
HETATM    7  O   UNL     1      -7.662   8.697  72.548  1.00  0.00    -0.320 OA 
HETATM    8  N   UNL     1      -7.108   8.843  70.310  1.00  0.00    -0.044 N  
HETATM    9  C   UNL     1      -9.446   9.716  70.107  1.00  0.00    -0.253 C  
HETATM   10  OXT UNL     1     -10.486   9.799  69.470  1.00  0.00    -0.204 OA 
HETATM   11  O   UNL     1      -9.421  10.103  71.397  1.00  0.00     0.952 OA 
HETATM   12  C   UNL     1      -6.916   8.523  71.612  1.00  0.00    -0.088 C  
ENDROOT
BRANCH   4  13
HETATM   13  C   UNL     1      -9.002   9.680  67.112  1.00  0.00    -0.134 C  
BRANCH  13  14
HETATM   14  S   UNL     1      -8.425   9.776  65.398  1.00  0.00    -0.154 SA 
BRANCH  14  15
HETATM   15  C   UNL     1      -9.241  11.137  64.746  1.00  0.00    -0.138 A  
HETATM   16  N   UNL     1     -10.140  11.897  65.321  1.00  0.00    -0.252 NA 
HETATM   17  C   UNL     1      -8.162  11.100  62.449  1.00  0.00    -0.137 C  
HETATM   18  N   UNL     1     -10.520  12.815  64.370  1.00  0.00    -0.368 NA 
HETATM   19  N   UNL     1      -9.051  11.581  63.468  1.00  0.00    -0.021 NA 
HETATM   20  N   UNL     1      -9.862  12.627  63.234  1.00  0.00     0.063 NA 
ENDBRANCH  14  15
ENDBRANCH  13  14
ENDBRANCH   4  13
BRANCH   6  21
HETATM   21  N   UNL     1      -5.401   6.427  71.200  1.00  0.00    -0.018 N  
HETATM   22  H   UNL     1      -5.301   5.992  70.284  1.00  0.00     0.000 HD 
HETATM   23  O   UNL     1      -5.391   6.065  73.451  1.00  0.00    -0.033 OA 
HETATM   24  C   UNL     1      -5.437   5.610  72.311  1.00  0.00    -0.021 C  
BRANCH  24  25
HETATM   25  CA  UNL     1      -5.715   4.112  72.006  1.00  0.00    -0.008 C  
BRANCH  25  26
HETATM   26  C   UNL     1      -7.020   3.655  72.643  1.00  0.00    -0.043 A  
HETATM   27  C   UNL     1      -8.363   1.971  73.783  1.00  0.00    -0.058 A  
HETATM   28  C   UNL     1      -8.110   4.535  72.715  1.00  0.00    -0.095 A  
HETATM   29  O   UNL     1     -10.567   2.447  74.463  1.00  0.00    -0.151 OA 
HETATM   30  C   UNL     1      -7.163   2.365  73.188  1.00  0.00    -0.036 A  
HETATM   31  C   UNL     1      -9.310   4.143  73.317  1.00  0.00    -0.127 A  
HETATM   32  H   UNL     1     -10.643   1.574  74.828  1.00  0.00     0.000 HD 
HETATM   33  C   UNL     1      -9.422   2.865  73.851  1.00  0.00    -0.087 A  
ENDBRANCH  25  26
BRANCH  25  34
HETATM   34  N   UNL     1      -5.750   3.848  70.569  1.00  0.00    -0.013 N  
HETATM   35  H   UNL     1      -4.938   4.097  70.004  1.00  0.00     0.000 HD 
BRANCH  34  36
HETATM   36  C   UNL     1      -6.830   3.278  69.953  1.00  0.00    -0.034 C  
HETATM   37  O   UNL     1      -7.511   2.426  70.519  1.00  0.00    -0.036 OA 
BRANCH  36  38
HETATM   38  N   UNL     1      -7.107   3.735  68.671  1.00  0.00    -0.050 N  
HETATM   39  C   UNL     1      -8.368   4.436  68.453  1.00  0.00    -0.089 C  
HETATM   40  N   UNL     1      -7.546   5.250  66.302  1.00  0.00    -0.087 N  
HETATM   41  C   UNL     1      -8.195   5.636  67.543  1.00  0.00    -0.101 C  
HETATM   42  C   UNL     1      -6.424   4.426  66.344  1.00  0.00    -0.041 C  
HETATM   43  O   UNL     1      -5.452   2.587  67.533  1.00  0.00    -0.016 OA 
HETATM   44  C   UNL     1      -6.270   3.504  67.576  1.00  0.00    -0.036 C  
HETATM   45  O   UNL     1      -5.587   4.371  65.452  1.00  0.00    -0.013 OA 
BRANCH  40  46
HETATM   46  C   UNL     1      -7.916   5.899  65.050  1.00  0.00    -0.123 C  
HETATM   47  C   UNL     1      -6.830   6.771  64.451  1.00  0.00    -0.046 C  
ENDBRANCH  40  46
ENDBRANCH  36  38
ENDBRANCH  34  36
ENDBRANCH  25  34
ENDBRANCH  24  25
ENDBRANCH   6  21
TORSDOF 10
ENDMDL
MODEL      202
REMARK 921   NORMALIZED FREE ENERGY PREDICTED BY IDOCK:    0.44 KCAL/MOL
REMARK 922        TOTAL FREE ENERGY PREDICTED BY IDOCK:   -1.59 KCAL/MOL
REMARK 923 INTER-LIGAND FREE ENERGY PREDICTED BY IDOCK:   -1.92 KCAL/MOL
REMARK 924 INTRA-LIGAND FREE ENERGY PREDICTED BY IDOCK:    0.33 KCAL/MOL
REMARK 927      BINDING AFFINITY PREDICTED BY RF-SCORE:    0.00 PKD
ROOT
HETATM    1  C   UNL     1      -7.049  10.119  71.300  1.00  0.00     1.020 C  
HETATM    2  S   UNL     1      -6.154   9.820  69.757  1.00  0.00    -0.046 SA 
HETATM    3  C   UNL     1      -6.916  11.221  68.909  1.00  0.00    -0.099 C  
HETATM    4  C   UNL     1      -8.429  11.334  69.068  1.00  0.00     0.002 C  
HETATM    5  CA  UNL     1      -9.138  10.715  70.058  1.00  0.00     0.675 C  
HETATM    6  CA  UNL     1      -7.212   8.868  72.234  1.00  0.00     0.169 C  
HETATM    7  O   UNL     1      -9.833   8.810  72.450  1.00  0.00    -0.284 OA 
HETATM    8  N   UNL     1      -8.471  10.021  71.031  1.00  0.00     0.990 N  
HETATM    9  C   UNL     1     -10.657  10.720  70.031  1.00  0.00     0.005 C  
HETATM   10  OXT UNL     1     -11.316  11.017  69.045  1.00  0.00    -0.228 OA 
HETATM   11  O   UNL     1     -11.281  10.462  71.197  1.00  0.00    -0.204 OA 
HETATM   12  C   UNL     1      -8.752   9.146  72.025  1.00  0.00     0.445 C  
ENDROOT
BRANCH   4  13
HETATM   13  C   UNL     1      -9.024  12.117  67.897  1.00  0.00    -0.184 C  
BRANCH  13  14
HETATM   14  S   UNL     1      -9.387  13.862  68.214  1.00  0.00    -0.204 SA 
BRANCH  14  15
HETATM   15  C   UNL     1      -9.778  14.506  66.673  1.00  0.00    -0.273 A  
HETATM   16  N   UNL     1      -9.702  15.751  66.270  1.00  0.00    -0.277 NA 
HETATM   17  C   UNL     1     -10.513  12.335  65.584  1.00  0.00    -0.261 C  
HETATM   18  N   UNL     1     -10.171  15.756  64.977  1.00  0.00    -0.464 NA 
HETATM   19  N   UNL     1     -10.268  13.747  65.648  1.00  0.00    -0.305 NA 
HETATM   20  N   UNL     1     -10.522  14.537  64.590  1.00  0.00    -0.325 NA 
ENDBRANCH  14  15
ENDBRANCH  13  14
ENDBRANCH   4  13
BRANCH   6  21
HETATM   21  N   UNL     1      -6.669   7.596  71.677  1.00  0.00    -0.045 N  
HETATM   22  H   UNL     1      -6.285   7.609  70.732  1.00  0.00     0.000 HD 
HETATM   23  O   UNL     1      -6.950   6.346  73.563  1.00  0.00    -0.081 OA 
HETATM   24  C   UNL     1      -6.658   6.404  72.370  1.00  0.00    -0.060 C  
BRANCH  24  25
HETATM   25  CA  UNL     1      -6.426   5.144  71.492  1.00  0.00    -0.032 C  
BRANCH  25  26
HETATM   26  C   UNL     1      -7.578   4.159  71.629  1.00  0.00    -0.065 A  
HETATM   27  C   UNL     1      -8.434   1.880  71.753  1.00  0.00    -0.074 A  
HETATM   28  C   UNL     1      -8.887   4.632  71.802  1.00  0.00    -0.141 A  
HETATM   29  O   UNL     1     -10.728   1.472  72.096  1.00  0.00    -0.136 OA 
HETATM   30  C   UNL     1      -7.365   2.767  71.609  1.00  0.00    -0.040 A  
HETATM   31  C   UNL     1      -9.957   3.743  71.954  1.00  0.00    -0.230 A  
HETATM   32  H   UNL     1     -10.564   0.537  72.083  1.00  0.00     0.000 HD 
HETATM   33  C   UNL     1      -9.718   2.374  71.934  1.00  0.00    -0.147 A  
ENDBRANCH  25  26
BRANCH  25  34
HETATM   34  N   UNL     1      -6.240   5.490  70.084  1.00  0.00    -0.025 N  
HETATM   35  H   UNL     1      -5.547   6.197  69.840  1.00  0.00     0.000 HD 
BRANCH  34  36
HETATM   36  C   UNL     1      -6.962   4.903  69.082  1.00  0.00    -0.051 C  
HETATM   37  O   UNL     1      -7.276   3.717  69.134  1.00  0.00    -0.049 OA 
BRANCH  36  38
HETATM   38  N   UNL     1      -7.322   5.733  68.027  1.00  0.00    -0.073 N  
HETATM   39  C   UNL     1      -6.430   5.798  66.874  1.00  0.00    -0.050 C  
HETATM   40  N   UNL     1      -8.193   6.871  65.569  1.00  0.00    -0.131 N  
HETATM   41  C   UNL     1      -7.199   5.812  65.568  1.00  0.00    -0.074 C  
HETATM   42  C   UNL     1      -9.005   7.046  66.686  1.00  0.00    -0.142 C  
HETATM   43  O   UNL     1      -9.013   6.910  69.078  1.00  0.00    -0.133 OA 
HETATM   44  C   UNL     1      -8.458   6.546  68.044  1.00  0.00    -0.119 C  
HETATM   45  O   UNL     1     -10.097   7.601  66.654  1.00  0.00    -0.244 OA 
BRANCH  40  46
HETATM   46  C   UNL     1      -8.498   7.590  64.337  1.00  0.00     0.190 C  
HETATM   47  C   UNL     1      -7.650   8.826  64.107  1.00  0.00    -0.122 C  
ENDBRANCH  40  46
ENDBRANCH  36  38
ENDBRANCH  34  36
ENDBRANCH  25  34
ENDBRANCH  24  25
ENDBRANCH   6  21
TORSDOF 10
ENDMDL
MODEL      203
REMARK 921   NORMALIZED FREE ENERGY PREDICTED BY IDOCK:    0.93 KCAL/MOL
REMARK 922        TOTAL FREE ENERGY PREDICTED BY IDOCK:   -0.83 KCAL/MOL
REMARK 923 INTER-LIGAND FREE ENERGY PREDICTED BY IDOCK:   -6.07 KCAL/MOL
REMARK 924 INTRA-LIGAND FREE ENERGY PREDICTED BY IDOCK:    5.25 KCAL/MOL
REMARK 927      BINDING AFFINITY PREDICTED BY RF-SCORE:    0.00 PKD
ROOT
HETATM    1  C   UNL     1     -10.823   7.492  70.350  1.00  0.00    -0.244 C  
HETATM    2  S   UNL     1     -11.456   6.473  68.996  1.00  0.00     0.071 SA 
HETATM    3  C   UNL     1     -10.408   5.062  69.415  1.00  0.00    -0.144 C  
HETATM    4  C   UNL     1      -8.945   5.395  69.687  1.00  0.00    -0.130 C  
HETATM    5  CA  UNL     1      -8.494   6.648  69.993  1.00  0.00    -0.139 C  
HETATM    6  CA  UNL     1     -10.964   9.042  70.145  1.00  0.00    -0.233 C  
HETATM    7  O   UNL     1      -8.445   9.758  70.394  1.00  0.00    -0.188 OA 
HETATM    8  N   UNL     1      -9.395   7.664  70.164  1.00  0.00    -0.157 N  
HETATM    9  C   UNL     1      -7.003   6.932  70.057  1.00  0.00    -0.062 C  
HETATM   10  OXT UNL     1      -6.151   6.185  69.599  1.00  0.00    -0.024 OA 
HETATM   11  O   UNL     1      -6.628   8.033  70.737  1.00  0.00    -0.037 OA 
HETATM   12  C   UNL     1      -9.391   9.014  70.271  1.00  0.00    -0.198 C  
ENDROOT
BRANCH   4  13
HETATM   13  C   UNL     1      -8.070   4.167  69.434  1.00  0.00    -0.059 C  
BRANCH  13  14
HETATM   14  S   UNL     1      -7.743   3.118  70.873  1.00  0.00    -0.043 SA 
BRANCH  14  15
HETATM   15  C   UNL     1      -8.925   3.587  72.024  1.00  0.00    -0.100 A  
HETATM   16  N   UNL     1     -10.144   3.128  72.171  1.00  0.00    -0.158 NA 
HETATM   17  C   UNL     1      -7.547   5.361  73.207  1.00  0.00    -0.096 C  
HETATM   18  N   UNL     1     -10.700   3.859  73.195  1.00  0.00    -0.181 NA 
HETATM   19  N   UNL     1      -8.718   4.571  72.949  1.00  0.00    -0.112 NA 
HETATM   20  N   UNL     1      -9.837   4.744  73.674  1.00  0.00    -0.139 NA 
ENDBRANCH  14  15
ENDBRANCH  13  14
ENDBRANCH   4  13
BRANCH   6  21
HETATM   21  N   UNL     1     -11.533   9.449  68.828  1.00  0.00    -0.280 N  
HETATM   22  H   UNL     1     -12.389   8.996  68.512  1.00  0.00     0.000 HD 
HETATM   23  O   UNL     1     -10.030  11.109  68.399  1.00  0.00    -0.173 OA 
HETATM   24  C   UNL     1     -10.963  10.407  68.016  1.00  0.00    -0.291 C  
BRANCH  24  25
HETATM   25  CA  UNL     1     -11.470  10.399  66.547  1.00  0.00     0.923 C  
BRANCH  25  26
HETATM   26  C   UNL     1     -11.427  11.796  65.944  1.00  0.00    -0.273 A  
HETATM   27  C   UNL     1     -10.948  13.306  64.092  1.00  0.00    -0.380 A  
HETATM   28  C   UNL     1     -11.874  12.896  66.691  1.00  0.00    -0.461 A  
HETATM   29  O   UNL     1     -11.397  15.611  64.271  1.00  0.00    -0.731 OA 
HETATM   30  C   UNL     1     -10.965  12.019  64.632  1.00  0.00    -0.367 A  
HETATM   31  C   UNL     1     -11.865  14.185  66.146  1.00  0.00    -0.420 A  
HETATM   32  H   UNL     1     -11.085  15.741  63.383  1.00  0.00     0.000 HD 
HETATM   33  C   UNL     1     -11.407  14.376  64.847  1.00  0.00    -0.380 A  
ENDBRANCH  25  26
BRANCH  25  34
HETATM   34  N   UNL     1     -10.701   9.478  65.712  1.00  0.00     0.321 N  
HETATM   35  H   UNL     1     -11.034   8.520  65.603  1.00  0.00     0.000 HD 
BRANCH  34  36
HETATM   36  C   UNL     1      -9.553   9.853  65.072  1.00  0.00    -0.297 C  
HETATM   37  O   UNL     1      -9.476   9.851  63.846  1.00  0.00    -0.273 OA 
BRANCH  36  38
HETATM   38  N   UNL     1      -8.501  10.243  65.892  1.00  0.00    -0.144 N  
HETATM   39  C   UNL     1      -8.443  11.639  66.311  1.00  0.00    -0.066 C  
HETATM   40  N   UNL     1      -6.807  11.058  68.028  1.00  0.00    -0.066 N  
HETATM   41  C   UNL     1      -8.043  11.774  67.768  1.00  0.00    -0.143 C  
HETATM   42  C   UNL     1      -6.645   9.768  67.531  1.00  0.00    -0.069 C  
HETATM   43  O   UNL     1      -7.171   8.364  65.662  1.00  0.00    -0.073 OA 
HETATM   44  C   UNL     1      -7.472   9.382  66.282  1.00  0.00    -0.096 C  
HETATM   45  O   UNL     1      -5.866   8.949  68.004  1.00  0.00    -0.044 OA 
BRANCH  40  46
HETATM   46  C   UNL     1      -5.844  11.586  68.988  1.00  0.00    -0.049 C  
HETATM   47  C   UNL     1      -6.372  11.703  70.405  1.00  0.00     0.134 C  
ENDBRANCH  40  46
ENDBRANCH  36  38
ENDBRANCH  34  36
ENDBRANCH  25  34
ENDBRANCH  24  25
ENDBRANCH   6  21
TORSDOF 10
ENDMDL
MODEL      204
REMARK 921   NORMALIZED FREE ENERGY PREDICTED BY IDOCK:    2.31 KCAL/MOL
REMARK 922        TOTAL FREE ENERGY PREDICTED BY IDOCK:    1.37 KCAL/MOL
REMARK 923 INTER-LIGAND FREE ENERGY PREDICTED BY IDOCK:   -0.17 KCAL/MOL
REMARK 924 INTRA-LIGAND FREE ENERGY PREDICTED BY IDOCK:    1.54 KCAL/MOL
REMARK 927      BINDING AFFINITY PREDICTED BY RF-SCORE:    0.00 PKD
ROOT
HETATM    1  C   UNL     1      -6.774   9.959  68.297  1.00  0.00    -0.060 C  
HETATM    2  S   UNL     1      -7.492   8.720  69.402  1.00  0.00    -0.082 SA 
HETATM    3  C   UNL     1      -6.577   7.354  68.654  1.00  0.00    -0.045 C  
HETATM    4  C   UNL     1      -6.589   7.320  67.129  1.00  0.00    -0.063 C  
HETATM    5  CA  UNL     1      -6.897   8.396  66.346  1.00  0.00    -0.070 C  
HETATM    6  CA  UNL     1      -7.626  11.264  68.108  1.00  0.00    -0.105 C  
HETATM    7  O   UNL     1      -7.904  11.241  65.492  1.00  0.00     0.126 OA 
HETATM    8  N   UNL     1      -7.122   9.613  66.933  1.00  0.00    -0.085 N  
HETATM    9  C   UNL     1      -7.076   8.228  64.847  1.00  0.00    -0.079 C  
HETATM   10  OXT UNL     1      -7.223   7.145  64.300  1.00  0.00    -0.062 OA 
HETATM   11  O   UNL     1      -6.977   9.345  64.100  1.00  0.00    -0.093 OA 
HETATM   12  C   UNL     1      -7.618  10.826  66.592  1.00  0.00    -0.134 C  
ENDROOT
BRANCH   4  13
HETATM   13  C   UNL     1      -6.343   5.895  66.633  1.00  0.00    -0.041 C  
BRANCH  13  14
HETATM   14  S   UNL     1      -7.751   4.763  66.746  1.00  0.00    -0.092 SA 
BRANCH  14  15
HETATM   15  C   UNL     1      -7.415   3.796  68.123  1.00  0.00    -0.062 A  
HETATM   16  N   UNL     1      -6.278   3.658  68.761  1.00  0.00    -0.028 NA 
HETATM   17  C   UNL     1      -9.735   2.808  68.408  1.00  0.00     0.134 C  
HETATM   18  N   UNL     1      -6.515   2.740  69.757  1.00  0.00    -0.029 NA 
HETATM   19  N   UNL     1      -8.346   2.994  68.719  1.00  0.00    -0.063 NA 
HETATM   20  N   UNL     1      -7.775   2.327  69.737  1.00  0.00    -0.043 NA 
ENDBRANCH  14  15
ENDBRANCH  13  14
ENDBRANCH   4  13
BRANCH   6  21
HETATM   21  N   UNL     1      -8.941  11.259  68.810  1.00  0.00    -0.309 N  
HETATM   22  H   UNL     1      -9.372  10.359  69.020  1.00  0.00     0.000 HD 
HETATM   23  O   UNL     1      -9.076  13.514  69.122  1.00  0.00     0.275 OA 
HETATM   24  C   UNL     1      -9.605  12.406  69.192  1.00  0.00     0.539 C  
BRANCH  24  25
HETATM   25  CA  UNL     1     -11.105  12.203  69.539  1.00  0.00    -0.050 C  
BRANCH  25  26
HETATM   26  C   UNL     1     -11.594  13.271  70.508  1.00  0.00     0.104 A  
HETATM   27  C   UNL     1     -13.099  14.025  72.270  1.00  0.00    -0.516 A  
HETATM   28  C   UNL     1     -10.948  14.515  70.564  1.00  0.00     0.110 A  
HETATM   29  O   UNL     1     -12.865  16.167  73.219  1.00  0.00    -0.486 OA 
HETATM   30  C   UNL     1     -12.677  13.038  71.378  1.00  0.00    -0.375 A  
HETATM   31  C   UNL     1     -11.366  15.501  71.464  1.00  0.00    -0.466 A  
HETATM   32  H   UNL     1     -13.595  15.991  73.800  1.00  0.00     0.000 HD 
HETATM   33  C   UNL     1     -12.435  15.243  72.314  1.00  0.00    -0.361 A  
ENDBRANCH  25  26
BRANCH  25  34
HETATM   34  N   UNL     1     -11.944  12.205  68.342  1.00  0.00    -0.288 N  
HETATM   35  H   UNL     1     -12.567  11.414  68.178  1.00  0.00     0.000 HD 
BRANCH  34  36
HETATM   36  C   UNL     1     -11.926  13.227  67.434  1.00  0.00    -0.335 C  
HETATM   37  O   UNL     1     -12.499  14.290  67.659  1.00  0.00    -0.141 OA 
BRANCH  36  38
HETATM   38  N   UNL     1     -11.213  12.987  66.265  1.00  0.00    -0.293 N  
HETATM   39  C   UNL     1     -10.722  11.634  66.030  1.00  0.00    -0.280 C  
HETATM   40  N   UNL     1     -10.297  12.193  63.691  1.00  0.00    -0.433 N  
HETATM   41  C   UNL     1     -10.896  11.216  64.583  1.00  0.00    -0.225 C  
HETATM   42  C   UNL     1     -10.534  13.549  63.903  1.00  0.00     0.382 C  
HETATM   43  O   UNL     1     -10.855  15.182  65.627  1.00  0.00    -0.328 OA 
HETATM   44  C   UNL     1     -10.896  13.987  65.342  1.00  0.00    -0.328 C  
HETATM   45  O   UNL     1     -10.435  14.402  63.029  1.00  0.00     4.102 OA 
BRANCH  40  46
HETATM   46  C   UNL     1      -9.651  11.759  62.457  1.00  0.00     0.570 C  
HETATM   47  C   UNL     1      -8.255  11.199  62.645  1.00  0.00    -0.066 C  
ENDBRANCH  40  46
ENDBRANCH  36  38
ENDBRANCH  34  36
ENDBRANCH  25  34
ENDBRANCH  24  25
ENDBRANCH   6  21
TORSDOF 10
ENDMDL
MODEL      205
REMARK 921   NORMALIZED FREE ENERGY PREDICTED BY IDOCK:    4.32 KCAL/MOL
REMARK 922        TOTAL FREE ENERGY PREDICTED BY IDOCK:    4.55 KCAL/MOL
REMARK 923 INTER-LIGAND FREE ENERGY PREDICTED BY IDOCK:    3.49 KCAL/MOL
REMARK 924 INTRA-LIGAND FREE ENERGY PREDICTED BY IDOCK:    1.06 KCAL/MOL
REMARK 927      BINDING AFFINITY PREDICTED BY RF-SCORE:    0.00 PKD
ROOT
HETATM    1  C   UNL     1      -5.164  12.561  69.603  1.00  0.00    -0.075 C  
HETATM    2  S   UNL     1      -5.850  11.818  68.103  1.00  0.00    -0.049 SA 
HETATM    3  C   UNL     1      -6.280  13.413  67.371  1.00  0.00     0.048 C  
HETATM    4  C   UNL     1      -6.992  14.387  68.305  1.00  0.00    -0.113 C  
HETATM    5  CA  UNL     1      -6.977  14.285  69.667  1.00  0.00    -0.049 C  
HETATM    6  CA  UNL     1      -5.144  11.627  70.865  1.00  0.00    -0.127 C  
HETATM    7  O   UNL     1      -6.529  13.110  72.540  1.00  0.00     1.851 OA 
HETATM    8  N   UNL     1      -6.213  13.317  70.261  1.00  0.00    -0.077 N  
HETATM    9  C   UNL     1      -7.868  15.177  70.513  1.00  0.00     1.117 C  
HETATM   10  OXT UNL     1      -8.807  15.819  70.063  1.00  0.00     0.092 OA 
HETATM   11  O   UNL     1      -7.527  15.315  71.809  1.00  0.00     2.738 OA 
HETATM   12  C   UNL     1      -6.058  12.756  71.484  1.00  0.00     1.277 C  
ENDROOT
BRANCH   4  13
HETATM   13  C   UNL     1      -7.814  15.388  67.493  1.00  0.00    -0.170 C  
BRANCH  13  14
HETATM   14  S   UNL     1      -8.934  14.677  66.261  1.00  0.00     0.044 SA 
BRANCH  14  15
HETATM   15  C   UNL     1     -10.383  14.367  67.126  1.00  0.00    -0.262 A  
HETATM   16  N   UNL     1     -11.339  15.209  67.436  1.00  0.00    -0.327 NA 
HETATM   17  C   UNL     1      -9.991  11.897  67.555  1.00  0.00    -0.187 C  
HETATM   18  N   UNL     1     -12.251  14.487  68.170  1.00  0.00    -0.174 NA 
HETATM   19  N   UNL     1     -10.700  13.142  67.640  1.00  0.00    -0.236 NA 
HETATM   20  N   UNL     1     -11.867  13.224  68.302  1.00  0.00    -0.351 NA 
ENDBRANCH  14  15
ENDBRANCH  13  14
ENDBRANCH   4  13
BRANCH   6  21
HETATM   21  N   UNL     1      -5.764  10.287  70.661  1.00  0.00    -0.081 N  
HETATM   22  H   UNL     1      -5.150   9.476  70.598  1.00  0.00     0.000 HD 
HETATM   23  O   UNL     1      -7.932  10.983  70.781  1.00  0.00     1.777 OA 
HETATM   24  C   UNL     1      -7.125  10.085  70.553  1.00  0.00    -0.068 C  
BRANCH  24  25
HETATM   25  CA  UNL     1      -7.532   8.709  69.958  1.00  0.00    -0.056 C  
BRANCH  25  26
HETATM   26  C   UNL     1      -8.555   8.010  70.842  1.00  0.00    -0.136 A  
HETATM   27  C   UNL     1      -9.142   6.328  72.505  1.00  0.00    -0.141 A  
HETATM   28  C   UNL     1      -9.891   8.436  70.839  1.00  0.00    -0.223 A  
HETATM   29  O   UNL     1     -11.344   6.161  73.324  1.00  0.00    -0.465 OA 
HETATM   30  C   UNL     1      -8.192   6.945  71.690  1.00  0.00    -0.109 A  
HETATM   31  C   UNL     1     -10.842   7.822  71.662  1.00  0.00    -0.265 A  
HETATM   32  H   UNL     1     -11.080   5.447  73.892  1.00  0.00     0.000 HD 
HETATM   33  C   UNL     1     -10.455   6.776  72.493  1.00  0.00    -0.209 A  
ENDBRANCH  25  26
BRANCH  25  34
HETATM   34  N   UNL     1      -8.062   8.840  68.602  1.00  0.00    -0.114 N  
HETATM   35  H   UNL     1      -7.710   9.590  68.007  1.00  0.00     0.000 HD 
BRANCH  34  36
HETATM   36  C   UNL     1      -9.013   7.995  68.100  1.00  0.00    -0.135 C  
HETATM   37  O   UNL     1     -10.148   8.390  67.848  1.00  0.00    -0.182 OA 
BRANCH  36  38
HETATM   38  N   UNL     1      -8.606   6.683  67.886  1.00  0.00    -0.118 N  
HETATM   39  C   UNL     1      -7.195   6.443  67.601  1.00  0.00    -0.086 C  
HETATM   40  N   UNL     1      -7.511   4.061  68.037  1.00  0.00    -0.067 N  
HETATM   41  C   UNL     1      -6.676   5.215  68.323  1.00  0.00    -0.054 C  
HETATM   42  C   UNL     1      -8.896   4.187  68.094  1.00  0.00    -0.109 C  
HETATM   43  O   UNL     1     -10.692   5.711  67.654  1.00  0.00    -0.235 OA 
HETATM   44  C   UNL     1      -9.488   5.599  67.871  1.00  0.00    -0.113 C  
HETATM   45  O   UNL     1      -9.659   3.245  68.272  1.00  0.00    -0.172 OA 
BRANCH  40  46
HETATM   46  C   UNL     1      -6.913   2.736  67.921  1.00  0.00    -0.049 C  
HETATM   47  C   UNL     1      -7.683   1.778  67.033  1.00  0.00    -0.065 C  
ENDBRANCH  40  46
ENDBRANCH  36  38
ENDBRANCH  34  36
ENDBRANCH  25  34
ENDBRANCH  24  25
ENDBRANCH   6  21
TORSDOF 10
ENDMDL
MODEL      206
REMARK 921   NORMALIZED FREE ENERGY PREDICTED BY IDOCK:    4.80 KCAL/MOL
REMARK 922        TOTAL FREE ENERGY PREDICTED BY IDOCK:    5.32 KCAL/MOL
REMARK 923 INTER-LIGAND FREE ENERGY PREDICTED BY IDOCK:    6.61 KCAL/MOL
REMARK 924 INTRA-LIGAND FREE ENERGY PREDICTED BY IDOCK:   -1.29 KCAL/MOL
REMARK 927      BINDING AFFINITY PREDICTED BY RF-SCORE:    0.00 PKD
ROOT
HETATM    1  C   UNL     1      -9.216  14.330  64.804  1.00  0.00     2.123 C  
HETATM    2  S   UNL     1      -8.435  13.561  66.243  1.00  0.00     0.963 SA 
HETATM    3  C   UNL     1      -9.098  11.922  65.873  1.00  0.00    -0.083 C  
HETATM    4  C   UNL     1     -10.582  11.884  65.523  1.00  0.00    -0.313 C  
HETATM    5  CA  UNL     1     -11.297  12.977  65.121  1.00  0.00    -0.291 C  
HETATM    6  CA  UNL     1      -9.453  15.878  64.916  1.00  0.00     1.394 C  
HETATM    7  O   UNL     1     -12.053  15.961  64.522  1.00  0.00    -0.136 OA 
HETATM    8  N   UNL     1     -10.652  14.168  64.922  1.00  0.00    -0.411 N  
HETATM    9  C   UNL     1     -12.807  12.895  64.980  1.00  0.00    -0.273 C  
HETATM   10  OXT UNL     1     -13.484  11.992  65.450  1.00  0.00     1.627 OA 
HETATM   11  O   UNL     1     -13.394  13.839  64.217  1.00  0.00     0.335 OA 
HETATM   12  C   UNL     1     -10.967  15.471  64.730  1.00  0.00    -0.399 C  
ENDROOT
BRANCH   4  13
HETATM   13  C   UNL     1     -11.157  10.499  65.818  1.00  0.00     0.396 C  
BRANCH  13  14
HETATM   14  S   UNL     1     -11.120   9.979  67.552  1.00  0.00     0.031 SA 
BRANCH  14  15
HETATM   15  C   UNL     1      -9.708   9.013  67.681  1.00  0.00    -0.156 A  
HETATM   16  N   UNL     1      -9.047   8.409  66.723  1.00  0.00    -0.149 NA 
HETATM   17  C   UNL     1      -9.429   9.169  70.198  1.00  0.00    -0.208 C  
HETATM   18  N   UNL     1      -8.026   7.728  67.344  1.00  0.00    -0.117 NA 
HETATM   19  N   UNL     1      -9.101   8.730  68.872  1.00  0.00    -0.141 NA 
HETATM   20  N   UNL     1      -8.053   7.916  68.656  1.00  0.00    -0.124 NA 
ENDBRANCH  14  15
ENDBRANCH  13  14
ENDBRANCH   4  13
BRANCH   6  21
HETATM   21  N   UNL     1      -9.067  16.476  66.226  1.00  0.00    -0.294 N  
HETATM   22  H   UNL     1      -8.125  16.855  66.324  1.00  0.00     0.000 HD 
HETATM   23  O   UNL     1     -11.107  16.262  67.220  1.00  0.00    -0.207 OA 
HETATM   24  C   UNL     1      -9.915  16.546  67.312  1.00  0.00    -0.264 C  
BRANCH  24  25
HETATM   25  CA  UNL     1      -9.212  16.832  68.667  1.00  0.00    -0.257 C  
BRANCH  25  26
HETATM   26  C   UNL     1     -10.105  16.450  69.840  1.00  0.00     0.048 A  
HETATM   27  C   UNL     1     -11.586  17.053  71.679  1.00  0.00     0.822 A  
HETATM   28  C   UNL     1     -10.309  15.098  70.153  1.00  0.00    -0.146 A  
HETATM   29  O   UNL     1     -12.616  15.390  72.990  1.00  0.00    -0.354 OA 
HETATM   30  C   UNL     1     -10.759  17.425  70.618  1.00  0.00     1.263 A  
HETATM   31  C   UNL     1     -11.144  14.725  71.212  1.00  0.00     0.065 A  
HETATM   32  H   UNL     1     -13.051  16.062  73.501  1.00  0.00     0.000 HD 
HETATM   33  C   UNL     1     -11.780  15.708  71.961  1.00  0.00    -0.461 A  
ENDBRANCH  25  26
BRANCH  25  34
HETATM   34  N   UNL     1      -7.934  16.132  68.775  1.00  0.00    -0.202 N  
HETATM   35  H   UNL     1      -7.747  15.352  68.145  1.00  0.00     0.000 HD 
BRANCH  34  36
HETATM   36  C   UNL     1      -6.979  16.484  69.687  1.00  0.00    -0.026 C  
HETATM   37  O   UNL     1      -6.700  17.662  69.897  1.00  0.00    -0.014 OA 
BRANCH  36  38
HETATM   38  N   UNL     1      -6.366  15.434  70.360  1.00  0.00    -0.034 N  
HETATM   39  C   UNL     1      -5.897  15.674  71.720  1.00  0.00     0.847 C  
HETATM   40  N   UNL     1      -5.670  13.268  72.070  1.00  0.00     0.191 N  
HETATM   41  C   UNL     1      -6.192  14.500  72.634  1.00  0.00     0.846 C  
HETATM   42  C   UNL     1      -5.887  12.985  70.724  1.00  0.00    -0.091 C  
HETATM   43  O   UNL     1      -6.062  14.007  68.564  1.00  0.00    -0.082 OA 
HETATM   44  C   UNL     1      -6.127  14.185  69.779  1.00  0.00    -0.132 C  
HETATM   45  O   UNL     1      -5.861  11.854  70.254  1.00  0.00    -0.142 OA 
BRANCH  40  46
HETATM   46  C   UNL     1      -5.130  12.234  72.945  1.00  0.00     0.386 C  
HETATM   47  C   UNL     1      -5.586  12.334  74.388  1.00  0.00     0.781 C  
ENDBRANCH  40  46
ENDBRANCH  36  38
ENDBRANCH  34  36
ENDBRANCH  25  34
ENDBRANCH  24  25
ENDBRANCH   6  21
TORSDOF 10
ENDMDL
MODEL      207
REMARK 921   NORMALIZED FREE ENERGY PREDICTED BY IDOCK:    6.29 KCAL/MOL
REMARK 922        TOTAL FREE ENERGY PREDICTED BY IDOCK:    7.67 KCAL/MOL
REMARK 923 INTER-LIGAND FREE ENERGY PREDICTED BY IDOCK:    3.05 KCAL/MOL
REMARK 924 INTRA-LIGAND FREE ENERGY PREDICTED BY IDOCK:    4.62 KCAL/MOL
REMARK 927      BINDING AFFINITY PREDICTED BY RF-SCORE:    0.00 PKD
ROOT
HETATM    1  C   UNL     1     -13.209  13.721  69.253  1.00  0.00     2.077 C  
HETATM    2  S   UNL     1     -12.247  14.733  70.402  1.00  0.00    -0.360 SA 
HETATM    3  C   UNL     1     -12.224  16.166  69.302  1.00  0.00     0.203 C  
HETATM    4  C   UNL     1     -11.872  15.866  67.849  1.00  0.00     0.155 C  
HETATM    5  CA  UNL     1     -11.949  14.623  67.288  1.00  0.00    -0.284 C  
HETATM    6  CA  UNL     1     -13.056  12.169  69.436  1.00  0.00     1.858 C  
HETATM    7  O   UNL     1     -12.248  11.512  67.021  1.00  0.00    -0.198 OA 
HETATM    8  N   UNL     1     -12.456  13.584  68.022  1.00  0.00     0.118 N  
HETATM    9  C   UNL     1     -11.396  14.373  65.896  1.00  0.00    -0.332 C  
HETATM   10  OXT UNL     1     -10.642  15.143  65.318  1.00  0.00    -0.348 OA 
HETATM   11  O   UNL     1     -11.848  13.278  65.255  1.00  0.00    -0.326 OA 
HETATM   12  C   UNL     1     -12.532  12.234  67.949  1.00  0.00     1.043 C  
ENDROOT
BRANCH   4  13
HETATM   13  C   UNL     1     -11.304  17.116  67.176  1.00  0.00     0.546 C  
BRANCH  13  14
HETATM   14  S   UNL     1      -9.887  16.851  66.080  1.00  0.00    -0.275 SA 
BRANCH  14  15
HETATM   15  C   UNL     1      -8.583  17.640  66.865  1.00  0.00    -0.242 A  
HETATM   16  N   UNL     1      -7.988  18.759  66.528  1.00  0.00    -0.270 NA 
HETATM   17  C   UNL     1      -8.258  15.958  68.738  1.00  0.00    -0.196 C  
HETATM   18  N   UNL     1      -6.977  18.938  67.443  1.00  0.00    -0.205 NA 
HETATM   19  N   UNL     1      -7.967  17.140  67.978  1.00  0.00    -0.205 NA 
HETATM   20  N   UNL     1      -6.955  17.952  68.330  1.00  0.00    -0.225 NA 
ENDBRANCH  14  15
ENDBRANCH  13  14
ENDBRANCH   4  13
BRANCH   6  21
HETATM   21  N   UNL     1     -12.079  11.756  70.484  1.00  0.00    -0.403 N  
HETATM   22  H   UNL     1     -11.441  12.461  70.852  1.00  0.00     0.000 HD 
HETATM   23  O   UNL     1     -12.831   9.616  70.710  1.00  0.00    -0.226 OA 
HETATM   24  C   UNL     1     -11.994  10.473  70.982  1.00  0.00    -0.364 C  
BRANCH  24  25
HETATM   25  CA  UNL     1     -10.681  10.162  71.753  1.00  0.00     1.601 C  
BRANCH  25  26
HETATM   26  C   UNL     1     -10.706   8.755  72.334  1.00  0.00    -0.220 A  
HETATM   27  C   UNL     1     -11.354   6.409  72.216  1.00  0.00    -0.330 A  
HETATM   28  C   UNL     1     -10.051   8.486  73.545  1.00  0.00     1.148 A  
HETATM   29  O   UNL     1     -10.691   4.890  73.888  1.00  0.00    -0.266 OA 
HETATM   30  C   UNL     1     -11.358   7.695  71.674  1.00  0.00    -0.286 A  
HETATM   31  C   UNL     1     -10.042   7.195  74.084  1.00  0.00    -0.214 A  
HETATM   32  H   UNL     1     -11.133   4.188  73.427  1.00  0.00     0.000 HD 
HETATM   33  C   UNL     1     -10.689   6.166  73.409  1.00  0.00    -0.259 A  
ENDBRANCH  25  26
BRANCH  25  34
HETATM   34  N   UNL     1      -9.502  10.323  70.905  1.00  0.00     0.510 N  
HETATM   35  H   UNL     1      -9.541  10.988  70.132  1.00  0.00     0.000 HD 
BRANCH  34  36
HETATM   36  C   UNL     1      -8.350   9.616  71.107  1.00  0.00     0.581 C  
HETATM   37  O   UNL     1      -8.001   9.274  72.234  1.00  0.00    -0.092 OA 
BRANCH  36  38
HETATM   38  N   UNL     1      -7.620   9.305  69.966  1.00  0.00    -0.085 N  
HETATM   39  C   UNL     1      -6.387   8.543  70.130  1.00  0.00    -0.038 C  
HETATM   40  N   UNL     1      -6.357   8.070  67.735  1.00  0.00    -0.051 N  
HETATM   41  C   UNL     1      -6.232   7.483  69.057  1.00  0.00    -0.035 C  
HETATM   42  C   UNL     1      -7.393   8.965  67.478  1.00  0.00    -0.081 C  
HETATM   43  O   UNL     1      -8.698  10.709  68.477  1.00  0.00    -0.127 OA 
HETATM   44  C   UNL     1      -7.978   9.734  68.686  1.00  0.00    -0.089 C  
HETATM   45  O   UNL     1      -7.831   9.196  66.357  1.00  0.00    -0.098 OA 
BRANCH  40  46
HETATM   46  C   UNL     1      -5.558   7.558  66.628  1.00  0.00    -0.024 C  
HETATM   47  C   UNL     1      -6.365   7.139  65.414  1.00  0.00    -0.037 C  
ENDBRANCH  40  46
ENDBRANCH  36  38
ENDBRANCH  34  36
ENDBRANCH  25  34
ENDBRANCH  24  25
ENDBRANCH   6  21
TORSDOF 10
ENDMDL
MODEL      208
REMARK 921   NORMALIZED FREE ENERGY PREDICTED BY IDOCK:    7.10 KCAL/MOL
REMARK 922        TOTAL FREE ENERGY PREDICTED BY IDOCK:    8.96 KCAL/MOL
REMARK 923 INTER-LIGAND FREE ENERGY PREDICTED BY IDOCK:    0.60 KCAL/MOL
REMARK 924 INTRA-LIGAND FREE ENERGY PREDICTED BY IDOCK:    8.36 KCAL/MOL
REMARK 927      BINDING AFFINITY PREDICTED BY RF-SCORE:    0.00 PKD
ROOT
HETATM    1  C   UNL     1      -5.453   7.540  69.952  1.00  0.00    -0.023 C  
HETATM    2  S   UNL     1      -5.914   6.769  68.382  1.00  0.00    -0.026 SA 
HETATM    3  C   UNL     1      -6.735   8.253  67.761  1.00  0.00    -0.066 C  
HETATM    4  C   UNL     1      -7.681   8.934  68.746  1.00  0.00    -0.096 C  
HETATM    5  CA  UNL     1      -7.650   8.730  70.096  1.00  0.00    -0.072 C  
HETATM    6  CA  UNL     1      -5.202   6.545  71.140  1.00  0.00    -0.019 C  
HETATM    7  O   UNL     1      -6.934   7.483  72.883  1.00  0.00    -0.064 OA 
HETATM    8  N   UNL     1      -6.666   7.946  70.636  1.00  0.00    -0.038 N  
HETATM    9  C   UNL     1      -8.748   9.293  70.982  1.00  0.00    -0.116 C  
HETATM   10  OXT UNL     1      -9.817   9.705  70.557  1.00  0.00    -0.256 OA 
HETATM   11  O   UNL     1      -8.463   9.409  72.294  1.00  0.00     0.170 OA 
HETATM   12  C   UNL     1      -6.380   7.348  71.817  1.00  0.00    -0.039 C  
ENDROOT
BRANCH   4  13
HETATM   13  C   UNL     1      -8.729   9.751  67.989  1.00  0.00    -0.118 C  
BRANCH  13  14
HETATM   14  S   UNL     1      -8.233  11.425  67.511  1.00  0.00    -0.136 SA 
BRANCH  14  15
HETATM   15  C   UNL     1      -9.566  12.411  67.950  1.00  0.00    -0.205 A  
HETATM   16  N   UNL     1     -10.762  12.035  68.333  1.00  0.00    -0.220 NA 
HETATM   17  C   UNL     1      -8.449  14.660  67.587  1.00  0.00    -0.180 C  
HETATM   18  N   UNL     1     -11.477  13.194  68.522  1.00  0.00    -0.280 NA 
HETATM   19  N   UNL     1      -9.530  13.776  67.918  1.00  0.00    -0.207 NA 
HETATM   20  N   UNL     1     -10.733  14.262  68.268  1.00  0.00    -0.241 NA 
ENDBRANCH  14  15
ENDBRANCH  13  14
ENDBRANCH   4  13
BRANCH   6  21
HETATM   21  N   UNL     1      -5.453   5.111  70.819  1.00  0.00    -0.004 N  
HETATM   22  H   UNL     1      -5.245   4.785  69.875  1.00  0.00     0.000 HD 
HETATM   23  O   UNL     1      -6.070   4.479  72.920  1.00  0.00    -0.015 OA 
HETATM   24  C   UNL     1      -5.952   4.202  71.729  1.00  0.00    -0.016 C  
BRANCH  24  25
HETATM   25  CA  UNL     1      -6.505   2.893  71.102  1.00  0.00    -0.023 C  
BRANCH  25  26
HETATM   26  C   UNL     1      -7.996   2.742  71.373  1.00  0.00    -0.051 A  
HETATM   27  C   UNL     1     -10.099   1.536  71.124  1.00  0.00    -0.021 A  
HETATM   28  C   UNL     1      -8.660   3.680  72.177  1.00  0.00    -0.101 A  
HETATM   29  O   UNL     1     -12.055   2.292  72.194  1.00  0.00     2.138 OA 
HETATM   30  C   UNL     1      -8.736   1.664  70.850  1.00  0.00    -0.098 A  
HETATM   31  C   UNL     1     -10.024   3.547  72.458  1.00  0.00    -0.230 A  
HETATM   32  H   UNL     1     -12.537   1.556  71.836  1.00  0.00     0.000 HD 
HETATM   33  C   UNL     1     -10.729   2.471  71.932  1.00  0.00     0.690 A  
ENDBRANCH  25  26
BRANCH  25  34
HETATM   34  N   UNL     1      -6.259   2.833  69.663  1.00  0.00    -0.027 N  
HETATM   35  H   UNL     1      -5.295   2.847  69.329  1.00  0.00     0.000 HD 
BRANCH  34  36
HETATM   36  C   UNL     1      -7.271   2.759  68.747  1.00  0.00    -0.048 C  
HETATM   37  O   UNL     1      -7.261   1.917  67.853  1.00  0.00    -0.045 OA 
BRANCH  36  38
HETATM   38  N   UNL     1      -8.300   3.679  68.905  1.00  0.00    -0.071 N  
HETATM   39  C   UNL     1      -8.112   4.756  69.871  1.00  0.00    -0.069 C  
HETATM   40  N   UNL     1     -10.006   5.956  68.905  1.00  0.00    -0.146 N  
HETATM   41  C   UNL     1      -8.628   6.081  69.345  1.00  0.00    -0.122 C  
HETATM   42  C   UNL     1     -10.378   4.870  68.116  1.00  0.00     0.035 C  
HETATM   43  O   UNL     1      -9.957   2.538  67.762  1.00  0.00     0.291 OA 
HETATM   44  C   UNL     1      -9.521   3.588  68.230  1.00  0.00    -0.148 C  
HETATM   45  O   UNL     1     -11.355   4.868  67.377  1.00  0.00     1.400 OA 
BRANCH  40  46
HETATM   46  C   UNL     1     -10.936   7.066  69.086  1.00  0.00    -0.158 C  
HETATM   47  C   UNL     1     -11.580   7.126  70.457  1.00  0.00    -0.331 C  
ENDBRANCH  40  46
ENDBRANCH  36  38
ENDBRANCH  34  36
ENDBRANCH  25  34
ENDBRANCH  24  25
ENDBRANCH   6  21
TORSDOF 10
ENDMDL
MODEL      209
REMARK 921   NORMALIZED FREE ENERGY PREDICTED BY IDOCK:    8.10 KCAL/MOL
REMARK 922        TOTAL FREE ENERGY PREDICTED BY IDOCK:   10.55 KCAL/MOL
REMARK 923 INTER-LIGAND FREE ENERGY PREDICTED BY IDOCK:    7.84 KCAL/MOL
REMARK 924 INTRA-LIGAND FREE ENERGY PREDICTED BY IDOCK:    2.71 KCAL/MOL
REMARK 927      BINDING AFFINITY PREDICTED BY RF-SCORE:    0.00 PKD
ROOT
HETATM    1  C   UNL     1      -6.971  10.013  68.239  1.00  0.00    -0.068 C  
HETATM    2  S   UNL     1      -7.864   8.461  68.487  1.00  0.00    -0.122 SA 
HETATM    3  C   UNL     1      -7.041   7.633  67.108  1.00  0.00    -0.085 C  
HETATM    4  C   UNL     1      -6.969   8.437  65.815  1.00  0.00    -0.067 C  
HETATM    5  CA  UNL     1      -7.129   9.792  65.751  1.00  0.00    -0.104 C  
HETATM    6  CA  UNL     1      -7.684  11.295  68.800  1.00  0.00    -0.138 C  
HETATM    7  O   UNL     1      -7.813  12.733  66.601  1.00  0.00     0.117 OA 
HETATM    8  N   UNL     1      -7.272  10.508  66.910  1.00  0.00    -0.101 N  
HETATM    9  C   UNL     1      -7.237  10.490  64.406  1.00  0.00     0.101 C  
HETATM   10  OXT UNL     1      -7.454   9.905  63.355  1.00  0.00    -0.124 OA 
HETATM   11  O   UNL     1      -6.991  11.815  64.393  1.00  0.00     2.345 OA 
HETATM   12  C   UNL     1      -7.631  11.757  67.292  1.00  0.00    -0.150 C  
ENDROOT
BRANCH   4  13
HETATM   13  C   UNL     1      -6.830   7.497  64.617  1.00  0.00    -0.051 C  
BRANCH  13  14
HETATM   14  S   UNL     1      -8.358   6.707  64.049  1.00  0.00     0.262 SA 
BRANCH  14  15
HETATM   15  C   UNL     1      -8.286   5.119  64.694  1.00  0.00    -0.132 A  
HETATM   16  N   UNL     1      -7.243   4.483  65.171  1.00  0.00    -0.066 NA 
HETATM   17  C   UNL     1     -10.732   4.523  64.378  1.00  0.00     0.226 C  
HETATM   18  N   UNL     1      -7.694   3.230  65.515  1.00  0.00    -0.080 NA 
HETATM   19  N   UNL     1      -9.367   4.288  64.756  1.00  0.00    -0.158 NA 
HETATM   20  N   UNL     1      -8.989   3.101  65.262  1.00  0.00    -0.138 NA 
ENDBRANCH  14  15
ENDBRANCH  13  14
ENDBRANCH   4  13
BRANCH   6  21
HETATM   21  N   UNL     1      -9.032  11.053  69.389  1.00  0.00    -0.389 N  
HETATM   22  H   UNL     1      -9.477  10.151  69.220  1.00  0.00     0.000 HD 
HETATM   23  O   UNL     1      -9.170  13.020  70.534  1.00  0.00     4.827 OA 
HETATM   24  C   UNL     1      -9.708  11.982  70.152  1.00  0.00     3.141 C  
BRANCH  24  25
HETATM   25  CA  UNL     1     -11.224  11.697  70.330  1.00  0.00     0.500 C  
BRANCH  25  26
HETATM   26  C   UNL     1     -11.942  12.898  70.929  1.00  0.00     0.024 A  
HETATM   27  C   UNL     1     -13.457  13.881  72.566  1.00  0.00    -0.676 A  
HETATM   28  C   UNL     1     -11.719  14.180  70.405  1.00  0.00    -0.312 A  
HETATM   29  O   UNL     1     -13.832  16.205  72.616  1.00  0.00    -0.358 OA 
HETATM   30  C   UNL     1     -12.821  12.764  72.021  1.00  0.00    -0.269 A  
HETATM   31  C   UNL     1     -12.351  15.301  70.956  1.00  0.00    -0.426 A  
HETATM   32  H   UNL     1     -14.419  16.095  73.355  1.00  0.00     0.000 HD 
HETATM   33  C   UNL     1     -13.210  15.140  72.037  1.00  0.00    -0.379 A  
ENDBRANCH  25  26
BRANCH  25  34
HETATM   34  N   UNL     1     -11.859  11.325  69.067  1.00  0.00    -0.335 N  
HETATM   35  H   UNL     1     -12.116  10.349  68.916  1.00  0.00     0.000 HD 
BRANCH  34  36
HETATM   36  C   UNL     1     -12.120  12.234  68.080  1.00  0.00    -0.013 C  
HETATM   37  O   UNL     1     -12.890  13.173  68.266  1.00  0.00     0.844 OA 
BRANCH  36  38
HETATM   38  N   UNL     1     -11.452  12.034  66.879  1.00  0.00    -0.341 N  
HETATM   39  C   UNL     1     -10.910  10.706  66.611  1.00  0.00    -0.131 C  
HETATM   40  N   UNL     1     -10.621  11.295  64.259  1.00  0.00    -0.342 N  
HETATM   41  C   UNL     1     -11.132  10.287  65.170  1.00  0.00     1.148 C  
HETATM   42  C   UNL     1     -10.910  12.638  64.491  1.00  0.00    -0.336 C  
HETATM   43  O   UNL     1     -11.225  14.246  66.240  1.00  0.00    -0.324 OA 
HETATM   44  C   UNL     1     -11.224  13.051  65.948  1.00  0.00    -0.289 C  
HETATM   45  O   UNL     1     -10.891  13.499  63.620  1.00  0.00     0.068 OA 
BRANCH  40  46
HETATM   46  C   UNL     1     -10.014  10.898  62.993  1.00  0.00    -0.274 C  
HETATM   47  C   UNL     1      -9.110  11.948  62.376  1.00  0.00     1.016 C  
ENDBRANCH  40  46
ENDBRANCH  36  38
ENDBRANCH  34  36
ENDBRANCH  25  34
ENDBRANCH  24  25
ENDBRANCH   6  21
TORSDOF 10
ENDMDL
MODEL      210
REMARK 921   NORMALIZED FREE ENERGY PREDICTED BY IDOCK:   11.47 KCAL/MOL
REMARK 922        TOTAL FREE ENERGY PREDICTED BY IDOCK:   15.88 KCAL/MOL
REMARK 923 INTER-LIGAND FREE ENERGY PREDICTED BY IDOCK:   17.79 KCAL/MOL
REMARK 924 INTRA-LIGAND FREE ENERGY PREDICTED BY IDOCK:   -1.91 KCAL/MOL
REMARK 927      BINDING AFFINITY PREDICTED BY RF-SCORE:    0.00 PKD
ROOT
HETATM    1  C   UNL     1     -10.922   5.255  65.246  1.00  0.00     0.867 C  
HETATM    2  S   UNL     1      -9.381   6.038  64.714  1.00  0.00     1.010 SA 
HETATM    3  C   UNL     1      -8.500   4.469  64.561  1.00  0.00    -0.128 C  
HETATM    4  C   UNL     1      -8.667   3.511  65.736  1.00  0.00    -0.121 C  
HETATM    5  CA  UNL     1      -9.678   3.598  66.650  1.00  0.00    -0.071 C  
HETATM    6  CA  UNL     1     -11.891   6.173  66.072  1.00  0.00     2.919 C  
HETATM    7  O   UNL     1     -12.127   4.723  68.255  1.00  0.00     6.961 OA 
HETATM    8  N   UNL     1     -10.665   4.530  66.476  1.00  0.00     0.137 N  
HETATM    9  C   UNL     1      -9.663   2.729  67.896  1.00  0.00     0.168 C  
HETATM   10  OXT UNL     1      -8.674   2.127  68.290  1.00  0.00    -0.073 OA 
HETATM   11  O   UNL     1     -10.840   2.564  68.531  1.00  0.00     3.594 OA 
HETATM   12  C   UNL     1     -11.685   5.071  67.184  1.00  0.00     4.154 C  
ENDROOT
BRANCH   4  13
HETATM   13  C   UNL     1      -7.480   2.550  65.805  1.00  0.00    -0.068 C  
BRANCH  13  14
HETATM   14  S   UNL     1      -5.853   3.317  66.016  1.00  0.00    -0.023 SA 
BRANCH  14  15
HETATM   15  C   UNL     1      -5.521   3.165  67.692  1.00  0.00    -0.017 A  
HETATM   16  N   UNL     1      -5.422   2.069  68.404  1.00  0.00    -0.017 NA 
HETATM   17  C   UNL     1      -5.336   5.641  68.218  1.00  0.00    -0.004 C  
HETATM   18  N   UNL     1      -5.195   2.480  69.697  1.00  0.00    -0.011 NA 
HETATM   19  N   UNL     1      -5.342   4.237  68.519  1.00  0.00    -0.011 NA 
HETATM   20  N   UNL     1      -5.147   3.803  69.776  1.00  0.00    -0.003 NA 
ENDBRANCH  14  15
ENDBRANCH  13  14
ENDBRANCH   4  13
BRANCH   6  21
HETATM   21  N   UNL     1     -11.364   7.537  66.362  1.00  0.00     0.803 N  
HETATM   22  H   UNL     1     -11.186   8.162  65.576  1.00  0.00     0.000 HD 
HETATM   23  O   UNL     1     -11.448   7.369  68.634  1.00  0.00     0.356 OA 
HETATM   24  C   UNL     1     -11.106   7.999  67.636  1.00  0.00     0.336 C  
BRANCH  24  25
HETATM   25  CA  UNL     1     -10.208   9.265  67.697  1.00  0.00    -0.230 C  
BRANCH  25  26
HETATM   26  C   UNL     1     -10.782  10.387  66.843  1.00  0.00    -0.272 A  
HETATM   27  C   UNL     1     -10.837  11.684  64.781  1.00  0.00    -0.367 A  
HETATM   28  C   UNL     1     -11.844  11.164  67.329  1.00  0.00     0.263 A  
HETATM   29  O   UNL     1     -12.419  13.402  64.480  1.00  0.00    -0.547 OA 
HETATM   30  C   UNL     1     -10.286  10.661  65.554  1.00  0.00    -0.329 A  
HETATM   31  C   UNL     1     -12.401  12.185  66.551  1.00  0.00     0.606 A  
HETATM   32  H   UNL     1     -12.074  13.570  63.612  1.00  0.00     0.000 HD 
HETATM   33  C   UNL     1     -11.895  12.430  65.280  1.00  0.00    -0.399 A  
ENDBRANCH  25  26
BRANCH  25  34
HETATM   34  N   UNL     1     -10.026   9.736  69.069  1.00  0.00    -0.175 N  
HETATM   35  H   UNL     1     -10.833  10.106  69.572  1.00  0.00     0.000 HD 
BRANCH  34  36
HETATM   36  C   UNL     1      -8.816   9.698  69.704  1.00  0.00    -0.201 C  
HETATM   37  O   UNL     1      -7.994  10.600  69.563  1.00  0.00    -0.145 OA 
BRANCH  36  38
HETATM   38  N   UNL     1      -8.591   8.595  70.518  1.00  0.00    -0.143 N  
HETATM   39  C   UNL     1      -7.367   7.829  70.308  1.00  0.00    -0.067 C  
HETATM   40  N   UNL     1      -7.689   6.721  72.460  1.00  0.00    -0.096 N  
HETATM   41  C   UNL     1      -6.730   7.416  71.621  1.00  0.00    -0.050 C  
HETATM   42  C   UNL     1      -8.971   7.243  72.612  1.00  0.00    -0.131 C  
HETATM   43  O   UNL     1     -10.704   8.416  71.444  1.00  0.00    -0.217 OA 
HETATM   44  C   UNL     1      -9.503   8.152  71.479  1.00  0.00    -0.171 C  
HETATM   45  O   UNL     1      -9.699   6.994  73.566  1.00  0.00    -0.186 OA 
BRANCH  40  46
HETATM   46  C   UNL     1      -7.253   5.623  73.316  1.00  0.00    -0.087 C  
HETATM   47  C   UNL     1      -5.751   5.534  73.504  1.00  0.00    -0.028 C  
ENDBRANCH  40  46
ENDBRANCH  36  38
ENDBRANCH  34  36
ENDBRANCH  25  34
ENDBRANCH  24  25
ENDBRANCH   6  21
TORSDOF 10
ENDMDL
MODEL      211
REMARK 921   NORMALIZED FREE ENERGY PREDICTED BY IDOCK:   12.78 KCAL/MOL
REMARK 922        TOTAL FREE ENERGY PREDICTED BY IDOCK:   17.95 KCAL/MOL
REMARK 923 INTER-LIGAND FREE ENERGY PREDICTED BY IDOCK:    1.69 KCAL/MOL
REMARK 924 INTRA-LIGAND FREE ENERGY PREDICTED BY IDOCK:   16.26 KCAL/MOL
REMARK 927      BINDING AFFINITY PREDICTED BY RF-SCORE:    0.00 PKD
ROOT
HETATM    1  C   UNL     1      -5.939   7.516  70.399  1.00  0.00    -0.027 C  
HETATM    2  S   UNL     1      -6.354   6.458  68.993  1.00  0.00    -0.039 SA 
HETATM    3  C   UNL     1      -7.312   7.744  68.160  1.00  0.00    -0.106 C  
HETATM    4  C   UNL     1      -8.299   8.498  69.046  1.00  0.00    -0.118 C  
HETATM    5  CA  UNL     1      -8.229   8.525  70.410  1.00  0.00    -0.114 C  
HETATM    6  CA  UNL     1      -5.583   6.758  71.727  1.00  0.00    -0.036 C  
HETATM    7  O   UNL     1      -7.364   7.826  73.342  1.00  0.00    -0.092 OA 
HETATM    8  N   UNL     1      -7.172   7.928  71.042  1.00  0.00    -0.056 N  
HETATM    9  C   UNL     1      -9.358   9.134  71.223  1.00  0.00    -0.215 C  
HETATM   10  OXT UNL     1     -10.466   9.379  70.768  1.00  0.00    -0.257 OA 
HETATM   11  O   UNL     1      -9.064   9.492  72.489  1.00  0.00     0.881 OA 
HETATM   12  C   UNL     1      -6.817   7.561  72.297  1.00  0.00    -0.060 C  
ENDROOT
BRANCH   4  13
HETATM   13  C   UNL     1      -9.425   9.086  68.196  1.00  0.00    -0.142 C  
BRANCH  13  14
HETATM   14  S   UNL     1      -8.919  10.261  66.915  1.00  0.00    -0.136 SA 
BRANCH  14  15
HETATM   15  C   UNL     1      -8.397   9.277  65.611  1.00  0.00    -0.123 A  
HETATM   16  N   UNL     1      -7.520   8.302  65.630  1.00  0.00    -0.079 NA 
HETATM   17  C   UNL     1      -9.819  10.344  63.801  1.00  0.00    -0.243 C  
HETATM   18  N   UNL     1      -7.418   7.865  64.330  1.00  0.00    -0.096 NA 
HETATM   19  N   UNL     1      -8.846   9.433  64.331  1.00  0.00    -0.205 NA 
HETATM   20  N   UNL     1      -8.222   8.552  63.529  1.00  0.00    -0.160 NA 
ENDBRANCH  14  15
ENDBRANCH  13  14
ENDBRANCH   4  13
BRANCH   6  21
HETATM   21  N   UNL     1      -5.713   5.275  71.654  1.00  0.00    -0.015 N  
HETATM   22  H   UNL     1      -5.353   4.800  70.827  1.00  0.00     0.000 HD 
HETATM   23  O   UNL     1      -6.600   4.990  73.735  1.00  0.00    -0.064 OA 
HETATM   24  C   UNL     1      -6.294   4.512  72.646  1.00  0.00    -0.025 C  
BRANCH  24  25
HETATM   25  CA  UNL     1      -6.684   3.072  72.212  1.00  0.00    -0.015 C  
BRANCH  25  26
HETATM   26  C   UNL     1      -8.196   2.906  72.154  1.00  0.00    -0.059 A  
HETATM   27  C   UNL     1     -10.185   1.505  72.012  1.00  0.00    -0.223 A  
HETATM   28  C   UNL     1      -9.027   4.034  72.229  1.00  0.00    -0.137 A  
HETATM   29  O   UNL     1     -12.337   2.458  72.087  1.00  0.00     2.732 OA 
HETATM   30  C   UNL     1      -8.796   1.636  72.047  1.00  0.00    -0.096 A  
HETATM   31  C   UNL     1     -10.420   3.901  72.201  1.00  0.00    -0.060 A  
HETATM   32  H   UNL     1     -12.723   1.594  72.018  1.00  0.00     0.000 HD 
HETATM   33  C   UNL     1     -10.985   2.636  72.099  1.00  0.00     0.811 A  
ENDBRANCH  25  26
BRANCH  25  34
HETATM   34  N   UNL     1      -6.101   2.718  70.919  1.00  0.00    -0.018 N  
HETATM   35  H   UNL     1      -5.085   2.702  70.827  1.00  0.00     0.000 HD 
BRANCH  34  36
HETATM   36  C   UNL     1      -6.865   2.406  69.829  1.00  0.00    -0.033 C  
HETATM   37  O   UNL     1      -6.557   1.485  69.077  1.00  0.00    -0.028 OA 
BRANCH  36  38
HETATM   38  N   UNL     1      -8.003   3.182  69.645  1.00  0.00    -0.049 N  
HETATM   39  C   UNL     1      -8.153   4.381  70.463  1.00  0.00    -0.067 C  
HETATM   40  N   UNL     1      -9.920   5.176  68.976  1.00  0.00    -0.187 N  
HETATM   41  C   UNL     1      -8.692   5.547  69.658  1.00  0.00    -0.108 C  
HETATM   42  C   UNL     1      -9.985   3.963  68.296  1.00  0.00     0.180 C  
HETATM   43  O   UNL     1      -9.233   1.689  68.375  1.00  0.00    -0.131 OA 
HETATM   44  C   UNL     1      -9.031   2.838  68.763  1.00  0.00    -0.130 C  
HETATM   45  O   UNL     1     -10.773   3.734  67.386  1.00  0.00     1.449 OA 
BRANCH  40  46
HETATM   46  C   UNL     1     -10.988   6.155  68.806  1.00  0.00    -0.348 C  
HETATM   47  C   UNL     1     -10.700   7.221  67.767  1.00  0.00    -0.267 C  
ENDBRANCH  40  46
ENDBRANCH  36  38
ENDBRANCH  34  36
ENDBRANCH  25  34
ENDBRANCH  24  25
ENDBRANCH   6  21
TORSDOF 10
ENDMDL
MODEL      212
REMARK 921   NORMALIZED FREE ENERGY PREDICTED BY IDOCK:   22.97 KCAL/MOL
REMARK 922        TOTAL FREE ENERGY PREDICTED BY IDOCK:   34.10 KCAL/MOL
REMARK 923 INTER-LIGAND FREE ENERGY PREDICTED BY IDOCK:   31.09 KCAL/MOL
REMARK 924 INTRA-LIGAND FREE ENERGY PREDICTED BY IDOCK:    3.00 KCAL/MOL
REMARK 927      BINDING AFFINITY PREDICTED BY RF-SCORE:    0.00 PKD
ROOT
HETATM    1  C   UNL     1     -12.091  13.953  71.288  1.00  0.00    -0.167 C  
HETATM    2  S   UNL     1     -10.643  14.686  72.086  1.00  0.00     3.019 SA 
HETATM    3  C   UNL     1     -10.950  16.328  71.398  1.00  0.00     0.393 C  
HETATM    4  C   UNL     1     -11.273  16.359  69.907  1.00  0.00    -0.253 C  
HETATM    5  CA  UNL     1     -11.697  15.271  69.198  1.00  0.00    -0.335 C  
HETATM    6  CA  UNL     1     -12.023  12.400  71.071  1.00  0.00     0.313 C  
HETATM    7  O   UNL     1     -12.375  12.298  68.466  1.00  0.00    -0.149 OA 
HETATM    8  N   UNL     1     -11.943  14.094  69.853  1.00  0.00    -0.317 N  
HETATM    9  C   UNL     1     -11.809  15.339  67.685  1.00  0.00    -0.059 C  
HETATM   10  OXT UNL     1     -11.299  16.219  67.006  1.00  0.00     0.043 OA 
HETATM   11  O   UNL     1     -12.591  14.412  67.096  1.00  0.00    -0.091 OA 
HETATM   12  C   UNL     1     -12.171  12.794  69.550  1.00  0.00    -0.102 C  
ENDROOT
BRANCH   4  13
HETATM   13  C   UNL     1     -10.925  17.728  69.322  1.00  0.00     0.795 C  
BRANCH  13  14
HETATM   14  S   UNL     1      -9.943  17.712  67.802  1.00  0.00    -0.332 SA 
BRANCH  14  15
HETATM   15  C   UNL     1      -8.461  18.456  68.241  1.00  0.00    -0.303 A  
HETATM   16  N   UNL     1      -7.249  18.147  67.848  1.00  0.00    -0.219 NA 
HETATM   17  C   UNL     1      -9.420  20.203  69.812  1.00  0.00     0.649 C  
HETATM   18  N   UNL     1      -6.407  19.003  68.518  1.00  0.00    -0.230 NA 
HETATM   19  N   UNL     1      -8.378  19.495  69.124  1.00  0.00    -0.213 NA 
HETATM   20  N   UNL     1      -7.088  19.828  69.302  1.00  0.00    -0.337 NA 
ENDBRANCH  14  15
ENDBRANCH  13  14
ENDBRANCH   4  13
BRANCH   6  21
HETATM   21  N   UNL     1     -10.740  11.766  71.487  1.00  0.00     4.767 N  
HETATM   22  H   UNL     1      -9.949  12.373  71.701  1.00  0.00     0.000 HD 
HETATM   23  O   UNL     1     -11.509   9.620  71.517  1.00  0.00    -0.377 OA 
HETATM   24  C   UNL     1     -10.565  10.402  71.598  1.00  0.00     2.374 C  
BRANCH  24  25
HETATM   25  CA  UNL     1      -9.082   9.940  71.653  1.00  0.00     2.327 C  
BRANCH  25  26
HETATM   26  C   UNL     1      -8.973   8.504  72.146  1.00  0.00    -0.300 A  
HETATM   27  C   UNL     1      -9.447   6.772  73.795  1.00  0.00    -0.215 A  
HETATM   28  C   UNL     1      -8.307   7.545  71.369  1.00  0.00    -0.108 A  
HETATM   29  O   UNL     1      -8.744   4.552  73.445  1.00  0.00    -0.101 OA 
HETATM   30  C   UNL     1      -9.545   8.098  73.368  1.00  0.00    -0.184 A  
HETATM   31  C   UNL     1      -8.216   6.215  71.793  1.00  0.00    -0.114 A  
HETATM   32  H   UNL     1      -9.139   4.296  74.270  1.00  0.00     0.000 HD 
HETATM   33  C   UNL     1      -8.793   5.840  73.001  1.00  0.00    -0.123 A  
ENDBRANCH  25  26
BRANCH  25  34
HETATM   34  N   UNL     1      -8.427  10.064  70.352  1.00  0.00    -0.259 N  
HETATM   35  H   UNL     1      -7.473   9.718  70.248  1.00  0.00     0.000 HD 
BRANCH  34  36
HETATM   36  C   UNL     1      -9.045  10.624  69.269  1.00  0.00    -0.100 C  
HETATM   37  O   UNL     1     -10.250  10.481  69.077  1.00  0.00    -0.194 OA 
BRANCH  36  38
HETATM   38  N   UNL     1      -8.230  11.368  68.424  1.00  0.00    -0.145 N  
HETATM   39  C   UNL     1      -8.539  11.361  66.998  1.00  0.00    -0.157 C  
HETATM   40  N   UNL     1      -7.075  13.289  66.670  1.00  0.00     1.056 N  
HETATM   41  C   UNL     1      -8.388  12.740  66.383  1.00  0.00     0.387 C  
HETATM   42  C   UNL     1      -6.566  13.206  67.964  1.00  0.00    -0.124 C  
HETATM   43  O   UNL     1      -6.504  11.798  69.902  1.00  0.00    -0.131 OA 
HETATM   44  C   UNL     1      -7.104  12.068  68.864  1.00  0.00    -0.104 C  
HETATM   45  O   UNL     1      -5.703  13.955  68.406  1.00  0.00    -0.087 OA 
BRANCH  40  46
HETATM   46  C   UNL     1      -6.396  14.119  65.682  1.00  0.00     9.779 C  
HETATM   47  C   UNL     1      -5.232  13.440  64.987  1.00  0.00    11.123 C  
ENDBRANCH  40  46
ENDBRANCH  36  38
ENDBRANCH  34  36
ENDBRANCH  25  34
ENDBRANCH  24  25
ENDBRANCH   6  21
TORSDOF 10
ENDMDL
MODEL      213
REMARK 921   NORMALIZED FREE ENERGY PREDICTED BY IDOCK:   31.16 KCAL/MOL
REMARK 922        TOTAL FREE ENERGY PREDICTED BY IDOCK:   47.08 KCAL/MOL
REMARK 923 INTER-LIGAND FREE ENERGY PREDICTED BY IDOCK:   46.34 KCAL/MOL
REMARK 924 INTRA-LIGAND FREE ENERGY PREDICTED BY IDOCK:    0.75 KCAL/MOL
REMARK 927      BINDING AFFINITY PREDICTED BY RF-SCORE:    0.00 PKD
ROOT
HETATM    1  C   UNL     1      -7.160  10.154  72.254  1.00  0.00     2.789 C  
HETATM    2  S   UNL     1      -6.417   9.538  70.725  1.00  0.00    -0.094 SA 
HETATM    3  C   UNL     1      -6.619  11.109  69.857  1.00  0.00    -0.129 C  
HETATM    4  C   UNL     1      -7.992  11.759  69.997  1.00  0.00     2.042 C  
HETATM    5  CA  UNL     1      -8.885  11.445  70.982  1.00  0.00     7.529 C  
HETATM    6  CA  UNL     1      -7.769   9.055  73.195  1.00  0.00     0.702 C  
HETATM    7  O   UNL     1     -10.239   9.943  73.379  1.00  0.00     5.536 OA 
HETATM    8  N   UNL     1      -8.520  10.569  71.968  1.00  0.00     6.468 N  
HETATM    9  C   UNL     1     -10.301  11.994  70.936  1.00  0.00     5.256 C  
HETATM   10  OXT UNL     1     -10.801  12.497  69.940  1.00  0.00     0.296 OA 
HETATM   11  O   UNL     1     -10.986  11.990  72.096  1.00  0.00     6.268 OA 
HETATM   12  C   UNL     1      -9.105   9.864  72.965  1.00  0.00     6.304 C  
ENDROOT
BRANCH   4  13
HETATM   13  C   UNL     1      -8.256  12.689  68.813  1.00  0.00     0.119 C  
BRANCH  13  14
HETATM   14  S   UNL     1      -9.386  12.059  67.547  1.00  0.00    -0.184 SA 
BRANCH  14  15
HETATM   15  C   UNL     1      -9.542  13.350  66.429  1.00  0.00    -0.257 A  
HETATM   16  N   UNL     1     -10.554  13.624  65.641  1.00  0.00    -0.286 NA 
HETATM   17  C   UNL     1      -7.272  14.410  66.828  1.00  0.00     1.111 C  
HETATM   18  N   UNL     1     -10.172  14.724  64.909  1.00  0.00    -0.356 NA 
HETATM   19  N   UNL     1      -8.557  14.269  66.206  1.00  0.00     0.281 NA 
HETATM   20  N   UNL     1      -8.952  15.123  65.245  1.00  0.00     1.006 NA 
ENDBRANCH  14  15
ENDBRANCH  13  14
ENDBRANCH   4  13
BRANCH   6  21
HETATM   21  N   UNL     1      -7.713   7.667  72.653  1.00  0.00    -0.091 N  
HETATM   22  H   UNL     1      -7.287   7.524  71.738  1.00  0.00     0.000 HD 
HETATM   23  O   UNL     1      -8.581   6.636  74.492  1.00  0.00    -0.141 OA 
HETATM   24  C   UNL     1      -8.206   6.567  73.324  1.00  0.00    -0.116 C  
BRANCH  24  25
HETATM   25  CA  UNL     1      -8.409   5.305  72.440  1.00  0.00    -0.118 C  
BRANCH  25  26
HETATM   26  C   UNL     1      -9.851   4.821  72.498  1.00  0.00    -0.204 A  
HETATM   27  C   UNL     1     -11.498   3.026  72.575  1.00  0.00     0.921 A  
HETATM   28  C   UNL     1     -10.900   5.751  72.566  1.00  0.00    -0.294 A  
HETATM   29  O   UNL     1     -13.797   3.508  72.746  1.00  0.00     1.374 OA 
HETATM   30  C   UNL     1     -10.170   3.449  72.505  1.00  0.00    -0.217 A  
HETATM   31  C   UNL     1     -12.231   5.326  72.643  1.00  0.00     0.185 A  
HETATM   32  H   UNL     1     -13.992   2.579  72.753  1.00  0.00     0.000 HD 
HETATM   33  C   UNL     1     -12.516   3.966  72.654  1.00  0.00     1.920 A  
ENDBRANCH  25  26
BRANCH  25  34
HETATM   34  N   UNL     1      -8.027   5.548  71.051  1.00  0.00    -0.104 N  
HETATM   35  H   UNL     1      -7.118   5.969  70.858  1.00  0.00     0.000 HD 
BRANCH  34  36
HETATM   36  C   UNL     1      -8.842   5.233  69.999  1.00  0.00    -0.120 C  
HETATM   37  O   UNL     1      -9.389   4.136  69.923  1.00  0.00    -0.129 OA 
BRANCH  36  38
HETATM   38  N   UNL     1      -9.017   6.230  69.047  1.00  0.00    -0.123 N  
HETATM   39  C   UNL     1      -8.193   6.179  67.845  1.00  0.00    -0.117 C  
HETATM   40  N   UNL     1      -9.666   7.798  66.763  1.00  0.00    -0.210 N  
HETATM   41  C   UNL     1      -8.989   6.524  66.601  1.00  0.00    -0.138 C  
HETATM   42  C   UNL     1     -10.352   8.064  67.945  1.00  0.00    -0.222 C  
HETATM   43  O   UNL     1     -10.288   7.692  70.312  1.00  0.00    -0.207 OA 
HETATM   44  C   UNL     1      -9.896   7.304  69.213  1.00  0.00    -0.166 C  
HETATM   45  O   UNL     1     -11.259   8.882  68.037  1.00  0.00     0.147 OA 
BRANCH  40  46
HETATM   46  C   UNL     1      -9.826   8.693  65.622  1.00  0.00     0.282 C  
HETATM   47  C   UNL     1      -8.713   9.711  65.464  1.00  0.00    -0.176 C  
ENDBRANCH  40  46
ENDBRANCH  36  38
ENDBRANCH  34  36
ENDBRANCH  25  34
ENDBRANCH  24  25
ENDBRANCH   6  21
TORSDOF 10
ENDMDL
MODEL      214
REMARK 921   NORMALIZED FREE ENERGY PREDICTED BY IDOCK:   37.48 KCAL/MOL
REMARK 922        TOTAL FREE ENERGY PREDICTED BY IDOCK:   57.09 KCAL/MOL
REMARK 923 INTER-LIGAND FREE ENERGY PREDICTED BY IDOCK:   44.05 KCAL/MOL
REMARK 924 INTRA-LIGAND FREE ENERGY PREDICTED BY IDOCK:   13.04 KCAL/MOL
REMARK 927      BINDING AFFINITY PREDICTED BY RF-SCORE:    0.00 PKD
ROOT
HETATM    1  C   UNL     1     -12.356  14.485  71.235  1.00  0.00    -0.351 C  
HETATM    2  S   UNL     1     -10.672  14.923  71.726  1.00  0.00     1.420 SA 
HETATM    3  C   UNL     1     -10.933  16.691  71.468  1.00  0.00     0.856 C  
HETATM    4  C   UNL     1     -11.618  17.064  70.157  1.00  0.00     1.183 C  
HETATM    5  CA  UNL     1     -12.342  16.187  69.401  1.00  0.00     0.382 C  
HETATM    6  CA  UNL     1     -12.544  13.013  70.721  1.00  0.00    -0.241 C  
HETATM    7  O   UNL     1     -13.556  13.496  68.341  1.00  0.00     3.850 OA 
HETATM    8  N   UNL     1     -12.562  14.919  69.866  1.00  0.00    -0.221 N  
HETATM    9  C   UNL     1     -12.826  16.585  68.017  1.00  0.00     3.298 C  
HETATM   10  OXT UNL     1     -12.398  17.551  67.401  1.00  0.00     2.672 OA 
HETATM   11  O   UNL     1     -13.843  15.865  67.503  1.00  0.00     5.802 OA 
HETATM   12  C   UNL     1     -13.022  13.733  69.400  1.00  0.00     1.058 C  
ENDROOT
BRANCH   4  13
HETATM   13  C   UNL     1     -11.259  18.498  69.765  1.00  0.00     3.180 C  
BRANCH  13  14
HETATM   14  S   UNL     1     -12.335  19.275  68.534  1.00  0.00     7.215 SA 
BRANCH  14  15
HETATM   15  C   UNL     1     -11.256  19.913  67.362  1.00  0.00     0.272 A  
HETATM   16  N   UNL     1     -11.250  21.112  66.832  1.00  0.00     3.483 NA 
HETATM   17  C   UNL     1      -9.830  17.836  67.060  1.00  0.00    -0.309 C  
HETATM   18  N   UNL     1     -10.224  21.112  65.916  1.00  0.00     1.585 NA 
HETATM   19  N   UNL     1     -10.246  19.185  66.802  1.00  0.00    -0.368 NA 
HETATM   20  N   UNL     1      -9.608  19.938  65.888  1.00  0.00    -0.349 NA 
ENDBRANCH  14  15
ENDBRANCH  13  14
ENDBRANCH   4  13
BRANCH   6  21
HETATM   21  N   UNL     1     -11.288  12.213  70.642  1.00  0.00     0.147 N  
HETATM   22  H   UNL     1     -10.437  12.682  70.333  1.00  0.00     0.000 HD 
HETATM   23  O   UNL     1     -12.155  10.286  71.498  1.00  0.00    -0.370 OA 
HETATM   24  C   UNL     1     -11.217  10.874  70.965  1.00  0.00     0.702 C  
BRANCH  24  25
HETATM   25  CA  UNL     1      -9.945  10.148  70.446  1.00  0.00     0.079 C  
BRANCH  25  26
HETATM   26  C   UNL     1     -10.195   8.656  70.278  1.00  0.00    -0.213 A  
HETATM   27  C   UNL     1     -10.538   6.694  68.873  1.00  0.00    -0.264 A  
HETATM   28  C   UNL     1     -10.280   7.829  71.408  1.00  0.00    -0.211 A  
HETATM   29  O   UNL     1     -10.789   4.557  69.829  1.00  0.00     0.729 OA 
HETATM   30  C   UNL     1     -10.325   8.067  69.005  1.00  0.00    -0.228 A  
HETATM   31  C   UNL     1     -10.485   6.451  71.275  1.00  0.00    -0.258 A  
HETATM   32  H   UNL     1     -10.871   4.178  68.963  1.00  0.00     0.000 HD 
HETATM   33  C   UNL     1     -10.606   5.896  70.007  1.00  0.00    -0.295 A  
ENDBRANCH  25  26
BRANCH  25  34
HETATM   34  N   UNL     1      -9.476  10.713  69.182  1.00  0.00    -0.297 N  
HETATM   35  H   UNL     1      -9.093  11.658  69.179  1.00  0.00     0.000 HD 
BRANCH  34  36
HETATM   36  C   UNL     1      -9.530  10.022  68.004  1.00  0.00    -0.137 C  
HETATM   37  O   UNL     1      -9.725   8.809  67.984  1.00  0.00    -0.150 OA 
BRANCH  36  38
HETATM   38  N   UNL     1      -9.366  10.777  66.849  1.00  0.00    -0.159 N  
HETATM   39  C   UNL     1      -9.658  10.141  65.569  1.00  0.00    -0.250 C  
HETATM   40  N   UNL     1      -9.680  12.328  64.484  1.00  0.00    -0.066 N  
HETATM   41  C   UNL     1     -10.398  11.075  64.632  1.00  0.00    -0.345 C  
HETATM   42  C   UNL     1      -9.180  12.968  65.615  1.00  0.00     0.359 C  
HETATM   43  O   UNL     1      -8.205  12.556  67.765  1.00  0.00    -0.142 OA 
HETATM   44  C   UNL     1      -8.882  12.088  66.852  1.00  0.00    -0.197 C  
HETATM   45  O   UNL     1      -8.934  14.167  65.666  1.00  0.00     0.402 OA 
BRANCH  40  46
HETATM   46  C   UNL     1      -9.682  13.027  63.204  1.00  0.00     2.865 C  
HETATM   47  C   UNL     1      -9.811  14.534  63.314  1.00  0.00     7.928 C  
ENDBRANCH  40  46
ENDBRANCH  36  38
ENDBRANCH  34  36
ENDBRANCH  25  34
ENDBRANCH  24  25
ENDBRANCH   6  21
TORSDOF 10
ENDMDL
MODEL      215
REMARK 921   NORMALIZED FREE ENERGY PREDICTED BY IDOCK:   44.38 KCAL/MOL
REMARK 922        TOTAL FREE ENERGY PREDICTED BY IDOCK:   68.02 KCAL/MOL
REMARK 923 INTER-LIGAND FREE ENERGY PREDICTED BY IDOCK:   55.47 KCAL/MOL
REMARK 924 INTRA-LIGAND FREE ENERGY PREDICTED BY IDOCK:   12.56 KCAL/MOL
REMARK 927      BINDING AFFINITY PREDICTED BY RF-SCORE:    0.00 PKD
ROOT
HETATM    1  C   UNL     1     -12.198  14.334  71.527  1.00  0.00    -0.301 C  
HETATM    2  S   UNL     1     -11.181  13.877  72.951  1.00  0.00     4.285 SA 
HETATM    3  C   UNL     1     -10.746  15.588  73.336  1.00  0.00     2.902 C  
HETATM    4  C   UNL     1     -10.305  16.431  72.144  1.00  0.00     3.784 C  
HETATM    5  CA  UNL     1     -10.573  16.110  70.844  1.00  0.00     0.479 C  
HETATM    6  CA  UNL     1     -12.387  13.210  70.448  1.00  0.00    -0.279 C  
HETATM    7  O   UNL     1     -11.470  14.467  68.327  1.00  0.00    -0.280 OA 
HETATM    8  N   UNL     1     -11.358  15.024  70.567  1.00  0.00    -0.277 N  
HETATM    9  C   UNL     1      -9.933  16.896  69.712  1.00  0.00     0.237 C  
HETATM   10  OXT UNL     1      -8.979  17.646  69.863  1.00  0.00     1.045 OA 
HETATM   11  O   UNL     1     -10.527  16.807  68.506  1.00  0.00    -0.293 OA 
HETATM   12  C   UNL     1     -11.700  14.266  69.498  1.00  0.00    -0.316 C  
ENDROOT
BRANCH   4  13
HETATM   13  C   UNL     1      -9.423  17.588  72.616  1.00  0.00    12.262 C  
BRANCH  13  14
HETATM   14  S   UNL     1      -9.111  18.893  71.401  1.00  0.00     6.517 SA 
BRANCH  14  15
HETATM   15  C   UNL     1      -7.410  19.108  71.428  1.00  0.00     3.243 A  
HETATM   16  N   UNL     1      -6.731  20.225  71.329  1.00  0.00    -0.226 NA 
HETATM   17  C   UNL     1      -6.772  16.665  71.685  1.00  0.00     4.309 C  
HETATM   18  N   UNL     1      -5.405  19.862  71.357  1.00  0.00    -0.306 NA 
HETATM   19  N   UNL     1      -6.527  18.071  71.534  1.00  0.00     2.458 NA 
HETATM   20  N   UNL     1      -5.271  18.548  71.479  1.00  0.00    -0.487 NA 
ENDBRANCH  14  15
ENDBRANCH  13  14
ENDBRANCH   4  13
BRANCH   6  21
HETATM   21  N   UNL     1     -11.636  11.951  70.720  1.00  0.00    -0.190 N  
HETATM   22  H   UNL     1     -10.714  12.023  71.149  1.00  0.00     0.000 HD 
HETATM   23  O   UNL     1     -13.281  10.519  70.057  1.00  0.00    -0.024 OA 
HETATM   24  C   UNL     1     -12.121  10.695  70.421  1.00  0.00    -0.341 C  
BRANCH  24  25
HETATM   25  CA  UNL     1     -11.049   9.570  70.411  1.00  0.00    -0.277 C  
BRANCH  25  26
HETATM   26  C   UNL     1     -11.434   8.454  69.449  1.00  0.00     0.519 A  
HETATM   27  C   UNL     1     -11.051   7.160  67.420  1.00  0.00    -0.208 A  
HETATM   28  C   UNL     1     -12.540   7.638  69.730  1.00  0.00     1.724 A  
HETATM   29  O   UNL     1     -12.442   5.341  66.871  1.00  0.00     5.323 OA 
HETATM   30  C   UNL     1     -10.691   8.199  68.280  1.00  0.00    -0.073 A  
HETATM   31  C   UNL     1     -12.896   6.592  68.871  1.00  0.00     5.820 A  
HETATM   32  H   UNL     1     -11.927   5.182  66.089  1.00  0.00     0.000 HD 
HETATM   33  C   UNL     1     -12.142   6.360  67.726  1.00  0.00     3.120 A  
ENDBRANCH  25  26
BRANCH  25  34
HETATM   34  N   UNL     1      -9.726  10.084  70.064  1.00  0.00    -0.367 N  
HETATM   35  H   UNL     1      -9.212  10.627  70.758  1.00  0.00     0.000 HD 
BRANCH  34  36
HETATM   36  C   UNL     1      -9.150   9.865  68.843  1.00  0.00    -0.156 C  
HETATM   37  O   UNL     1      -9.571   8.994  68.086  1.00  0.00    -0.145 OA 
BRANCH  36  38
HETATM   38  N   UNL     1      -8.083  10.694  68.518  1.00  0.00    -0.118 N  
HETATM   39  C   UNL     1      -7.559  10.631  67.158  1.00  0.00    -0.099 C  
HETATM   40  N   UNL     1      -6.351  12.721  67.526  1.00  0.00    -0.155 N  
HETATM   41  C   UNL     1      -7.232  12.009  66.617  1.00  0.00     0.140 C  
HETATM   42  C   UNL     1      -6.628  12.719  68.890  1.00  0.00    -0.095 C  
HETATM   43  O   UNL     1      -7.499  11.355  70.657  1.00  0.00     1.278 OA 
HETATM   44  C   UNL     1      -7.456  11.534  69.442  1.00  0.00     0.110 C  
HETATM   45  O   UNL     1      -6.224  13.575  69.669  1.00  0.00    -0.114 OA 
BRANCH  40  46
HETATM   46  C   UNL     1      -5.327  13.618  67.001  1.00  0.00     1.059 C  
HETATM   47  C   UNL     1      -5.146  14.896  67.796  1.00  0.00    -0.021 C  
ENDBRANCH  40  46
ENDBRANCH  36  38
ENDBRANCH  34  36
ENDBRANCH  25  34
ENDBRANCH  24  25
ENDBRANCH   6  21
TORSDOF 10
ENDMDL
MODEL      216
REMARK 921   NORMALIZED FREE ENERGY PREDICTED BY IDOCK:   64.29 KCAL/MOL
REMARK 922        TOTAL FREE ENERGY PREDICTED BY IDOCK:   99.58 KCAL/MOL
REMARK 923 INTER-LIGAND FREE ENERGY PREDICTED BY IDOCK:   91.07 KCAL/MOL
REMARK 924 INTRA-LIGAND FREE ENERGY PREDICTED BY IDOCK:    8.51 KCAL/MOL
REMARK 927      BINDING AFFINITY PREDICTED BY RF-SCORE:    0.00 PKD
ROOT
HETATM    1  C   UNL     1      -7.197  10.186  72.306  1.00  0.00     3.066 C  
HETATM    2  S   UNL     1      -6.756   9.786  70.599  1.00  0.00    -0.080 SA 
HETATM    3  C   UNL     1      -6.887  11.499  70.041  1.00  0.00     0.213 C  
HETATM    4  C   UNL     1      -8.139  12.240  70.501  1.00  0.00     5.258 C  
HETATM    5  CA  UNL     1      -8.916  11.841  71.550  1.00  0.00    13.684 C  
HETATM    6  CA  UNL     1      -7.796   8.999  73.140  1.00  0.00     0.762 C  
HETATM    7  O   UNL     1     -10.091  10.068  73.855  1.00  0.00     8.539 OA 
HETATM    8  N   UNL     1      -8.524  10.772  72.311  1.00  0.00     9.521 N  
HETATM    9  C   UNL     1     -10.248  12.519  71.820  1.00  0.00    12.046 C  
HETATM   10  OXT UNL     1     -10.819  13.237  71.011  1.00  0.00     2.332 OA 
HETATM   11  O   UNL     1     -10.760  12.372  73.057  1.00  0.00    12.019 OA 
HETATM   12  C   UNL     1      -9.044   9.958  73.259  1.00  0.00     6.866 C  
ENDROOT
BRANCH   4  13
HETATM   13  C   UNL     1      -8.453  13.388  69.541  1.00  0.00     1.263 C  
BRANCH  13  14
HETATM   14  S   UNL     1      -9.808  13.098  68.376  1.00  0.00    -0.167 SA 
BRANCH  14  15
HETATM   15  C   UNL     1      -9.038  12.512  66.959  1.00  0.00    -0.213 A  
HETATM   16  N   UNL     1      -9.445  12.605  65.716  1.00  0.00    -0.109 NA 
HETATM   17  C   UNL     1      -7.016  11.474  68.086  1.00  0.00    -0.070 C  
HETATM   18  N   UNL     1      -8.507  11.940  64.963  1.00  0.00     0.862 NA 
HETATM   19  N   UNL     1      -7.862  11.819  66.979  1.00  0.00    -0.161 NA 
HETATM   20  N   UNL     1      -7.538  11.454  65.727  1.00  0.00     0.251 NA 
ENDBRANCH  14  15
ENDBRANCH  13  14
ENDBRANCH   4  13
BRANCH   6  21
HETATM   21  N   UNL     1      -7.984   7.731  72.378  1.00  0.00    -0.106 N  
HETATM   22  H   UNL     1      -7.765   7.731  71.382  1.00  0.00     0.000 HD 
HETATM   23  O   UNL     1      -8.563   6.438  74.164  1.00  0.00    -0.119 OA 
HETATM   24  C   UNL     1      -8.437   6.560  72.948  1.00  0.00    -0.119 C  
BRANCH  24  25
HETATM   25  CA  UNL     1      -8.933   5.493  71.933  1.00  0.00    -0.135 C  
BRANCH  25  26
HETATM   26  C   UNL     1     -10.309   4.968  72.317  1.00  0.00    -0.267 A  
HETATM   27  C   UNL     1     -12.739   5.014  72.130  1.00  0.00     1.903 A  
HETATM   28  C   UNL     1     -10.424   3.895  73.213  1.00  0.00    -0.256 A  
HETATM   29  O   UNL     1     -14.066   3.465  73.306  1.00  0.00     1.255 OA 
HETATM   30  C   UNL     1     -11.487   5.520  71.777  1.00  0.00    -0.020 A  
HETATM   31  C   UNL     1     -11.679   3.383  73.561  1.00  0.00     0.054 A  
HETATM   32  H   UNL     1     -14.849   3.848  72.929  1.00  0.00     0.000 HD 
HETATM   33  C   UNL     1     -12.825   3.944  73.010  1.00  0.00     1.543 A  
ENDBRANCH  25  26
BRANCH  25  34
HETATM   34  N   UNL     1      -8.969   6.017  70.569  1.00  0.00    -0.144 N  
HETATM   35  H   UNL     1      -8.185   6.579  70.238  1.00  0.00     0.000 HD 
BRANCH  34  36
HETATM   36  C   UNL     1     -10.016   5.784  69.720  1.00  0.00    -0.190 C  
HETATM   37  O   UNL     1     -10.448   4.649  69.538  1.00  0.00    -0.040 OA 
BRANCH  36  38
HETATM   38  N   UNL     1     -10.556   6.904  69.101  1.00  0.00    -0.213 N  
HETATM   39  C   UNL     1     -11.990   7.136  69.239  1.00  0.00     0.853 C  
HETATM   40  N   UNL     1     -11.698   9.425  68.439  1.00  0.00     0.840 N  
HETATM   41  C   UNL     1     -12.303   8.602  69.471  1.00  0.00     2.093 C  
HETATM   42  C   UNL     1     -10.375   9.198  68.070  1.00  0.00    -0.222 C  
HETATM   43  O   UNL     1      -8.750   7.463  67.768  1.00  0.00    -0.126 OA 
HETATM   44  C   UNL     1      -9.807   7.779  68.309  1.00  0.00    -0.167 C  
HETATM   45  O   UNL     1      -9.661  10.042  67.542  1.00  0.00    -0.150 OA 
BRANCH  40  46
HETATM   46  C   UNL     1     -12.384  10.620  67.960  1.00  0.00     1.748 C  
HETATM   47  C   UNL     1     -13.739  10.862  68.597  1.00  0.00     7.176 C  
ENDBRANCH  40  46
ENDBRANCH  36  38
ENDBRANCH  34  36
ENDBRANCH  25  34
ENDBRANCH  24  25
ENDBRANCH   6  21
TORSDOF 10
ENDMDL
