MODEL        1
REMARK 921   NORMALIZED FREE ENERGY PREDICTED BY IDOCK:   -8.76 KCAL/MOL
REMARK 922        TOTAL FREE ENERGY PREDICTED BY IDOCK:  -13.68 KCAL/MOL
REMARK 923 INTER-LIGAND FREE ENERGY PREDICTED BY IDOCK:  -12.86 KCAL/MOL
REMARK 924 INTRA-LIGAND FREE ENERGY PREDICTED BY IDOCK:   -0.82 KCAL/MOL
REMARK 927      BINDING AFFINITY PREDICTED BY RF-SCORE:    0.00 PKD
ROOT
HETATM    1  C   UNL     1     -11.071  13.692  67.711  1.00  0.00    -0.272 C  
HETATM    2  S   UNL     1      -9.296  13.387  67.820  1.00  0.00    -0.221 SA 
HETATM    3  C   UNL     1      -8.846  15.101  67.468  1.00  0.00    -0.182 C  
HETATM    4  C   UNL     1      -9.608  15.746  66.317  1.00  0.00    -0.343 C  
HETATM    5  O   UNL     1     -12.234  15.173  63.842  1.00  0.00    -0.592 OA 
HETATM    6  CA  UNL     1     -10.772  15.255  65.797  1.00  0.00    -0.348 C  
HETATM    7  N   UNL     1     -11.363  14.166  66.373  1.00  0.00    -0.328 N  
HETATM    8  O   UNL     1     -12.918  13.055  65.060  1.00  0.00    -0.723 OA 
HETATM    9  C   UNL     1     -11.411  15.920  64.596  1.00  0.00    -0.322 C  
HETATM   10  CA  UNL     1     -11.993  12.468  67.400  1.00  0.00    -0.213 C  
HETATM   11  OXT UNL     1     -11.213  17.088  64.303  1.00  0.00    -1.186 OA 
HETATM   12  C   UNL     1     -12.269  13.220  66.065  1.00  0.00    -0.424 C  
ENDROOT
BRANCH   4  13
HETATM   13  C   UNL     1      -8.824  16.923  65.737  1.00  0.00     0.153 C  
BRANCH  13  14
HETATM   14  S   UNL     1      -7.155  17.041  66.474  1.00  0.00    -0.260 SA 
BRANCH  14  15
HETATM   15  C   UNL     1      -6.971  18.762  66.493  1.00  0.00    -0.213 A  
HETATM   16  N   UNL     1      -6.367  19.477  65.572  1.00  0.00    -0.220 NA 
HETATM   17  N   UNL     1      -7.443  19.607  67.462  1.00  0.00    -0.250 NA 
HETATM   18  N   UNL     1      -6.501  20.786  65.957  1.00  0.00    -0.238 NA 
HETATM   19  N   UNL     1      -7.184  20.881  67.087  1.00  0.00    -0.349 NA 
BRANCH  17  20
HETATM   20  C   UNL     1      -8.241  19.335  68.635  1.00  0.00    -0.373 C  
HETATM   21  O   UNL     1     -10.316  19.507  67.334  1.00  0.00    -0.390 OA 
HETATM   22  C   UNL     1      -9.715  19.656  68.533  1.00  0.00    -0.402 C  
HETATM   23  O   UNL     1     -10.374  19.955  69.524  1.00  0.00    -0.220 OA 
ENDBRANCH  17  20
ENDBRANCH  14  15
ENDBRANCH  13  14
ENDBRANCH   4  13
BRANCH  10  24
HETATM   24  N   UNL     1     -11.369  11.131  67.273  1.00  0.00    -0.285 N  
HETATM   25  C   UNL     1     -11.128  10.243  68.288  1.00  0.00    -0.254 C  
HETATM   26  O   UNL     1     -10.537   9.193  68.036  1.00  0.00    -0.229 OA 
HETATM   27  H   UNL     1     -11.090  10.842  66.336  1.00  0.00     0.000 HD 
BRANCH  25  28
HETATM   28  C   UNL     1     -11.587  10.599  69.694  1.00  0.00    -0.368 C  
BRANCH  28  29
HETATM   29  C   UNL     1     -11.040   9.697  70.780  1.00  0.00    -0.403 A  
HETATM   30  C   UNL     1     -11.868   9.053  71.726  1.00  0.00    -0.442 A  
HETATM   31  C   UNL     1     -11.262   8.225  72.693  1.00  0.00    -0.410 A  
HETATM   32  C   UNL     1      -9.648   9.467  70.819  1.00  0.00    -0.261 A  
HETATM   33  C   UNL     1      -9.885   8.007  72.712  1.00  0.00    -0.351 A  
HETATM   34  C   UNL     1      -9.076   8.635  71.778  1.00  0.00    -0.317 A  
BRANCH  30  35
HETATM   35  C   UNL     1     -13.369   9.273  71.781  1.00  0.00    -0.409 C  
HETATM   36  N   UNL     1     -13.944   8.943  73.085  1.00  0.00    -1.215 NA 
HETATM   37  H1  UNL     1     -14.953   9.090  73.122  1.00  0.00     0.000 HD 
HETATM   38  H2  UNL     1     -13.472   9.454  73.832  1.00  0.00     0.000 HD 
ENDBRANCH  30  35
ENDBRANCH  28  29
ENDBRANCH  25  28
ENDBRANCH  10  24
TORSDOF 8
ENDMDL
MODEL        2
REMARK 921   NORMALIZED FREE ENERGY PREDICTED BY IDOCK:   -8.65 KCAL/MOL
REMARK 922        TOTAL FREE ENERGY PREDICTED BY IDOCK:  -13.51 KCAL/MOL
REMARK 923 INTER-LIGAND FREE ENERGY PREDICTED BY IDOCK:  -12.66 KCAL/MOL
REMARK 924 INTRA-LIGAND FREE ENERGY PREDICTED BY IDOCK:   -0.86 KCAL/MOL
REMARK 927      BINDING AFFINITY PREDICTED BY RF-SCORE:    0.00 PKD
ROOT
HETATM    1  C   UNL     1     -11.805  11.342  70.806  1.00  0.00    -0.183 C  
HETATM    2  S   UNL     1     -11.921  10.849  69.074  1.00  0.00    -0.150 SA 
HETATM    3  C   UNL     1     -11.208  12.388  68.451  1.00  0.00    -0.273 C  
HETATM    4  C   UNL     1     -11.751  13.658  69.094  1.00  0.00    -0.376 C  
HETATM    5  O   UNL     1     -14.055  14.913  71.637  1.00  0.00    -0.417 OA 
HETATM    6  CA  UNL     1     -12.444  13.687  70.271  1.00  0.00    -0.265 C  
HETATM    7  N   UNL     1     -12.607  12.534  70.987  1.00  0.00    -0.326 N  
HETATM    8  O   UNL     1     -14.300  12.567  72.572  1.00  0.00    -0.113 OA 
HETATM    9  C   UNL     1     -13.019  14.989  70.787  1.00  0.00    -0.389 C  
HETATM   10  CA  UNL     1     -12.761  10.632  71.821  1.00  0.00    -0.383 C  
HETATM   11  OXT UNL     1     -12.575  16.080  70.469  1.00  0.00    -0.317 OA 
HETATM   12  C   UNL     1     -13.398  12.045  71.960  1.00  0.00    -0.341 C  
ENDROOT
BRANCH   4  13
HETATM   13  C   UNL     1     -11.543  14.864  68.178  1.00  0.00    -0.334 C  
BRANCH  13  14
HETATM   14  S   UNL     1     -10.278  14.523  66.903  1.00  0.00    -0.267 SA 
BRANCH  14  15
HETATM   15  C   UNL     1     -11.011  15.318  65.551  1.00  0.00    -0.359 A  
HETATM   16  N   UNL     1     -10.660  16.488  65.069  1.00  0.00    -0.698 NA 
HETATM   17  N   UNL     1     -12.041  14.826  64.795  1.00  0.00    -0.407 NA 
HETATM   18  N   UNL     1     -11.459  16.706  63.977  1.00  0.00    -1.136 NA 
HETATM   19  N   UNL     1     -12.280  15.687  63.779  1.00  0.00    -0.506 NA 
BRANCH  17  20
HETATM   20  C   UNL     1     -12.725  13.554  64.855  1.00  0.00    -0.287 C  
HETATM   21  O   UNL     1     -11.173  12.578  63.223  1.00  0.00    -0.452 OA 
HETATM   22  C   UNL     1     -12.416  12.573  63.746  1.00  0.00    -0.455 C  
HETATM   23  O   UNL     1     -13.236  11.734  63.390  1.00  0.00    -0.569 OA 
ENDBRANCH  17  20
ENDBRANCH  14  15
ENDBRANCH  13  14
ENDBRANCH   4  13
BRANCH  10  24
HETATM   24  N   UNL     1     -13.656   9.565  71.316  1.00  0.00    -0.471 N  
HETATM   25  C   UNL     1     -13.560   8.226  71.583  1.00  0.00    -0.346 C  
HETATM   26  O   UNL     1     -14.341   7.449  71.033  1.00  0.00    -0.278 OA 
HETATM   27  H   UNL     1     -14.421   9.858  70.708  1.00  0.00     0.000 HD 
BRANCH  25  28
HETATM   28  C   UNL     1     -12.477   7.747  72.538  1.00  0.00    -0.072 C  
BRANCH  28  29
HETATM   29  C   UNL     1     -11.478   6.790  71.925  1.00  0.00    -0.318 A  
HETATM   30  C   UNL     1     -10.479   6.139  72.684  1.00  0.00    -0.233 A  
HETATM   31  C   UNL     1      -9.601   5.258  72.020  1.00  0.00    -0.189 A  
HETATM   32  C   UNL     1     -11.577   6.514  70.544  1.00  0.00    -0.455 A  
HETATM   33  C   UNL     1      -9.718   4.996  70.656  1.00  0.00    -0.266 A  
HETATM   34  C   UNL     1     -10.703   5.630  69.915  1.00  0.00    -0.399 A  
BRANCH  30  35
HETATM   35  C   UNL     1     -10.276   6.405  74.164  1.00  0.00    -0.343 C  
HETATM   36  N   UNL     1      -8.988   7.034  74.457  1.00  0.00    -0.283 NA 
HETATM   37  H1  UNL     1      -8.852   7.213  75.452  1.00  0.00     0.000 HD 
HETATM   38  H2  UNL     1      -8.867   7.889  73.912  1.00  0.00     0.000 HD 
ENDBRANCH  30  35
ENDBRANCH  28  29
ENDBRANCH  25  28
ENDBRANCH  10  24
TORSDOF 8
ENDMDL
MODEL        3
REMARK 921   NORMALIZED FREE ENERGY PREDICTED BY IDOCK:   -8.63 KCAL/MOL
REMARK 922        TOTAL FREE ENERGY PREDICTED BY IDOCK:  -13.49 KCAL/MOL
REMARK 923 INTER-LIGAND FREE ENERGY PREDICTED BY IDOCK:  -11.75 KCAL/MOL
REMARK 924 INTRA-LIGAND FREE ENERGY PREDICTED BY IDOCK:   -1.74 KCAL/MOL
REMARK 927      BINDING AFFINITY PREDICTED BY RF-SCORE:    0.00 PKD
ROOT
HETATM    1  C   UNL     1     -10.044  10.290  69.489  1.00  0.00    -0.235 C  
HETATM    2  S   UNL     1     -10.138  10.318  67.687  1.00  0.00    -0.202 SA 
HETATM    3  C   UNL     1      -9.964  12.113  67.574  1.00  0.00    -0.197 C  
HETATM    4  C   UNL     1     -10.811  12.908  68.560  1.00  0.00    -0.283 C  
HETATM    5  O   UNL     1     -13.187  12.590  71.318  1.00  0.00    -0.211 OA 
HETATM    6  CA  UNL     1     -11.391  12.375  69.677  1.00  0.00    -0.123 C  
HETATM    7  N   UNL     1     -11.149  11.071  70.007  1.00  0.00    -0.218 N  
HETATM    8  O   UNL     1     -12.652  10.116  71.493  1.00  0.00    -0.367 OA 
HETATM    9  C   UNL     1     -12.287  13.227  70.551  1.00  0.00    -0.316 C  
HETATM   10  CA  UNL     1     -10.667   9.057  70.222  1.00  0.00    -0.230 C  
HETATM   11  OXT UNL     1     -12.212  14.444  70.587  1.00  0.00    -0.298 OA 
HETATM   12  C   UNL     1     -11.684  10.100  70.770  1.00  0.00    -0.357 C  
ENDROOT
BRANCH   4  13
HETATM   13  C   UNL     1     -11.040  14.332  68.056  1.00  0.00    -0.269 C  
BRANCH  13  14
HETATM   14  S   UNL     1      -9.601  14.946  67.110  1.00  0.00    -0.231 SA 
BRANCH  14  15
HETATM   15  C   UNL     1     -10.426  15.837  65.877  1.00  0.00    -0.352 A  
HETATM   16  N   UNL     1     -10.455  17.146  65.769  1.00  0.00    -0.515 NA 
HETATM   17  N   UNL     1     -11.142  15.298  64.842  1.00  0.00    -0.421 NA 
HETATM   18  N   UNL     1     -11.168  17.419  64.631  1.00  0.00    -0.824 NA 
HETATM   19  N   UNL     1     -11.562  16.302  64.039  1.00  0.00    -1.007 NA 
BRANCH  17  20
HETATM   20  C   UNL     1     -11.345  13.919  64.461  1.00  0.00    -0.372 C  
HETATM   21  O   UNL     1     -13.617  13.937  65.391  1.00  0.00    -0.571 OA 
HETATM   22  C   UNL     1     -12.517  13.211  65.104  1.00  0.00    -0.483 C  
HETATM   23  O   UNL     1     -12.512  11.997  65.279  1.00  0.00    -0.427 OA 
ENDBRANCH  17  20
ENDBRANCH  14  15
ENDBRANCH  13  14
ENDBRANCH   4  13
BRANCH  10  24
HETATM   24  N   UNL     1     -11.240   7.965  69.400  1.00  0.00    -0.435 N  
HETATM   25  C   UNL     1     -10.771   6.682  69.309  1.00  0.00    -0.265 C  
HETATM   26  O   UNL     1     -11.316   5.901  68.528  1.00  0.00    -0.116 OA 
HETATM   27  H   UNL     1     -12.066   8.193  68.847  1.00  0.00     0.000 HD 
BRANCH  25  28
HETATM   28  C   UNL     1      -9.583   6.275  70.166  1.00  0.00    -0.181 C  
BRANCH  28  29
HETATM   29  C   UNL     1      -9.831   5.072  71.052  1.00  0.00    -0.266 A  
HETATM   30  C   UNL     1     -10.478   5.167  72.305  1.00  0.00    -0.277 A  
HETATM   31  C   UNL     1     -10.669   3.986  73.050  1.00  0.00    -0.251 A  
HETATM   32  C   UNL     1      -9.427   3.804  70.583  1.00  0.00    -0.240 A  
HETATM   33  C   UNL     1     -10.267   2.741  72.568  1.00  0.00    -0.226 A  
HETATM   34  C   UNL     1      -9.638   2.650  71.336  1.00  0.00    -0.222 A  
BRANCH  30  35
HETATM   35  C   UNL     1     -10.910   6.493  72.902  1.00  0.00    -0.258 C  
HETATM   36  N   UNL     1     -12.266   6.878  72.507  1.00  0.00    -0.500 NA 
HETATM   37  H1  UNL     1     -12.557   7.770  72.908  1.00  0.00     0.000 HD 
HETATM   38  H2  UNL     1     -12.934   6.141  72.731  1.00  0.00     0.000 HD 
ENDBRANCH  30  35
ENDBRANCH  28  29
ENDBRANCH  25  28
ENDBRANCH  10  24
TORSDOF 8
ENDMDL
MODEL        4
REMARK 921   NORMALIZED FREE ENERGY PREDICTED BY IDOCK:   -8.46 KCAL/MOL
REMARK 922        TOTAL FREE ENERGY PREDICTED BY IDOCK:  -13.24 KCAL/MOL
REMARK 923 INTER-LIGAND FREE ENERGY PREDICTED BY IDOCK:  -12.20 KCAL/MOL
REMARK 924 INTRA-LIGAND FREE ENERGY PREDICTED BY IDOCK:   -1.04 KCAL/MOL
REMARK 927      BINDING AFFINITY PREDICTED BY RF-SCORE:    0.00 PKD
ROOT
HETATM    1  C   UNL     1     -11.356  10.918  70.453  1.00  0.00    -0.200 C  
HETATM    2  S   UNL     1     -11.641  10.490  68.723  1.00  0.00    -0.105 SA 
HETATM    3  C   UNL     1     -11.160  12.117  68.103  1.00  0.00    -0.248 C  
HETATM    4  C   UNL     1     -11.737  13.298  68.874  1.00  0.00    -0.369 C  
HETATM    5  O   UNL     1     -13.814  14.207  71.740  1.00  0.00    -0.385 OA 
HETATM    6  CA  UNL     1     -12.277  13.208  70.126  1.00  0.00    -0.290 C  
HETATM    7  N   UNL     1     -12.239  12.015  70.793  1.00  0.00    -0.357 N  
HETATM    8  O   UNL     1     -13.716  11.811  72.570  1.00  0.00    -0.021 OA 
HETATM    9  C   UNL     1     -12.904  14.423  70.776  1.00  0.00    -0.353 C  
HETATM   10  CA  UNL     1     -12.106  10.074  71.535  1.00  0.00    -0.387 C  
HETATM   11  OXT UNL     1     -12.608  15.565  70.466  1.00  0.00    -0.418 OA 
HETATM   12  C   UNL     1     -12.852  11.409  71.826  1.00  0.00    -0.344 C  
ENDROOT
BRANCH   4  13
HETATM   13  C   UNL     1     -11.761  14.556  68.005  1.00  0.00    -0.342 C  
BRANCH  13  14
HETATM   14  S   UNL     1     -10.169  14.798  67.138  1.00  0.00    -0.246 SA 
BRANCH  14  15
HETATM   15  C   UNL     1     -10.709  15.777  65.817  1.00  0.00    -0.327 A  
HETATM   16  N   UNL     1     -10.614  17.085  65.746  1.00  0.00    -0.418 NA 
HETATM   17  N   UNL     1     -11.289  15.318  64.664  1.00  0.00    -0.389 NA 
HETATM   18  N   UNL     1     -11.109  17.437  64.516  1.00  0.00    -0.724 NA 
HETATM   19  N   UNL     1     -11.490  16.368  63.835  1.00  0.00    -1.031 NA 
BRANCH  17  20
HETATM   20  C   UNL     1     -11.538  13.968  64.214  1.00  0.00    -0.329 C  
HETATM   21  O   UNL     1     -13.660  13.888  65.445  1.00  0.00    -0.571 OA 
HETATM   22  C   UNL     1     -12.608  13.200  64.957  1.00  0.00    -0.438 C  
HETATM   23  O   UNL     1     -12.575  11.976  65.039  1.00  0.00    -0.415 OA 
ENDBRANCH  17  20
ENDBRANCH  14  15
ENDBRANCH  13  14
ENDBRANCH   4  13
BRANCH  10  24
HETATM   24  N   UNL     1     -12.952   8.945  71.085  1.00  0.00    -0.512 N  
HETATM   25  C   UNL     1     -12.807   7.628  71.431  1.00  0.00    -0.319 C  
HETATM   26  O   UNL     1     -13.550   6.790  70.921  1.00  0.00     0.052 OA 
HETATM   27  H   UNL     1     -13.721   9.171  70.454  1.00  0.00     0.000 HD 
BRANCH  25  28
HETATM   28  C   UNL     1     -11.718   7.250  72.423  1.00  0.00    -0.278 C  
BRANCH  28  29
HETATM   29  C   UNL     1     -11.072   5.905  72.165  1.00  0.00    -0.333 A  
HETATM   30  C   UNL     1     -10.327   5.628  70.997  1.00  0.00    -0.297 A  
HETATM   31  C   UNL     1      -9.756   4.347  70.854  1.00  0.00    -0.267 A  
HETATM   32  C   UNL     1     -11.195   4.904  73.152  1.00  0.00    -0.403 A  
HETATM   33  C   UNL     1      -9.886   3.373  71.843  1.00  0.00    -0.238 A  
HETATM   34  C   UNL     1     -10.612   3.649  72.991  1.00  0.00    -0.252 A  
BRANCH  30  35
HETATM   35  C   UNL     1     -10.175   6.632  69.869  1.00  0.00    -0.187 C  
HETATM   36  N   UNL     1     -11.108   6.392  68.767  1.00  0.00    -0.458 NA 
HETATM   37  H1  UNL     1     -11.006   7.067  68.008  1.00  0.00     0.000 HD 
HETATM   38  H2  UNL     1     -12.071   6.363  69.104  1.00  0.00     0.000 HD 
ENDBRANCH  30  35
ENDBRANCH  28  29
ENDBRANCH  25  28
ENDBRANCH  10  24
TORSDOF 8
ENDMDL
MODEL        5
REMARK 921   NORMALIZED FREE ENERGY PREDICTED BY IDOCK:   -8.45 KCAL/MOL
REMARK 922        TOTAL FREE ENERGY PREDICTED BY IDOCK:  -13.23 KCAL/MOL
REMARK 923 INTER-LIGAND FREE ENERGY PREDICTED BY IDOCK:  -11.67 KCAL/MOL
REMARK 924 INTRA-LIGAND FREE ENERGY PREDICTED BY IDOCK:   -1.56 KCAL/MOL
REMARK 927      BINDING AFFINITY PREDICTED BY RF-SCORE:    0.00 PKD
ROOT
HETATM    1  C   UNL     1     -10.306  10.604  69.418  1.00  0.00    -0.208 C  
HETATM    2  S   UNL     1     -10.654  10.578  67.647  1.00  0.00    -0.271 SA 
HETATM    3  C   UNL     1     -10.611  12.376  67.477  1.00  0.00    -0.219 C  
HETATM    4  C   UNL     1     -11.358  13.146  68.559  1.00  0.00    -0.321 C  
HETATM    5  O   UNL     1     -13.296  12.762  71.633  1.00  0.00    -0.377 OA 
HETATM    6  CA  UNL     1     -11.740  12.610  69.757  1.00  0.00    -0.284 C  
HETATM    7  N   UNL     1     -11.373  11.332  70.073  1.00  0.00    -0.248 N  
HETATM    8  O   UNL     1     -12.588  10.330  71.776  1.00  0.00    -0.405 OA 
HETATM    9  C   UNL     1     -12.555  13.430  70.734  1.00  0.00    -0.294 C  
HETATM   10  CA  UNL     1     -10.740   9.356  70.254  1.00  0.00    -0.253 C  
HETATM   11  OXT UNL     1     -12.553  14.650  70.737  1.00  0.00    -0.312 OA 
HETATM   12  C   UNL     1     -11.733  10.352  70.923  1.00  0.00    -0.360 C  
ENDROOT
BRANCH   4  13
HETATM   13  C   UNL     1     -11.745  14.540  68.067  1.00  0.00    -0.342 C  
BRANCH  13  14
HETATM   14  S   UNL     1     -10.268  15.571  67.755  1.00  0.00    -0.246 SA 
BRANCH  14  15
HETATM   15  C   UNL     1     -10.645  16.137  66.163  1.00  0.00    -0.283 A  
HETATM   16  N   UNL     1     -11.030  15.388  65.156  1.00  0.00    -0.399 NA 
HETATM   17  N   UNL     1     -10.607  17.441  65.747  1.00  0.00    -0.478 NA 
HETATM   18  N   UNL     1     -11.270  16.245  64.113  1.00  0.00    -0.772 NA 
HETATM   19  N   UNL     1     -11.049  17.500  64.470  1.00  0.00    -0.562 NA 
BRANCH  17  20
HETATM   20  C   UNL     1     -10.329  18.653  66.485  1.00  0.00    -0.421 C  
HETATM   21  O   UNL     1      -7.983  18.622  65.766  1.00  0.00    -0.487 OA 
HETATM   22  C   UNL     1      -8.871  18.979  66.716  1.00  0.00    -0.310 C  
HETATM   23  O   UNL     1      -8.509  19.628  67.691  1.00  0.00    -0.303 OA 
ENDBRANCH  17  20
ENDBRANCH  14  15
ENDBRANCH  13  14
ENDBRANCH   4  13
BRANCH  10  24
HETATM   24  N   UNL     1     -11.353   8.211  69.543  1.00  0.00    -0.420 N  
HETATM   25  C   UNL     1     -10.941   6.906  69.589  1.00  0.00    -0.259 C  
HETATM   26  O   UNL     1     -11.513   6.073  68.887  1.00  0.00    -0.221 OA 
HETATM   27  H   UNL     1     -12.165   8.414  68.959  1.00  0.00     0.000 HD 
BRANCH  25  28
HETATM   28  C   UNL     1      -9.778   6.540  70.498  1.00  0.00    -0.186 C  
BRANCH  28  29
HETATM   29  C   UNL     1     -10.106   5.504  71.552  1.00  0.00    -0.260 A  
HETATM   30  C   UNL     1     -10.712   5.835  72.785  1.00  0.00    -0.278 A  
HETATM   31  C   UNL     1     -10.986   4.795  73.697  1.00  0.00    -0.391 A  
HETATM   32  C   UNL     1      -9.825   4.150  71.268  1.00  0.00    -0.249 A  
HETATM   33  C   UNL     1     -10.705   3.463  73.396  1.00  0.00    -0.303 A  
HETATM   34  C   UNL     1     -10.116   3.141  72.183  1.00  0.00    -0.200 A  
BRANCH  30  35
HETATM   35  C   UNL     1     -11.014   7.266  73.188  1.00  0.00    -0.340 C  
HETATM   36  N   UNL     1     -12.395   7.657  72.903  1.00  0.00    -0.405 NA 
HETATM   37  H1  UNL     1     -12.598   8.620  73.174  1.00  0.00     0.000 HD 
HETATM   38  H2  UNL     1     -13.054   7.009  73.336  1.00  0.00     0.000 HD 
ENDBRANCH  30  35
ENDBRANCH  28  29
ENDBRANCH  25  28
ENDBRANCH  10  24
TORSDOF 8
ENDMDL
MODEL        6
REMARK 921   NORMALIZED FREE ENERGY PREDICTED BY IDOCK:   -8.38 KCAL/MOL
REMARK 922        TOTAL FREE ENERGY PREDICTED BY IDOCK:  -13.12 KCAL/MOL
REMARK 923 INTER-LIGAND FREE ENERGY PREDICTED BY IDOCK:  -11.73 KCAL/MOL
REMARK 924 INTRA-LIGAND FREE ENERGY PREDICTED BY IDOCK:   -1.38 KCAL/MOL
REMARK 927      BINDING AFFINITY PREDICTED BY RF-SCORE:    0.00 PKD
ROOT
HETATM    1  C   UNL     1     -11.817  11.052  70.917  1.00  0.00    -0.196 C  
HETATM    2  S   UNL     1     -12.025  10.375  69.257  1.00  0.00     0.079 SA 
HETATM    3  C   UNL     1     -11.255  11.791  68.440  1.00  0.00    -0.251 C  
HETATM    4  C   UNL     1     -11.705  13.154  68.950  1.00  0.00    -0.368 C  
HETATM    5  O   UNL     1     -13.840  14.818  71.405  1.00  0.00    -0.396 OA 
HETATM    6  CA  UNL     1     -12.349  13.355  70.138  1.00  0.00    -0.252 C  
HETATM    7  N   UNL     1     -12.547  12.301  70.986  1.00  0.00    -0.326 N  
HETATM    8  O   UNL     1     -14.173  12.610  72.610  1.00  0.00    -0.299 OA 
HETATM    9  C   UNL     1     -12.834  14.738  70.519  1.00  0.00    -0.322 C  
HETATM   10  CA  UNL     1     -12.770  10.517  72.036  1.00  0.00    -0.227 C  
HETATM   11  OXT UNL     1     -12.344  15.759  70.064  1.00  0.00    -0.354 OA 
HETATM   12  C   UNL     1     -13.325  11.972  72.033  1.00  0.00    -0.341 C  
ENDROOT
BRANCH   4  13
HETATM   13  C   UNL     1     -11.468  14.235  67.895  1.00  0.00    -0.315 C  
BRANCH  13  14
HETATM   14  S   UNL     1     -10.919  13.511  66.309  1.00  0.00    -0.290 SA 
BRANCH  14  15
HETATM   15  C   UNL     1     -11.333  14.809  65.242  1.00  0.00    -0.363 A  
HETATM   16  N   UNL     1     -12.398  14.859  64.474  1.00  0.00    -0.462 NA 
HETATM   17  N   UNL     1     -10.615  15.962  65.067  1.00  0.00    -0.564 NA 
HETATM   18  N   UNL     1     -12.358  16.076  63.845  1.00  0.00    -0.730 NA 
HETATM   19  N   UNL     1     -11.296  16.771  64.224  1.00  0.00    -1.111 NA 
BRANCH  17  20
HETATM   20  C   UNL     1      -9.421  16.432  65.732  1.00  0.00    -0.156 C  
HETATM   21  O   UNL     1     -10.756  17.578  67.444  1.00  0.00    -0.333 OA 
HETATM   22  C   UNL     1      -9.607  17.546  66.738  1.00  0.00    -0.282 C  
HETATM   23  O   UNL     1      -8.710  18.348  66.976  1.00  0.00    -0.258 OA 
ENDBRANCH  17  20
ENDBRANCH  14  15
ENDBRANCH  13  14
ENDBRANCH   4  13
BRANCH  10  24
HETATM   24  N   UNL     1     -13.739   9.454  71.686  1.00  0.00    -0.353 N  
HETATM   25  C   UNL     1     -13.509   8.104  71.696  1.00  0.00    -0.332 C  
HETATM   26  O   UNL     1     -14.397   7.343  71.313  1.00  0.00    -0.421 OA 
HETATM   27  H   UNL     1     -14.673   9.757  71.409  1.00  0.00     0.000 HD 
BRANCH  25  28
HETATM   28  C   UNL     1     -12.154   7.598  72.167  1.00  0.00    -0.325 C  
BRANCH  28  29
HETATM   29  C   UNL     1     -11.191   7.251  71.051  1.00  0.00    -0.291 A  
HETATM   30  C   UNL     1      -9.846   7.685  71.041  1.00  0.00    -0.181 A  
HETATM   31  C   UNL     1      -9.027   7.299  69.960  1.00  0.00    -0.142 A  
HETATM   32  C   UNL     1     -11.655   6.432  70.000  1.00  0.00    -0.446 A  
HETATM   33  C   UNL     1      -9.503   6.486  68.933  1.00  0.00    -0.129 A  
HETATM   34  C   UNL     1     -10.821   6.056  68.949  1.00  0.00    -0.400 A  
BRANCH  30  35
HETATM   35  C   UNL     1      -9.275   8.598  72.110  1.00  0.00    -0.255 C  
HETATM   36  N   UNL     1      -7.905   9.023  71.820  1.00  0.00    -0.343 NA 
HETATM   37  H1  UNL     1      -7.521   9.638  72.539  1.00  0.00     0.000 HD 
HETATM   38  H2  UNL     1      -7.845   9.457  70.898  1.00  0.00     0.000 HD 
ENDBRANCH  30  35
ENDBRANCH  28  29
ENDBRANCH  25  28
ENDBRANCH  10  24
TORSDOF 8
ENDMDL
MODEL        7
REMARK 921   NORMALIZED FREE ENERGY PREDICTED BY IDOCK:   -8.31 KCAL/MOL
REMARK 922        TOTAL FREE ENERGY PREDICTED BY IDOCK:  -13.02 KCAL/MOL
REMARK 923 INTER-LIGAND FREE ENERGY PREDICTED BY IDOCK:  -11.72 KCAL/MOL
REMARK 924 INTRA-LIGAND FREE ENERGY PREDICTED BY IDOCK:   -1.30 KCAL/MOL
REMARK 927      BINDING AFFINITY PREDICTED BY RF-SCORE:    0.00 PKD
ROOT
HETATM    1  C   UNL     1     -10.896  14.608  68.522  1.00  0.00    -0.250 C  
HETATM    2  S   UNL     1      -9.388  15.366  69.159  1.00  0.00    -0.258 SA 
HETATM    3  C   UNL     1      -9.730  16.980  68.422  1.00  0.00    -0.279 C  
HETATM    4  C   UNL     1     -10.210  16.941  66.977  1.00  0.00    -0.297 C  
HETATM    5  O   UNL     1     -11.074  14.698  64.224  1.00  0.00    -0.199 OA 
HETATM    6  CA  UNL     1     -10.696  15.823  66.359  1.00  0.00    -0.277 C  
HETATM    7  N   UNL     1     -10.851  14.669  67.075  1.00  0.00    -0.298 N  
HETATM    8  O   UNL     1     -11.047  12.728  65.822  1.00  0.00    -0.275 OA 
HETATM    9  C   UNL     1     -11.069  15.863  64.892  1.00  0.00    -0.389 C  
HETATM   10  CA  UNL     1     -10.914  13.050  68.383  1.00  0.00    -0.262 C  
HETATM   11  OXT UNL     1     -11.369  16.895  64.314  1.00  0.00    -1.202 OA 
HETATM   12  C   UNL     1     -10.992  13.349  66.857  1.00  0.00    -0.284 C  
ENDROOT
BRANCH   4  13
HETATM   13  C   UNL     1      -9.943  18.274  66.278  1.00  0.00    -0.357 C  
BRANCH  13  14
HETATM   14  S   UNL     1      -9.089  19.449  67.388  1.00  0.00    -0.307 SA 
BRANCH  14  15
HETATM   15  C   UNL     1      -7.544  19.508  66.610  1.00  0.00    -0.256 A  
HETATM   16  N   UNL     1      -7.276  19.058  65.405  1.00  0.00    -0.472 NA 
HETATM   17  N   UNL     1      -6.401  20.046  67.138  1.00  0.00    -0.187 NA 
HETATM   18  N   UNL     1      -5.958  19.355  65.172  1.00  0.00    -0.220 NA 
HETATM   19  N   UNL     1      -5.424  19.987  66.205  1.00  0.00    -0.167 NA 
BRANCH  17  20
HETATM   20  C   UNL     1      -6.182  20.740  68.388  1.00  0.00    -0.321 C  
HETATM   21  O   UNL     1      -5.730  18.625  69.549  1.00  0.00    -0.222 OA 
HETATM   22  C   UNL     1      -6.192  19.889  69.638  1.00  0.00    -0.342 C  
HETATM   23  O   UNL     1      -6.521  20.354  70.724  1.00  0.00    -0.505 OA 
ENDBRANCH  17  20
ENDBRANCH  14  15
ENDBRANCH  13  14
ENDBRANCH   4  13
BRANCH  10  24
HETATM   24  N   UNL     1      -9.725  12.290  68.833  1.00  0.00    -0.417 N  
HETATM   25  C   UNL     1      -9.665  10.946  69.089  1.00  0.00    -0.122 C  
HETATM   26  O   UNL     1      -8.618  10.466  69.523  1.00  0.00    -0.159 OA 
HETATM   27  H   UNL     1      -8.864  12.821  68.965  1.00  0.00     0.000 HD 
BRANCH  25  28
HETATM   28  C   UNL     1     -10.904  10.099  68.841  1.00  0.00    -0.256 C  
BRANCH  28  29
HETATM   29  C   UNL     1     -11.657   9.707  70.094  1.00  0.00    -0.193 A  
HETATM   30  C   UNL     1     -11.551   8.425  70.679  1.00  0.00    -0.205 A  
HETATM   31  C   UNL     1     -12.287   8.162  71.853  1.00  0.00    -0.371 A  
HETATM   32  C   UNL     1     -12.470  10.679  70.716  1.00  0.00    -0.480 A  
HETATM   33  C   UNL     1     -13.081   9.137  72.454  1.00  0.00    -0.493 A  
HETATM   34  C   UNL     1     -13.179  10.396  71.881  1.00  0.00    -0.535 A  
BRANCH  30  35
HETATM   35  C   UNL     1     -10.731   7.310  70.058  1.00  0.00    -0.245 C  
HETATM   36  N   UNL     1     -11.510   6.474  69.144  1.00  0.00    -0.624 NA 
HETATM   37  H1  UNL     1     -10.958   5.724  68.726  1.00  0.00     0.000 HD 
HETATM   38  H2  UNL     1     -11.960   7.041  68.425  1.00  0.00     0.000 HD 
ENDBRANCH  30  35
ENDBRANCH  28  29
ENDBRANCH  25  28
ENDBRANCH  10  24
TORSDOF 8
ENDMDL
MODEL        8
REMARK 921   NORMALIZED FREE ENERGY PREDICTED BY IDOCK:   -8.20 KCAL/MOL
REMARK 922        TOTAL FREE ENERGY PREDICTED BY IDOCK:  -12.86 KCAL/MOL
REMARK 923 INTER-LIGAND FREE ENERGY PREDICTED BY IDOCK:  -11.72 KCAL/MOL
REMARK 924 INTRA-LIGAND FREE ENERGY PREDICTED BY IDOCK:   -1.14 KCAL/MOL
REMARK 927      BINDING AFFINITY PREDICTED BY RF-SCORE:    0.00 PKD
ROOT
HETATM    1  C   UNL     1     -11.553  11.222  70.579  1.00  0.00    -0.133 C  
HETATM    2  S   UNL     1     -11.756  10.763  68.846  1.00  0.00    -0.208 SA 
HETATM    3  C   UNL     1     -11.223  12.371  68.220  1.00  0.00    -0.263 C  
HETATM    4  C   UNL     1     -11.822  13.575  68.938  1.00  0.00    -0.384 C  
HETATM    5  O   UNL     1     -14.028  14.565  71.678  1.00  0.00    -0.397 OA 
HETATM    6  CA  UNL     1     -12.425  13.515  70.163  1.00  0.00    -0.209 C  
HETATM    7  N   UNL     1     -12.437  12.336  70.854  1.00  0.00    -0.342 N  
HETATM    8  O   UNL     1     -14.003  12.186  72.557  1.00  0.00    -0.002 OA 
HETATM    9  C   UNL     1     -13.068  14.751  70.757  1.00  0.00    -0.336 C  
HETATM   10  CA  UNL     1     -12.367  10.409  71.639  1.00  0.00    -0.304 C  
HETATM   11  OXT UNL     1     -12.741  15.883  70.441  1.00  0.00    -0.372 OA 
HETATM   12  C   UNL     1     -13.109  11.758  71.866  1.00  0.00    -0.376 C  
ENDROOT
BRANCH   4  13
HETATM   13  C   UNL     1     -11.786  14.815  68.046  1.00  0.00    -0.333 C  
BRANCH  13  14
HETATM   14  S   UNL     1     -10.178  14.974  67.190  1.00  0.00    -0.252 SA 
BRANCH  14  15
HETATM   15  C   UNL     1     -10.680  15.875  65.800  1.00  0.00    -0.316 A  
HETATM   16  N   UNL     1     -11.168  15.365  64.692  1.00  0.00    -0.396 NA 
HETATM   17  N   UNL     1     -10.652  17.238  65.676  1.00  0.00    -0.532 NA 
HETATM   18  N   UNL     1     -11.481  16.430  63.887  1.00  0.00    -1.031 NA 
HETATM   19  N   UNL     1     -11.203  17.576  64.488  1.00  0.00    -0.620 NA 
BRANCH  17  20
HETATM   20  C   UNL     1     -10.286  18.259  66.632  1.00  0.00    -0.384 C  
HETATM   21  O   UNL     1      -7.987  18.319  65.775  1.00  0.00    -0.513 OA 
HETATM   22  C   UNL     1      -8.805  18.490  66.833  1.00  0.00    -0.283 C  
HETATM   23  O   UNL     1      -8.363  18.908  67.898  1.00  0.00    -0.270 OA 
ENDBRANCH  17  20
ENDBRANCH  14  15
ENDBRANCH  13  14
ENDBRANCH   4  13
BRANCH  10  24
HETATM   24  N   UNL     1     -13.205   9.281  71.168  1.00  0.00    -0.531 N  
HETATM   25  C   UNL     1     -13.023   7.955  71.455  1.00  0.00    -0.311 C  
HETATM   26  O   UNL     1     -13.765   7.123  70.933  1.00  0.00    -0.121 OA 
HETATM   27  H   UNL     1     -13.997   9.516  70.570  1.00  0.00     0.000 HD 
BRANCH  25  28
HETATM   28  C   UNL     1     -11.897   7.559  72.398  1.00  0.00    -0.305 C  
BRANCH  28  29
HETATM   29  C   UNL     1     -11.256   6.224  72.085  1.00  0.00    -0.326 A  
HETATM   30  C   UNL     1     -10.450   6.012  70.944  1.00  0.00    -0.293 A  
HETATM   31  C   UNL     1      -9.890   4.733  70.747  1.00  0.00    -0.280 A  
HETATM   32  C   UNL     1     -11.448   5.162  72.994  1.00  0.00    -0.349 A  
HETATM   33  C   UNL     1     -10.089   3.698  71.659  1.00  0.00    -0.132 A  
HETATM   34  C   UNL     1     -10.875   3.910  72.782  1.00  0.00    -0.116 A  
BRANCH  30  35
HETATM   35  C   UNL     1     -10.221   7.085  69.896  1.00  0.00    -0.201 C  
HETATM   36  N   UNL     1     -11.195   7.031  68.806  1.00  0.00    -0.494 NA 
HETATM   37  H1  UNL     1     -11.042   7.753  68.101  1.00  0.00     0.000 HD 
HETATM   38  H2  UNL     1     -12.149   7.070  69.166  1.00  0.00     0.000 HD 
ENDBRANCH  30  35
ENDBRANCH  28  29
ENDBRANCH  25  28
ENDBRANCH  10  24
TORSDOF 8
ENDMDL
MODEL        9
REMARK 921   NORMALIZED FREE ENERGY PREDICTED BY IDOCK:   -8.12 KCAL/MOL
REMARK 922        TOTAL FREE ENERGY PREDICTED BY IDOCK:  -12.73 KCAL/MOL
REMARK 923 INTER-LIGAND FREE ENERGY PREDICTED BY IDOCK:  -12.48 KCAL/MOL
REMARK 924 INTRA-LIGAND FREE ENERGY PREDICTED BY IDOCK:   -0.25 KCAL/MOL
REMARK 927      BINDING AFFINITY PREDICTED BY RF-SCORE:    0.00 PKD
ROOT
HETATM    1  C   UNL     1      -9.711  15.890  66.611  1.00  0.00    -0.253 C  
HETATM    2  S   UNL     1     -10.188  16.037  68.345  1.00  0.00    -0.244 SA 
HETATM    3  C   UNL     1     -10.445  14.262  68.562  1.00  0.00    -0.253 C  
HETATM    4  C   UNL     1     -11.219  13.579  67.441  1.00  0.00    -0.317 C  
HETATM    5  O   UNL     1     -12.824  14.145  64.208  1.00  0.00    -0.607 OA 
HETATM    6  CA  UNL     1     -11.415  14.122  66.203  1.00  0.00    -0.347 C  
HETATM    7  N   UNL     1     -10.826  15.315  65.887  1.00  0.00    -0.335 N  
HETATM    8  O   UNL     1     -11.729  16.429  64.065  1.00  0.00    -1.044 OA 
HETATM    9  C   UNL     1     -12.272  13.404  65.182  1.00  0.00    -0.434 C  
HETATM   10  CA  UNL     1      -9.874  17.158  65.710  1.00  0.00    -0.065 C  
HETATM   11  OXT UNL     1     -12.463  12.199  65.209  1.00  0.00    -0.520 OA 
HETATM   12  C   UNL     1     -10.957  16.306  64.987  1.00  0.00    -0.298 C  
ENDROOT
BRANCH   4  13
HETATM   13  C   UNL     1     -11.860  12.282  67.934  1.00  0.00    -0.293 C  
BRANCH  13  14
HETATM   14  S   UNL     1     -10.801  11.439  69.162  1.00  0.00    -0.189 SA 
BRANCH  14  15
HETATM   15  C   UNL     1     -11.958  11.209  70.429  1.00  0.00    -0.378 A  
HETATM   16  N   UNL     1     -12.313  10.053  70.941  1.00  0.00    -0.325 NA 
HETATM   17  N   UNL     1     -12.643  12.202  71.078  1.00  0.00    -0.330 NA 
HETATM   18  N   UNL     1     -13.202  10.337  71.945  1.00  0.00    -0.455 NA 
HETATM   19  N   UNL     1     -13.385  11.643  72.061  1.00  0.00    -0.429 NA 
BRANCH  17  20
HETATM   20  C   UNL     1     -12.554  13.639  70.951  1.00  0.00    -0.346 C  
HETATM   21  O   UNL     1     -14.341  13.953  72.605  1.00  0.00    -0.638 OA 
HETATM   22  C   UNL     1     -13.709  14.435  71.514  1.00  0.00    -0.382 C  
HETATM   23  O   UNL     1     -14.013  15.532  71.056  1.00  0.00    -0.535 OA 
ENDBRANCH  17  20
ENDBRANCH  14  15
ENDBRANCH  13  14
ENDBRANCH   4  13
BRANCH  10  24
HETATM   24  N   UNL     1     -10.351  18.411  66.340  1.00  0.00    -0.395 N  
HETATM   25  C   UNL     1      -9.582  19.483  66.708  1.00  0.00    -0.357 C  
HETATM   26  O   UNL     1     -10.115  20.431  67.285  1.00  0.00    -0.425 OA 
HETATM   27  H   UNL     1     -11.353  18.483  66.517  1.00  0.00     0.000 HD 
BRANCH  25  28
HETATM   28  C   UNL     1      -8.093  19.453  66.403  1.00  0.00    -0.329 C  
BRANCH  28  29
HETATM   29  C   UNL     1      -7.211  19.190  67.604  1.00  0.00    -0.246 A  
HETATM   30  C   UNL     1      -6.333  18.086  67.681  1.00  0.00    -0.179 A  
HETATM   31  C   UNL     1      -5.545  17.935  68.840  1.00  0.00    -0.185 A  
HETATM   32  C   UNL     1      -7.248  20.111  68.674  1.00  0.00    -0.198 A  
HETATM   33  C   UNL     1      -5.593  18.858  69.884  1.00  0.00    -0.239 A  
HETATM   34  C   UNL     1      -6.451  19.944  69.804  1.00  0.00    -0.391 A  
BRANCH  30  35
HETATM   35  C   UNL     1      -6.256  17.028  66.596  1.00  0.00    -0.205 C  
HETATM   36  N   UNL     1      -5.775  15.739  67.092  1.00  0.00    -0.319 NA 
HETATM   37  H1  UNL     1      -5.723  15.027  66.363  1.00  0.00     0.000 HD 
HETATM   38  H2  UNL     1      -6.340  15.416  67.878  1.00  0.00     0.000 HD 
ENDBRANCH  30  35
ENDBRANCH  28  29
ENDBRANCH  25  28
ENDBRANCH  10  24
TORSDOF 8
ENDMDL
MODEL       10
REMARK 921   NORMALIZED FREE ENERGY PREDICTED BY IDOCK:   -8.10 KCAL/MOL
REMARK 922        TOTAL FREE ENERGY PREDICTED BY IDOCK:  -12.71 KCAL/MOL
REMARK 923 INTER-LIGAND FREE ENERGY PREDICTED BY IDOCK:  -11.50 KCAL/MOL
REMARK 924 INTRA-LIGAND FREE ENERGY PREDICTED BY IDOCK:   -1.20 KCAL/MOL
REMARK 927      BINDING AFFINITY PREDICTED BY RF-SCORE:    0.00 PKD
ROOT
HETATM    1  C   UNL     1      -9.656  15.944  66.565  1.00  0.00    -0.268 C  
HETATM    2  S   UNL     1     -10.168  16.167  68.281  1.00  0.00    -0.257 SA 
HETATM    3  C   UNL     1     -10.503  14.412  68.548  1.00  0.00    -0.254 C  
HETATM    4  C   UNL     1     -11.278  13.725  67.429  1.00  0.00    -0.330 C  
HETATM    5  O   UNL     1     -12.781  14.252  64.141  1.00  0.00    -0.652 OA 
HETATM    6  CA  UNL     1     -11.422  14.236  66.170  1.00  0.00    -0.355 C  
HETATM    7  N   UNL     1     -10.776  15.392  65.832  1.00  0.00    -0.325 N  
HETATM    8  O   UNL     1     -11.588  16.483  63.953  1.00  0.00    -1.175 OA 
HETATM    9  C   UNL     1     -12.283  13.520  65.151  1.00  0.00    -0.428 C  
HETATM   10  CA  UNL     1      -9.745  17.189  65.622  1.00  0.00     0.110 C  
HETATM   11  OXT UNL     1     -12.525  12.326  65.211  1.00  0.00    -0.585 OA 
HETATM   12  C   UNL     1     -10.845  16.358  64.898  1.00  0.00    -0.250 C  
ENDROOT
BRANCH   4  13
HETATM   13  C   UNL     1     -11.984  12.472  67.946  1.00  0.00    -0.223 C  
BRANCH  13  14
HETATM   14  S   UNL     1     -10.816  11.347  68.790  1.00  0.00    -0.221 SA 
BRANCH  14  15
HETATM   15  C   UNL     1     -11.739  10.986  70.208  1.00  0.00    -0.355 A  
HETATM   16  N   UNL     1     -12.536  11.820  70.837  1.00  0.00    -0.363 NA 
HETATM   17  N   UNL     1     -11.776   9.779  70.854  1.00  0.00    -0.320 NA 
HETATM   18  N   UNL     1     -13.101  11.109  71.863  1.00  0.00    -0.478 NA 
HETATM   19  N   UNL     1     -12.674   9.856  71.863  1.00  0.00    -0.408 NA 
BRANCH  17  20
HETATM   20  C   UNL     1     -11.152   8.518  70.521  1.00  0.00    -0.244 C  
HETATM   21  O   UNL     1      -9.072   9.186  71.641  1.00  0.00    -0.334 OA 
HETATM   22  C   UNL     1      -9.648   8.456  70.664  1.00  0.00    -0.171 C  
HETATM   23  O   UNL     1      -8.972   7.697  69.977  1.00  0.00    -0.143 OA 
ENDBRANCH  17  20
ENDBRANCH  14  15
ENDBRANCH  13  14
ENDBRANCH   4  13
BRANCH  10  24
HETATM   24  N   UNL     1     -10.184  18.480  66.200  1.00  0.00    -0.407 N  
HETATM   25  C   UNL     1      -9.375  19.496  66.633  1.00  0.00    -0.358 C  
HETATM   26  O   UNL     1      -9.888  20.487  67.154  1.00  0.00    -0.454 OA 
HETATM   27  H   UNL     1     -11.190  18.627  66.283  1.00  0.00     0.000 HD 
BRANCH  25  28
HETATM   28  C   UNL     1      -7.870  19.354  66.467  1.00  0.00    -0.300 C  
BRANCH  28  29
HETATM   29  C   UNL     1      -7.124  19.043  67.746  1.00  0.00    -0.248 A  
HETATM   30  C   UNL     1      -6.351  17.872  67.914  1.00  0.00    -0.178 A  
HETATM   31  C   UNL     1      -5.686  17.679  69.142  1.00  0.00    -0.197 A  
HETATM   32  C   UNL     1      -7.180  19.984  68.797  1.00  0.00    -0.248 A  
HETATM   33  C   UNL     1      -5.750  18.623  70.167  1.00  0.00    -0.229 A  
HETATM   34  C   UNL     1      -6.504  19.774  69.997  1.00  0.00    -0.328 A  
BRANCH  30  35
HETATM   35  C   UNL     1      -6.266  16.792  66.853  1.00  0.00    -0.187 C  
HETATM   36  N   UNL     1      -5.507  15.621  67.293  1.00  0.00    -0.339 NA 
HETATM   37  H1  UNL     1      -5.450  14.894  66.580  1.00  0.00     0.000 HD 
HETATM   38  H2  UNL     1      -5.885  15.248  68.165  1.00  0.00     0.000 HD 
ENDBRANCH  30  35
ENDBRANCH  28  29
ENDBRANCH  25  28
ENDBRANCH  10  24
TORSDOF 8
ENDMDL
MODEL       11
REMARK 921   NORMALIZED FREE ENERGY PREDICTED BY IDOCK:   -8.08 KCAL/MOL
REMARK 922        TOTAL FREE ENERGY PREDICTED BY IDOCK:  -12.68 KCAL/MOL
REMARK 923 INTER-LIGAND FREE ENERGY PREDICTED BY IDOCK:  -10.94 KCAL/MOL
REMARK 924 INTRA-LIGAND FREE ENERGY PREDICTED BY IDOCK:   -1.75 KCAL/MOL
REMARK 927      BINDING AFFINITY PREDICTED BY RF-SCORE:    0.00 PKD
ROOT
HETATM    1  C   UNL     1      -9.813   9.988  68.790  1.00  0.00    -0.167 C  
HETATM    2  S   UNL     1      -9.879  10.247  67.006  1.00  0.00    -0.201 SA 
HETATM    3  C   UNL     1      -9.586  12.026  67.120  1.00  0.00    -0.192 C  
HETATM    4  C   UNL     1     -10.393  12.747  68.193  1.00  0.00    -0.243 C  
HETATM    5  O   UNL     1     -12.823  12.246  70.875  1.00  0.00    -0.220 OA 
HETATM    6  CA  UNL     1     -11.022  12.119  69.231  1.00  0.00    -0.110 C  
HETATM    7  N   UNL     1     -10.871  10.770  69.395  1.00  0.00    -0.230 N  
HETATM    8  O   UNL     1     -12.454   9.740  70.742  1.00  0.00    -0.280 OA 
HETATM    9  C   UNL     1     -11.873  12.912  70.200  1.00  0.00    -0.245 C  
HETATM   10  CA  UNL     1     -10.525   8.717  69.358  1.00  0.00    -0.218 C  
HETATM   11  OXT UNL     1     -11.719  14.108  70.389  1.00  0.00    -0.285 OA 
HETATM   12  C   UNL     1     -11.479   9.750  70.028  1.00  0.00    -0.180 C  
ENDROOT
BRANCH   4  13
HETATM   13  C   UNL     1     -10.521  14.235  67.871  1.00  0.00    -0.240 C  
BRANCH  13  14
HETATM   14  S   UNL     1      -9.256  14.768  66.663  1.00  0.00    -0.274 SA 
BRANCH  14  15
HETATM   15  C   UNL     1     -10.223  15.809  65.675  1.00  0.00    -0.380 A  
HETATM   16  N   UNL     1     -10.205  17.122  65.699  1.00  0.00    -0.602 NA 
HETATM   17  N   UNL     1     -11.123  15.404  64.725  1.00  0.00    -0.419 NA 
HETATM   18  N   UNL     1     -11.077  17.534  64.726  1.00  0.00    -0.812 NA 
HETATM   19  N   UNL     1     -11.616  16.498  64.102  1.00  0.00    -1.080 NA 
BRANCH  17  20
HETATM   20  C   UNL     1     -11.453  14.078  64.252  1.00  0.00    -0.297 C  
HETATM   21  O   UNL     1     -13.527  14.064  65.566  1.00  0.00    -0.677 OA 
HETATM   22  C   UNL     1     -12.528  13.341  65.019  1.00  0.00    -0.443 C  
HETATM   23  O   UNL     1     -12.549  12.116  65.070  1.00  0.00    -0.514 OA 
ENDBRANCH  17  20
ENDBRANCH  14  15
ENDBRANCH  13  14
ENDBRANCH   4  13
BRANCH  10  24
HETATM   24  N   UNL     1     -11.157   7.778  68.403  1.00  0.00    -0.377 N  
HETATM   25  C   UNL     1     -10.621   6.607  67.936  1.00  0.00    -0.247 C  
HETATM   26  O   UNL     1     -11.240   5.963  67.089  1.00  0.00    -0.162 OA 
HETATM   27  H   UNL     1     -12.083   8.028  68.057  1.00  0.00     0.000 HD 
BRANCH  25  28
HETATM   28  C   UNL     1      -9.272   6.155  68.473  1.00  0.00    -0.115 C  
BRANCH  28  29
HETATM   29  C   UNL     1      -9.267   4.765  69.071  1.00  0.00    -0.174 A  
HETATM   30  C   UNL     1      -8.915   3.615  68.330  1.00  0.00    -0.173 A  
HETATM   31  C   UNL     1      -8.933   2.366  68.982  1.00  0.00    -0.169 A  
HETATM   32  C   UNL     1      -9.596   4.625  70.437  1.00  0.00    -0.271 A  
HETATM   33  C   UNL     1      -9.257   2.249  70.333  1.00  0.00    -0.189 A  
HETATM   34  C   UNL     1      -9.596   3.379  71.061  1.00  0.00    -0.239 A  
BRANCH  30  35
HETATM   35  C   UNL     1      -8.585   3.669  66.850  1.00  0.00    -0.110 C  
HETATM   36  N   UNL     1      -9.717   3.293  66.001  1.00  0.00    -0.401 NA 
HETATM   37  H1  UNL     1      -9.495   3.329  65.006  1.00  0.00     0.000 HD 
HETATM   38  H2  UNL     1     -10.537   3.862  66.214  1.00  0.00     0.000 HD 
ENDBRANCH  30  35
ENDBRANCH  28  29
ENDBRANCH  25  28
ENDBRANCH  10  24
TORSDOF 8
ENDMDL
MODEL       12
REMARK 921   NORMALIZED FREE ENERGY PREDICTED BY IDOCK:   -8.06 KCAL/MOL
REMARK 922        TOTAL FREE ENERGY PREDICTED BY IDOCK:  -12.65 KCAL/MOL
REMARK 923 INTER-LIGAND FREE ENERGY PREDICTED BY IDOCK:  -11.35 KCAL/MOL
REMARK 924 INTRA-LIGAND FREE ENERGY PREDICTED BY IDOCK:   -1.30 KCAL/MOL
REMARK 927      BINDING AFFINITY PREDICTED BY RF-SCORE:    0.00 PKD
ROOT
HETATM    1  C   UNL     1     -11.200  11.320  68.557  1.00  0.00    -0.252 C  
HETATM    2  S   UNL     1      -9.620  10.497  68.843  1.00  0.00    -0.198 SA 
HETATM    3  C   UNL     1     -10.369   9.017  69.559  1.00  0.00    -0.209 C  
HETATM    4  C   UNL     1     -11.477   9.279  70.572  1.00  0.00    -0.296 C  
HETATM    5  O   UNL     1     -13.407  11.920  72.201  1.00  0.00    -0.503 OA 
HETATM    6  CA  UNL     1     -12.128  10.473  70.705  1.00  0.00    -0.370 C  
HETATM    7  N   UNL     1     -11.853  11.493  69.838  1.00  0.00    -0.328 N  
HETATM    8  O   UNL     1     -12.502  13.607  70.536  1.00  0.00    -0.338 OA 
HETATM    9  C   UNL     1     -13.156  10.663  71.800  1.00  0.00    -0.466 C  
HETATM   10  CA  UNL     1     -11.187  12.879  68.434  1.00  0.00    -0.270 C  
HETATM   11  OXT UNL     1     -13.758   9.732  72.312  1.00  0.00    -0.393 OA 
HETATM   12  C   UNL     1     -12.000  12.828  69.761  1.00  0.00    -0.292 C  
ENDROOT
BRANCH   4  13
HETATM   13  C   UNL     1     -11.656   8.082  71.505  1.00  0.00    -0.275 C  
BRANCH  13  14
HETATM   14  S   UNL     1     -11.245   6.512  70.663  1.00  0.00    -0.352 SA 
BRANCH  14  15
HETATM   15  C   UNL     1     -10.300   5.760  71.902  1.00  0.00    -0.214 A  
HETATM   16  N   UNL     1     -10.705   4.789  72.689  1.00  0.00    -0.210 NA 
HETATM   17  N   UNL     1      -9.003   6.063  72.217  1.00  0.00    -0.141 NA 
HETATM   18  N   UNL     1      -9.630   4.463  73.476  1.00  0.00    -0.116 NA 
HETATM   19  N   UNL     1      -8.578   5.207  73.174  1.00  0.00    -0.110 NA 
BRANCH  17  20
HETATM   20  C   UNL     1      -8.081   6.990  71.599  1.00  0.00    -0.103 C  
HETATM   21  O   UNL     1      -7.993   8.352  73.639  1.00  0.00    -0.305 OA 
HETATM   22  C   UNL     1      -7.901   8.321  72.294  1.00  0.00    -0.130 C  
HETATM   23  O   UNL     1      -7.590   9.330  71.670  1.00  0.00    -0.338 OA 
ENDBRANCH  17  20
ENDBRANCH  14  15
ENDBRANCH  13  14
ENDBRANCH   4  13
BRANCH  10  24
HETATM   24  N   UNL     1      -9.883  13.579  68.501  1.00  0.00    -0.324 N  
HETATM   25  C   UNL     1      -9.679  14.931  68.431  1.00  0.00    -0.209 C  
HETATM   26  O   UNL     1      -8.526  15.362  68.433  1.00  0.00    -0.151 OA 
HETATM   27  H   UNL     1      -9.054  12.995  68.610  1.00  0.00     0.000 HD 
BRANCH  25  28
HETATM   28  C   UNL     1     -10.888  15.848  68.336  1.00  0.00    -0.316 C  
BRANCH  28  29
HETATM   29  C   UNL     1     -10.616  17.178  67.666  1.00  0.00    -0.343 A  
HETATM   30  C   UNL     1     -10.623  17.342  66.262  1.00  0.00    -0.184 A  
HETATM   31  C   UNL     1     -10.367  18.624  65.736  1.00  0.00    -0.232 A  
HETATM   32  C   UNL     1     -10.381  18.303  68.485  1.00  0.00    -0.341 A  
HETATM   33  C   UNL     1     -10.142  19.724  66.562  1.00  0.00    -0.589 A  
HETATM   34  C   UNL     1     -10.141  19.563  67.939  1.00  0.00    -0.531 A  
BRANCH  30  35
HETATM   35  C   UNL     1     -10.829  16.181  65.307  1.00  0.00    -0.336 C  
HETATM   36  N   UNL     1     -11.435  16.589  64.039  1.00  0.00    -1.581 NA 
HETATM   37  H1  UNL     1     -11.574  15.809  63.396  1.00  0.00     0.000 HD 
HETATM   38  H2  UNL     1     -10.893  17.334  63.599  1.00  0.00     0.000 HD 
ENDBRANCH  30  35
ENDBRANCH  28  29
ENDBRANCH  25  28
ENDBRANCH  10  24
TORSDOF 8
ENDMDL
MODEL       13
REMARK 921   NORMALIZED FREE ENERGY PREDICTED BY IDOCK:   -8.03 KCAL/MOL
REMARK 922        TOTAL FREE ENERGY PREDICTED BY IDOCK:  -12.60 KCAL/MOL
REMARK 923 INTER-LIGAND FREE ENERGY PREDICTED BY IDOCK:  -11.32 KCAL/MOL
REMARK 924 INTRA-LIGAND FREE ENERGY PREDICTED BY IDOCK:   -1.29 KCAL/MOL
REMARK 927      BINDING AFFINITY PREDICTED BY RF-SCORE:    0.00 PKD
ROOT
HETATM    1  C   UNL     1     -10.181  10.269  69.600  1.00  0.00    -0.235 C  
HETATM    2  S   UNL     1     -10.435  10.129  67.819  1.00  0.00    -0.250 SA 
HETATM    3  C   UNL     1     -10.341  11.909  67.531  1.00  0.00    -0.200 C  
HETATM    4  C   UNL     1     -11.127  12.766  68.516  1.00  0.00    -0.300 C  
HETATM    5  O   UNL     1     -13.235  12.632  71.498  1.00  0.00    -0.345 OA 
HETATM    6  CA  UNL     1     -11.584  12.321  69.724  1.00  0.00    -0.243 C  
HETATM    7  N   UNL     1     -11.265  11.061  70.145  1.00  0.00    -0.240 N  
HETATM    8  O   UNL     1     -12.591  10.202  71.843  1.00  0.00    -0.396 OA 
HETATM    9  C   UNL     1     -12.431  13.222  70.598  1.00  0.00    -0.298 C  
HETATM   10  CA  UNL     1     -10.688   9.090  70.494  1.00  0.00    -0.239 C  
HETATM   11  OXT UNL     1     -12.401  14.440  70.518  1.00  0.00    -0.303 OA 
HETATM   12  C   UNL     1     -11.692  10.149  71.038  1.00  0.00    -0.382 C  
ENDROOT
BRANCH   4  13
HETATM   13  C   UNL     1     -11.455  14.130  67.910  1.00  0.00    -0.312 C  
BRANCH  13  14
HETATM   14  S   UNL     1      -9.938  15.019  67.407  1.00  0.00    -0.226 SA 
BRANCH  14  15
HETATM   15  C   UNL     1     -10.531  15.820  65.992  1.00  0.00    -0.338 A  
HETATM   16  N   UNL     1     -11.071  15.231  64.948  1.00  0.00    -0.421 NA 
HETATM   17  N   UNL     1     -10.532  17.172  65.778  1.00  0.00    -0.515 NA 
HETATM   18  N   UNL     1     -11.445  16.237  64.095  1.00  0.00    -0.942 NA 
HETATM   19  N   UNL     1     -11.154  17.424  64.603  1.00  0.00    -0.851 NA 
BRANCH  17  20
HETATM   20  C   UNL     1     -10.132  18.258  66.644  1.00  0.00    -0.375 C  
HETATM   21  O   UNL     1      -7.820  18.133  65.827  1.00  0.00    -0.526 OA 
HETATM   22  C   UNL     1      -8.645  18.438  66.850  1.00  0.00    -0.271 C  
HETATM   23  O   UNL     1      -8.198  18.932  67.880  1.00  0.00    -0.267 OA 
ENDBRANCH  17  20
ENDBRANCH  14  15
ENDBRANCH  13  14
ENDBRANCH   4  13
BRANCH  10  24
HETATM   24  N   UNL     1     -11.289   7.911  69.828  1.00  0.00    -0.454 N  
HETATM   25  C   UNL     1     -10.971   6.598  70.052  1.00  0.00    -0.311 C  
HETATM   26  O   UNL     1     -11.511   5.728  69.370  1.00  0.00    -0.112 OA 
HETATM   27  H   UNL     1     -12.013   8.095  69.133  1.00  0.00     0.000 HD 
BRANCH  25  28
HETATM   28  C   UNL     1      -9.947   6.268  71.127  1.00  0.00    -0.210 C  
BRANCH  28  29
HETATM   29  C   UNL     1     -10.221   4.984  71.881  1.00  0.00    -0.267 A  
HETATM   30  C   UNL     1      -9.685   3.737  71.486  1.00  0.00    -0.241 A  
HETATM   31  C   UNL     1      -9.991   2.601  72.262  1.00  0.00    -0.237 A  
HETATM   32  C   UNL     1     -11.016   5.050  73.045  1.00  0.00    -0.360 A  
HETATM   33  C   UNL     1     -10.776   2.687  73.411  1.00  0.00    -0.280 A  
HETATM   34  C   UNL     1     -11.295   3.913  73.800  1.00  0.00    -0.182 A  
BRANCH  30  35
HETATM   35  C   UNL     1      -8.852   3.569  70.229  1.00  0.00    -0.089 C  
HETATM   36  N   UNL     1      -9.648   3.157  69.072  1.00  0.00    -0.100 NA 
HETATM   37  H1  UNL     1      -9.088   3.043  68.226  1.00  0.00     0.000 HD 
HETATM   38  H2  UNL     1     -10.423   3.802  68.914  1.00  0.00     0.000 HD 
ENDBRANCH  30  35
ENDBRANCH  28  29
ENDBRANCH  25  28
ENDBRANCH  10  24
TORSDOF 8
ENDMDL
MODEL       14
REMARK 921   NORMALIZED FREE ENERGY PREDICTED BY IDOCK:   -8.03 KCAL/MOL
REMARK 922        TOTAL FREE ENERGY PREDICTED BY IDOCK:  -12.60 KCAL/MOL
REMARK 923 INTER-LIGAND FREE ENERGY PREDICTED BY IDOCK:  -11.32 KCAL/MOL
REMARK 924 INTRA-LIGAND FREE ENERGY PREDICTED BY IDOCK:   -1.28 KCAL/MOL
REMARK 927      BINDING AFFINITY PREDICTED BY RF-SCORE:    0.00 PKD
ROOT
HETATM    1  C   UNL     1     -11.088  14.356  68.513  1.00  0.00    -0.253 C  
HETATM    2  S   UNL     1      -9.733  15.252  69.298  1.00  0.00    -0.248 SA 
HETATM    3  C   UNL     1     -10.177  16.838  68.557  1.00  0.00    -0.298 C  
HETATM    4  C   UNL     1     -10.518  16.786  67.073  1.00  0.00    -0.285 C  
HETATM    5  O   UNL     1     -10.886  14.533  64.219  1.00  0.00    -0.169 OA 
HETATM    6  CA  UNL     1     -10.824  15.639  66.397  1.00  0.00    -0.252 C  
HETATM    7  N   UNL     1     -10.920  14.457  67.078  1.00  0.00    -0.298 N  
HETATM    8  O   UNL     1     -10.794  12.538  65.783  1.00  0.00    -0.265 OA 
HETATM    9  C   UNL     1     -11.066  15.675  64.902  1.00  0.00    -0.402 C  
HETATM   10  CA  UNL     1     -10.928  12.808  68.350  1.00  0.00    -0.254 C  
HETATM   11  OXT UNL     1     -11.420  16.684  64.314  1.00  0.00    -1.075 OA 
HETATM   12  C   UNL     1     -10.900  13.136  66.828  1.00  0.00    -0.276 C  
ENDROOT
BRANCH   4  13
HETATM   13  C   UNL     1     -10.332  18.156  66.422  1.00  0.00    -0.394 C  
BRANCH  13  14
HETATM   14  S   UNL     1      -9.317  19.259  67.469  1.00  0.00    -0.314 SA 
BRANCH  14  15
HETATM   15  C   UNL     1      -7.798  19.112  66.652  1.00  0.00    -0.267 A  
HETATM   16  N   UNL     1      -7.598  18.488  65.513  1.00  0.00    -0.452 NA 
HETATM   17  N   UNL     1      -6.607  19.640  67.074  1.00  0.00    -0.193 NA 
HETATM   18  N   UNL     1      -6.273  18.665  65.209  1.00  0.00    -0.295 NA 
HETATM   19  N   UNL     1      -5.667  19.393  66.133  1.00  0.00    -0.162 NA 
BRANCH  17  20
HETATM   20  C   UNL     1      -6.304  20.479  68.212  1.00  0.00    -0.317 C  
HETATM   21  O   UNL     1      -5.618  18.530  69.538  1.00  0.00    -0.207 OA 
HETATM   22  C   UNL     1      -6.140  19.774  69.540  1.00  0.00    -0.311 C  
HETATM   23  O   UNL     1      -6.386  20.342  70.599  1.00  0.00    -0.510 OA 
ENDBRANCH  17  20
ENDBRANCH  14  15
ENDBRANCH  13  14
ENDBRANCH   4  13
BRANCH  10  24
HETATM   24  N   UNL     1      -9.710  12.166  68.896  1.00  0.00    -0.416 N  
HETATM   25  C   UNL     1      -9.549  10.837  69.184  1.00  0.00    -0.151 C  
HETATM   26  O   UNL     1      -8.496  10.461  69.700  1.00  0.00    -0.145 OA 
HETATM   27  H   UNL     1      -8.911  12.774  69.076  1.00  0.00     0.000 HD 
BRANCH  25  28
HETATM   28  C   UNL     1     -10.687   9.878  68.871  1.00  0.00    -0.244 C  
BRANCH  28  29
HETATM   29  C   UNL     1     -11.133   9.028  70.041  1.00  0.00    -0.197 A  
HETATM   30  C   UNL     1     -12.072   9.476  70.997  1.00  0.00    -0.398 A  
HETATM   31  C   UNL     1     -12.429   8.604  72.045  1.00  0.00    -0.433 A  
HETATM   32  C   UNL     1     -10.609   7.722  70.156  1.00  0.00    -0.237 A  
HETATM   33  C   UNL     1     -11.904   7.316  72.139  1.00  0.00    -0.324 A  
HETATM   34  C   UNL     1     -10.986   6.876  71.197  1.00  0.00    -0.284 A  
BRANCH  30  35
HETATM   35  C   UNL     1     -12.657  10.876  70.972  1.00  0.00    -0.417 C  
HETATM   36  N   UNL     1     -13.368  11.217  72.204  1.00  0.00    -0.577 NA 
HETATM   37  H1  UNL     1     -13.761  12.158  72.188  1.00  0.00     0.000 HD 
HETATM   38  H2  UNL     1     -12.768  11.085  73.020  1.00  0.00     0.000 HD 
ENDBRANCH  30  35
ENDBRANCH  28  29
ENDBRANCH  25  28
ENDBRANCH  10  24
TORSDOF 8
ENDMDL
MODEL       15
REMARK 921   NORMALIZED FREE ENERGY PREDICTED BY IDOCK:   -8.00 KCAL/MOL
REMARK 922        TOTAL FREE ENERGY PREDICTED BY IDOCK:  -12.57 KCAL/MOL
REMARK 923 INTER-LIGAND FREE ENERGY PREDICTED BY IDOCK:  -11.28 KCAL/MOL
REMARK 924 INTRA-LIGAND FREE ENERGY PREDICTED BY IDOCK:   -1.29 KCAL/MOL
REMARK 927      BINDING AFFINITY PREDICTED BY RF-SCORE:    0.00 PKD
ROOT
HETATM    1  C   UNL     1     -11.067  11.536  68.637  1.00  0.00    -0.238 C  
HETATM    2  S   UNL     1      -9.505  10.680  68.924  1.00  0.00    -0.183 SA 
HETATM    3  C   UNL     1     -10.292   9.158  69.497  1.00  0.00    -0.215 C  
HETATM    4  C   UNL     1     -11.438   9.354  70.481  1.00  0.00    -0.317 C  
HETATM    5  O   UNL     1     -13.417  11.884  72.224  1.00  0.00    -0.442 OA 
HETATM    6  CA  UNL     1     -12.087  10.540  70.677  1.00  0.00    -0.356 C  
HETATM    7  N   UNL     1     -11.771  11.620  69.900  1.00  0.00    -0.331 N  
HETATM    8  O   UNL     1     -12.434  13.682  70.727  1.00  0.00    -0.343 OA 
HETATM    9  C   UNL     1     -13.158  10.658  71.741  1.00  0.00    -0.466 C  
HETATM   10  CA  UNL     1     -11.039  13.100  68.632  1.00  0.00    -0.269 C  
HETATM   11  OXT UNL     1     -13.785   9.697  72.157  1.00  0.00    -0.403 OA 
HETATM   12  C   UNL     1     -11.906  12.958  69.917  1.00  0.00    -0.303 C  
ENDROOT
BRANCH   4  13
HETATM   13  C   UNL     1     -11.663   8.092  71.314  1.00  0.00    -0.279 C  
BRANCH  13  14
HETATM   14  S   UNL     1     -10.420   7.942  72.647  1.00  0.00    -0.346 SA 
BRANCH  14  15
HETATM   15  C   UNL     1     -10.361   6.219  72.792  1.00  0.00    -0.197 A  
HETATM   16  N   UNL     1     -11.000   5.504  73.689  1.00  0.00    -0.248 NA 
HETATM   17  N   UNL     1      -9.654   5.370  71.982  1.00  0.00    -0.154 NA 
HETATM   18  N   UNL     1     -10.715   4.193  73.406  1.00  0.00    -0.199 NA 
HETATM   19  N   UNL     1      -9.925   4.097  72.349  1.00  0.00    -0.160 NA 
BRANCH  17  20
HETATM   20  C   UNL     1      -8.861   5.643  70.804  1.00  0.00    -0.139 C  
HETATM   21  O   UNL     1     -10.824   5.381  69.352  1.00  0.00    -0.252 OA 
HETATM   22  C   UNL     1      -9.485   5.275  69.476  1.00  0.00    -0.138 C  
HETATM   23  O   UNL     1      -8.794   4.976  68.508  1.00  0.00    -0.100 OA 
ENDBRANCH  17  20
ENDBRANCH  14  15
ENDBRANCH  13  14
ENDBRANCH   4  13
BRANCH  10  24
HETATM   24  N   UNL     1      -9.734  13.781  68.803  1.00  0.00    -0.400 N  
HETATM   25  C   UNL     1      -9.508  15.131  68.767  1.00  0.00    -0.209 C  
HETATM   26  O   UNL     1      -8.353  15.546  68.859  1.00  0.00    -0.171 OA 
HETATM   27  H   UNL     1      -8.923  13.184  68.964  1.00  0.00     0.000 HD 
BRANCH  25  28
HETATM   28  C   UNL     1     -10.695  16.066  68.598  1.00  0.00    -0.281 C  
BRANCH  28  29
HETATM   29  C   UNL     1     -10.377  17.363  67.886  1.00  0.00    -0.369 A  
HETATM   30  C   UNL     1     -10.388  17.484  66.478  1.00  0.00    -0.325 A  
HETATM   31  C   UNL     1     -10.086  18.738  65.910  1.00  0.00    -0.223 A  
HETATM   32  C   UNL     1     -10.092  18.503  68.668  1.00  0.00    -0.406 A  
HETATM   33  C   UNL     1      -9.811  19.853  66.701  1.00  0.00    -0.555 A  
HETATM   34  C   UNL     1      -9.807  19.734  68.083  1.00  0.00    -0.536 A  
BRANCH  30  35
HETATM   35  C   UNL     1     -10.646  16.303  65.560  1.00  0.00    -0.353 C  
HETATM   36  N   UNL     1     -11.231  16.698  64.278  1.00  0.00    -1.380 NA 
HETATM   37  H1  UNL     1     -11.405  15.904  63.661  1.00  0.00     0.000 HD 
HETATM   38  H2  UNL     1     -10.655  17.402  63.815  1.00  0.00     0.000 HD 
ENDBRANCH  30  35
ENDBRANCH  28  29
ENDBRANCH  25  28
ENDBRANCH  10  24
TORSDOF 8
ENDMDL
MODEL       16
REMARK 921   NORMALIZED FREE ENERGY PREDICTED BY IDOCK:   -7.89 KCAL/MOL
REMARK 922        TOTAL FREE ENERGY PREDICTED BY IDOCK:  -12.41 KCAL/MOL
REMARK 923 INTER-LIGAND FREE ENERGY PREDICTED BY IDOCK:  -11.47 KCAL/MOL
REMARK 924 INTRA-LIGAND FREE ENERGY PREDICTED BY IDOCK:   -0.93 KCAL/MOL
REMARK 927      BINDING AFFINITY PREDICTED BY RF-SCORE:    0.00 PKD
ROOT
HETATM    1  C   UNL     1      -9.778  15.762  66.562  1.00  0.00    -0.265 C  
HETATM    2  S   UNL     1     -10.261  15.477  68.277  1.00  0.00    -0.225 SA 
HETATM    3  C   UNL     1     -10.339  13.681  68.095  1.00  0.00    -0.245 C  
HETATM    4  C   UNL     1     -11.045  13.189  66.837  1.00  0.00    -0.308 C  
HETATM    5  O   UNL     1     -12.711  14.293  63.778  1.00  0.00    -0.779 OA 
HETATM    6  CA  UNL     1     -11.299  13.969  65.745  1.00  0.00    -0.312 C  
HETATM    7  N   UNL     1     -10.833  15.254  65.709  1.00  0.00    -0.346 N  
HETATM    8  O   UNL     1     -11.848  16.648  64.159  1.00  0.00    -0.910 OA 
HETATM    9  C   UNL     1     -12.084  13.413  64.576  1.00  0.00    -0.409 C  
HETATM   10  CA  UNL     1     -10.070  17.175  65.959  1.00  0.00    -0.288 C  
HETATM   11  OXT UNL     1     -12.154  12.219  64.335  1.00  0.00    -0.394 OA 
HETATM   12  C   UNL     1     -11.065  16.401  65.046  1.00  0.00    -0.208 C  
ENDROOT
BRANCH   4  13
HETATM   13  C   UNL     1     -11.552  11.759  67.022  1.00  0.00    -0.244 C  
BRANCH  13  14
HETATM   14  S   UNL     1     -11.845  11.377  68.786  1.00  0.00    -0.282 SA 
BRANCH  14  15
HETATM   15  C   UNL     1     -10.898   9.936  68.928  1.00  0.00    -0.210 A  
HETATM   16  N   UNL     1     -10.182   9.392  67.971  1.00  0.00    -0.192 NA 
HETATM   17  N   UNL     1     -10.755   9.180  70.061  1.00  0.00    -0.226 NA 
HETATM   18  N   UNL     1      -9.558   8.307  68.529  1.00  0.00    -0.147 NA 
HETATM   19  N   UNL     1      -9.872   8.187  69.810  1.00  0.00    -0.184 NA 
BRANCH  17  20
HETATM   20  C   UNL     1     -11.263   9.390  71.398  1.00  0.00    -0.381 C  
HETATM   21  O   UNL     1     -12.899   7.581  71.124  1.00  0.00    -0.302 OA 
HETATM   22  C   UNL     1     -12.597   8.754  71.718  1.00  0.00    -0.356 C  
HETATM   23  O   UNL     1     -13.349   9.235  72.558  1.00  0.00    -0.457 OA 
ENDBRANCH  17  20
ENDBRANCH  14  15
ENDBRANCH  13  14
ENDBRANCH   4  13
BRANCH  10  24
HETATM   24  N   UNL     1     -10.667  18.206  66.839  1.00  0.00    -0.293 N  
HETATM   25  C   UNL     1     -10.196  19.476  67.044  1.00  0.00    -0.426 C  
HETATM   26  O   UNL     1     -10.765  20.200  67.861  1.00  0.00    -0.252 OA 
HETATM   27  H   UNL     1     -11.514  17.945  67.343  1.00  0.00     0.000 HD 
BRANCH  25  28
HETATM   28  C   UNL     1      -8.975  19.937  66.263  1.00  0.00    -0.419 C  
BRANCH  28  29
HETATM   29  C   UNL     1      -7.684  19.923  67.052  1.00  0.00    -0.312 A  
HETATM   30  C   UNL     1      -6.435  20.255  66.479  1.00  0.00    -0.247 A  
HETATM   31  C   UNL     1      -5.291  20.222  67.302  1.00  0.00    -0.180 A  
HETATM   32  C   UNL     1      -7.743  19.599  68.424  1.00  0.00    -0.366 A  
HETATM   33  C   UNL     1      -5.371  19.903  68.656  1.00  0.00    -0.228 A  
HETATM   34  C   UNL     1      -6.598  19.584  69.218  1.00  0.00    -0.374 A  
BRANCH  30  35
HETATM   35  C   UNL     1      -6.274  20.579  65.006  1.00  0.00    -0.276 C  
HETATM   36  N   UNL     1      -6.038  19.390  64.185  1.00  0.00    -0.425 NA 
HETATM   37  H1  UNL     1      -5.930  19.608  63.194  1.00  0.00     0.000 HD 
HETATM   38  H2  UNL     1      -6.773  18.696  64.329  1.00  0.00     0.000 HD 
ENDBRANCH  30  35
ENDBRANCH  28  29
ENDBRANCH  25  28
ENDBRANCH  10  24
TORSDOF 8
ENDMDL
MODEL       17
REMARK 921   NORMALIZED FREE ENERGY PREDICTED BY IDOCK:   -7.87 KCAL/MOL
REMARK 922        TOTAL FREE ENERGY PREDICTED BY IDOCK:  -12.37 KCAL/MOL
REMARK 923 INTER-LIGAND FREE ENERGY PREDICTED BY IDOCK:  -11.41 KCAL/MOL
REMARK 924 INTRA-LIGAND FREE ENERGY PREDICTED BY IDOCK:   -0.96 KCAL/MOL
REMARK 927      BINDING AFFINITY PREDICTED BY RF-SCORE:    0.00 PKD
ROOT
HETATM    1  C   UNL     1      -9.750  15.697  66.560  1.00  0.00    -0.266 C  
HETATM    2  S   UNL     1     -10.313  15.375  68.244  1.00  0.00    -0.242 SA 
HETATM    3  C   UNL     1     -10.311  13.580  68.044  1.00  0.00    -0.241 C  
HETATM    4  C   UNL     1     -10.930  13.074  66.746  1.00  0.00    -0.299 C  
HETATM    5  O   UNL     1     -12.471  14.146  63.611  1.00  0.00    -0.819 OA 
HETATM    6  CA  UNL     1     -11.155  13.856  65.648  1.00  0.00    -0.298 C  
HETATM    7  N   UNL     1     -10.737  15.158  65.648  1.00  0.00    -0.341 N  
HETATM    8  O   UNL     1     -11.722  16.528  64.057  1.00  0.00    -1.111 OA 
HETATM    9  C   UNL     1     -11.854  13.282  64.433  1.00  0.00    -0.399 C  
HETATM   10  CA  UNL     1     -10.064  17.104  65.954  1.00  0.00    -0.240 C  
HETATM   11  OXT UNL     1     -11.865  12.089  64.179  1.00  0.00    -0.376 OA 
HETATM   12  C   UNL     1     -10.978  16.302  64.982  1.00  0.00    -0.298 C  
ENDROOT
BRANCH   4  13
HETATM   13  C   UNL     1     -11.390  11.625  66.891  1.00  0.00    -0.295 C  
BRANCH  13  14
HETATM   14  S   UNL     1     -10.326  10.699  68.054  1.00  0.00    -0.190 SA 
BRANCH  14  15
HETATM   15  C   UNL     1     -11.417  10.557  69.390  1.00  0.00    -0.262 A  
HETATM   16  N   UNL     1     -12.648  11.014  69.425  1.00  0.00    -0.270 NA 
HETATM   17  N   UNL     1     -11.149   9.935  70.581  1.00  0.00    -0.317 NA 
HETATM   18  N   UNL     1     -13.160  10.637  70.640  1.00  0.00    -0.267 NA 
HETATM   19  N   UNL     1     -12.269   9.950  71.338  1.00  0.00    -0.380 NA 
BRANCH  17  20
HETATM   20  C   UNL     1      -9.980   9.204  71.013  1.00  0.00    -0.297 C  
HETATM   21  O   UNL     1     -10.583   7.290  69.599  1.00  0.00    -0.225 OA 
HETATM   22  C   UNL     1      -9.971   7.720  70.721  1.00  0.00    -0.181 C  
HETATM   23  O   UNL     1      -9.350   6.934  71.429  1.00  0.00    -0.157 OA 
ENDBRANCH  17  20
ENDBRANCH  14  15
ENDBRANCH  13  14
ENDBRANCH   4  13
BRANCH  10  24
HETATM   24  N   UNL     1     -10.746  18.102  66.809  1.00  0.00    -0.272 N  
HETATM   25  C   UNL     1     -10.322  19.378  67.071  1.00  0.00    -0.440 C  
HETATM   26  O   UNL     1     -10.964  20.071  67.860  1.00  0.00    -0.130 OA 
HETATM   27  H   UNL     1     -11.620  17.811  67.247  1.00  0.00     0.000 HD 
BRANCH  25  28
HETATM   28  C   UNL     1      -9.060  19.883  66.388  1.00  0.00    -0.450 C  
BRANCH  28  29
HETATM   29  C   UNL     1      -7.802  19.754  67.220  1.00  0.00    -0.309 A  
HETATM   30  C   UNL     1      -6.513  20.007  66.699  1.00  0.00    -0.215 A  
HETATM   31  C   UNL     1      -5.404  19.868  67.558  1.00  0.00    -0.173 A  
HETATM   32  C   UNL     1      -7.933  19.400  68.580  1.00  0.00    -0.395 A  
HETATM   33  C   UNL     1      -5.555  19.522  68.900  1.00  0.00    -0.228 A  
HETATM   34  C   UNL     1      -6.821  19.280  69.410  1.00  0.00    -0.316 A  
BRANCH  30  35
HETATM   35  C   UNL     1      -6.276  20.356  65.241  1.00  0.00    -0.257 C  
HETATM   36  N   UNL     1      -6.113  19.174  64.394  1.00  0.00    -0.454 NA 
HETATM   37  H1  UNL     1      -5.954  19.408  63.413  1.00  0.00     0.000 HD 
HETATM   38  H2  UNL     1      -6.907  18.540  64.494  1.00  0.00     0.000 HD 
ENDBRANCH  30  35
ENDBRANCH  28  29
ENDBRANCH  25  28
ENDBRANCH  10  24
TORSDOF 8
ENDMDL
MODEL       18
REMARK 921   NORMALIZED FREE ENERGY PREDICTED BY IDOCK:   -7.84 KCAL/MOL
REMARK 922        TOTAL FREE ENERGY PREDICTED BY IDOCK:  -12.33 KCAL/MOL
REMARK 923 INTER-LIGAND FREE ENERGY PREDICTED BY IDOCK:  -11.18 KCAL/MOL
REMARK 924 INTRA-LIGAND FREE ENERGY PREDICTED BY IDOCK:   -1.16 KCAL/MOL
REMARK 927      BINDING AFFINITY PREDICTED BY RF-SCORE:    0.00 PKD
ROOT
HETATM    1  C   UNL     1     -10.347  14.822  69.167  1.00  0.00    -0.233 C  
HETATM    2  S   UNL     1     -11.778  15.198  70.199  1.00  0.00    -0.334 SA 
HETATM    3  C   UNL     1     -12.070  13.474  70.653  1.00  0.00    -0.309 C  
HETATM    4  C   UNL     1     -11.992  12.480  69.501  1.00  0.00    -0.329 C  
HETATM    5  O   UNL     1     -11.331  12.177  65.920  1.00  0.00    -0.330 OA 
HETATM    6  CA  UNL     1     -11.414  12.750  68.293  1.00  0.00    -0.314 C  
HETATM    7  N   UNL     1     -10.783  13.947  68.098  1.00  0.00    -0.245 N  
HETATM    8  O   UNL     1     -10.428  14.548  65.886  1.00  0.00    -0.288 OA 
HETATM    9  C   UNL     1     -11.461  11.727  67.178  1.00  0.00    -0.295 C  
HETATM   10  CA  UNL     1      -9.964  15.862  68.063  1.00  0.00    -0.220 C  
HETATM   11  OXT UNL     1     -11.600  10.531  67.383  1.00  0.00    -0.383 OA 
HETATM   12  C   UNL     1     -10.368  14.723  67.080  1.00  0.00    -0.255 C  
ENDROOT
BRANCH   4  13
HETATM   13  C   UNL     1     -12.768  11.205  69.827  1.00  0.00     0.057 C  
BRANCH  13  14
HETATM   14  S   UNL     1     -12.883  10.938  71.632  1.00  0.00    -0.405 SA 
BRANCH  14  15
HETATM   15  C   UNL     1     -13.218   9.240  71.651  1.00  0.00    -0.388 A  
HETATM   16  N   UNL     1     -14.406   8.696  71.785  1.00  0.00    -0.413 NA 
HETATM   17  N   UNL     1     -12.294   8.240  71.511  1.00  0.00    -0.299 NA 
HETATM   18  N   UNL     1     -14.218   7.341  71.690  1.00  0.00    -0.435 NA 
HETATM   19  N   UNL     1     -12.942   7.053  71.489  1.00  0.00    -0.382 NA 
BRANCH  17  20
HETATM   20  C   UNL     1     -10.873   8.306  71.254  1.00  0.00    -0.237 C  
HETATM   21  O   UNL     1     -10.365   7.614  73.554  1.00  0.00    -0.336 OA 
HETATM   22  C   UNL     1      -9.970   8.309  72.467  1.00  0.00    -0.303 C  
HETATM   23  O   UNL     1      -8.869   8.848  72.442  1.00  0.00    -0.396 OA 
ENDBRANCH  17  20
ENDBRANCH  14  15
ENDBRANCH  13  14
ENDBRANCH   4  13
BRANCH  10  24
HETATM   24  N   UNL     1     -10.755  17.110  67.967  1.00  0.00    -0.383 N  
HETATM   25  C   UNL     1     -10.364  18.280  67.372  1.00  0.00    -0.392 C  
HETATM   26  O   UNL     1     -11.109  19.259  67.432  1.00  0.00    -0.444 OA 
HETATM   27  H   UNL     1     -11.685  17.097  68.386  1.00  0.00     0.000 HD 
BRANCH  25  28
HETATM   28  C   UNL     1      -9.015  18.328  66.673  1.00  0.00    -0.296 C  
BRANCH  28  29
HETATM   29  C   UNL     1      -7.958  19.130  67.403  1.00  0.00    -0.283 A  
HETATM   30  C   UNL     1      -7.091  20.029  66.744  1.00  0.00    -0.264 A  
HETATM   31  C   UNL     1      -6.146  20.736  67.515  1.00  0.00    -0.319 A  
HETATM   32  C   UNL     1      -7.866  18.992  68.805  1.00  0.00    -0.378 A  
HETATM   33  C   UNL     1      -6.073  20.590  68.900  1.00  0.00    -0.369 A  
HETATM   34  C   UNL     1      -6.930  19.711  69.546  1.00  0.00    -0.314 A  
BRANCH  30  35
HETATM   35  C   UNL     1      -7.095  20.211  65.237  1.00  0.00    -0.219 C  
HETATM   36  N   UNL     1      -6.243  19.243  64.546  1.00  0.00    -0.445 NA 
HETATM   37  H1  UNL     1      -6.246  19.365  63.533  1.00  0.00     0.000 HD 
HETATM   38  H2  UNL     1      -6.496  18.288  64.800  1.00  0.00     0.000 HD 
ENDBRANCH  30  35
ENDBRANCH  28  29
ENDBRANCH  25  28
ENDBRANCH  10  24
TORSDOF 8
ENDMDL
MODEL       19
REMARK 921   NORMALIZED FREE ENERGY PREDICTED BY IDOCK:   -7.83 KCAL/MOL
REMARK 922        TOTAL FREE ENERGY PREDICTED BY IDOCK:  -12.32 KCAL/MOL
REMARK 923 INTER-LIGAND FREE ENERGY PREDICTED BY IDOCK:  -10.53 KCAL/MOL
REMARK 924 INTRA-LIGAND FREE ENERGY PREDICTED BY IDOCK:   -1.79 KCAL/MOL
REMARK 927      BINDING AFFINITY PREDICTED BY RF-SCORE:    0.00 PKD
ROOT
HETATM    1  C   UNL     1     -10.102  10.288  69.553  1.00  0.00    -0.235 C  
HETATM    2  S   UNL     1     -10.244  10.257  67.754  1.00  0.00    -0.200 SA 
HETATM    3  C   UNL     1     -10.027  12.041  67.573  1.00  0.00    -0.192 C  
HETATM    4  C   UNL     1     -10.827  12.892  68.553  1.00  0.00    -0.283 C  
HETATM    5  O   UNL     1     -13.133  12.732  71.382  1.00  0.00    -0.329 OA 
HETATM    6  CA  UNL     1     -11.389  12.413  69.703  1.00  0.00    -0.123 C  
HETATM    7  N   UNL     1     -11.172  11.115  70.072  1.00  0.00    -0.231 N  
HETATM    8  O   UNL     1     -12.657  10.252  71.630  1.00  0.00    -0.391 OA 
HETATM    9  C   UNL     1     -12.239  13.318  70.570  1.00  0.00    -0.340 C  
HETATM   10  CA  UNL     1     -10.735   9.098  70.345  1.00  0.00    -0.238 C  
HETATM   11  OXT UNL     1     -12.132  14.534  70.561  1.00  0.00    -0.284 OA 
HETATM   12  C   UNL     1     -11.710  10.186  70.883  1.00  0.00    -0.378 C  
ENDROOT
BRANCH   4  13
HETATM   13  C   UNL     1     -11.033  14.304  68.005  1.00  0.00    -0.249 C  
BRANCH  13  14
HETATM   14  S   UNL     1      -9.581  14.868  67.049  1.00  0.00    -0.247 SA 
BRANCH  14  15
HETATM   15  C   UNL     1     -10.386  15.774  65.813  1.00  0.00    -0.369 A  
HETATM   16  N   UNL     1     -10.386  17.083  65.701  1.00  0.00    -0.591 NA 
HETATM   17  N   UNL     1     -11.115  15.248  64.780  1.00  0.00    -0.409 NA 
HETATM   18  N   UNL     1     -11.093  17.368  64.561  1.00  0.00    -0.724 NA 
HETATM   19  N   UNL     1     -11.512  16.259  63.973  1.00  0.00    -0.984 NA 
BRANCH  17  20
HETATM   20  C   UNL     1     -11.350  13.872  64.404  1.00  0.00    -0.341 C  
HETATM   21  O   UNL     1     -13.603  13.931  65.377  1.00  0.00    -0.571 OA 
HETATM   22  C   UNL     1     -12.522  13.186  65.069  1.00  0.00    -0.460 C  
HETATM   23  O   UNL     1     -12.535  11.972  65.245  1.00  0.00    -0.427 OA 
ENDBRANCH  17  20
ENDBRANCH  14  15
ENDBRANCH  13  14
ENDBRANCH   4  13
BRANCH  10  24
HETATM   24  N   UNL     1     -11.358   7.994  69.577  1.00  0.00    -0.424 N  
HETATM   25  C   UNL     1     -10.787   6.786  69.279  1.00  0.00    -0.264 C  
HETATM   26  O   UNL     1     -11.406   5.991  68.571  1.00  0.00    -0.230 OA 
HETATM   27  H   UNL     1     -12.307   8.150  69.237  1.00  0.00     0.000 HD 
BRANCH  25  28
HETATM   28  C   UNL     1      -9.400   6.478  69.821  1.00  0.00    -0.149 C  
BRANCH  28  29
HETATM   29  C   UNL     1      -8.313   6.422  68.769  1.00  0.00    -0.121 A  
HETATM   30  C   UNL     1      -7.984   5.238  68.073  1.00  0.00    -0.091 A  
HETATM   31  C   UNL     1      -6.961   5.292  67.104  1.00  0.00    -0.065 A  
HETATM   32  C   UNL     1      -7.628   7.615  68.453  1.00  0.00    -0.113 A  
HETATM   33  C   UNL     1      -6.299   6.481  66.803  1.00  0.00    -0.042 A  
HETATM   34  C   UNL     1      -6.628   7.644  67.483  1.00  0.00    -0.063 A  
BRANCH  30  35
HETATM   35  C   UNL     1      -8.643   3.904  68.375  1.00  0.00    -0.095 C  
HETATM   36  N   UNL     1      -9.623   3.513  67.362  1.00  0.00    -0.273 NA 
HETATM   37  H1  UNL     1     -10.066   2.616  67.565  1.00  0.00     0.000 HD 
HETATM   38  H2  UNL     1      -9.205   3.511  66.431  1.00  0.00     0.000 HD 
ENDBRANCH  30  35
ENDBRANCH  28  29
ENDBRANCH  25  28
ENDBRANCH  10  24
TORSDOF 8
ENDMDL
MODEL       20
REMARK 921   NORMALIZED FREE ENERGY PREDICTED BY IDOCK:   -7.76 KCAL/MOL
REMARK 922        TOTAL FREE ENERGY PREDICTED BY IDOCK:  -12.21 KCAL/MOL
REMARK 923 INTER-LIGAND FREE ENERGY PREDICTED BY IDOCK:  -10.63 KCAL/MOL
REMARK 924 INTRA-LIGAND FREE ENERGY PREDICTED BY IDOCK:   -1.58 KCAL/MOL
REMARK 927      BINDING AFFINITY PREDICTED BY RF-SCORE:    0.00 PKD
ROOT
HETATM    1  C   UNL     1      -9.851   9.318  67.593  1.00  0.00    -0.176 C  
HETATM    2  S   UNL     1     -10.270  10.922  68.307  1.00  0.00    -0.181 SA 
HETATM    3  C   UNL     1     -11.228  11.458  66.872  1.00  0.00    -0.264 C  
HETATM    4  C   UNL     1     -10.579  11.184  65.522  1.00  0.00    -0.289 C  
HETATM    5  O   UNL     1      -7.654   9.697  63.914  1.00  0.00    -0.116 OA 
HETATM    6  CA  UNL     1      -9.548  10.308  65.330  1.00  0.00    -0.264 C  
HETATM    7  N   UNL     1      -9.100   9.551  66.377  1.00  0.00    -0.152 N  
HETATM    8  O   UNL     1      -6.993   8.619  66.114  1.00  0.00    -0.077 OA 
HETATM    9  C   UNL     1      -8.911  10.167  63.964  1.00  0.00    -0.228 C  
HETATM   10  CA  UNL     1      -8.583   8.592  68.151  1.00  0.00    -0.141 C  
HETATM   11  OXT UNL     1      -9.493  10.451  62.930  1.00  0.00    -0.296 OA 
HETATM   12  C   UNL     1      -8.014   8.837  66.723  1.00  0.00    -0.097 C  
ENDROOT
BRANCH   4  13
HETATM   13  C   UNL     1     -11.135  12.120  64.449  1.00  0.00    -0.333 C  
BRANCH  13  14
HETATM   14  S   UNL     1     -12.512  13.133  65.098  1.00  0.00    -0.467 SA 
BRANCH  14  15
HETATM   15  C   UNL     1     -11.900  14.712  64.741  1.00  0.00    -0.440 A  
HETATM   16  N   UNL     1     -12.422  15.559  63.883  1.00  0.00    -0.605 NA 
HETATM   17  N   UNL     1     -10.802  15.294  65.316  1.00  0.00    -0.377 NA 
HETATM   18  N   UNL     1     -11.658  16.695  63.956  1.00  0.00    -1.119 NA 
HETATM   19  N   UNL     1     -10.691  16.559  64.849  1.00  0.00    -0.722 NA 
BRANCH  17  20
HETATM   20  C   UNL     1      -9.934  14.821  66.370  1.00  0.00    -0.277 C  
HETATM   21  O   UNL     1     -11.662  15.242  68.061  1.00  0.00    -0.342 OA 
HETATM   22  C   UNL     1     -10.345  15.167  67.783  1.00  0.00    -0.243 C  
HETATM   23  O   UNL     1      -9.514  15.287  68.678  1.00  0.00    -0.189 OA 
ENDBRANCH  17  20
ENDBRANCH  14  15
ENDBRANCH  13  14
ENDBRANCH   4  13
BRANCH  10  24
HETATM   24  N   UNL     1      -7.839   9.229  69.263  1.00  0.00    -0.083 N  
HETATM   25  C   UNL     1      -7.789   8.800  70.562  1.00  0.00    -0.103 C  
HETATM   26  O   UNL     1      -7.181   9.476  71.391  1.00  0.00    -0.330 OA 
HETATM   27  H   UNL     1      -7.311  10.073  69.037  1.00  0.00     0.000 HD 
BRANCH  25  28
HETATM   28  C   UNL     1      -8.504   7.510  70.933  1.00  0.00    -0.125 C  
BRANCH  28  29
HETATM   29  C   UNL     1      -9.983   7.669  71.211  1.00  0.00    -0.195 A  
HETATM   30  C   UNL     1     -10.952   6.756  70.738  1.00  0.00    -0.306 A  
HETATM   31  C   UNL     1     -12.305   6.988  71.060  1.00  0.00    -0.402 A  
HETATM   32  C   UNL     1     -10.400   8.759  72.006  1.00  0.00    -0.411 A  
HETATM   33  C   UNL     1     -12.696   8.068  71.851  1.00  0.00    -0.354 A  
HETATM   34  C   UNL     1     -11.743   8.959  72.319  1.00  0.00    -0.351 A  
BRANCH  30  35
HETATM   35  C   UNL     1     -10.598   5.580  69.847  1.00  0.00    -0.317 C  
HETATM   36  N   UNL     1     -10.776   5.872  68.425  1.00  0.00    -0.255 NA 
HETATM   37  H1  UNL     1     -10.538   5.081  67.825  1.00  0.00     0.000 HD 
HETATM   38  H2  UNL     1     -10.252   6.705  68.155  1.00  0.00     0.000 HD 
ENDBRANCH  30  35
ENDBRANCH  28  29
ENDBRANCH  25  28
ENDBRANCH  10  24
TORSDOF 8
ENDMDL
MODEL       21
REMARK 921   NORMALIZED FREE ENERGY PREDICTED BY IDOCK:   -7.75 KCAL/MOL
REMARK 922        TOTAL FREE ENERGY PREDICTED BY IDOCK:  -12.20 KCAL/MOL
REMARK 923 INTER-LIGAND FREE ENERGY PREDICTED BY IDOCK:  -11.20 KCAL/MOL
REMARK 924 INTRA-LIGAND FREE ENERGY PREDICTED BY IDOCK:   -1.00 KCAL/MOL
REMARK 927      BINDING AFFINITY PREDICTED BY RF-SCORE:    0.00 PKD
ROOT
HETATM    1  C   UNL     1     -11.751  13.693  68.631  1.00  0.00    -0.354 C  
HETATM    2  S   UNL     1     -10.702  12.225  68.656  1.00  0.00    -0.219 SA 
HETATM    3  C   UNL     1     -11.895  11.225  69.574  1.00  0.00    -0.357 C  
HETATM    4  C   UNL     1     -12.544  11.923  70.763  1.00  0.00    -0.325 C  
HETATM    5  O   UNL     1     -12.699  15.084  72.591  1.00  0.00    -0.330 OA 
HETATM    6  CA  UNL     1     -12.537  13.276  70.956  1.00  0.00    -0.324 C  
HETATM    7  N   UNL     1     -11.995  14.092  70.002  1.00  0.00    -0.318 N  
HETATM    8  O   UNL     1     -11.457  16.236  70.703  1.00  0.00    -0.377 OA 
HETATM    9  C   UNL     1     -13.134  13.870  72.214  1.00  0.00    -0.417 C  
HETATM   10  CA  UNL     1     -11.048  15.076  68.430  1.00  0.00    -0.278 C  
HETATM   11  OXT UNL     1     -13.986  13.299  72.876  1.00  0.00    -0.566 OA 
HETATM   12  C   UNL     1     -11.525  15.347  69.887  1.00  0.00    -0.312 C  
ENDROOT
BRANCH   4  13
HETATM   13  C   UNL     1     -13.071  10.903  71.772  1.00  0.00    -0.459 C  
BRANCH  13  14
HETATM   14  S   UNL     1     -13.201   9.237  71.030  1.00  0.00     0.001 SA 
BRANCH  14  15
HETATM   15  C   UNL     1     -11.842   8.479  71.788  1.00  0.00    -0.331 A  
HETATM   16  N   UNL     1     -11.752   8.164  73.060  1.00  0.00    -0.217 NA 
HETATM   17  N   UNL     1     -10.688   8.092  71.160  1.00  0.00    -0.217 NA 
HETATM   18  N   UNL     1     -10.541   7.540  73.214  1.00  0.00    -0.382 NA 
HETATM   19  N   UNL     1      -9.900   7.458  72.059  1.00  0.00    -0.161 NA 
BRANCH  17  20
HETATM   20  C   UNL     1     -10.321   8.135  69.763  1.00  0.00    -0.216 C  
HETATM   21  O   UNL     1     -11.504   6.028  69.328  1.00  0.00    -0.345 OA 
HETATM   22  C   UNL     1     -10.490   6.849  68.985  1.00  0.00    -0.208 C  
HETATM   23  O   UNL     1      -9.789   6.595  68.011  1.00  0.00    -0.128 OA 
ENDBRANCH  17  20
ENDBRANCH  14  15
ENDBRANCH  13  14
ENDBRANCH   4  13
BRANCH  10  24
HETATM   24  N   UNL     1      -9.582  15.095  68.215  1.00  0.00    -0.207 N  
HETATM   25  C   UNL     1      -8.936  15.130  67.009  1.00  0.00    -0.234 C  
HETATM   26  O   UNL     1      -7.706  15.074  66.988  1.00  0.00    -0.198 OA 
HETATM   27  H   UNL     1      -8.996  15.081  69.050  1.00  0.00     0.000 HD 
BRANCH  25  28
HETATM   28  C   UNL     1      -9.765  15.220  65.738  1.00  0.00    -0.385 C  
BRANCH  28  29
HETATM   29  C   UNL     1     -10.295  13.893  65.238  1.00  0.00    -0.396 A  
HETATM   30  C   UNL     1     -11.556  13.760  64.614  1.00  0.00    -0.396 A  
HETATM   31  C   UNL     1     -11.954  12.481  64.174  1.00  0.00    -0.508 A  
HETATM   32  C   UNL     1      -9.474  12.753  65.373  1.00  0.00     0.158 A  
HETATM   33  C   UNL     1     -11.126  11.368  64.313  1.00  0.00    -0.356 A  
HETATM   34  C   UNL     1      -9.887  11.502  64.920  1.00  0.00    -0.289 A  
BRANCH  30  35
HETATM   35  C   UNL     1     -12.517  14.924  64.461  1.00  0.00    -0.206 C  
HETATM   36  N   UNL     1     -11.933  16.051  63.733  1.00  0.00    -1.339 NA 
HETATM   37  H1  UNL     1     -12.580  16.834  63.631  1.00  0.00     0.000 HD 
HETATM   38  H2  UNL     1     -11.573  15.753  62.826  1.00  0.00     0.000 HD 
ENDBRANCH  30  35
ENDBRANCH  28  29
ENDBRANCH  25  28
ENDBRANCH  10  24
TORSDOF 8
ENDMDL
MODEL       22
REMARK 921   NORMALIZED FREE ENERGY PREDICTED BY IDOCK:   -7.74 KCAL/MOL
REMARK 922        TOTAL FREE ENERGY PREDICTED BY IDOCK:  -12.18 KCAL/MOL
REMARK 923 INTER-LIGAND FREE ENERGY PREDICTED BY IDOCK:  -11.07 KCAL/MOL
REMARK 924 INTRA-LIGAND FREE ENERGY PREDICTED BY IDOCK:   -1.11 KCAL/MOL
REMARK 927      BINDING AFFINITY PREDICTED BY RF-SCORE:    0.00 PKD
ROOT
HETATM    1  C   UNL     1     -11.231  11.149  70.190  1.00  0.00    -0.128 C  
HETATM    2  S   UNL     1     -11.555  10.539  68.523  1.00  0.00    -0.039 SA 
HETATM    3  C   UNL     1     -10.984  12.052  67.716  1.00  0.00    -0.232 C  
HETATM    4  C   UNL     1     -11.483  13.347  68.345  1.00  0.00    -0.351 C  
HETATM    5  O   UNL     1     -13.476  14.707  71.089  1.00  0.00    -0.371 OA 
HETATM    6  CA  UNL     1     -12.016  13.435  69.600  1.00  0.00    -0.324 C  
HETATM    7  N   UNL     1     -12.044  12.329  70.401  1.00  0.00    -0.349 N  
HETATM    8  O   UNL     1     -13.514  12.422  72.192  1.00  0.00    -0.525 OA 
HETATM    9  C   UNL     1     -12.564  14.754  70.105  1.00  0.00    -0.271 C  
HETATM   10  CA  UNL     1     -12.020  10.483  71.365  1.00  0.00    -0.230 C  
HETATM   11  OXT UNL     1     -12.203  15.833  69.663  1.00  0.00    -0.336 OA 
HETATM   12  C   UNL     1     -12.683  11.885  71.499  1.00  0.00    -0.274 C  
ENDROOT
BRANCH   4  13
HETATM   13  C   UNL     1     -11.439  14.494  67.335  1.00  0.00    -0.368 C  
BRANCH  13  14
HETATM   14  S   UNL     1     -10.355  14.095  65.919  1.00  0.00    -0.329 SA 
BRANCH  14  15
HETATM   15  C   UNL     1     -11.480  13.228  64.931  1.00  0.00    -0.318 A  
HETATM   16  N   UNL     1     -12.778  13.429  64.892  1.00  0.00    -0.686 NA 
HETATM   17  N   UNL     1     -11.167  12.229  64.047  1.00  0.00    -0.357 NA 
HETATM   18  N   UNL     1     -13.269  12.568  63.944  1.00  0.00    -0.474 NA 
HETATM   19  N   UNL     1     -12.294  11.858  63.398  1.00  0.00    -0.539 NA 
BRANCH  17  20
HETATM   20  C   UNL     1      -9.883  11.693  63.655  1.00  0.00    -0.345 C  
HETATM   21  O   UNL     1     -10.091   9.859  65.273  1.00  0.00    -0.313 OA 
HETATM   22  C   UNL     1      -9.265  10.680  64.592  1.00  0.00    -0.227 C  
HETATM   23  O   UNL     1      -8.049  10.539  64.667  1.00  0.00    -0.148 OA 
ENDBRANCH  17  20
ENDBRANCH  14  15
ENDBRANCH  13  14
ENDBRANCH   4  13
BRANCH  10  24
HETATM   24  N   UNL     1     -12.936   9.362  71.051  1.00  0.00    -0.524 N  
HETATM   25  C   UNL     1     -12.824   8.070  71.489  1.00  0.00    -0.311 C  
HETATM   26  O   UNL     1     -13.629   7.230  71.087  1.00  0.00    -0.318 OA 
HETATM   27  H   UNL     1     -13.731   9.574  70.448  1.00  0.00     0.000 HD 
BRANCH  25  28
HETATM   28  C   UNL     1     -11.695   7.718  72.446  1.00  0.00    -0.394 C  
BRANCH  28  29
HETATM   29  C   UNL     1     -11.027   6.389  72.168  1.00  0.00    -0.288 A  
HETATM   30  C   UNL     1     -10.148   6.188  71.080  1.00  0.00    -0.231 A  
HETATM   31  C   UNL     1      -9.569   4.914  70.912  1.00  0.00    -0.241 A  
HETATM   32  C   UNL     1     -11.270   5.321  73.058  1.00  0.00    -0.387 A  
HETATM   33  C   UNL     1      -9.818   3.873  71.805  1.00  0.00    -0.249 A  
HETATM   34  C   UNL     1     -10.676   4.074  72.876  1.00  0.00    -0.217 A  
BRANCH  30  35
HETATM   35  C   UNL     1      -9.860   7.269  70.054  1.00  0.00    -0.175 C  
HETATM   36  N   UNL     1     -10.526   7.028  68.773  1.00  0.00    -0.200 NA 
HETATM   37  H1  UNL     1     -10.333   7.755  68.083  1.00  0.00     0.000 HD 
HETATM   38  H2  UNL     1     -11.531   6.905  68.902  1.00  0.00     0.000 HD 
ENDBRANCH  30  35
ENDBRANCH  28  29
ENDBRANCH  25  28
ENDBRANCH  10  24
TORSDOF 8
ENDMDL
MODEL       23
REMARK 921   NORMALIZED FREE ENERGY PREDICTED BY IDOCK:   -7.73 KCAL/MOL
REMARK 922        TOTAL FREE ENERGY PREDICTED BY IDOCK:  -12.16 KCAL/MOL
REMARK 923 INTER-LIGAND FREE ENERGY PREDICTED BY IDOCK:  -10.99 KCAL/MOL
REMARK 924 INTRA-LIGAND FREE ENERGY PREDICTED BY IDOCK:   -1.18 KCAL/MOL
REMARK 927      BINDING AFFINITY PREDICTED BY RF-SCORE:    0.00 PKD
ROOT
HETATM    1  C   UNL     1     -11.721  14.219  68.574  1.00  0.00    -0.341 C  
HETATM    2  S   UNL     1     -10.619  15.050  69.737  1.00  0.00    -0.177 SA 
HETATM    3  C   UNL     1     -10.921  16.694  69.053  1.00  0.00    -0.279 C  
HETATM    4  C   UNL     1     -10.898  16.776  67.532  1.00  0.00    -0.216 C  
HETATM    5  O   UNL     1     -10.507  14.795  64.487  1.00  0.00    -0.255 OA 
HETATM    6  CA  UNL     1     -10.999  15.694  66.704  1.00  0.00    -0.212 C  
HETATM    7  N   UNL     1     -11.219  14.454  67.236  1.00  0.00    -0.311 N  
HETATM    8  O   UNL     1     -10.730  12.664  65.845  1.00  0.00    -0.260 OA 
HETATM    9  C   UNL     1     -10.879  15.868  65.204  1.00  0.00    -0.421 C  
HETATM   10  CA  UNL     1     -11.479  12.695  68.318  1.00  0.00    -0.313 C  
HETATM   11  OXT UNL     1     -11.114  16.924  64.640  1.00  0.00    -0.934 OA 
HETATM   12  C   UNL     1     -11.099  13.162  66.882  1.00  0.00    -0.282 C  
ENDROOT
BRANCH   4  13
HETATM   13  C   UNL     1     -10.604  18.202  67.068  1.00  0.00    -0.328 C  
BRANCH  13  14
HETATM   14  S   UNL     1      -9.343  19.001  68.125  1.00  0.00    -0.352 SA 
BRANCH  14  15
HETATM   15  C   UNL     1      -7.999  18.979  67.035  1.00  0.00    -0.256 A  
HETATM   16  N   UNL     1      -7.978  18.398  65.857  1.00  0.00    -0.516 NA 
HETATM   17  N   UNL     1      -6.785  19.576  67.248  1.00  0.00    -0.196 NA 
HETATM   18  N   UNL     1      -6.747  18.672  65.318  1.00  0.00    -0.514 NA 
HETATM   19  N   UNL     1      -6.025  19.417  66.140  1.00  0.00    -0.164 NA 
BRANCH  17  20
HETATM   20  C   UNL     1      -6.327  20.405  68.340  1.00  0.00    -0.315 C  
HETATM   21  O   UNL     1      -6.040  18.442  69.785  1.00  0.00    -0.252 OA 
HETATM   22  C   UNL     1      -6.308  19.761  69.708  1.00  0.00    -0.352 C  
HETATM   23  O   UNL     1      -6.440  20.428  70.729  1.00  0.00    -0.505 OA 
ENDBRANCH  17  20
ENDBRANCH  14  15
ENDBRANCH  13  14
ENDBRANCH   4  13
BRANCH  10  24
HETATM   24  N   UNL     1     -10.408  12.015  69.082  1.00  0.00    -0.427 N  
HETATM   25  C   UNL     1     -10.009  10.712  68.944  1.00  0.00    -0.204 C  
HETATM   26  O   UNL     1      -9.146  10.268  69.700  1.00  0.00    -0.196 OA 
HETATM   27  H   UNL     1      -9.917  12.573  69.781  1.00  0.00     0.000 HD 
BRANCH  25  28
HETATM   28  C   UNL     1     -10.662   9.858  67.868  1.00  0.00    -0.316 C  
BRANCH  28  29
HETATM   29  C   UNL     1      -9.692   9.219  66.898  1.00  0.00    -0.248 A  
HETATM   30  C   UNL     1      -9.780   7.862  66.512  1.00  0.00    -0.279 A  
HETATM   31  C   UNL     1      -8.832   7.364  65.595  1.00  0.00    -0.056 A  
HETATM   32  C   UNL     1      -8.681  10.027  66.334  1.00  0.00    -0.140 A  
HETATM   33  C   UNL     1      -7.844   8.180  65.046  1.00  0.00    -0.128 A  
HETATM   34  C   UNL     1      -7.764   9.512  65.421  1.00  0.00    -0.109 A  
BRANCH  30  35
HETATM   35  C   UNL     1     -10.809   6.913  67.096  1.00  0.00    -0.377 C  
HETATM   36  N   UNL     1     -11.052   5.746  66.247  1.00  0.00    -0.755 NA 
HETATM   37  H1  UNL     1     -11.745   5.108  66.640  1.00  0.00     0.000 HD 
HETATM   38  H2  UNL     1     -10.181   5.258  66.040  1.00  0.00     0.000 HD 
ENDBRANCH  30  35
ENDBRANCH  28  29
ENDBRANCH  25  28
ENDBRANCH  10  24
TORSDOF 8
ENDMDL
MODEL       24
REMARK 921   NORMALIZED FREE ENERGY PREDICTED BY IDOCK:   -7.72 KCAL/MOL
REMARK 922        TOTAL FREE ENERGY PREDICTED BY IDOCK:  -12.15 KCAL/MOL
REMARK 923 INTER-LIGAND FREE ENERGY PREDICTED BY IDOCK:  -10.97 KCAL/MOL
REMARK 924 INTRA-LIGAND FREE ENERGY PREDICTED BY IDOCK:   -1.18 KCAL/MOL
REMARK 927      BINDING AFFINITY PREDICTED BY RF-SCORE:    0.00 PKD
ROOT
HETATM    1  C   UNL     1     -10.489   8.668  67.496  1.00  0.00    -0.266 C  
HETATM    2  S   UNL     1     -10.271   9.884  68.811  1.00  0.00    -0.200 SA 
HETATM    3  C   UNL     1     -11.284  11.140  67.998  1.00  0.00    -0.296 C  
HETATM    4  C   UNL     1     -11.014  11.324  66.509  1.00  0.00    -0.303 C  
HETATM    5  O   UNL     1      -9.022  10.085  63.708  1.00  0.00    -0.207 OA 
HETATM    6  CA  UNL     1     -10.345  10.420  65.734  1.00  0.00    -0.187 C  
HETATM    7  N   UNL     1      -9.949   9.228  66.274  1.00  0.00    -0.287 N  
HETATM    8  O   UNL     1      -8.302   8.092  65.102  1.00  0.00    -0.146 OA 
HETATM    9  C   UNL     1     -10.050  10.731  64.281  1.00  0.00    -0.361 C  
HETATM   10  CA  UNL     1      -9.409   7.543  67.371  1.00  0.00    -0.140 C  
HETATM   11  OXT UNL     1     -10.709  11.524  63.628  1.00  0.00    -0.364 OA 
HETATM   12  C   UNL     1      -9.076   8.237  66.018  1.00  0.00    -0.176 C  
ENDROOT
BRANCH   4  13
HETATM   13  C   UNL     1     -11.464  12.707  66.041  1.00  0.00    -0.368 C  
BRANCH  13  14
HETATM   14  S   UNL     1     -10.173  13.966  66.343  1.00  0.00    -0.299 SA 
BRANCH  14  15
HETATM   15  C   UNL     1     -10.776  15.242  65.341  1.00  0.00    -0.391 A  
HETATM   16  N   UNL     1     -11.662  15.107  64.380  1.00  0.00    -0.353 NA 
HETATM   17  N   UNL     1     -10.422  16.562  65.425  1.00  0.00    -0.602 NA 
HETATM   18  N   UNL     1     -11.887  16.367  63.889  1.00  0.00    -0.948 NA 
HETATM   19  N   UNL     1     -11.165  17.266  64.540  1.00  0.00    -0.924 NA 
BRANCH  17  20
HETATM   20  C   UNL     1      -9.556  17.242  66.361  1.00  0.00    -0.274 C  
HETATM   21  O   UNL     1     -11.185  16.948  68.173  1.00  0.00    -0.297 OA 
HETATM   22  C   UNL     1     -10.191  17.699  67.655  1.00  0.00    -0.351 C  
HETATM   23  O   UNL     1      -9.762  18.670  68.269  1.00  0.00    -0.320 OA 
ENDBRANCH  17  20
ENDBRANCH  14  15
ENDBRANCH  13  14
ENDBRANCH   4  13
BRANCH  10  24
HETATM   24  N   UNL     1      -8.313   7.507  68.367  1.00  0.00    -0.125 N  
HETATM   25  C   UNL     1      -8.124   6.560  69.338  1.00  0.00    -0.119 C  
HETATM   26  O   UNL     1      -7.200   6.702  70.139  1.00  0.00    -0.075 OA 
HETATM   27  H   UNL     1      -7.629   8.263  68.324  1.00  0.00     0.000 HD 
BRANCH  25  28
HETATM   28  C   UNL     1      -9.077   5.377  69.399  1.00  0.00    -0.135 C  
BRANCH  28  29
HETATM   29  C   UNL     1      -9.683   5.128  70.764  1.00  0.00    -0.255 A  
HETATM   30  C   UNL     1     -10.863   5.768  71.204  1.00  0.00    -0.316 A  
HETATM   31  C   UNL     1     -11.352   5.461  72.490  1.00  0.00    -0.286 A  
HETATM   32  C   UNL     1      -9.055   4.190  71.612  1.00  0.00    -0.172 A  
HETATM   33  C   UNL     1     -10.720   4.528  73.311  1.00  0.00    -0.312 A  
HETATM   34  C   UNL     1      -9.565   3.897  72.875  1.00  0.00    -0.168 A  
BRANCH  30  35
HETATM   35  C   UNL     1     -11.581   6.816  70.374  1.00  0.00    -0.367 C  
HETATM   36  N   UNL     1     -12.890   7.174  70.920  1.00  0.00    -0.585 NA 
HETATM   37  H1  UNL     1     -13.373   7.879  70.362  1.00  0.00     0.000 HD 
HETATM   38  H2  UNL     1     -12.811   7.470  71.894  1.00  0.00     0.000 HD 
ENDBRANCH  30  35
ENDBRANCH  28  29
ENDBRANCH  25  28
ENDBRANCH  10  24
TORSDOF 8
ENDMDL
MODEL       25
REMARK 921   NORMALIZED FREE ENERGY PREDICTED BY IDOCK:   -7.72 KCAL/MOL
REMARK 922        TOTAL FREE ENERGY PREDICTED BY IDOCK:  -12.15 KCAL/MOL
REMARK 923 INTER-LIGAND FREE ENERGY PREDICTED BY IDOCK:  -11.29 KCAL/MOL
REMARK 924 INTRA-LIGAND FREE ENERGY PREDICTED BY IDOCK:   -0.86 KCAL/MOL
REMARK 927      BINDING AFFINITY PREDICTED BY RF-SCORE:    0.00 PKD
ROOT
HETATM    1  C   UNL     1     -10.838  11.380  68.725  1.00  0.00    -0.208 C  
HETATM    2  S   UNL     1      -9.252  10.680  69.227  1.00  0.00    -0.039 SA 
HETATM    3  C   UNL     1      -9.993   9.250  70.046  1.00  0.00    -0.209 C  
HETATM    4  C   UNL     1     -11.193   9.563  70.933  1.00  0.00    -0.411 C  
HETATM    5  O   UNL     1     -13.368  12.261  72.090  1.00  0.00    -0.526 OA 
HETATM    6  CA  UNL     1     -11.905  10.728  70.876  1.00  0.00    -0.297 C  
HETATM    7  N   UNL     1     -11.603  11.659  69.922  1.00  0.00    -0.302 N  
HETATM    8  O   UNL     1     -12.402  13.800  70.319  1.00  0.00    -0.332 OA 
HETATM    9  C   UNL     1     -13.030  10.983  71.858  1.00  0.00    -0.380 C  
HETATM   10  CA  UNL     1     -10.882  12.915  68.426  1.00  0.00    -0.254 C  
HETATM   11  OXT UNL     1     -13.630  10.083  72.423  1.00  0.00    -0.341 OA 
HETATM   12  C   UNL     1     -11.802  12.968  69.681  1.00  0.00    -0.319 C  
ENDROOT
BRANCH   4  13
HETATM   13  C   UNL     1     -11.397   8.468  71.979  1.00  0.00    -0.355 C  
BRANCH  13  14
HETATM   14  S   UNL     1     -12.541   7.175  71.378  1.00  0.00    -0.382 SA 
BRANCH  14  15
HETATM   15  C   UNL     1     -11.394   6.066  70.707  1.00  0.00    -0.225 A  
HETATM   16  N   UNL     1     -11.067   5.978  69.438  1.00  0.00    -0.390 NA 
HETATM   17  N   UNL     1     -10.663   5.146  71.411  1.00  0.00    -0.142 NA 
HETATM   18  N   UNL     1     -10.093   5.016  69.361  1.00  0.00    -0.224 NA 
HETATM   19  N   UNL     1      -9.814   4.527  70.559  1.00  0.00    -0.218 NA 
BRANCH  17  20
HETATM   20  C   UNL     1     -10.589   4.897  72.833  1.00  0.00    -0.219 C  
HETATM   21  O   UNL     1      -8.667   6.408  73.055  1.00  0.00    -0.124 OA 
HETATM   22  C   UNL     1      -9.310   5.318  73.521  1.00  0.00    -0.133 C  
HETATM   23  O   UNL     1      -8.911   4.747  74.531  1.00  0.00    -0.110 OA 
ENDBRANCH  17  20
ENDBRANCH  14  15
ENDBRANCH  13  14
ENDBRANCH   4  13
BRANCH  10  24
HETATM   24  N   UNL     1      -9.621  13.686  68.514  1.00  0.00    -0.325 N  
HETATM   25  C   UNL     1      -9.492  15.048  68.448  1.00  0.00    -0.201 C  
HETATM   26  O   UNL     1      -8.365  15.543  68.470  1.00  0.00    -0.148 OA 
HETATM   27  H   UNL     1      -8.763  13.149  68.638  1.00  0.00     0.000 HD 
BRANCH  25  28
HETATM   28  C   UNL     1     -10.748  15.896  68.333  1.00  0.00    -0.281 C  
BRANCH  28  29
HETATM   29  C   UNL     1     -10.542  17.236  67.659  1.00  0.00    -0.350 A  
HETATM   30  C   UNL     1     -10.525  17.391  66.255  1.00  0.00    -0.276 A  
HETATM   31  C   UNL     1     -10.335  18.684  65.726  1.00  0.00    -0.232 A  
HETATM   32  C   UNL     1     -10.395  18.378  68.476  1.00  0.00    -0.326 A  
HETATM   33  C   UNL     1     -10.197  19.800  66.549  1.00  0.00    -0.606 A  
HETATM   34  C   UNL     1     -10.219  19.647  67.927  1.00  0.00    -0.574 A  
BRANCH  30  35
HETATM   35  C   UNL     1     -10.637  16.214  65.304  1.00  0.00    -0.369 C  
HETATM   36  N   UNL     1     -11.414  16.526  64.103  1.00  0.00    -1.463 NA 
HETATM   37  H1  UNL     1     -11.490  15.735  63.463  1.00  0.00     0.000 HD 
HETATM   38  H2  UNL     1     -11.036  17.347  63.628  1.00  0.00     0.000 HD 
ENDBRANCH  30  35
ENDBRANCH  28  29
ENDBRANCH  25  28
ENDBRANCH  10  24
TORSDOF 8
ENDMDL
MODEL       26
REMARK 921   NORMALIZED FREE ENERGY PREDICTED BY IDOCK:   -7.70 KCAL/MOL
REMARK 922        TOTAL FREE ENERGY PREDICTED BY IDOCK:  -12.12 KCAL/MOL
REMARK 923 INTER-LIGAND FREE ENERGY PREDICTED BY IDOCK:  -11.02 KCAL/MOL
REMARK 924 INTRA-LIGAND FREE ENERGY PREDICTED BY IDOCK:   -1.11 KCAL/MOL
REMARK 927      BINDING AFFINITY PREDICTED BY RF-SCORE:    0.00 PKD
ROOT
HETATM    1  C   UNL     1     -10.321  10.323  69.827  1.00  0.00    -0.246 C  
HETATM    2  S   UNL     1     -10.447  10.146  68.036  1.00  0.00    -0.226 SA 
HETATM    3  C   UNL     1     -10.252  11.913  67.715  1.00  0.00    -0.200 C  
HETATM    4  C   UNL     1     -11.070  12.829  68.617  1.00  0.00    -0.304 C  
HETATM    5  O   UNL     1     -13.399  12.864  71.433  1.00  0.00    -0.246 OA 
HETATM    6  CA  UNL     1     -11.636  12.436  69.797  1.00  0.00    -0.232 C  
HETATM    7  N   UNL     1     -11.406  11.174  70.270  1.00  0.00    -0.227 N  
HETATM    8  O   UNL     1     -12.893  10.419  71.881  1.00  0.00    -0.433 OA 
HETATM    9  C   UNL     1     -12.504  13.395  70.583  1.00  0.00    -0.311 C  
HETATM   10  CA  UNL     1     -10.947   9.190  70.706  1.00  0.00    -0.270 C  
HETATM   11  OXT UNL     1     -12.413  14.608  70.479  1.00  0.00    -0.312 OA 
HETATM   12  C   UNL     1     -11.939  10.306  71.149  1.00  0.00    -0.376 C  
ENDROOT
BRANCH   4  13
HETATM   13  C   UNL     1     -11.289  14.189  67.958  1.00  0.00    -0.299 C  
BRANCH  13  14
HETATM   14  S   UNL     1      -9.892  14.636  66.867  1.00  0.00    -0.256 SA 
BRANCH  14  15
HETATM   15  C   UNL     1     -10.761  15.413  65.589  1.00  0.00    -0.369 A  
HETATM   16  N   UNL     1     -10.519  16.616  65.120  1.00  0.00    -0.672 NA 
HETATM   17  N   UNL     1     -11.805  14.873  64.886  1.00  0.00    -0.363 NA 
HETATM   18  N   UNL     1     -11.401  16.808  64.088  1.00  0.00    -1.085 NA 
HETATM   19  N   UNL     1     -12.166  15.741  63.913  1.00  0.00    -0.670 NA 
BRANCH  17  20
HETATM   20  C   UNL     1     -12.399  13.557  64.953  1.00  0.00    -0.407 C  
HETATM   21  O   UNL     1     -10.856  12.711  63.242  1.00  0.00    -0.357 OA 
HETATM   22  C   UNL     1     -12.073  12.615  63.816  1.00  0.00    -0.522 C  
HETATM   23  O   UNL     1     -12.850  11.728  63.480  1.00  0.00    -0.602 OA 
ENDBRANCH  17  20
ENDBRANCH  14  15
ENDBRANCH  13  14
ENDBRANCH   4  13
BRANCH  10  24
HETATM   24  N   UNL     1     -11.549   8.021  70.025  1.00  0.00    -0.462 N  
HETATM   25  C   UNL     1     -11.055   6.744  70.007  1.00  0.00    -0.315 C  
HETATM   26  O   UNL     1     -11.634   5.889  69.337  1.00  0.00    -0.119 OA 
HETATM   27  H   UNL     1     -12.419   8.184  69.517  1.00  0.00     0.000 HD 
BRANCH  25  28
HETATM   28  C   UNL     1      -9.797   6.436  70.804  1.00  0.00    -0.206 C  
BRANCH  28  29
HETATM   29  C   UNL     1      -8.537   7.076  70.262  1.00  0.00    -0.140 A  
HETATM   30  C   UNL     1      -7.657   7.833  71.068  1.00  0.00    -0.082 A  
HETATM   31  C   UNL     1      -6.504   8.380  70.469  1.00  0.00    -0.036 A  
HETATM   32  C   UNL     1      -8.218   6.874  68.902  1.00  0.00    -0.121 A  
HETATM   33  C   UNL     1      -6.204   8.166  69.125  1.00  0.00    -0.039 A  
HETATM   34  C   UNL     1      -7.066   7.417  68.337  1.00  0.00    -0.085 A  
BRANCH  30  35
HETATM   35  C   UNL     1      -7.942   8.132  72.528  1.00  0.00    -0.144 C  
HETATM   36  N   UNL     1      -6.759   8.595  73.253  1.00  0.00    -0.284 NA 
HETATM   37  H1  UNL     1      -6.949   8.796  74.236  1.00  0.00     0.000 HD 
HETATM   38  H2  UNL     1      -6.339   9.402  72.790  1.00  0.00     0.000 HD 
ENDBRANCH  30  35
ENDBRANCH  28  29
ENDBRANCH  25  28
ENDBRANCH  10  24
TORSDOF 8
ENDMDL
MODEL       27
REMARK 921   NORMALIZED FREE ENERGY PREDICTED BY IDOCK:   -7.63 KCAL/MOL
REMARK 922        TOTAL FREE ENERGY PREDICTED BY IDOCK:  -12.02 KCAL/MOL
REMARK 923 INTER-LIGAND FREE ENERGY PREDICTED BY IDOCK:  -10.79 KCAL/MOL
REMARK 924 INTRA-LIGAND FREE ENERGY PREDICTED BY IDOCK:   -1.23 KCAL/MOL
REMARK 927      BINDING AFFINITY PREDICTED BY RF-SCORE:    0.00 PKD
ROOT
HETATM    1  C   UNL     1     -11.139  11.378  67.836  1.00  0.00    -0.261 C  
HETATM    2  S   UNL     1      -9.554  10.600  68.210  1.00  0.00    -0.168 SA 
HETATM    3  C   UNL     1     -10.264   9.393  69.351  1.00  0.00    -0.207 C  
HETATM    4  C   UNL     1     -11.278   9.957  70.339  1.00  0.00    -0.379 C  
HETATM    5  O   UNL     1     -13.020  13.008  71.345  1.00  0.00    -0.354 OA 
HETATM    6  CA  UNL     1     -11.896  11.167  70.198  1.00  0.00    -0.365 C  
HETATM    7  N   UNL     1     -11.678  11.910  69.071  1.00  0.00    -0.309 N  
HETATM    8  O   UNL     1     -12.231  14.157  69.225  1.00  0.00    -0.332 OA 
HETATM    9  C   UNL     1     -12.825  11.681  71.278  1.00  0.00    -0.328 C  
HETATM   10  CA  UNL     1     -11.110  12.847  67.300  1.00  0.00    -0.274 C  
HETATM   11  OXT UNL     1     -13.396  10.943  72.064  1.00  0.00    -0.448 OA 
HETATM   12  C   UNL     1     -11.809  13.181  68.650  1.00  0.00    -0.328 C  
ENDROOT
BRANCH   4  13
HETATM   13  C   UNL     1     -11.397   9.058  71.569  1.00  0.00    -0.346 C  
BRANCH  13  14
HETATM   14  S   UNL     1      -9.758   8.474  72.131  1.00  0.00    -0.316 SA 
BRANCH  14  15
HETATM   15  C   UNL     1     -10.163   6.845  72.553  1.00  0.00    -0.183 A  
HETATM   16  N   UNL     1     -10.772   6.469  73.654  1.00  0.00    -0.271 NA 
HETATM   17  N   UNL     1      -9.917   5.735  71.790  1.00  0.00    -0.166 NA 
HETATM   18  N   UNL     1     -10.939   5.112  73.553  1.00  0.00    -0.302 NA 
HETATM   19  N   UNL     1     -10.454   4.659  72.408  1.00  0.00    -0.198 NA 
BRANCH  17  20
HETATM   20  C   UNL     1      -9.350   5.615  70.465  1.00  0.00    -0.161 C  
HETATM   21  O   UNL     1     -11.514   6.134  69.430  1.00  0.00    -0.423 OA 
HETATM   22  C   UNL     1     -10.334   5.491  69.323  1.00  0.00    -0.265 C  
HETATM   23  O   UNL     1     -10.040   4.900  68.289  1.00  0.00    -0.142 OA 
ENDBRANCH  17  20
ENDBRANCH  14  15
ENDBRANCH  13  14
ENDBRANCH   4  13
BRANCH  10  24
HETATM   24  N   UNL     1      -9.794  13.488  67.077  1.00  0.00    -0.244 N  
HETATM   25  C   UNL     1      -9.573  14.788  66.706  1.00  0.00    -0.254 C  
HETATM   26  O   UNL     1      -8.419  15.160  66.492  1.00  0.00    -0.244 OA 
HETATM   27  H   UNL     1      -8.969  12.904  67.213  1.00  0.00     0.000 HD 
BRANCH  25  28
HETATM   28  C   UNL     1     -10.767  15.718  66.557  1.00  0.00    -0.283 C  
BRANCH  28  29
HETATM   29  C   UNL     1     -10.505  17.148  66.981  1.00  0.00    -0.282 A  
HETATM   30  C   UNL     1     -10.180  17.504  68.309  1.00  0.00    -0.365 A  
HETATM   31  C   UNL     1      -9.945  18.863  68.600  1.00  0.00    -0.470 A  
HETATM   32  C   UNL     1     -10.556  18.157  65.995  1.00  0.00    -0.278 A  
HETATM   33  C   UNL     1      -9.996  19.844  67.611  1.00  0.00    -0.553 A  
HETATM   34  C   UNL     1     -10.309  19.492  66.307  1.00  0.00    -0.601 A  
BRANCH  30  35
HETATM   35  C   UNL     1     -10.140  16.491  69.438  1.00  0.00    -0.230 C  
HETATM   36  N   UNL     1     -11.308  16.572  70.315  1.00  0.00    -0.463 NA 
HETATM   37  H1  UNL     1     -11.282  15.891  71.075  1.00  0.00     0.000 HD 
HETATM   38  H2  UNL     1     -12.173  16.489  69.780  1.00  0.00     0.000 HD 
ENDBRANCH  30  35
ENDBRANCH  28  29
ENDBRANCH  25  28
ENDBRANCH  10  24
TORSDOF 8
ENDMDL
MODEL       28
REMARK 921   NORMALIZED FREE ENERGY PREDICTED BY IDOCK:   -7.62 KCAL/MOL
REMARK 922        TOTAL FREE ENERGY PREDICTED BY IDOCK:  -12.01 KCAL/MOL
REMARK 923 INTER-LIGAND FREE ENERGY PREDICTED BY IDOCK:  -10.80 KCAL/MOL
REMARK 924 INTRA-LIGAND FREE ENERGY PREDICTED BY IDOCK:   -1.21 KCAL/MOL
REMARK 927      BINDING AFFINITY PREDICTED BY RF-SCORE:    0.00 PKD
ROOT
HETATM    1  C   UNL     1      -9.687  15.334  66.197  1.00  0.00    -0.314 C  
HETATM    2  S   UNL     1     -10.118  14.803  67.866  1.00  0.00    -0.222 SA 
HETATM    3  C   UNL     1     -10.061  13.043  67.464  1.00  0.00    -0.218 C  
HETATM    4  C   UNL     1     -10.748  12.655  66.160  1.00  0.00    -0.293 C  
HETATM    5  O   UNL     1     -12.545  13.994  63.274  1.00  0.00    -0.801 OA 
HETATM    6  CA  UNL     1     -11.079  13.542  65.175  1.00  0.00    -0.316 C  
HETATM    7  N   UNL     1     -10.714  14.854  65.295  1.00  0.00    -0.363 N  
HETATM    8  O   UNL     1     -11.859  16.344  63.937  1.00  0.00    -1.034 OA 
HETATM    9  C   UNL     1     -11.839  13.074  63.951  1.00  0.00    -0.477 C  
HETATM   10  CA  UNL     1     -10.097  16.784  65.775  1.00  0.00    -0.253 C  
HETATM   11  OXT UNL     1     -11.821  11.917  63.565  1.00  0.00    -0.473 OA 
HETATM   12  C   UNL     1     -11.045  16.052  64.780  1.00  0.00    -0.365 C  
ENDROOT
BRANCH   4  13
HETATM   13  C   UNL     1     -11.141  11.179  66.170  1.00  0.00    -0.085 C  
BRANCH  13  14
HETATM   14  S   UNL     1      -9.672  10.096  66.059  1.00  0.00    -0.243 SA 
BRANCH  14  15
HETATM   15  C   UNL     1     -10.104   8.904  67.237  1.00  0.00    -0.239 A  
HETATM   16  N   UNL     1     -10.731   7.777  66.990  1.00  0.00    -0.326 NA 
HETATM   17  N   UNL     1      -9.835   8.968  68.578  1.00  0.00    -0.164 NA 
HETATM   18  N   UNL     1     -10.818   7.118  68.189  1.00  0.00    -0.152 NA 
HETATM   19  N   UNL     1     -10.246   7.817  69.156  1.00  0.00    -0.204 NA 
BRANCH  17  20
HETATM   20  C   UNL     1      -9.098   9.951  69.340  1.00  0.00    -0.206 C  
HETATM   21  O   UNL     1      -6.986   8.770  68.930  1.00  0.00    -0.060 OA 
HETATM   22  C   UNL     1      -7.697   9.565  69.756  1.00  0.00    -0.123 C  
HETATM   23  O   UNL     1      -7.180  10.029  70.767  1.00  0.00    -0.328 OA 
ENDBRANCH  17  20
ENDBRANCH  14  15
ENDBRANCH  13  14
ENDBRANCH   4  13
BRANCH  10  24
HETATM   24  N   UNL     1     -10.756  17.649  66.780  1.00  0.00    -0.203 N  
HETATM   25  C   UNL     1     -10.264  18.816  67.300  1.00  0.00    -0.390 C  
HETATM   26  O   UNL     1     -10.900  19.393  68.182  1.00  0.00    -0.264 OA 
HETATM   27  H   UNL     1     -11.668  17.345  67.120  1.00  0.00     0.000 HD 
BRANCH  25  28
HETATM   28  C   UNL     1      -8.939  19.348  66.776  1.00  0.00    -0.373 C  
BRANCH  28  29
HETATM   29  C   UNL     1      -7.749  19.055  67.665  1.00  0.00    -0.263 A  
HETATM   30  C   UNL     1      -6.694  19.974  67.857  1.00  0.00    -0.295 A  
HETATM   31  C   UNL     1      -5.635  19.610  68.714  1.00  0.00    -0.234 A  
HETATM   32  C   UNL     1      -7.718  17.823  68.354  1.00  0.00    -0.278 A  
HETATM   33  C   UNL     1      -5.625  18.390  69.388  1.00  0.00    -0.221 A  
HETATM   34  C   UNL     1      -6.664  17.491  69.203  1.00  0.00    -0.243 A  
BRANCH  30  35
HETATM   35  C   UNL     1      -6.628  21.304  67.129  1.00  0.00    -0.326 C  
HETATM   36  N   UNL     1      -6.305  21.158  65.709  1.00  0.00    -0.454 NA 
HETATM   37  H1  UNL     1      -6.261  22.052  65.219  1.00  0.00     0.000 HD 
HETATM   38  H2  UNL     1      -6.958  20.521  65.250  1.00  0.00     0.000 HD 
ENDBRANCH  30  35
ENDBRANCH  28  29
ENDBRANCH  25  28
ENDBRANCH  10  24
TORSDOF 8
ENDMDL
MODEL       29
REMARK 921   NORMALIZED FREE ENERGY PREDICTED BY IDOCK:   -7.61 KCAL/MOL
REMARK 922        TOTAL FREE ENERGY PREDICTED BY IDOCK:  -11.98 KCAL/MOL
REMARK 923 INTER-LIGAND FREE ENERGY PREDICTED BY IDOCK:  -10.89 KCAL/MOL
REMARK 924 INTRA-LIGAND FREE ENERGY PREDICTED BY IDOCK:   -1.10 KCAL/MOL
REMARK 927      BINDING AFFINITY PREDICTED BY RF-SCORE:    0.00 PKD
ROOT
HETATM    1  C   UNL     1     -11.590  13.301  68.597  1.00  0.00    -0.327 C  
HETATM    2  S   UNL     1     -10.548  11.838  68.766  1.00  0.00    -0.182 SA 
HETATM    3  C   UNL     1     -11.800  10.886  69.655  1.00  0.00    -0.344 C  
HETATM    4  C   UNL     1     -12.523  11.644  70.762  1.00  0.00    -0.425 C  
HETATM    5  O   UNL     1     -12.790  14.894  72.409  1.00  0.00    -0.310 OA 
HETATM    6  CA  UNL     1     -12.526  13.004  70.884  1.00  0.00    -0.310 C  
HETATM    7  N   UNL     1     -11.921  13.770  69.927  1.00  0.00    -0.328 N  
HETATM    8  O   UNL     1     -11.425  15.949  70.549  1.00  0.00    -0.334 OA 
HETATM    9  C   UNL     1     -13.202  13.662  72.069  1.00  0.00    -0.434 C  
HETATM   10  CA  UNL     1     -10.872  14.672  68.371  1.00  0.00    -0.245 C  
HETATM   11  OXT UNL     1     -14.096  13.125  72.702  1.00  0.00    -0.701 OA 
HETATM   12  C   UNL     1     -11.442  15.019  69.777  1.00  0.00    -0.295 C  
ENDROOT
BRANCH   4  13
HETATM   13  C   UNL     1     -13.117  10.677  71.785  1.00  0.00    -0.466 C  
BRANCH  13  14
HETATM   14  S   UNL     1     -13.411   9.027  71.053  1.00  0.00     0.120 SA 
BRANCH  14  15
HETATM   15  C   UNL     1     -12.139   8.141  71.823  1.00  0.00    -0.315 A  
HETATM   16  N   UNL     1     -11.654   8.382  73.020  1.00  0.00    -0.086 NA 
HETATM   17  N   UNL     1     -11.480   7.063  71.295  1.00  0.00    -0.272 NA 
HETATM   18  N   UNL     1     -10.709   7.415  73.250  1.00  0.00    -0.388 NA 
HETATM   19  N   UNL     1     -10.619   6.586  72.222  1.00  0.00    -0.207 NA 
BRANCH  17  20
HETATM   20  C   UNL     1     -11.690   6.352  70.054  1.00  0.00    -0.275 C  
HETATM   21  O   UNL     1      -9.604   7.249  69.121  1.00  0.00    -0.155 OA 
HETATM   22  C   UNL     1     -10.851   6.796  68.877  1.00  0.00    -0.243 C  
HETATM   23  O   UNL     1     -11.249   6.666  67.724  1.00  0.00    -0.274 OA 
ENDBRANCH  17  20
ENDBRANCH  14  15
ENDBRANCH  13  14
ENDBRANCH   4  13
BRANCH  10  24
HETATM   24  N   UNL     1      -9.396  14.682  68.251  1.00  0.00    -0.193 N  
HETATM   25  C   UNL     1      -8.659  15.340  67.303  1.00  0.00    -0.190 C  
HETATM   26  O   UNL     1      -7.436  15.198  67.291  1.00  0.00    -0.195 OA 
HETATM   27  H   UNL     1      -8.875  14.144  68.944  1.00  0.00     0.000 HD 
BRANCH  25  28
HETATM   28  C   UNL     1      -9.384  16.211  66.288  1.00  0.00    -0.351 C  
BRANCH  28  29
HETATM   29  C   UNL     1      -9.438  17.680  66.646  1.00  0.00    -0.288 A  
HETATM   30  C   UNL     1      -8.385  18.577  66.356  1.00  0.00    -0.278 A  
HETATM   31  C   UNL     1      -8.537  19.930  66.723  1.00  0.00    -0.394 A  
HETATM   32  C   UNL     1     -10.608  18.174  67.264  1.00  0.00    -0.384 A  
HETATM   33  C   UNL     1      -9.702  20.399  67.329  1.00  0.00    -0.602 A  
HETATM   34  C   UNL     1     -10.736  19.519  67.607  1.00  0.00    -0.527 A  
BRANCH  30  35
HETATM   35  C   UNL     1      -7.080  18.125  65.729  1.00  0.00    -0.221 C  
HETATM   36  N   UNL     1      -6.499  19.132  64.840  1.00  0.00    -0.470 NA 
HETATM   37  H1  UNL     1      -5.620  18.829  64.418  1.00  0.00     0.000 HD 
HETATM   38  H2  UNL     1      -6.383  20.023  65.324  1.00  0.00     0.000 HD 
ENDBRANCH  30  35
ENDBRANCH  28  29
ENDBRANCH  25  28
ENDBRANCH  10  24
TORSDOF 8
ENDMDL
MODEL       30
REMARK 921   NORMALIZED FREE ENERGY PREDICTED BY IDOCK:   -7.58 KCAL/MOL
REMARK 922        TOTAL FREE ENERGY PREDICTED BY IDOCK:  -11.95 KCAL/MOL
REMARK 923 INTER-LIGAND FREE ENERGY PREDICTED BY IDOCK:  -10.61 KCAL/MOL
REMARK 924 INTRA-LIGAND FREE ENERGY PREDICTED BY IDOCK:   -1.34 KCAL/MOL
REMARK 927      BINDING AFFINITY PREDICTED BY RF-SCORE:    0.00 PKD
ROOT
HETATM    1  C   UNL     1     -11.342  10.379  67.886  1.00  0.00    -0.173 C  
HETATM    2  S   UNL     1     -10.707  11.286  69.311  1.00  0.00    -0.133 SA 
HETATM    3  C   UNL     1     -11.542  12.826  68.870  1.00  0.00    -0.316 C  
HETATM    4  C   UNL     1     -11.442  13.217  67.401  1.00  0.00    -0.371 C  
HETATM    5  O   UNL     1     -10.136  12.155  64.158  1.00  0.00    -0.313 OA 
HETATM    6  CA  UNL     1     -11.080  12.359  66.401  1.00  0.00    -0.301 C  
HETATM    7  N   UNL     1     -10.867  11.039  66.688  1.00  0.00    -0.252 N  
HETATM    8  O   UNL     1      -9.658   9.850  65.106  1.00  0.00    -0.264 OA 
HETATM    9  C   UNL     1     -10.925  12.863  64.982  1.00  0.00    -0.297 C  
HETATM   10  CA  UNL     1     -10.540   9.118  67.422  1.00  0.00    -0.244 C  
HETATM   11  OXT UNL     1     -11.490  13.863  64.570  1.00  0.00    -0.366 OA 
HETATM   12  C   UNL     1     -10.257   9.968  66.149  1.00  0.00    -0.213 C  
ENDROOT
BRANCH   4  13
HETATM   13  C   UNL     1     -11.659  14.719  67.222  1.00  0.00    -0.369 C  
BRANCH  13  14
HETATM   14  S   UNL     1     -11.726  15.581  68.833  1.00  0.00    -0.351 SA 
BRANCH  14  15
HETATM   15  C   UNL     1     -10.145  16.284  68.848  1.00  0.00    -0.251 A  
HETATM   16  N   UNL     1      -9.054  15.706  69.296  1.00  0.00    -0.258 NA 
HETATM   17  N   UNL     1      -9.818  17.529  68.381  1.00  0.00    -0.307 NA 
HETATM   18  N   UNL     1      -8.032  16.591  69.068  1.00  0.00    -0.241 NA 
HETATM   19  N   UNL     1      -8.478  17.690  68.481  1.00  0.00    -0.289 NA 
BRANCH  17  20
HETATM   20  C   UNL     1     -10.629  18.525  67.718  1.00  0.00    -0.385 C  
HETATM   21  O   UNL     1     -10.198  17.501  65.529  1.00  0.00    -0.608 OA 
HETATM   22  C   UNL     1     -10.471  18.628  66.218  1.00  0.00    -0.424 C  
HETATM   23  O   UNL     1     -10.673  19.683  65.626  1.00  0.00    -0.503 OA 
ENDBRANCH  17  20
ENDBRANCH  14  15
ENDBRANCH  13  14
ENDBRANCH   4  13
BRANCH  10  24
HETATM   24  N   UNL     1      -9.351   8.712  68.206  1.00  0.00    -0.137 N  
HETATM   25  C   UNL     1      -9.255   7.629  69.039  1.00  0.00    -0.140 C  
HETATM   26  O   UNL     1      -8.218   7.458  69.679  1.00  0.00    -0.126 OA 
HETATM   27  H   UNL     1      -8.521   9.297  68.117  1.00  0.00     0.000 HD 
BRANCH  25  28
HETATM   28  C   UNL     1     -10.443   6.687  69.153  1.00  0.00    -0.250 C  
BRANCH  28  29
HETATM   29  C   UNL     1     -10.567   5.992  70.492  1.00  0.00    -0.329 A  
HETATM   30  C   UNL     1     -11.301   6.535  71.570  1.00  0.00    -0.339 A  
HETATM   31  C   UNL     1     -11.364   5.804  72.774  1.00  0.00    -0.328 A  
HETATM   32  C   UNL     1      -9.949   4.732  70.649  1.00  0.00    -0.300 A  
HETATM   33  C   UNL     1     -10.750   4.559  72.908  1.00  0.00    -0.281 A  
HETATM   34  C   UNL     1     -10.035   4.025  71.847  1.00  0.00    -0.246 A  
BRANCH  30  35
HETATM   35  C   UNL     1     -11.964   7.898  71.501  1.00  0.00    -0.301 C  
HETATM   36  N   UNL     1     -12.502   8.334  72.790  1.00  0.00    -0.605 NA 
HETATM   37  H1  UNL     1     -12.948   9.251  72.744  1.00  0.00     0.000 HD 
HETATM   38  H2  UNL     1     -11.780   8.315  73.512  1.00  0.00     0.000 HD 
ENDBRANCH  30  35
ENDBRANCH  28  29
ENDBRANCH  25  28
ENDBRANCH  10  24
TORSDOF 8
ENDMDL
MODEL       31
REMARK 921   NORMALIZED FREE ENERGY PREDICTED BY IDOCK:   -7.58 KCAL/MOL
REMARK 922        TOTAL FREE ENERGY PREDICTED BY IDOCK:  -11.95 KCAL/MOL
REMARK 923 INTER-LIGAND FREE ENERGY PREDICTED BY IDOCK:  -10.57 KCAL/MOL
REMARK 924 INTRA-LIGAND FREE ENERGY PREDICTED BY IDOCK:   -1.38 KCAL/MOL
REMARK 927      BINDING AFFINITY PREDICTED BY RF-SCORE:    0.00 PKD
ROOT
HETATM    1  C   UNL     1     -11.267  11.148  70.156  1.00  0.00    -0.128 C  
HETATM    2  S   UNL     1     -11.685  10.447  68.546  1.00  0.00     0.203 SA 
HETATM    3  C   UNL     1     -11.119  11.892  67.622  1.00  0.00    -0.257 C  
HETATM    4  C   UNL     1     -11.557  13.236  68.191  1.00  0.00    -0.373 C  
HETATM    5  O   UNL     1     -13.385  14.811  70.936  1.00  0.00    -0.372 OA 
HETATM    6  CA  UNL     1     -12.027  13.414  69.462  1.00  0.00    -0.319 C  
HETATM    7  N   UNL     1     -12.042  12.359  70.331  1.00  0.00    -0.349 N  
HETATM    8  O   UNL     1     -13.422  12.600  72.179  1.00  0.00    -0.535 OA 
HETATM    9  C   UNL     1     -12.520  14.774  69.909  1.00  0.00    -0.240 C  
HETATM   10  CA  UNL     1     -12.014  10.576  71.405  1.00  0.00    -0.230 C  
HETATM   11  OXT UNL     1     -12.156  15.815  69.385  1.00  0.00    -0.354 OA 
HETATM   12  C   UNL     1     -12.637  12.000  71.483  1.00  0.00    -0.174 C  
ENDROOT
BRANCH   4  13
HETATM   13  C   UNL     1     -11.536  14.317  67.112  1.00  0.00    -0.380 C  
BRANCH  13  14
HETATM   14  S   UNL     1      -9.865  14.513  66.396  1.00  0.00    -0.303 SA 
BRANCH  14  15
HETATM   15  C   UNL     1      -9.146  15.510  67.613  1.00  0.00    -0.182 A  
HETATM   16  N   UNL     1      -8.732  15.101  68.791  1.00  0.00    -0.183 NA 
HETATM   17  N   UNL     1      -8.896  16.852  67.505  1.00  0.00    -0.208 NA 
HETATM   18  N   UNL     1      -8.185  16.199  69.405  1.00  0.00    -0.176 NA 
HETATM   19  N   UNL     1      -8.248  17.262  68.619  1.00  0.00    -0.266 NA 
BRANCH  17  20
HETATM   20  C   UNL     1      -9.083  17.753  66.391  1.00  0.00    -0.234 C  
HETATM   21  O   UNL     1     -11.017  18.797  67.484  1.00  0.00    -0.407 OA 
HETATM   22  C   UNL     1     -10.412  18.471  66.323  1.00  0.00    -0.406 C  
HETATM   23  O   UNL     1     -10.890  18.830  65.253  1.00  0.00    -0.576 OA 
ENDBRANCH  17  20
ENDBRANCH  14  15
ENDBRANCH  13  14
ENDBRANCH   4  13
BRANCH  10  24
HETATM   24  N   UNL     1     -12.969   9.461  71.204  1.00  0.00    -0.487 N  
HETATM   25  C   UNL     1     -12.819   8.171  71.637  1.00  0.00    -0.326 C  
HETATM   26  O   UNL     1     -13.672   7.336  71.334  1.00  0.00    -0.389 OA 
HETATM   27  H   UNL     1     -13.825   9.677  70.693  1.00  0.00     0.000 HD 
BRANCH  25  28
HETATM   28  C   UNL     1     -11.593   7.815  72.464  1.00  0.00    -0.422 C  
BRANCH  28  29
HETATM   29  C   UNL     1     -11.049   6.425  72.213  1.00  0.00    -0.302 A  
HETATM   30  C   UNL     1     -10.492   6.035  70.974  1.00  0.00    -0.285 A  
HETATM   31  C   UNL     1     -10.003   4.720  70.844  1.00  0.00    -0.283 A  
HETATM   32  C   UNL     1     -11.069   5.498  73.277  1.00  0.00    -0.322 A  
HETATM   33  C   UNL     1     -10.028   3.820  71.908  1.00  0.00    -0.230 A  
HETATM   34  C   UNL     1     -10.569   4.207  73.125  1.00  0.00    -0.262 A  
BRANCH  30  35
HETATM   35  C   UNL     1     -10.464   6.954  69.767  1.00  0.00    -0.217 C  
HETATM   36  N   UNL     1     -11.516   6.650  68.796  1.00  0.00    -0.591 NA 
HETATM   37  H1  UNL     1     -11.497   7.268  67.984  1.00  0.00     0.000 HD 
HETATM   38  H2  UNL     1     -12.435   6.657  69.240  1.00  0.00     0.000 HD 
ENDBRANCH  30  35
ENDBRANCH  28  29
ENDBRANCH  25  28
ENDBRANCH  10  24
TORSDOF 8
ENDMDL
MODEL       32
REMARK 921   NORMALIZED FREE ENERGY PREDICTED BY IDOCK:   -7.58 KCAL/MOL
REMARK 922        TOTAL FREE ENERGY PREDICTED BY IDOCK:  -11.94 KCAL/MOL
REMARK 923 INTER-LIGAND FREE ENERGY PREDICTED BY IDOCK:  -10.86 KCAL/MOL
REMARK 924 INTRA-LIGAND FREE ENERGY PREDICTED BY IDOCK:   -1.08 KCAL/MOL
REMARK 927      BINDING AFFINITY PREDICTED BY RF-SCORE:    0.00 PKD
ROOT
HETATM    1  C   UNL     1     -11.974  12.077  68.403  1.00  0.00    -0.194 C  
HETATM    2  S   UNL     1     -11.347  13.475  69.356  1.00  0.00    -0.199 SA 
HETATM    3  C   UNL     1     -11.545  14.656  68.003  1.00  0.00    -0.340 C  
HETATM    4  C   UNL     1     -11.061  14.168  66.643  1.00  0.00    -0.314 C  
HETATM    5  O   UNL     1      -9.609  11.308  64.893  1.00  0.00    -0.228 OA 
HETATM    6  CA  UNL     1     -10.823  12.857  66.339  1.00  0.00    -0.274 C  
HETATM    7  N   UNL     1     -11.104  11.888  67.261  1.00  0.00    -0.270 N  
HETATM    8  O   UNL     1     -10.082   9.837  66.905  1.00  0.00    -0.200 OA 
HETATM    9  C   UNL     1     -10.261  12.478  64.985  1.00  0.00    -0.279 C  
HETATM   10  CA  UNL     1     -11.554  10.644  68.869  1.00  0.00    -0.249 C  
HETATM   11  OXT UNL     1     -10.388  13.182  63.996  1.00  0.00    -0.396 OA 
HETATM   12  C   UNL     1     -10.787  10.605  67.515  1.00  0.00    -0.296 C  
ENDROOT
BRANCH   4  13
HETATM   13  C   UNL     1     -10.744  15.346  65.723  1.00  0.00    -0.351 C  
BRANCH  13  14
HETATM   14  S   UNL     1      -9.219  16.209  66.246  1.00  0.00    -0.355 SA 
BRANCH  14  15
HETATM   15  C   UNL     1      -9.833  17.823  66.374  1.00  0.00    -0.324 A  
HETATM   16  N   UNL     1     -10.605  18.420  65.496  1.00  0.00    -0.567 NA 
HETATM   17  N   UNL     1      -9.609  18.684  67.415  1.00  0.00    -0.292 NA 
HETATM   18  N   UNL     1     -10.893  19.655  66.018  1.00  0.00    -0.396 NA 
HETATM   19  N   UNL     1     -10.321  19.814  67.202  1.00  0.00    -0.436 NA 
BRANCH  17  20
HETATM   20  C   UNL     1      -8.902  18.486  68.660  1.00  0.00    -0.298 C  
HETATM   21  O   UNL     1      -7.117  20.018  67.957  1.00  0.00    -0.273 OA 
HETATM   22  C   UNL     1      -7.460  18.940  68.693  1.00  0.00    -0.321 C  
HETATM   23  O   UNL     1      -6.640  18.408  69.433  1.00  0.00    -0.262 OA 
ENDBRANCH  17  20
ENDBRANCH  14  15
ENDBRANCH  13  14
ENDBRANCH   4  13
BRANCH  10  24
HETATM   24  N   UNL     1     -10.723  10.516  70.088  1.00  0.00    -0.447 N  
HETATM   25  C   UNL     1     -10.266   9.351  70.644  1.00  0.00    -0.288 C  
HETATM   26  O   UNL     1      -9.638   9.400  71.702  1.00  0.00    -0.260 OA 
HETATM   27  H   UNL     1     -10.464  11.382  70.560  1.00  0.00     0.000 HD 
BRANCH  25  28
HETATM   28  C   UNL     1     -10.567   8.037  69.940  1.00  0.00    -0.242 C  
BRANCH  28  29
HETATM   29  C   UNL     1     -10.597   6.829  70.851  1.00  0.00    -0.252 A  
HETATM   30  C   UNL     1     -11.704   6.518  71.672  1.00  0.00    -0.374 A  
HETATM   31  C   UNL     1     -11.637   5.364  72.478  1.00  0.00    -0.225 A  
HETATM   32  C   UNL     1      -9.482   5.962  70.847  1.00  0.00    -0.191 A  
HETATM   33  C   UNL     1     -10.529   4.518  72.457  1.00  0.00    -0.251 A  
HETATM   34  C   UNL     1      -9.446   4.821  71.645  1.00  0.00    -0.206 A  
BRANCH  30  35
HETATM   35  C   UNL     1     -12.926   7.413  71.766  1.00  0.00    -0.325 C  
HETATM   36  N   UNL     1     -12.858   8.351  72.887  1.00  0.00    -0.686 NA 
HETATM   37  H1  UNL     1     -13.679   8.953  72.950  1.00  0.00     0.000 HD 
HETATM   38  H2  UNL     1     -12.001   8.905  72.847  1.00  0.00     0.000 HD 
ENDBRANCH  30  35
ENDBRANCH  28  29
ENDBRANCH  25  28
ENDBRANCH  10  24
TORSDOF 8
ENDMDL
MODEL       33
REMARK 921   NORMALIZED FREE ENERGY PREDICTED BY IDOCK:   -7.53 KCAL/MOL
REMARK 922        TOTAL FREE ENERGY PREDICTED BY IDOCK:  -11.88 KCAL/MOL
REMARK 923 INTER-LIGAND FREE ENERGY PREDICTED BY IDOCK:  -10.57 KCAL/MOL
REMARK 924 INTRA-LIGAND FREE ENERGY PREDICTED BY IDOCK:   -1.31 KCAL/MOL
REMARK 927      BINDING AFFINITY PREDICTED BY RF-SCORE:    0.00 PKD
ROOT
HETATM    1  C   UNL     1     -11.335  14.933  67.188  1.00  0.00    -0.343 C  
HETATM    2  S   UNL     1     -10.422  13.427  66.792  1.00  0.00    -0.277 SA 
HETATM    3  C   UNL     1     -11.425  12.378  67.867  1.00  0.00    -0.328 C  
HETATM    4  C   UNL     1     -11.712  12.954  69.249  1.00  0.00    -0.378 C  
HETATM    5  O   UNL     1     -11.184  15.873  71.383  1.00  0.00    -0.346 OA 
HETATM    6  CA  UNL     1     -11.558  14.272  69.577  1.00  0.00    -0.301 C  
HETATM    7  N   UNL     1     -11.207  15.173  68.611  1.00  0.00    -0.271 N  
HETATM    8  O   UNL     1     -10.358  17.190  69.378  1.00  0.00    -0.290 OA 
HETATM    9  C   UNL     1     -11.785  14.735  71.000  1.00  0.00    -0.306 C  
HETATM   10  CA  UNL     1     -10.602  16.297  66.966  1.00  0.00    -0.284 C  
HETATM   11  OXT UNL     1     -12.490  14.126  71.790  1.00  0.00    -0.326 OA 
HETATM   12  C   UNL     1     -10.689  16.411  68.516  1.00  0.00    -0.320 C  
ENDROOT
BRANCH   4  13
HETATM   13  C   UNL     1     -12.050  11.844  70.242  1.00  0.00    -0.325 C  
BRANCH  13  14
HETATM   14  S   UNL     1     -11.832  10.190  69.495  1.00  0.00     0.091 SA 
BRANCH  14  15
HETATM   15  C   UNL     1     -10.663   9.533  70.588  1.00  0.00    -0.309 A  
HETATM   16  N   UNL     1      -9.358   9.613  70.453  1.00  0.00    -0.250 NA 
HETATM   17  N   UNL     1     -10.940   8.857  71.747  1.00  0.00    -0.339 NA 
HETATM   18  N   UNL     1      -8.822   9.011  71.563  1.00  0.00    -0.336 NA 
HETATM   19  N   UNL     1      -9.774   8.578  72.374  1.00  0.00    -0.298 NA 
BRANCH  17  20
HETATM   20  C   UNL     1     -12.204   8.577  72.389  1.00  0.00    -0.366 C  
HETATM   21  O   UNL     1     -12.543   6.592  70.984  1.00  0.00    -0.294 OA 
HETATM   22  C   UNL     1     -13.113   7.596  71.681  1.00  0.00    -0.353 C  
HETATM   23  O   UNL     1     -14.332   7.650  71.807  1.00  0.00    -0.413 OA 
ENDBRANCH  17  20
ENDBRANCH  14  15
ENDBRANCH  13  14
ENDBRANCH   4  13
BRANCH  10  24
HETATM   24  N   UNL     1      -9.236  16.277  66.393  1.00  0.00    -0.273 N  
HETATM   25  C   UNL     1      -8.389  17.345  66.267  1.00  0.00    -0.236 C  
HETATM   26  O   UNL     1      -7.305  17.185  65.707  1.00  0.00    -0.280 OA 
HETATM   27  H   UNL     1      -8.891  15.376  66.061  1.00  0.00     0.000 HD 
BRANCH  25  28
HETATM   28  C   UNL     1      -8.830  18.695  66.810  1.00  0.00    -0.297 C  
BRANCH  28  29
HETATM   29  C   UNL     1      -7.738  19.478  67.509  1.00  0.00    -0.296 A  
HETATM   30  C   UNL     1      -6.906  20.398  66.833  1.00  0.00    -0.307 A  
HETATM   31  C   UNL     1      -5.924  21.084  67.577  1.00  0.00    -0.374 A  
HETATM   32  C   UNL     1      -7.576  19.300  68.900  1.00  0.00    -0.384 A  
HETATM   33  C   UNL     1      -5.782  20.898  68.951  1.00  0.00    -0.379 A  
HETATM   34  C   UNL     1      -6.604  19.999  69.613  1.00  0.00    -0.340 A  
BRANCH  30  35
HETATM   35  C   UNL     1      -6.987  20.623  65.335  1.00  0.00    -0.086 C  
HETATM   36  N   UNL     1      -6.190  19.660  64.573  1.00  0.00    -0.350 NA 
HETATM   37  H1  UNL     1      -6.244  19.811  63.565  1.00  0.00     0.000 HD 
HETATM   38  H2  UNL     1      -6.448  18.703  64.813  1.00  0.00     0.000 HD 
ENDBRANCH  30  35
ENDBRANCH  28  29
ENDBRANCH  25  28
ENDBRANCH  10  24
TORSDOF 8
ENDMDL
MODEL       34
REMARK 921   NORMALIZED FREE ENERGY PREDICTED BY IDOCK:   -7.51 KCAL/MOL
REMARK 922        TOTAL FREE ENERGY PREDICTED BY IDOCK:  -11.84 KCAL/MOL
REMARK 923 INTER-LIGAND FREE ENERGY PREDICTED BY IDOCK:  -10.49 KCAL/MOL
REMARK 924 INTRA-LIGAND FREE ENERGY PREDICTED BY IDOCK:   -1.36 KCAL/MOL
REMARK 927      BINDING AFFINITY PREDICTED BY RF-SCORE:    0.00 PKD
ROOT
HETATM    1  C   UNL     1     -10.467   8.912  67.004  1.00  0.00    -0.256 C  
HETATM    2  S   UNL     1     -10.489  10.450  67.948  1.00  0.00    -0.228 SA 
HETATM    3  C   UNL     1     -11.209  11.420  66.605  1.00  0.00    -0.231 C  
HETATM    4  C   UNL     1     -10.590  11.182  65.233  1.00  0.00    -0.303 C  
HETATM    5  O   UNL     1      -8.079   9.226  63.439  1.00  0.00    -0.142 OA 
HETATM    6  CA  UNL     1      -9.814  10.103  64.918  1.00  0.00    -0.319 C  
HETATM    7  N   UNL     1      -9.626   9.113  65.842  1.00  0.00    -0.271 N  
HETATM    8  O   UNL     1      -7.822   7.707  65.455  1.00  0.00    -0.098 OA 
HETATM    9  C   UNL     1      -9.172   9.998  63.551  1.00  0.00    -0.277 C  
HETATM   10  CA  UNL     1      -9.457   7.806  67.454  1.00  0.00    -0.144 C  
HETATM   11  OXT UNL     1      -9.613  10.571  62.567  1.00  0.00    -0.284 OA 
HETATM   12  C   UNL     1      -8.778   8.096  66.084  1.00  0.00    -0.156 C  
ENDROOT
BRANCH   4  13
HETATM   13  C   UNL     1     -10.836  12.376  64.311  1.00  0.00    -0.355 C  
BRANCH  13  14
HETATM   14  S   UNL     1     -12.348  13.286  64.786  1.00  0.00    -0.392 SA 
BRANCH  14  15
HETATM   15  C   UNL     1     -11.745  14.906  64.708  1.00  0.00    -0.402 A  
HETATM   16  N   UNL     1     -12.195  15.854  63.917  1.00  0.00    -0.750 NA 
HETATM   17  N   UNL     1     -10.730  15.421  65.471  1.00  0.00    -0.359 NA 
HETATM   18  N   UNL     1     -11.474  16.979  64.221  1.00  0.00    -0.965 NA 
HETATM   19  N   UNL     1     -10.604  16.738  65.189  1.00  0.00    -0.682 NA 
BRANCH  17  20
HETATM   20  C   UNL     1      -9.966  14.822  66.542  1.00  0.00    -0.271 C  
HETATM   21  O   UNL     1     -11.961  14.688  67.966  1.00  0.00    -0.326 OA 
HETATM   22  C   UNL     1     -10.619  14.810  67.906  1.00  0.00    -0.248 C  
HETATM   23  O   UNL     1      -9.950  14.819  68.933  1.00  0.00    -0.226 OA 
ENDBRANCH  17  20
ENDBRANCH  14  15
ENDBRANCH  13  14
ENDBRANCH   4  13
BRANCH  10  24
HETATM   24  N   UNL     1      -8.626   8.059  68.654  1.00  0.00    -0.128 N  
HETATM   25  C   UNL     1      -8.974   7.807  69.955  1.00  0.00    -0.146 C  
HETATM   26  O   UNL     1      -8.200   8.135  70.854  1.00  0.00    -0.100 OA 
HETATM   27  H   UNL     1      -7.702   8.460  68.496  1.00  0.00     0.000 HD 
BRANCH  25  28
HETATM   28  C   UNL     1     -10.314   7.146  70.238  1.00  0.00    -0.214 C  
BRANCH  28  29
HETATM   29  C   UNL     1     -10.234   5.918  71.118  1.00  0.00    -0.266 A  
HETATM   30  C   UNL     1     -10.473   5.959  72.510  1.00  0.00    -0.238 A  
HETATM   31  C   UNL     1     -10.384   4.757  73.241  1.00  0.00    -0.233 A  
HETATM   32  C   UNL     1      -9.943   4.678  70.510  1.00  0.00    -0.295 A  
HETATM   33  C   UNL     1     -10.099   3.541  72.621  1.00  0.00    -0.234 A  
HETATM   34  C   UNL     1      -9.871   3.502  71.254  1.00  0.00    -0.205 A  
BRANCH  30  35
HETATM   35  C   UNL     1     -10.755   7.252  73.252  1.00  0.00    -0.383 C  
HETATM   36  N   UNL     1      -9.561   7.821  73.876  1.00  0.00    -0.358 NA 
HETATM   37  H1  UNL     1      -9.750   8.691  74.375  1.00  0.00     0.000 HD 
HETATM   38  H2  UNL     1      -8.816   7.948  73.191  1.00  0.00     0.000 HD 
ENDBRANCH  30  35
ENDBRANCH  28  29
ENDBRANCH  25  28
ENDBRANCH  10  24
TORSDOF 8
ENDMDL
MODEL       35
REMARK 921   NORMALIZED FREE ENERGY PREDICTED BY IDOCK:   -7.50 KCAL/MOL
REMARK 922        TOTAL FREE ENERGY PREDICTED BY IDOCK:  -11.82 KCAL/MOL
REMARK 923 INTER-LIGAND FREE ENERGY PREDICTED BY IDOCK:  -12.34 KCAL/MOL
REMARK 924 INTRA-LIGAND FREE ENERGY PREDICTED BY IDOCK:    0.51 KCAL/MOL
REMARK 927      BINDING AFFINITY PREDICTED BY RF-SCORE:    0.00 PKD
ROOT
HETATM    1  C   UNL     1      -9.697  15.858  66.963  1.00  0.00    -0.228 C  
HETATM    2  S   UNL     1     -10.327  15.940  68.652  1.00  0.00    -0.240 SA 
HETATM    3  C   UNL     1     -10.614  14.161  68.773  1.00  0.00    -0.253 C  
HETATM    4  C   UNL     1     -11.288  13.531  67.560  1.00  0.00    -0.335 C  
HETATM    5  O   UNL     1     -12.593  14.243  64.222  1.00  0.00    -0.678 OA 
HETATM    6  CA  UNL     1     -11.369  14.125  66.333  1.00  0.00    -0.338 C  
HETATM    7  N   UNL     1     -10.746  15.323  66.120  1.00  0.00    -0.314 N  
HETATM    8  O   UNL     1     -11.473  16.519  64.271  1.00  0.00    -1.000 OA 
HETATM    9  C   UNL     1     -12.135  13.457  65.211  1.00  0.00    -0.413 C  
HETATM   10  CA  UNL     1      -9.770  17.163  66.104  1.00  0.00    -0.242 C  
HETATM   11  OXT UNL     1     -12.336  12.254  65.172  1.00  0.00    -0.520 OA 
HETATM   12  C   UNL     1     -10.789  16.351  65.252  1.00  0.00    -0.258 C  
ENDROOT
BRANCH   4  13
HETATM   13  C   UNL     1     -11.979  12.222  67.940  1.00  0.00    -0.173 C  
BRANCH  13  14
HETATM   14  S   UNL     1     -10.904  11.179  68.989  1.00  0.00    -0.243 SA 
BRANCH  14  15
HETATM   15  C   UNL     1     -11.962  10.942  70.338  1.00  0.00    -0.362 A  
HETATM   16  N   UNL     1     -12.193   9.796  70.937  1.00  0.00    -0.304 NA 
HETATM   17  N   UNL     1     -12.683  11.919  70.972  1.00  0.00    -0.316 NA 
HETATM   18  N   UNL     1     -13.041  10.074  71.978  1.00  0.00    -0.446 NA 
HETATM   19  N   UNL     1     -13.319  11.368  72.031  1.00  0.00    -0.413 NA 
BRANCH  17  20
HETATM   20  C   UNL     1     -12.715  13.348  70.758  1.00  0.00    -0.228 C  
HETATM   21  O   UNL     1     -13.389  13.738  73.086  1.00  0.00    -0.538 OA 
HETATM   22  C   UNL     1     -13.432  14.167  71.808  1.00  0.00    -0.390 C  
HETATM   23  O   UNL     1     -13.962  15.238  71.530  1.00  0.00    -0.474 OA 
ENDBRANCH  17  20
ENDBRANCH  14  15
ENDBRANCH  13  14
ENDBRANCH   4  13
BRANCH  10  24
HETATM   24  N   UNL     1     -10.293  18.395  66.739  1.00  0.00    -0.378 N  
HETATM   25  C   UNL     1      -9.612  19.229  67.584  1.00  0.00    -0.315 C  
HETATM   26  O   UNL     1     -10.204  20.183  68.088  1.00  0.00    -0.410 OA 
HETATM   27  H   UNL     1     -11.258  18.647  66.525  1.00  0.00     0.000 HD 
BRANCH  25  28
HETATM   28  C   UNL     1      -8.149  18.935  67.879  1.00  0.00    -0.300 C  
BRANCH  28  29
HETATM   29  C   UNL     1      -7.168  19.768  67.084  1.00  0.00    -0.251 A  
HETATM   30  C   UNL     1      -6.127  20.508  67.689  1.00  0.00    -0.290 A  
HETATM   31  C   UNL     1      -5.258  21.245  66.859  1.00  0.00    -0.297 A  
HETATM   32  C   UNL     1      -7.283  19.774  65.677  1.00  0.00    -0.322 A  
HETATM   33  C   UNL     1      -5.386  21.234  65.470  1.00  0.00    -0.200 A  
HETATM   34  C   UNL     1      -6.405  20.503  64.878  1.00  0.00    -0.333 A  
BRANCH  30  35
HETATM   35  C   UNL     1      -5.952  20.588  69.194  1.00  0.00    -0.347 C  
HETATM   36  N   UNL     1      -5.152  19.488  69.733  1.00  0.00    -0.186 NA 
HETATM   37  H1  UNL     1      -5.035  19.542  70.745  1.00  0.00     0.000 HD 
HETATM   38  H2  UNL     1      -4.249  19.430  69.263  1.00  0.00     0.000 HD 
ENDBRANCH  30  35
ENDBRANCH  28  29
ENDBRANCH  25  28
ENDBRANCH  10  24
TORSDOF 8
ENDMDL
MODEL       36
REMARK 921   NORMALIZED FREE ENERGY PREDICTED BY IDOCK:   -7.49 KCAL/MOL
REMARK 922        TOTAL FREE ENERGY PREDICTED BY IDOCK:  -11.82 KCAL/MOL
REMARK 923 INTER-LIGAND FREE ENERGY PREDICTED BY IDOCK:  -10.75 KCAL/MOL
REMARK 924 INTRA-LIGAND FREE ENERGY PREDICTED BY IDOCK:   -1.06 KCAL/MOL
REMARK 927      BINDING AFFINITY PREDICTED BY RF-SCORE:    0.00 PKD
ROOT
HETATM    1  C   UNL     1      -9.571   9.720  67.909  1.00  0.00    -0.138 C  
HETATM    2  S   UNL     1     -10.272   9.403  66.276  1.00  0.00    -0.148 SA 
HETATM    3  C   UNL     1     -10.348  11.150  65.823  1.00  0.00    -0.260 C  
HETATM    4  C   UNL     1     -10.894  12.075  66.905  1.00  0.00    -0.302 C  
HETATM    5  O   UNL     1     -12.145  12.167  70.337  1.00  0.00    -0.354 OA 
HETATM    6  CA  UNL     1     -10.998  11.735  68.224  1.00  0.00    -0.229 C  
HETATM    7  N   UNL     1     -10.515  10.529  68.651  1.00  0.00    -0.180 N  
HETATM    8  O   UNL     1     -11.309   9.800  70.705  1.00  0.00    -0.279 OA 
HETATM    9  C   UNL     1     -11.634  12.691  69.210  1.00  0.00    -0.318 C  
HETATM   10  CA  UNL     1      -9.768   8.617  69.001  1.00  0.00    -0.173 C  
HETATM   11  OXT UNL     1     -11.688  13.896  69.023  1.00  0.00    -0.290 OA 
HETATM   12  C   UNL     1     -10.648   9.695  69.699  1.00  0.00    -0.233 C  
ENDROOT
BRANCH   4  13
HETATM   13  C   UNL     1     -11.438  13.365  66.294  1.00  0.00    -0.325 C  
BRANCH  13  14
HETATM   14  S   UNL     1     -10.526  13.821  64.776  1.00  0.00    -0.395 SA 
BRANCH  14  15
HETATM   15  C   UNL     1     -10.648  15.544  64.873  1.00  0.00    -0.342 A  
HETATM   16  N   UNL     1     -11.486  16.292  64.192  1.00  0.00    -0.942 NA 
HETATM   17  N   UNL     1      -9.901  16.356  65.685  1.00  0.00    -0.530 NA 
HETATM   18  N   UNL     1     -11.280  17.579  64.615  1.00  0.00    -0.707 NA 
HETATM   19  N   UNL     1     -10.342  17.627  65.548  1.00  0.00    -0.632 NA 
BRANCH  17  20
HETATM   20  C   UNL     1      -8.908  16.026  66.682  1.00  0.00    -0.272 C  
HETATM   21  O   UNL     1      -7.320  17.628  65.714  1.00  0.00    -0.486 OA 
HETATM   22  C   UNL     1      -7.493  16.477  66.395  1.00  0.00    -0.170 C  
HETATM   23  O   UNL     1      -6.527  15.869  66.842  1.00  0.00    -0.294 OA 
ENDBRANCH  17  20
ENDBRANCH  14  15
ENDBRANCH  13  14
ENDBRANCH   4  13
BRANCH  10  24
HETATM   24  N   UNL     1     -10.459   7.364  68.620  1.00  0.00    -0.211 N  
HETATM   25  C   UNL     1     -10.269   6.127  69.175  1.00  0.00    -0.194 C  
HETATM   26  O   UNL     1     -10.872   5.162  68.705  1.00  0.00     0.048 OA 
HETATM   27  H   UNL     1     -11.146   7.429  67.869  1.00  0.00     0.000 HD 
BRANCH  25  28
HETATM   28  C   UNL     1      -9.307   5.991  70.345  1.00  0.00    -0.177 C  
BRANCH  28  29
HETATM   29  C   UNL     1      -9.799   5.098  71.463  1.00  0.00    -0.234 A  
HETATM   30  C   UNL     1     -10.724   5.534  72.439  1.00  0.00    -0.286 A  
HETATM   31  C   UNL     1     -11.128   4.622  73.434  1.00  0.00    -0.418 A  
HETATM   32  C   UNL     1      -9.338   3.764  71.505  1.00  0.00    -0.203 A  
HETATM   33  C   UNL     1     -10.664   3.308  73.456  1.00  0.00    -0.306 A  
HETATM   34  C   UNL     1      -9.762   2.879  72.494  1.00  0.00    -0.204 A  
BRANCH  30  35
HETATM   35  C   UNL     1     -11.241   6.960  72.491  1.00  0.00    -0.267 C  
HETATM   36  N   UNL     1     -10.451   7.819  73.373  1.00  0.00    -0.301 NA 
HETATM   37  H1  UNL     1     -10.799   8.778  73.409  1.00  0.00     0.000 HD 
HETATM   38  H2  UNL     1      -9.464   7.798  73.115  1.00  0.00     0.000 HD 
ENDBRANCH  30  35
ENDBRANCH  28  29
ENDBRANCH  25  28
ENDBRANCH  10  24
TORSDOF 8
ENDMDL
MODEL       37
REMARK 921   NORMALIZED FREE ENERGY PREDICTED BY IDOCK:   -7.45 KCAL/MOL
REMARK 922        TOTAL FREE ENERGY PREDICTED BY IDOCK:  -11.76 KCAL/MOL
REMARK 923 INTER-LIGAND FREE ENERGY PREDICTED BY IDOCK:  -10.52 KCAL/MOL
REMARK 924 INTRA-LIGAND FREE ENERGY PREDICTED BY IDOCK:   -1.24 KCAL/MOL
REMARK 927      BINDING AFFINITY PREDICTED BY RF-SCORE:    0.00 PKD
ROOT
HETATM    1  C   UNL     1     -11.294  11.613  67.501  1.00  0.00    -0.298 C  
HETATM    2  S   UNL     1      -9.700  10.780  67.648  1.00  0.00    -0.167 SA 
HETATM    3  C   UNL     1     -10.312   9.524  68.793  1.00  0.00    -0.208 C  
HETATM    4  C   UNL     1     -11.192  10.051  69.920  1.00  0.00    -0.327 C  
HETATM    5  O   UNL     1     -12.722  13.075  71.286  1.00  0.00    -0.368 OA 
HETATM    6  CA  UNL     1     -11.787  11.281  69.917  1.00  0.00    -0.360 C  
HETATM    7  N   UNL     1     -11.676  12.083  68.816  1.00  0.00    -0.304 N  
HETATM    8  O   UNL     1     -12.144  14.329  69.158  1.00  0.00    -0.329 OA 
HETATM    9  C   UNL     1     -12.574  11.751  71.123  1.00  0.00    -0.309 C  
HETATM   10  CA  UNL     1     -11.283  13.110  67.048  1.00  0.00    -0.294 C  
HETATM   11  OXT UNL     1     -13.074  10.980  71.927  1.00  0.00    -0.486 OA 
HETATM   12  C   UNL     1     -11.817  13.380  68.485  1.00  0.00    -0.366 C  
ENDROOT
BRANCH   4  13
HETATM   13  C   UNL     1     -11.198   9.084  71.104  1.00  0.00    -0.305 C  
BRANCH  13  14
HETATM   14  S   UNL     1      -9.968   7.750  70.882  1.00  0.00    -0.182 SA 
BRANCH  14  15
HETATM   15  C   UNL     1      -9.049   7.963  72.332  1.00  0.00    -0.172 A  
HETATM   16  N   UNL     1      -7.937   8.654  72.439  1.00  0.00    -0.361 NA 
HETATM   17  N   UNL     1      -9.366   7.455  73.564  1.00  0.00    -0.214 NA 
HETATM   18  N   UNL     1      -7.582   8.604  73.762  1.00  0.00    -0.406 NA 
HETATM   19  N   UNL     1      -8.462   7.906  74.463  1.00  0.00    -0.185 NA 
BRANCH  17  20
HETATM   20  C   UNL     1     -10.521   6.703  73.998  1.00  0.00    -0.284 C  
HETATM   21  O   UNL     1      -9.367   4.578  73.577  1.00  0.00    -0.118 OA 
HETATM   22  C   UNL     1     -10.543   5.236  73.632  1.00  0.00    -0.279 C  
HETATM   23  O   UNL     1     -11.599   4.633  73.476  1.00  0.00    -0.285 OA 
ENDBRANCH  17  20
ENDBRANCH  14  15
ENDBRANCH  13  14
ENDBRANCH   4  13
BRANCH  10  24
HETATM   24  N   UNL     1      -9.982  13.735  66.713  1.00  0.00    -0.263 N  
HETATM   25  C   UNL     1      -9.758  15.059  66.448  1.00  0.00    -0.283 C  
HETATM   26  O   UNL     1      -8.629  15.419  66.117  1.00  0.00    -0.222 OA 
HETATM   27  H   UNL     1      -9.172  13.116  66.676  1.00  0.00     0.000 HD 
BRANCH  25  28
HETATM   28  C   UNL     1     -10.921  16.033  66.557  1.00  0.00    -0.080 C  
BRANCH  28  29
HETATM   29  C   UNL     1     -10.519  17.458  66.871  1.00  0.00    -0.279 A  
HETATM   30  C   UNL     1     -10.057  17.859  68.144  1.00  0.00    -0.368 A  
HETATM   31  C   UNL     1      -9.697  19.209  68.332  1.00  0.00    -0.451 A  
HETATM   32  C   UNL     1     -10.577  18.412  65.832  1.00  0.00    -0.313 A  
HETATM   33  C   UNL     1      -9.758  20.136  67.292  1.00  0.00    -0.574 A  
HETATM   34  C   UNL     1     -10.205  19.739  66.041  1.00  0.00    -0.600 A  
BRANCH  30  35
HETATM   35  C   UNL     1      -9.998  16.910  69.326  1.00  0.00    -0.184 C  
HETATM   36  N   UNL     1     -11.238  16.891  70.102  1.00  0.00    -0.301 NA 
HETATM   37  H1  UNL     1     -11.199  16.253  70.898  1.00  0.00     0.000 HD 
HETATM   38  H2  UNL     1     -12.039  16.682  69.505  1.00  0.00     0.000 HD 
ENDBRANCH  30  35
ENDBRANCH  28  29
ENDBRANCH  25  28
ENDBRANCH  10  24
TORSDOF 8
ENDMDL
MODEL       38
REMARK 921   NORMALIZED FREE ENERGY PREDICTED BY IDOCK:   -7.45 KCAL/MOL
REMARK 922        TOTAL FREE ENERGY PREDICTED BY IDOCK:  -11.75 KCAL/MOL
REMARK 923 INTER-LIGAND FREE ENERGY PREDICTED BY IDOCK:  -10.02 KCAL/MOL
REMARK 924 INTRA-LIGAND FREE ENERGY PREDICTED BY IDOCK:   -1.72 KCAL/MOL
REMARK 927      BINDING AFFINITY PREDICTED BY RF-SCORE:    0.00 PKD
ROOT
HETATM    1  C   UNL     1     -11.887  11.301  68.233  1.00  0.00    -0.229 C  
HETATM    2  S   UNL     1     -11.401  12.746  69.199  1.00  0.00    -0.265 SA 
HETATM    3  C   UNL     1     -11.895  13.928  67.925  1.00  0.00    -0.378 C  
HETATM    4  C   UNL     1     -11.463  13.570  66.508  1.00  0.00    -0.365 C  
HETATM    5  O   UNL     1      -9.747  11.037  64.510  1.00  0.00    -0.235 OA 
HETATM    6  CA  UNL     1     -11.054  12.325  66.123  1.00  0.00    -0.311 C  
HETATM    7  N   UNL     1     -11.101  11.291  67.016  1.00  0.00    -0.298 N  
HETATM    8  O   UNL     1      -9.810   9.440  66.480  1.00  0.00    -0.217 OA 
HETATM    9  C   UNL     1     -10.560  12.087  64.711  1.00  0.00    -0.297 C  
HETATM   10  CA  UNL     1     -11.213   9.936  68.593  1.00  0.00    -0.068 C  
HETATM   11  OXT UNL     1     -10.879  12.796  63.771  1.00  0.00    -0.407 OA 
HETATM   12  C   UNL     1     -10.570  10.066  67.181  1.00  0.00    -0.232 C  
ENDROOT
BRANCH   4  13
HETATM   13  C   UNL     1     -11.411  14.815  65.624  1.00  0.00    -0.327 C  
BRANCH  13  14
HETATM   14  S   UNL     1      -9.752  15.582  65.647  1.00  0.00    -0.279 SA 
BRANCH  14  15
HETATM   15  C   UNL     1     -10.182  17.182  66.149  1.00  0.00    -0.334 A  
HETATM   16  N   UNL     1     -10.451  18.189  65.349  1.00  0.00    -0.534 NA 
HETATM   17  N   UNL     1     -10.315  17.606  67.444  1.00  0.00    -0.349 NA 
HETATM   18  N   UNL     1     -10.791  19.240  66.161  1.00  0.00    -0.338 NA 
HETATM   19  N   UNL     1     -10.746  18.888  67.436  1.00  0.00    -0.459 NA 
BRANCH  17  20
HETATM   20  C   UNL     1     -10.213  16.873  68.686  1.00  0.00    -0.301 C  
HETATM   21  O   UNL     1      -7.762  16.873  68.550  1.00  0.00    -0.205 OA 
HETATM   22  C   UNL     1      -8.872  16.240  68.982  1.00  0.00    -0.243 C  
HETATM   23  O   UNL     1      -8.781  15.231  69.673  1.00  0.00    -0.235 OA 
ENDBRANCH  17  20
ENDBRANCH  14  15
ENDBRANCH  13  14
ENDBRANCH   4  13
BRANCH  10  24
HETATM   24  N   UNL     1     -10.269   9.897  69.734  1.00  0.00    -0.230 N  
HETATM   25  C   UNL     1     -10.345   9.077  70.828  1.00  0.00    -0.243 C  
HETATM   26  O   UNL     1      -9.519   9.208  71.731  1.00  0.00    -0.312 OA 
HETATM   27  H   UNL     1      -9.482  10.546  69.700  1.00  0.00     0.000 HD 
BRANCH  25  28
HETATM   28  C   UNL     1     -11.460   8.046  70.892  1.00  0.00    -0.291 C  
BRANCH  28  29
HETATM   29  C   UNL     1     -10.988   6.621  71.088  1.00  0.00    -0.302 A  
HETATM   30  C   UNL     1     -10.540   5.811  70.020  1.00  0.00    -0.380 A  
HETATM   31  C   UNL     1     -10.111   4.499  70.308  1.00  0.00    -0.230 A  
HETATM   32  C   UNL     1     -10.963   6.100  72.399  1.00  0.00    -0.299 A  
HETATM   33  C   UNL     1     -10.090   4.005  71.612  1.00  0.00    -0.183 A  
HETATM   34  C   UNL     1     -10.523   4.804  72.659  1.00  0.00    -0.260 A  
BRANCH  30  35
HETATM   35  C   UNL     1     -10.568   6.276  68.576  1.00  0.00    -0.262 C  
HETATM   36  N   UNL     1      -9.323   6.925  68.164  1.00  0.00    -0.125 NA 
HETATM   37  H1  UNL     1      -9.342   7.238  67.193  1.00  0.00     0.000 HD 
HETATM   38  H2  UNL     1      -8.521   6.318  68.337  1.00  0.00     0.000 HD 
ENDBRANCH  30  35
ENDBRANCH  28  29
ENDBRANCH  25  28
ENDBRANCH  10  24
TORSDOF 8
ENDMDL
MODEL       39
REMARK 921   NORMALIZED FREE ENERGY PREDICTED BY IDOCK:   -7.44 KCAL/MOL
REMARK 922        TOTAL FREE ENERGY PREDICTED BY IDOCK:  -11.75 KCAL/MOL
REMARK 923 INTER-LIGAND FREE ENERGY PREDICTED BY IDOCK:  -10.72 KCAL/MOL
REMARK 924 INTRA-LIGAND FREE ENERGY PREDICTED BY IDOCK:   -1.02 KCAL/MOL
REMARK 927      BINDING AFFINITY PREDICTED BY RF-SCORE:    0.00 PKD
ROOT
HETATM    1  C   UNL     1      -9.575  15.300  66.118  1.00  0.00    -0.321 C  
HETATM    2  S   UNL     1      -9.887  14.882  67.846  1.00  0.00    -0.215 SA 
HETATM    3  C   UNL     1      -9.972  13.103  67.538  1.00  0.00    -0.223 C  
HETATM    4  C   UNL     1     -10.794  12.697  66.321  1.00  0.00    -0.300 C  
HETATM    5  O   UNL     1     -12.757  14.003  63.530  1.00  0.00    -0.805 OA 
HETATM    6  CA  UNL     1     -11.158  13.553  65.320  1.00  0.00    -0.297 C  
HETATM    7  N   UNL     1     -10.705  14.842  65.336  1.00  0.00    -0.349 N  
HETATM    8  O   UNL     1     -11.875  16.334  64.001  1.00  0.00    -0.958 OA 
HETATM    9  C   UNL     1     -12.050  13.074  64.194  1.00  0.00    -0.427 C  
HETATM   10  CA  UNL     1      -9.933  16.750  65.654  1.00  0.00    -0.134 C  
HETATM   11  OXT UNL     1     -12.136  11.900  63.872  1.00  0.00    -0.420 OA 
HETATM   12  C   UNL     1     -11.008  16.032  64.786  1.00  0.00    -0.356 C  
ENDROOT
BRANCH   4  13
HETATM   13  C   UNL     1     -11.272  11.251  66.446  1.00  0.00    -0.121 C  
BRANCH  13  14
HETATM   14  S   UNL     1     -11.146  10.652  68.169  1.00  0.00    -0.295 SA 
BRANCH  14  15
HETATM   15  C   UNL     1     -10.649   9.021  67.870  1.00  0.00    -0.196 A  
HETATM   16  N   UNL     1     -10.651   8.422  66.701  1.00  0.00    -0.181 NA 
HETATM   17  N   UNL     1     -10.172   8.145  68.808  1.00  0.00    -0.204 NA 
HETATM   18  N   UNL     1     -10.134   7.170  66.913  1.00  0.00    -0.226 NA 
HETATM   19  N   UNL     1      -9.806   7.002  68.184  1.00  0.00    -0.137 NA 
BRANCH  17  20
HETATM   20  C   UNL     1      -9.895   8.335  70.214  1.00  0.00    -0.184 C  
HETATM   21  O   UNL     1     -12.041   7.317  70.834  1.00  0.00    -0.320 OA 
HETATM   22  C   UNL     1     -11.071   8.199  71.154  1.00  0.00    -0.245 C  
HETATM   23  O   UNL     1     -11.107   8.800  72.223  1.00  0.00    -0.359 OA 
ENDBRANCH  17  20
ENDBRANCH  14  15
ENDBRANCH  13  14
ENDBRANCH   4  13
BRANCH  10  24
HETATM   24  N   UNL     1     -10.447  17.705  66.663  1.00  0.00    -0.319 N  
HETATM   25  C   UNL     1      -9.843  18.863  67.072  1.00  0.00    -0.324 C  
HETATM   26  O   UNL     1     -10.362  19.522  67.973  1.00  0.00    -0.415 OA 
HETATM   27  H   UNL     1     -11.342  17.477  67.096  1.00  0.00     0.000 HD 
BRANCH  25  28
HETATM   28  C   UNL     1      -8.541  19.282  66.407  1.00  0.00    -0.355 C  
BRANCH  28  29
HETATM   29  C   UNL     1      -7.419  19.604  67.371  1.00  0.00    -0.287 A  
HETATM   30  C   UNL     1      -6.729  18.610  68.100  1.00  0.00    -0.235 A  
HETATM   31  C   UNL     1      -5.691  19.013  68.966  1.00  0.00    -0.231 A  
HETATM   32  C   UNL     1      -7.029  20.953  67.514  1.00  0.00    -0.406 A  
HETATM   33  C   UNL     1      -5.318  20.350  69.090  1.00  0.00    -0.299 A  
HETATM   34  C   UNL     1      -5.992  21.323  68.369  1.00  0.00    -0.204 A  
BRANCH  30  35
HETATM   35  C   UNL     1      -7.106  17.142  68.035  1.00  0.00    -0.175 C  
HETATM   36  N   UNL     1      -6.714  16.401  69.235  1.00  0.00    -0.205 NA 
HETATM   37  H1  UNL     1      -6.968  15.414  69.192  1.00  0.00     0.000 HD 
HETATM   38  H2  UNL     1      -7.094  16.840  70.075  1.00  0.00     0.000 HD 
ENDBRANCH  30  35
ENDBRANCH  28  29
ENDBRANCH  25  28
ENDBRANCH  10  24
TORSDOF 8
ENDMDL
MODEL       40
REMARK 921   NORMALIZED FREE ENERGY PREDICTED BY IDOCK:   -7.44 KCAL/MOL
REMARK 922        TOTAL FREE ENERGY PREDICTED BY IDOCK:  -11.73 KCAL/MOL
REMARK 923 INTER-LIGAND FREE ENERGY PREDICTED BY IDOCK:   -9.66 KCAL/MOL
REMARK 924 INTRA-LIGAND FREE ENERGY PREDICTED BY IDOCK:   -2.08 KCAL/MOL
REMARK 927      BINDING AFFINITY PREDICTED BY RF-SCORE:    0.00 PKD
ROOT
HETATM    1  C   UNL     1      -8.829   8.707  68.376  1.00  0.00    -0.142 C  
HETATM    2  S   UNL     1      -8.791   9.796  69.814  1.00  0.00    -0.225 SA 
HETATM    3  C   UNL     1      -7.617   8.769  70.727  1.00  0.00    -0.094 C  
HETATM    4  C   UNL     1      -7.912   7.274  70.702  1.00  0.00    -0.099 C  
HETATM    5  O   UNL     1     -10.191   4.748  69.368  1.00  0.00    -0.210 OA 
HETATM    6  CA  UNL     1      -8.752   6.672  69.808  1.00  0.00    -0.140 C  
HETATM    7  N   UNL     1      -9.317   7.413  68.807  1.00  0.00    -0.144 N  
HETATM    8  O   UNL     1     -11.174   6.472  67.786  1.00  0.00    -0.305 OA 
HETATM    9  C   UNL     1      -9.048   5.192  69.916  1.00  0.00    -0.123 C  
HETATM   10  CA  UNL     1     -10.084   8.789  67.446  1.00  0.00    -0.226 C  
HETATM   11  OXT UNL     1      -8.294   4.405  70.466  1.00  0.00    -0.072 OA 
HETATM   12  C   UNL     1     -10.351   7.341  67.949  1.00  0.00    -0.201 C  
ENDROOT
BRANCH   4  13
HETATM   13  C   UNL     1      -7.259   6.570  71.891  1.00  0.00    -0.086 C  
BRANCH  13  14
HETATM   14  S   UNL     1      -8.081   7.015  73.462  1.00  0.00    -0.110 SA 
BRANCH  14  15
HETATM   15  C   UNL     1      -9.453   5.964  73.376  1.00  0.00    -0.138 A  
HETATM   16  N   UNL     1      -9.451   4.679  73.646  1.00  0.00    -0.127 NA 
HETATM   17  N   UNL     1     -10.726   6.335  73.031  1.00  0.00    -0.241 NA 
HETATM   18  N   UNL     1     -10.748   4.257  73.503  1.00  0.00    -0.215 NA 
HETATM   19  N   UNL     1     -11.539   5.262  73.163  1.00  0.00    -0.261 NA 
BRANCH  17  20
HETATM   20  C   UNL     1     -11.272   7.639  72.729  1.00  0.00    -0.377 C  
HETATM   21  O   UNL     1     -12.513   6.737  70.812  1.00  0.00    -0.351 OA 
HETATM   22  C   UNL     1     -11.896   7.804  71.361  1.00  0.00    -0.297 C  
HETATM   23  O   UNL     1     -11.926   8.894  70.801  1.00  0.00    -0.253 OA 
ENDBRANCH  17  20
ENDBRANCH  14  15
ENDBRANCH  13  14
ENDBRANCH   4  13
BRANCH  10  24
HETATM   24  N   UNL     1     -11.130   9.788  67.763  1.00  0.00    -0.486 N  
HETATM   25  C   UNL     1     -11.260  11.036  67.214  1.00  0.00    -0.258 C  
HETATM   26  O   UNL     1     -12.146  11.783  67.629  1.00  0.00    -0.598 OA 
HETATM   27  H   UNL     1     -11.825   9.519  68.460  1.00  0.00     0.000 HD 
BRANCH  25  28
HETATM   28  C   UNL     1     -10.290  11.458  66.121  1.00  0.00    -0.294 C  
BRANCH  28  29
HETATM   29  C   UNL     1     -10.052  12.950  66.035  1.00  0.00    -0.290 A  
HETATM   30  C   UNL     1     -10.784  13.792  65.168  1.00  0.00    -0.365 A  
HETATM   31  C   UNL     1     -10.493  15.171  65.169  1.00  0.00    -0.437 A  
HETATM   32  C   UNL     1      -9.080  13.521  66.884  1.00  0.00    -0.246 A  
HETATM   33  C   UNL     1      -9.532  15.717  66.019  1.00  0.00    -0.390 A  
HETATM   34  C   UNL     1      -8.819  14.890  66.873  1.00  0.00    -0.284 A  
BRANCH  30  35
HETATM   35  C   UNL     1     -11.820  13.258  64.196  1.00  0.00    -0.443 C  
HETATM   36  N   UNL     1     -12.391  14.303  63.345  1.00  0.00    -1.126 NA 
HETATM   37  H1  UNL     1     -13.087  13.944  62.690  1.00  0.00     0.000 HD 
HETATM   38  H2  UNL     1     -11.657  14.815  62.854  1.00  0.00     0.000 HD 
ENDBRANCH  30  35
ENDBRANCH  28  29
ENDBRANCH  25  28
ENDBRANCH  10  24
TORSDOF 8
ENDMDL
MODEL       41
REMARK 921   NORMALIZED FREE ENERGY PREDICTED BY IDOCK:   -7.41 KCAL/MOL
REMARK 922        TOTAL FREE ENERGY PREDICTED BY IDOCK:  -11.69 KCAL/MOL
REMARK 923 INTER-LIGAND FREE ENERGY PREDICTED BY IDOCK:  -10.58 KCAL/MOL
REMARK 924 INTRA-LIGAND FREE ENERGY PREDICTED BY IDOCK:   -1.11 KCAL/MOL
REMARK 927      BINDING AFFINITY PREDICTED BY RF-SCORE:    0.00 PKD
ROOT
HETATM    1  C   UNL     1     -10.894  11.788  68.464  1.00  0.00    -0.224 C  
HETATM    2  S   UNL     1      -9.305  10.974  68.731  1.00  0.00    -0.148 SA 
HETATM    3  C   UNL     1     -10.043   9.388  69.182  1.00  0.00    -0.195 C  
HETATM    4  C   UNL     1     -11.216   9.474  70.151  1.00  0.00    -0.275 C  
HETATM    5  O   UNL     1     -13.329  11.804  72.010  1.00  0.00    -0.487 OA 
HETATM    6  CA  UNL     1     -11.915  10.619  70.409  1.00  0.00    -0.346 C  
HETATM    7  N   UNL     1     -11.626  11.759  69.713  1.00  0.00    -0.306 N  
HETATM    8  O   UNL     1     -12.388  13.735  70.660  1.00  0.00    -0.339 OA 
HETATM    9  C   UNL     1     -13.012  10.624  71.453  1.00  0.00    -0.443 C  
HETATM   10  CA  UNL     1     -10.927  13.349  68.563  1.00  0.00    -0.268 C  
HETATM   11  OXT UNL     1     -13.610   9.615  71.790  1.00  0.00    -0.379 OA 
HETATM   12  C   UNL     1     -11.815  13.088  69.816  1.00  0.00    -0.311 C  
ENDROOT
BRANCH   4  13
HETATM   13  C   UNL     1     -11.408   8.152  70.893  1.00  0.00    -0.268 C  
BRANCH  13  14
HETATM   14  S   UNL     1     -11.270   6.724  69.758  1.00  0.00    -0.300 SA 
BRANCH  14  15
HETATM   15  C   UNL     1     -10.162   5.747  70.660  1.00  0.00    -0.218 A  
HETATM   16  N   UNL     1     -10.429   5.133  71.790  1.00  0.00    -0.215 NA 
HETATM   17  N   UNL     1      -8.868   5.470  70.308  1.00  0.00    -0.128 NA 
HETATM   18  N   UNL     1      -9.295   4.436  72.122  1.00  0.00    -0.126 NA 
HETATM   19  N   UNL     1      -8.351   4.606  71.210  1.00  0.00    -0.103 NA 
BRANCH  17  20
HETATM   20  C   UNL     1      -8.121   5.831  69.124  1.00  0.00    -0.101 C  
HETATM   21  O   UNL     1      -8.895   3.817  67.953  1.00  0.00    -0.099 OA 
HETATM   22  C   UNL     1      -7.920   4.738  68.099  1.00  0.00    -0.085 C  
HETATM   23  O   UNL     1      -6.945   4.732  67.355  1.00  0.00    -0.058 OA 
ENDBRANCH  17  20
ENDBRANCH  14  15
ENDBRANCH  13  14
ENDBRANCH   4  13
BRANCH  10  24
HETATM   24  N   UNL     1      -9.655  14.066  68.810  1.00  0.00    -0.372 N  
HETATM   25  C   UNL     1      -9.475  15.423  68.833  1.00  0.00    -0.219 C  
HETATM   26  O   UNL     1      -8.339  15.873  68.985  1.00  0.00    -0.209 OA 
HETATM   27  H   UNL     1      -8.830  13.491  68.980  1.00  0.00     0.000 HD 
BRANCH  25  28
HETATM   28  C   UNL     1     -10.687  16.324  68.653  1.00  0.00    -0.309 C  
BRANCH  28  29
HETATM   29  C   UNL     1     -10.424  17.575  67.843  1.00  0.00    -0.384 A  
HETATM   30  C   UNL     1     -10.484  17.598  66.431  1.00  0.00    -0.286 A  
HETATM   31  C   UNL     1     -10.233  18.817  65.769  1.00  0.00    -0.159 A  
HETATM   32  C   UNL     1     -10.143  18.772  68.535  1.00  0.00    -0.444 A  
HETATM   33  C   UNL     1      -9.961  19.990  66.472  1.00  0.00    -0.603 A  
HETATM   34  C   UNL     1      -9.909  19.967  67.857  1.00  0.00    -0.529 A  
BRANCH  30  35
HETATM   35  C   UNL     1     -10.742  16.351  65.606  1.00  0.00    -0.270 C  
HETATM   36  N   UNL     1     -11.206  16.653  64.251  1.00  0.00    -1.380 NA 
HETATM   37  H1  UNL     1     -11.380  15.814  63.696  1.00  0.00     0.000 HD 
HETATM   38  H2  UNL     1     -10.557  17.279  63.774  1.00  0.00     0.000 HD 
ENDBRANCH  30  35
ENDBRANCH  28  29
ENDBRANCH  25  28
ENDBRANCH  10  24
TORSDOF 8
ENDMDL
MODEL       42
REMARK 921   NORMALIZED FREE ENERGY PREDICTED BY IDOCK:   -7.39 KCAL/MOL
REMARK 922        TOTAL FREE ENERGY PREDICTED BY IDOCK:  -11.67 KCAL/MOL
REMARK 923 INTER-LIGAND FREE ENERGY PREDICTED BY IDOCK:  -10.27 KCAL/MOL
REMARK 924 INTRA-LIGAND FREE ENERGY PREDICTED BY IDOCK:   -1.39 KCAL/MOL
REMARK 927      BINDING AFFINITY PREDICTED BY RF-SCORE:    0.00 PKD
ROOT
HETATM    1  C   UNL     1     -11.548  11.209  68.831  1.00  0.00    -0.317 C  
HETATM    2  S   UNL     1     -11.884  12.706  69.781  1.00  0.00    -0.255 SA 
HETATM    3  C   UNL     1     -11.056  13.798  68.603  1.00  0.00    -0.267 C  
HETATM    4  C   UNL     1      -9.706  13.301  68.099  1.00  0.00    -0.227 C  
HETATM    5  O   UNL     1      -7.334  10.529  68.299  1.00  0.00    -0.085 OA 
HETATM    6  CA  UNL     1      -9.275  12.009  68.210  1.00  0.00    -0.192 C  
HETATM    7  N   UNL     1     -10.112  11.059  68.725  1.00  0.00    -0.197 N  
HETATM    8  O   UNL     1      -9.089   9.110  69.457  1.00  0.00    -0.144 OA 
HETATM    9  C   UNL     1      -7.881  11.629  67.756  1.00  0.00    -0.129 C  
HETATM   10  CA  UNL     1     -11.561   9.850  69.605  1.00  0.00    -0.039 C  
HETATM   11  OXT UNL     1      -7.258  12.270  66.926  1.00  0.00    -0.082 OA 
HETATM   12  C   UNL     1     -10.042   9.828  69.265  1.00  0.00    -0.198 C  
ENDROOT
BRANCH   4  13
HETATM   13  C   UNL     1      -8.854  14.462  67.590  1.00  0.00    -0.193 C  
BRANCH  13  14
HETATM   14  S   UNL     1      -9.700  16.066  67.828  1.00  0.00    -0.221 SA 
BRANCH  14  15
HETATM   15  C   UNL     1     -10.329  16.298  66.233  1.00  0.00    -0.326 A  
HETATM   16  N   UNL     1     -10.639  15.343  65.385  1.00  0.00    -0.380 NA 
HETATM   17  N   UNL     1     -10.604  17.505  65.648  1.00  0.00    -0.556 NA 
HETATM   18  N   UNL     1     -11.147  15.968  64.276  1.00  0.00    -0.544 NA 
HETATM   19  N   UNL     1     -11.164  17.282  64.437  1.00  0.00    -0.833 NA 
BRANCH  17  20
HETATM   20  C   UNL     1     -10.522  18.846  66.183  1.00  0.00    -0.457 C  
HETATM   21  O   UNL     1      -8.101  18.919  65.781  1.00  0.00    -0.472 OA 
HETATM   22  C   UNL     1      -9.138  19.345  66.532  1.00  0.00    -0.356 C  
HETATM   23  O   UNL     1      -8.965  20.183  67.411  1.00  0.00    -0.330 OA 
ENDBRANCH  17  20
ENDBRANCH  14  15
ENDBRANCH  13  14
ENDBRANCH   4  13
BRANCH  10  24
HETATM   24  N   UNL     1     -11.902   9.863  71.046  1.00  0.00    -0.345 N  
HETATM   25  C   UNL     1     -12.441   8.831  71.766  1.00  0.00    -0.350 C  
HETATM   26  O   UNL     1     -12.734   9.016  72.948  1.00  0.00    -0.276 OA 
HETATM   27  H   UNL     1     -11.716  10.728  71.554  1.00  0.00     0.000 HD 
BRANCH  25  28
HETATM   28  C   UNL     1     -12.674   7.499  71.072  1.00  0.00    -0.201 C  
BRANCH  28  29
HETATM   29  C   UNL     1     -11.580   6.476  71.293  1.00  0.00    -0.381 A  
HETATM   30  C   UNL     1     -10.811   5.938  70.236  1.00  0.00    -0.391 A  
HETATM   31  C   UNL     1      -9.808   4.998  70.548  1.00  0.00    -0.290 A  
HETATM   32  C   UNL     1     -11.300   6.074  72.617  1.00  0.00    -0.320 A  
HETATM   33  C   UNL     1      -9.544   4.617  71.863  1.00  0.00    -0.210 A  
HETATM   34  C   UNL     1     -10.296   5.150  72.899  1.00  0.00    -0.238 A  
BRANCH  30  35
HETATM   35  C   UNL     1     -11.069   6.285  68.782  1.00  0.00    -0.346 C  
HETATM   36  N   UNL     1      -9.850   6.276  67.971  1.00  0.00    -0.121 NA 
HETATM   37  H1  UNL     1     -10.023   6.509  66.993  1.00  0.00     0.000 HD 
HETATM   38  H2  UNL     1      -9.364   5.383  68.054  1.00  0.00     0.000 HD 
ENDBRANCH  30  35
ENDBRANCH  28  29
ENDBRANCH  25  28
ENDBRANCH  10  24
TORSDOF 8
ENDMDL
MODEL       43
REMARK 921   NORMALIZED FREE ENERGY PREDICTED BY IDOCK:   -7.38 KCAL/MOL
REMARK 922        TOTAL FREE ENERGY PREDICTED BY IDOCK:  -11.65 KCAL/MOL
REMARK 923 INTER-LIGAND FREE ENERGY PREDICTED BY IDOCK:  -10.24 KCAL/MOL
REMARK 924 INTRA-LIGAND FREE ENERGY PREDICTED BY IDOCK:   -1.41 KCAL/MOL
REMARK 927      BINDING AFFINITY PREDICTED BY RF-SCORE:    0.00 PKD
ROOT
HETATM    1  C   UNL     1     -10.732   9.369  67.831  1.00  0.00    -0.210 C  
HETATM    2  S   UNL     1     -10.247  10.477  69.170  1.00  0.00    -0.230 SA 
HETATM    3  C   UNL     1     -11.329  11.819  68.630  1.00  0.00    -0.270 C  
HETATM    4  C   UNL     1     -11.306  12.105  67.133  1.00  0.00    -0.393 C  
HETATM    5  O   UNL     1      -9.865  11.022  63.955  1.00  0.00    -0.258 OA 
HETATM    6  CA  UNL     1     -10.814  11.243  66.195  1.00  0.00    -0.222 C  
HETATM    7  N   UNL     1     -10.382  10.003  66.576  1.00  0.00    -0.221 N  
HETATM    8  O   UNL     1      -9.004   8.910  65.065  1.00  0.00    -0.189 OA 
HETATM    9  C   UNL     1     -10.755  11.653  64.738  1.00  0.00    -0.309 C  
HETATM   10  CA  UNL     1      -9.736   8.226  67.447  1.00  0.00    -0.174 C  
HETATM   11  OXT UNL     1     -11.481  12.511  64.263  1.00  0.00    -0.321 OA 
HETATM   12  C   UNL     1      -9.607   9.008  66.108  1.00  0.00    -0.272 C  
ENDROOT
BRANCH   4  13
HETATM   13  C   UNL     1     -11.771  13.532  66.845  1.00  0.00    -0.384 C  
BRANCH  13  14
HETATM   14  S   UNL     1     -10.404  14.731  67.039  1.00  0.00    -0.258 SA 
BRANCH  14  15
HETATM   15  C   UNL     1     -10.814  15.841  65.776  1.00  0.00    -0.280 A  
HETATM   16  N   UNL     1     -11.398  15.528  64.642  1.00  0.00    -0.406 NA 
HETATM   17  N   UNL     1     -10.601  17.194  65.798  1.00  0.00    -0.436 NA 
HETATM   18  N   UNL     1     -11.582  16.708  63.969  1.00  0.00    -1.119 NA 
HETATM   19  N   UNL     1     -11.133  17.733  64.677  1.00  0.00    -0.436 NA 
BRANCH  17  20
HETATM   20  C   UNL     1     -10.072  18.042  66.841  1.00  0.00    -0.348 C  
HETATM   21  O   UNL     1      -7.862  18.075  65.773  1.00  0.00    -0.534 OA 
HETATM   22  C   UNL     1      -8.565  18.146  66.921  1.00  0.00    -0.258 C  
HETATM   23  O   UNL     1      -7.997  18.380  67.983  1.00  0.00    -0.261 OA 
ENDBRANCH  17  20
ENDBRANCH  14  15
ENDBRANCH  13  14
ENDBRANCH   4  13
BRANCH  10  24
HETATM   24  N   UNL     1      -8.490   8.083  68.236  1.00  0.00    -0.123 N  
HETATM   25  C   UNL     1      -8.180   7.062  69.094  1.00  0.00    -0.122 C  
HETATM   26  O   UNL     1      -7.130   7.116  69.734  1.00  0.00    -0.069 OA 
HETATM   27  H   UNL     1      -7.793   8.821  68.130  1.00  0.00     0.000 HD 
BRANCH  25  28
HETATM   28  C   UNL     1      -9.157   5.905  69.235  1.00  0.00    -0.128 C  
BRANCH  28  29
HETATM   29  C   UNL     1     -10.132   6.042  70.385  1.00  0.00    -0.249 A  
HETATM   30  C   UNL     1      -9.817   5.646  71.704  1.00  0.00    -0.213 A  
HETATM   31  C   UNL     1     -10.791   5.824  72.707  1.00  0.00    -0.295 A  
HETATM   32  C   UNL     1     -11.392   6.623  70.126  1.00  0.00    -0.440 A  
HETATM   33  C   UNL     1     -12.029   6.404  72.432  1.00  0.00    -0.213 A  
HETATM   34  C   UNL     1     -12.333   6.798  71.138  1.00  0.00    -0.386 A  
BRANCH  30  35
HETATM   35  C   UNL     1      -8.503   4.979  72.064  1.00  0.00    -0.125 C  
HETATM   36  N   UNL     1      -7.475   5.935  72.478  1.00  0.00    -0.095 NA 
HETATM   37  H1  UNL     1      -6.591   5.486  72.720  1.00  0.00     0.000 HD 
HETATM   38  H2  UNL     1      -7.809   6.521  73.243  1.00  0.00     0.000 HD 
ENDBRANCH  30  35
ENDBRANCH  28  29
ENDBRANCH  25  28
ENDBRANCH  10  24
TORSDOF 8
ENDMDL
MODEL       44
REMARK 921   NORMALIZED FREE ENERGY PREDICTED BY IDOCK:   -7.37 KCAL/MOL
REMARK 922        TOTAL FREE ENERGY PREDICTED BY IDOCK:  -11.65 KCAL/MOL
REMARK 923 INTER-LIGAND FREE ENERGY PREDICTED BY IDOCK:  -10.24 KCAL/MOL
REMARK 924 INTRA-LIGAND FREE ENERGY PREDICTED BY IDOCK:   -1.40 KCAL/MOL
REMARK 927      BINDING AFFINITY PREDICTED BY RF-SCORE:    0.00 PKD
ROOT
HETATM    1  C   UNL     1     -11.284  10.349  67.722  1.00  0.00    -0.237 C  
HETATM    2  S   UNL     1     -10.709  11.215  69.197  1.00  0.00    -0.204 SA 
HETATM    3  C   UNL     1     -11.621  12.729  68.825  1.00  0.00    -0.312 C  
HETATM    4  C   UNL     1     -11.530  13.199  67.378  1.00  0.00    -0.375 C  
HETATM    5  O   UNL     1     -10.144  12.371  64.100  1.00  0.00    -0.330 OA 
HETATM    6  CA  UNL     1     -11.115  12.412  66.341  1.00  0.00    -0.301 C  
HETATM    7  N   UNL     1     -10.835  11.093  66.563  1.00  0.00    -0.269 N  
HETATM    8  O   UNL     1      -9.552  10.050  64.937  1.00  0.00    -0.273 OA 
HETATM    9  C   UNL     1     -10.976  12.994  64.950  1.00  0.00    -0.307 C  
HETATM   10  CA  UNL     1     -10.413   9.157  67.204  1.00  0.00    -0.255 C  
HETATM   11  OXT UNL     1     -11.589  13.983  64.582  1.00  0.00    -0.359 OA 
HETATM   12  C   UNL     1     -10.165  10.084  65.978  1.00  0.00    -0.207 C  
ENDROOT
BRANCH   4  13
HETATM   13  C   UNL     1     -11.824  14.695  67.271  1.00  0.00    -0.351 C  
BRANCH  13  14
HETATM   14  S   UNL     1     -11.638  15.528  68.888  1.00  0.00    -0.378 SA 
BRANCH  14  15
HETATM   15  C   UNL     1     -10.001  16.072  68.744  1.00  0.00    -0.224 A  
HETATM   16  N   UNL     1      -8.934  15.385  69.083  1.00  0.00    -0.229 NA 
HETATM   17  N   UNL     1      -9.600  17.281  68.242  1.00  0.00    -0.277 NA 
HETATM   18  N   UNL     1      -7.857  16.165  68.752  1.00  0.00    -0.189 NA 
HETATM   19  N   UNL     1      -8.248  17.307  68.208  1.00  0.00    -0.229 NA 
BRANCH  17  20
HETATM   20  C   UNL     1     -10.370  18.356  67.659  1.00  0.00    -0.405 C  
HETATM   21  O   UNL     1     -10.147  17.379  65.419  1.00  0.00    -0.562 OA 
HETATM   22  C   UNL     1     -10.292  18.499  66.156  1.00  0.00    -0.426 C  
HETATM   23  O   UNL     1     -10.447  19.586  65.609  1.00  0.00    -0.456 OA 
ENDBRANCH  17  20
ENDBRANCH  14  15
ENDBRANCH  13  14
ENDBRANCH   4  13
BRANCH  10  24
HETATM   24  N   UNL     1      -9.211   8.774  67.980  1.00  0.00    -0.139 N  
HETATM   25  C   UNL     1      -9.109   7.736  68.867  1.00  0.00    -0.141 C  
HETATM   26  O   UNL     1      -8.058   7.583  69.490  1.00  0.00    -0.123 OA 
HETATM   27  H   UNL     1      -8.374   9.341  67.839  1.00  0.00     0.000 HD 
BRANCH  25  28
HETATM   28  C   UNL     1     -10.308   6.820  69.061  1.00  0.00    -0.212 C  
BRANCH  28  29
HETATM   29  C   UNL     1      -9.996   5.344  68.938  1.00  0.00    -0.247 A  
HETATM   30  C   UNL     1      -9.841   4.697  67.691  1.00  0.00    -0.194 A  
HETATM   31  C   UNL     1      -9.542   3.320  67.684  1.00  0.00    -0.136 A  
HETATM   32  C   UNL     1      -9.821   4.598  70.123  1.00  0.00    -0.306 A  
HETATM   33  C   UNL     1      -9.368   2.601  68.866  1.00  0.00    -0.223 A  
HETATM   34  C   UNL     1      -9.515   3.239  70.088  1.00  0.00    -0.233 A  
BRANCH  30  35
HETATM   35  C   UNL     1     -10.049   5.413  66.369  1.00  0.00    -0.204 C  
HETATM   36  N   UNL     1     -11.166   4.868  65.598  1.00  0.00    -0.929 NA 
HETATM   37  H1  UNL     1     -11.306   5.349  64.709  1.00  0.00     0.000 HD 
HETATM   38  H2  UNL     1     -12.024   4.864  66.151  1.00  0.00     0.000 HD 
ENDBRANCH  30  35
ENDBRANCH  28  29
ENDBRANCH  25  28
ENDBRANCH  10  24
TORSDOF 8
ENDMDL
MODEL       45
REMARK 921   NORMALIZED FREE ENERGY PREDICTED BY IDOCK:   -7.36 KCAL/MOL
REMARK 922        TOTAL FREE ENERGY PREDICTED BY IDOCK:  -11.62 KCAL/MOL
REMARK 923 INTER-LIGAND FREE ENERGY PREDICTED BY IDOCK:  -10.39 KCAL/MOL
REMARK 924 INTRA-LIGAND FREE ENERGY PREDICTED BY IDOCK:   -1.23 KCAL/MOL
REMARK 927      BINDING AFFINITY PREDICTED BY RF-SCORE:    0.00 PKD
ROOT
HETATM    1  C   UNL     1     -11.413  14.367  67.678  1.00  0.00    -0.346 C  
HETATM    2  S   UNL     1     -10.505  12.822  67.463  1.00  0.00    -0.220 SA 
HETATM    3  C   UNL     1     -11.651  11.854  68.469  1.00  0.00    -0.318 C  
HETATM    4  C   UNL     1     -12.072  12.509  69.780  1.00  0.00    -0.293 C  
HETATM    5  O   UNL     1     -11.701  15.522  71.812  1.00  0.00    -0.352 OA 
HETATM    6  CA  UNL     1     -11.919  13.838  70.057  1.00  0.00    -0.338 C  
HETATM    7  N   UNL     1     -11.437  14.678  69.093  1.00  0.00    -0.277 N  
HETATM    8  O   UNL     1     -10.621  16.713  69.850  1.00  0.00    -0.275 OA 
HETATM    9  C   UNL     1     -12.289  14.380  71.422  1.00  0.00    -0.360 C  
HETATM   10  CA  UNL     1     -10.621  15.700  67.472  1.00  0.00    -0.297 C  
HETATM   11  OXT UNL     1     -13.093  13.829  72.156  1.00  0.00    -0.376 OA 
HETATM   12  C   UNL     1     -10.876  15.897  68.995  1.00  0.00    -0.266 C  
ENDROOT
BRANCH   4  13
HETATM   13  C   UNL     1     -12.551  11.460  70.783  1.00  0.00    -0.316 C  
BRANCH  13  14
HETATM   14  S   UNL     1     -11.361  10.079  70.923  1.00  0.00    -0.344 SA 
BRANCH  14  15
HETATM   15  C   UNL     1     -12.457   8.792  71.296  1.00  0.00    -0.260 A  
HETATM   16  N   UNL     1     -13.732   8.932  71.582  1.00  0.00    -0.394 NA 
HETATM   17  N   UNL     1     -12.147   7.459  71.327  1.00  0.00    -0.315 NA 
HETATM   18  N   UNL     1     -14.225   7.664  71.755  1.00  0.00    -0.421 NA 
HETATM   19  N   UNL     1     -13.278   6.758  71.568  1.00  0.00    -0.236 NA 
BRANCH  17  20
HETATM   20  C   UNL     1     -10.913   6.776  71.008  1.00  0.00    -0.255 C  
HETATM   21  O   UNL     1     -11.710   6.276  68.740  1.00  0.00     0.007 OA 
HETATM   22  C   UNL     1     -10.931   5.900  69.775  1.00  0.00    -0.382 C  
HETATM   23  O   UNL     1     -10.194   4.925  69.675  1.00  0.00    -0.243 OA 
ENDBRANCH  17  20
ENDBRANCH  14  15
ENDBRANCH  13  14
ENDBRANCH   4  13
BRANCH  10  24
HETATM   24  N   UNL     1      -9.202  15.619  67.058  1.00  0.00    -0.213 N  
HETATM   25  C   UNL     1      -8.333  16.667  66.914  1.00  0.00    -0.210 C  
HETATM   26  O   UNL     1      -7.196  16.448  66.496  1.00  0.00    -0.213 OA 
HETATM   27  H   UNL     1      -8.834  14.688  66.862  1.00  0.00     0.000 HD 
BRANCH  25  28
HETATM   28  C   UNL     1      -8.814  18.068  67.262  1.00  0.00    -0.247 C  
BRANCH  28  29
HETATM   29  C   UNL     1      -7.738  18.984  67.806  1.00  0.00    -0.273 A  
HETATM   30  C   UNL     1      -6.990  19.855  66.983  1.00  0.00    -0.242 A  
HETATM   31  C   UNL     1      -6.016  20.676  67.588  1.00  0.00    -0.300 A  
HETATM   32  C   UNL     1      -7.505  18.987  69.198  1.00  0.00    -0.270 A  
HETATM   33  C   UNL     1      -5.804  20.667  68.966  1.00  0.00    -0.390 A  
HETATM   34  C   UNL     1      -6.544  19.816  69.772  1.00  0.00    -0.357 A  
BRANCH  30  35
HETATM   35  C   UNL     1      -7.149  19.891  65.475  1.00  0.00    -0.302 C  
HETATM   36  N   UNL     1      -6.366  18.857  64.797  1.00  0.00    -0.495 NA 
HETATM   37  H1  UNL     1      -6.472  18.880  63.782  1.00  0.00     0.000 HD 
HETATM   38  H2  UNL     1      -6.586  17.932  65.166  1.00  0.00     0.000 HD 
ENDBRANCH  30  35
ENDBRANCH  28  29
ENDBRANCH  25  28
ENDBRANCH  10  24
TORSDOF 8
ENDMDL
MODEL       46
REMARK 921   NORMALIZED FREE ENERGY PREDICTED BY IDOCK:   -7.33 KCAL/MOL
REMARK 922        TOTAL FREE ENERGY PREDICTED BY IDOCK:  -11.58 KCAL/MOL
REMARK 923 INTER-LIGAND FREE ENERGY PREDICTED BY IDOCK:  -10.85 KCAL/MOL
REMARK 924 INTRA-LIGAND FREE ENERGY PREDICTED BY IDOCK:   -0.73 KCAL/MOL
REMARK 927      BINDING AFFINITY PREDICTED BY RF-SCORE:    0.00 PKD
ROOT
HETATM    1  C   UNL     1     -10.513  14.729  68.715  1.00  0.00    -0.250 C  
HETATM    2  S   UNL     1      -8.873  15.307  69.197  1.00  0.00    -0.234 SA 
HETATM    3  C   UNL     1      -9.101  16.955  68.491  1.00  0.00    -0.257 C  
HETATM    4  C   UNL     1      -9.724  16.981  67.101  1.00  0.00    -0.259 C  
HETATM    5  O   UNL     1     -11.103  14.871  64.456  1.00  0.00    -0.327 OA 
HETATM    6  CA  UNL     1     -10.391  15.930  66.539  1.00  0.00    -0.300 C  
HETATM    7  N   UNL     1     -10.605  14.796  67.271  1.00  0.00    -0.269 N  
HETATM    8  O   UNL     1     -11.141  12.898  66.051  1.00  0.00    -0.273 OA 
HETATM    9  C   UNL     1     -10.901  16.023  65.116  1.00  0.00    -0.395 C  
HETATM   10  CA  UNL     1     -10.720  13.184  68.584  1.00  0.00    -0.250 C  
HETATM   11  OXT UNL     1     -11.138  17.086  64.566  1.00  0.00    -1.098 OA 
HETATM   12  C   UNL     1     -10.915  13.502  67.073  1.00  0.00    -0.288 C  
ENDROOT
BRANCH   4  13
HETATM   13  C   UNL     1      -9.378  18.281  66.374  1.00  0.00    -0.273 C  
BRANCH  13  14
HETATM   14  S   UNL     1      -9.505  19.723  67.489  1.00  0.00    -0.363 SA 
BRANCH  14  15
HETATM   15  C   UNL     1      -7.848  19.864  67.968  1.00  0.00    -0.282 A  
HETATM   16  N   UNL     1      -7.385  19.688  69.185  1.00  0.00    -0.346 NA 
HETATM   17  N   UNL     1      -6.797  20.160  67.141  1.00  0.00    -0.223 NA 
HETATM   18  N   UNL     1      -6.025  19.840  69.101  1.00  0.00    -0.251 NA 
HETATM   19  N   UNL     1      -5.652  20.093  67.857  1.00  0.00    -0.194 NA 
BRANCH  17  20
HETATM   20  C   UNL     1      -6.758  20.358  65.709  1.00  0.00    -0.240 C  
HETATM   21  O   UNL     1      -6.161  18.005  65.343  1.00  0.00    -0.209 OA 
HETATM   22  C   UNL     1      -6.077  19.277  64.901  1.00  0.00    -0.278 C  
HETATM   23  O   UNL     1      -5.539  19.526  63.827  1.00  0.00    -0.255 OA 
ENDBRANCH  17  20
ENDBRANCH  14  15
ENDBRANCH  13  14
ENDBRANCH   4  13
BRANCH  10  24
HETATM   24  N   UNL     1      -9.586  12.291  68.917  1.00  0.00    -0.406 N  
HETATM   25  C   UNL     1      -9.651  10.944  69.154  1.00  0.00    -0.106 C  
HETATM   26  O   UNL     1      -8.628  10.346  69.486  1.00  0.00    -0.159 OA 
HETATM   27  H   UNL     1      -8.664  12.723  68.976  1.00  0.00     0.000 HD 
BRANCH  25  28
HETATM   28  C   UNL     1     -10.992  10.241  69.011  1.00  0.00    -0.274 C  
BRANCH  28  29
HETATM   29  C   UNL     1     -11.482   9.561  70.271  1.00  0.00    -0.256 A  
HETATM   30  C   UNL     1     -12.294  10.215  71.225  1.00  0.00    -0.501 A  
HETATM   31  C   UNL     1     -12.706   9.491  72.363  1.00  0.00    -0.313 A  
HETATM   32  C   UNL     1     -11.138   8.208  70.477  1.00  0.00    -0.257 A  
HETATM   33  C   UNL     1     -12.359   8.153  72.545  1.00  0.00    -0.296 A  
HETATM   34  C   UNL     1     -11.568   7.512  71.605  1.00  0.00    -0.299 A  
BRANCH  30  35
HETATM   35  C   UNL     1     -12.679  11.677  71.103  1.00  0.00    -0.325 C  
HETATM   36  N   UNL     1     -13.300  12.204  72.319  1.00  0.00    -0.542 NA 
HETATM   37  H1  UNL     1     -13.560  13.188  72.237  1.00  0.00     0.000 HD 
HETATM   38  H2  UNL     1     -12.701  12.050  73.131  1.00  0.00     0.000 HD 
ENDBRANCH  30  35
ENDBRANCH  28  29
ENDBRANCH  25  28
ENDBRANCH  10  24
TORSDOF 8
ENDMDL
MODEL       47
REMARK 921   NORMALIZED FREE ENERGY PREDICTED BY IDOCK:   -7.31 KCAL/MOL
REMARK 922        TOTAL FREE ENERGY PREDICTED BY IDOCK:  -11.55 KCAL/MOL
REMARK 923 INTER-LIGAND FREE ENERGY PREDICTED BY IDOCK:  -10.19 KCAL/MOL
REMARK 924 INTRA-LIGAND FREE ENERGY PREDICTED BY IDOCK:   -1.36 KCAL/MOL
REMARK 927      BINDING AFFINITY PREDICTED BY RF-SCORE:    0.00 PKD
ROOT
HETATM    1  C   UNL     1      -9.710  10.934  67.443  1.00  0.00    -0.168 C  
HETATM    2  S   UNL     1     -10.348  11.109  65.764  1.00  0.00    -0.255 SA 
HETATM    3  C   UNL     1     -10.339  12.915  65.806  1.00  0.00    -0.284 C  
HETATM    4  C   UNL     1     -10.898  13.534  67.082  1.00  0.00    -0.291 C  
HETATM    5  O   UNL     1     -12.297  12.746  70.364  1.00  0.00    -0.318 OA 
HETATM    6  CA  UNL     1     -11.073  12.852  68.252  1.00  0.00    -0.264 C  
HETATM    7  N   UNL     1     -10.655  11.554  68.348  1.00  0.00    -0.192 N  
HETATM    8  O   UNL     1     -11.567  10.331  70.095  1.00  0.00    -0.262 OA 
HETATM    9  C   UNL     1     -11.718  13.532  69.442  1.00  0.00    -0.325 C  
HETATM   10  CA  UNL     1      -9.995   9.586  68.183  1.00  0.00    -0.165 C  
HETATM   11  OXT UNL     1     -11.718  14.743  69.591  1.00  0.00    -0.278 OA 
HETATM   12  C   UNL     1     -10.866  10.473  69.121  1.00  0.00    -0.237 C  
ENDROOT
BRANCH   4  13
HETATM   13  C   UNL     1     -11.366  14.967  66.831  1.00  0.00    -0.302 C  
BRANCH  13  14
HETATM   14  S   UNL     1     -10.310  15.808  65.598  1.00  0.00    -0.409 SA 
BRANCH  14  15
HETATM   15  C   UNL     1     -10.463  17.440  66.154  1.00  0.00    -0.284 A  
HETATM   16  N   UNL     1     -10.875  18.458  65.434  1.00  0.00    -0.501 NA 
HETATM   17  N   UNL     1     -10.190  17.883  67.420  1.00  0.00    -0.344 NA 
HETATM   18  N   UNL     1     -10.894  19.539  66.277  1.00  0.00    -0.384 NA 
HETATM   19  N   UNL     1     -10.512  19.195  67.497  1.00  0.00    -0.428 NA 
BRANCH  17  20
HETATM   20  C   UNL     1      -9.791  17.155  68.603  1.00  0.00    -0.300 C  
HETATM   21  O   UNL     1      -7.417  17.459  68.059  1.00  0.00    -0.190 OA 
HETATM   22  C   UNL     1      -8.353  16.689  68.650  1.00  0.00    -0.246 C  
HETATM   23  O   UNL     1      -8.026  15.691  69.284  1.00  0.00    -0.210 OA 
ENDBRANCH  17  20
ENDBRANCH  14  15
ENDBRANCH  13  14
ENDBRANCH   4  13
BRANCH  10  24
HETATM   24  N   UNL     1     -10.715   8.519  67.450  1.00  0.00    -0.465 N  
HETATM   25  C   UNL     1     -10.656   7.175  67.701  1.00  0.00    -0.248 C  
HETATM   26  O   UNL     1     -11.261   6.401  66.960  1.00  0.00    -0.373 OA 
HETATM   27  H   UNL     1     -11.315   8.816  66.680  1.00  0.00     0.000 HD 
BRANCH  25  28
HETATM   28  C   UNL     1      -9.829   6.688  68.881  1.00  0.00    -0.143 C  
BRANCH  28  29
HETATM   29  C   UNL     1     -10.431   6.989  70.237  1.00  0.00    -0.227 A  
HETATM   30  C   UNL     1      -9.710   7.635  71.266  1.00  0.00    -0.176 A  
HETATM   31  C   UNL     1     -10.364   7.880  72.491  1.00  0.00    -0.349 A  
HETATM   32  C   UNL     1     -11.780   6.640  70.461  1.00  0.00    -0.453 A  
HETATM   33  C   UNL     1     -11.699   7.530  72.691  1.00  0.00    -0.279 A  
HETATM   34  C   UNL     1     -12.406   6.903  71.678  1.00  0.00    -0.413 A  
BRANCH  30  35
HETATM   35  C   UNL     1      -8.247   8.011  71.125  1.00  0.00    -0.106 C  
HETATM   36  N   UNL     1      -8.023   9.456  71.185  1.00  0.00    -0.319 NA 
HETATM   37  H1  UNL     1      -7.039   9.710  71.090  1.00  0.00     0.000 HD 
HETATM   38  H2  UNL     1      -8.422   9.852  72.038  1.00  0.00     0.000 HD 
ENDBRANCH  30  35
ENDBRANCH  28  29
ENDBRANCH  25  28
ENDBRANCH  10  24
TORSDOF 8
ENDMDL
MODEL       48
REMARK 921   NORMALIZED FREE ENERGY PREDICTED BY IDOCK:   -7.28 KCAL/MOL
REMARK 922        TOTAL FREE ENERGY PREDICTED BY IDOCK:  -11.51 KCAL/MOL
REMARK 923 INTER-LIGAND FREE ENERGY PREDICTED BY IDOCK:  -10.66 KCAL/MOL
REMARK 924 INTRA-LIGAND FREE ENERGY PREDICTED BY IDOCK:   -0.85 KCAL/MOL
REMARK 927      BINDING AFFINITY PREDICTED BY RF-SCORE:    0.00 PKD
ROOT
HETATM    1  C   UNL     1      -9.873  10.243  69.154  1.00  0.00    -0.216 C  
HETATM    2  S   UNL     1     -10.114  10.227  67.366  1.00  0.00    -0.214 SA 
HETATM    3  C   UNL     1     -10.157  12.027  67.222  1.00  0.00    -0.194 C  
HETATM    4  C   UNL     1     -11.008  12.738  68.267  1.00  0.00    -0.278 C  
HETATM    5  O   UNL     1     -13.102  12.203  71.213  1.00  0.00    -0.280 OA 
HETATM    6  CA  UNL     1     -11.430  12.164  69.432  1.00  0.00    -0.290 C  
HETATM    7  N   UNL     1     -11.015  10.902  69.753  1.00  0.00    -0.250 N  
HETATM    8  O   UNL     1     -12.272   9.811  71.367  1.00  0.00    -0.342 OA 
HETATM    9  C   UNL     1     -12.346  12.924  70.369  1.00  0.00    -0.258 C  
HETATM   10  CA  UNL     1     -10.288   8.961  69.947  1.00  0.00    -0.206 C  
HETATM   11  OXT UNL     1     -12.409  14.143  70.388  1.00  0.00    -0.319 OA 
HETATM   12  C   UNL     1     -11.371   9.892  70.567  1.00  0.00    -0.327 C  
ENDROOT
BRANCH   4  13
HETATM   13  C   UNL     1     -11.440  14.118  67.770  1.00  0.00    -0.325 C  
BRANCH  13  14
HETATM   14  S   UNL     1      -9.998  15.202  67.474  1.00  0.00    -0.226 SA 
BRANCH  14  15
HETATM   15  C   UNL     1     -10.559  16.050  66.074  1.00  0.00    -0.316 A  
HETATM   16  N   UNL     1     -11.121  15.502  65.021  1.00  0.00    -0.404 NA 
HETATM   17  N   UNL     1     -10.508  17.406  65.884  1.00  0.00    -0.487 NA 
HETATM   18  N   UNL     1     -11.456  16.536  64.185  1.00  0.00    -1.092 NA 
HETATM   19  N   UNL     1     -11.119  17.702  64.714  1.00  0.00    -0.717 NA 
BRANCH  17  20
HETATM   20  C   UNL     1     -10.066  18.460  66.769  1.00  0.00    -0.373 C  
HETATM   21  O   UNL     1      -7.826  18.442  65.764  1.00  0.00    -0.510 OA 
HETATM   22  C   UNL     1      -8.572  18.673  66.864  1.00  0.00    -0.281 C  
HETATM   23  O   UNL     1      -8.055  19.129  67.879  1.00  0.00    -0.274 OA 
ENDBRANCH  17  20
ENDBRANCH  14  15
ENDBRANCH  13  14
ENDBRANCH   4  13
BRANCH  10  24
HETATM   24  N   UNL     1     -10.795   7.796  69.185  1.00  0.00    -0.410 N  
HETATM   25  C   UNL     1     -10.446   6.485  69.372  1.00  0.00    -0.221 C  
HETATM   26  O   UNL     1     -10.903   5.631  68.612  1.00  0.00    -0.225 OA 
HETATM   27  H   UNL     1     -11.473   7.990  68.448  1.00  0.00     0.000 HD 
BRANCH  25  28
HETATM   28  C   UNL     1      -9.492   6.137  70.503  1.00  0.00    -0.182 C  
BRANCH  28  29
HETATM   29  C   UNL     1      -9.335   4.653  70.758  1.00  0.00    -0.215 A  
HETATM   30  C   UNL     1      -9.917   4.003  71.870  1.00  0.00    -0.246 A  
HETATM   31  C   UNL     1      -9.720   2.614  72.013  1.00  0.00    -0.216 A  
HETATM   32  C   UNL     1      -8.605   3.888  69.823  1.00  0.00    -0.104 A  
HETATM   33  C   UNL     1      -8.999   1.876  71.075  1.00  0.00    -0.134 A  
HETATM   34  C   UNL     1      -8.434   2.515  69.982  1.00  0.00    -0.088 A  
BRANCH  30  35
HETATM   35  C   UNL     1     -10.685   4.752  72.943  1.00  0.00    -0.232 C  
HETATM   36  N   UNL     1     -10.794   4.000  74.193  1.00  0.00    -0.211 NA 
HETATM   37  H1  UNL     1     -11.310   4.504  74.915  1.00  0.00     0.000 HD 
HETATM   38  H2  UNL     1      -9.873   3.719  74.531  1.00  0.00     0.000 HD 
ENDBRANCH  30  35
ENDBRANCH  28  29
ENDBRANCH  25  28
ENDBRANCH  10  24
TORSDOF 8
ENDMDL
MODEL       49
REMARK 921   NORMALIZED FREE ENERGY PREDICTED BY IDOCK:   -7.25 KCAL/MOL
REMARK 922        TOTAL FREE ENERGY PREDICTED BY IDOCK:  -11.47 KCAL/MOL
REMARK 923 INTER-LIGAND FREE ENERGY PREDICTED BY IDOCK:   -9.99 KCAL/MOL
REMARK 924 INTRA-LIGAND FREE ENERGY PREDICTED BY IDOCK:   -1.48 KCAL/MOL
REMARK 927      BINDING AFFINITY PREDICTED BY RF-SCORE:    0.00 PKD
ROOT
HETATM    1  C   UNL     1     -11.304  10.666  69.089  1.00  0.00    -0.273 C  
HETATM    2  S   UNL     1     -12.044  11.596  70.447  1.00  0.00    -0.330 SA 
HETATM    3  C   UNL     1     -12.354  13.067  69.446  1.00  0.00     0.027 C  
HETATM    4  C   UNL     1     -11.198  13.494  68.549  1.00  0.00    -0.310 C  
HETATM    5  O   UNL     1      -7.812  12.610  67.496  1.00  0.00    -0.152 OA 
HETATM    6  CA  UNL     1     -10.143  12.689  68.222  1.00  0.00    -0.233 C  
HETATM    7  N   UNL     1     -10.132  11.388  68.638  1.00  0.00    -0.209 N  
HETATM    8  O   UNL     1      -8.065  10.337  68.595  1.00  0.00    -0.102 OA 
HETATM    9  C   UNL     1      -8.998  13.232  67.393  1.00  0.00    -0.215 C  
HETATM   10  CA  UNL     1     -10.345   9.487  69.463  1.00  0.00    -0.217 C  
HETATM   11  OXT UNL     1      -9.118  14.189  66.645  1.00  0.00    -0.257 OA 
HETATM   12  C   UNL     1      -9.253  10.383  68.809  1.00  0.00    -0.172 C  
ENDROOT
BRANCH   4  13
HETATM   13  C   UNL     1     -11.306  14.976  68.190  1.00  0.00    -0.330 C  
BRANCH  13  14
HETATM   14  S   UNL     1     -10.899  16.041  69.619  1.00  0.00    -0.355 SA 
BRANCH  14  15
HETATM   15  C   UNL     1      -9.382  16.676  69.080  1.00  0.00    -0.227 A  
HETATM   16  N   UNL     1      -8.207  16.125  69.280  1.00  0.00    -0.227 NA 
HETATM   17  N   UNL     1      -9.206  17.828  68.360  1.00  0.00    -0.280 NA 
HETATM   18  N   UNL     1      -7.296  16.927  68.643  1.00  0.00    -0.210 NA 
HETATM   19  N   UNL     1      -7.895  17.948  68.050  1.00  0.00    -0.243 NA 
BRANCH  17  20
HETATM   20  C   UNL     1     -10.177  18.750  67.814  1.00  0.00    -0.394 C  
HETATM   21  O   UNL     1     -10.203  17.545  65.675  1.00  0.00    -0.595 OA 
HETATM   22  C   UNL     1     -10.356  18.724  66.313  1.00  0.00    -0.448 C  
HETATM   23  O   UNL     1     -10.719  19.720  65.697  1.00  0.00    -0.505 OA 
ENDBRANCH  17  20
ENDBRANCH  14  15
ENDBRANCH  13  14
ENDBRANCH   4  13
BRANCH  10  24
HETATM   24  N   UNL     1     -10.148   9.169  70.896  1.00  0.00    -0.263 N  
HETATM   25  C   UNL     1     -10.697   8.117  71.580  1.00  0.00    -0.241 C  
HETATM   26  O   UNL     1     -10.494   8.021  72.791  1.00  0.00    -0.307 OA 
HETATM   27  H   UNL     1      -9.542   9.795  71.426  1.00  0.00     0.000 HD 
BRANCH  25  28
HETATM   28  C   UNL     1     -11.553   7.117  70.819  1.00  0.00    -0.358 C  
BRANCH  28  29
HETATM   29  C   UNL     1     -10.809   5.886  70.346  1.00  0.00    -0.378 A  
HETATM   30  C   UNL     1     -10.544   5.631  68.982  1.00  0.00    -0.316 A  
HETATM   31  C   UNL     1      -9.834   4.461  68.645  1.00  0.00    -0.141 A  
HETATM   32  C   UNL     1     -10.332   4.980  71.317  1.00  0.00    -0.255 A  
HETATM   33  C   UNL     1      -9.369   3.579  69.619  1.00  0.00    -0.244 A  
HETATM   34  C   UNL     1      -9.624   3.835  70.958  1.00  0.00    -0.249 A  
BRANCH  30  35
HETATM   35  C   UNL     1     -11.051   6.531  67.870  1.00  0.00    -0.255 C  
HETATM   36  N   UNL     1     -11.020   5.885  66.558  1.00  0.00    -0.725 NA 
HETATM   37  H1  UNL     1     -11.361   6.491  65.810  1.00  0.00     0.000 HD 
HETATM   38  H2  UNL     1     -11.531   5.002  66.574  1.00  0.00     0.000 HD 
ENDBRANCH  30  35
ENDBRANCH  28  29
ENDBRANCH  25  28
ENDBRANCH  10  24
TORSDOF 8
ENDMDL
MODEL       50
REMARK 921   NORMALIZED FREE ENERGY PREDICTED BY IDOCK:   -7.25 KCAL/MOL
REMARK 922        TOTAL FREE ENERGY PREDICTED BY IDOCK:  -11.46 KCAL/MOL
REMARK 923 INTER-LIGAND FREE ENERGY PREDICTED BY IDOCK:   -9.90 KCAL/MOL
REMARK 924 INTRA-LIGAND FREE ENERGY PREDICTED BY IDOCK:   -1.57 KCAL/MOL
REMARK 927      BINDING AFFINITY PREDICTED BY RF-SCORE:    0.00 PKD
ROOT
HETATM    1  C   UNL     1     -11.300  10.294  67.716  1.00  0.00    -0.059 C  
HETATM    2  S   UNL     1     -10.680  11.136  69.187  1.00  0.00    -0.204 SA 
HETATM    3  C   UNL     1     -11.558  12.676  68.838  1.00  0.00    -0.317 C  
HETATM    4  C   UNL     1     -11.478  13.152  67.393  1.00  0.00    -0.375 C  
HETATM    5  O   UNL     1     -10.166  12.310  64.088  1.00  0.00    -0.328 OA 
HETATM    6  CA  UNL     1     -11.100  12.362  66.344  1.00  0.00    -0.301 C  
HETATM    7  N   UNL     1     -10.851  11.034  66.555  1.00  0.00    -0.243 N  
HETATM    8  O   UNL     1      -9.621   9.969  64.902  1.00  0.00    -0.273 OA 
HETATM    9  C   UNL     1     -10.968  12.949  64.955  1.00  0.00    -0.297 C  
HETATM   10  CA  UNL     1     -10.468   9.084  67.177  1.00  0.00    -0.263 C  
HETATM   11  OXT UNL     1     -11.562  13.955  64.603  1.00  0.00    -0.354 OA 
HETATM   12  C   UNL     1     -10.216  10.012  65.953  1.00  0.00    -0.205 C  
ENDROOT
BRANCH   4  13
HETATM   13  C   UNL     1     -11.736  14.656  67.300  1.00  0.00    -0.385 C  
BRANCH  13  14
HETATM   14  S   UNL     1     -11.725  15.438  68.952  1.00  0.00    -0.342 SA 
BRANCH  14  15
HETATM   15  C   UNL     1     -10.146  16.146  68.924  1.00  0.00    -0.238 A  
HETATM   16  N   UNL     1      -9.047  15.585  69.374  1.00  0.00    -0.273 NA 
HETATM   17  N   UNL     1      -9.829  17.377  68.414  1.00  0.00    -0.298 NA 
HETATM   18  N   UNL     1      -8.031  16.465  69.105  1.00  0.00    -0.233 NA 
HETATM   19  N   UNL     1      -8.489  17.544  68.490  1.00  0.00    -0.278 NA 
BRANCH  17  20
HETATM   20  C   UNL     1     -10.653  18.350  67.732  1.00  0.00    -0.391 C  
HETATM   21  O   UNL     1     -10.144  17.338  65.554  1.00  0.00    -0.581 OA 
HETATM   22  C   UNL     1     -10.464  18.458  66.236  1.00  0.00    -0.393 C  
HETATM   23  O   UNL     1     -10.683  19.506  65.639  1.00  0.00    -0.491 OA 
ENDBRANCH  17  20
ENDBRANCH  14  15
ENDBRANCH  13  14
ENDBRANCH   4  13
BRANCH  10  24
HETATM   24  N   UNL     1      -9.264   8.666  67.931  1.00  0.00    -0.139 N  
HETATM   25  C   UNL     1      -9.126   7.529  68.681  1.00  0.00    -0.134 C  
HETATM   26  O   UNL     1      -8.082   7.350  69.309  1.00  0.00    -0.119 OA 
HETATM   27  H   UNL     1      -8.456   9.287  67.888  1.00  0.00     0.000 HD 
BRANCH  25  28
HETATM   28  C   UNL     1     -10.278   6.536  68.723  1.00  0.00    -0.194 C  
BRANCH  28  29
HETATM   29  C   UNL     1     -10.685   6.105  70.115  1.00  0.00    -0.366 A  
HETATM   30  C   UNL     1     -10.060   5.037  70.797  1.00  0.00    -0.307 A  
HETATM   31  C   UNL     1     -10.506   4.719  72.096  1.00  0.00    -0.243 A  
HETATM   32  C   UNL     1     -11.709   6.827  70.766  1.00  0.00    -0.439 A  
HETATM   33  C   UNL     1     -11.516   5.447  72.723  1.00  0.00    -0.333 A  
HETATM   34  C   UNL     1     -12.124   6.498  72.054  1.00  0.00    -0.358 A  
BRANCH  30  35
HETATM   35  C   UNL     1      -8.978   4.184  70.161  1.00  0.00    -0.090 C  
HETATM   36  N   UNL     1      -7.631   4.565  70.585  1.00  0.00    -0.052 NA 
HETATM   37  H1  UNL     1      -6.903   3.991  70.157  1.00  0.00     0.000 HD 
HETATM   38  H2  UNL     1      -7.552   4.555  71.602  1.00  0.00     0.000 HD 
ENDBRANCH  30  35
ENDBRANCH  28  29
ENDBRANCH  25  28
ENDBRANCH  10  24
TORSDOF 8
ENDMDL
MODEL       51
REMARK 921   NORMALIZED FREE ENERGY PREDICTED BY IDOCK:   -7.25 KCAL/MOL
REMARK 922        TOTAL FREE ENERGY PREDICTED BY IDOCK:  -11.46 KCAL/MOL
REMARK 923 INTER-LIGAND FREE ENERGY PREDICTED BY IDOCK:  -10.08 KCAL/MOL
REMARK 924 INTRA-LIGAND FREE ENERGY PREDICTED BY IDOCK:   -1.37 KCAL/MOL
REMARK 927      BINDING AFFINITY PREDICTED BY RF-SCORE:    0.00 PKD
ROOT
HETATM    1  C   UNL     1     -11.647  14.546  68.475  1.00  0.00    -0.313 C  
HETATM    2  S   UNL     1     -10.366  15.289  69.506  1.00  0.00    -0.260 SA 
HETATM    3  C   UNL     1     -10.523  16.924  68.754  1.00  0.00    -0.343 C  
HETATM    4  C   UNL     1     -10.610  16.930  67.233  1.00  0.00    -0.270 C  
HETATM    5  O   UNL     1     -10.698  14.772  64.285  1.00  0.00    -0.045 OA 
HETATM    6  CA  UNL     1     -10.904  15.830  66.477  1.00  0.00    -0.230 C  
HETATM    7  N   UNL     1     -11.227  14.654  67.093  1.00  0.00    -0.333 N  
HETATM    8  O   UNL     1     -11.066  12.752  65.775  1.00  0.00    -0.275 OA 
HETATM    9  C   UNL     1     -10.882  15.915  64.965  1.00  0.00    -0.426 C  
HETATM   10  CA  UNL     1     -11.609  12.993  68.290  1.00  0.00    -0.340 C  
HETATM   11  OXT UNL     1     -11.033  16.964  64.360  1.00  0.00    -1.016 OA 
HETATM   12  C   UNL     1     -11.291  13.341  66.806  1.00  0.00    -0.327 C  
ENDROOT
BRANCH   4  13
HETATM   13  C   UNL     1     -10.185  18.285  66.668  1.00  0.00    -0.384 C  
BRANCH  13  14
HETATM   14  S   UNL     1      -9.955  19.519  67.997  1.00  0.00    -0.431 SA 
BRANCH  14  15
HETATM   15  C   UNL     1      -8.328  20.003  67.662  1.00  0.00    -0.319 A  
HETATM   16  N   UNL     1      -7.966  21.124  67.081  1.00  0.00    -0.163 NA 
HETATM   17  N   UNL     1      -7.200  19.290  67.972  1.00  0.00    -0.252 NA 
HETATM   18  N   UNL     1      -6.596  21.121  67.065  1.00  0.00    -0.395 NA 
HETATM   19  N   UNL     1      -6.117  20.027  67.636  1.00  0.00    -0.193 NA 
BRANCH  17  20
HETATM   20  C   UNL     1      -7.047  18.043  68.687  1.00  0.00    -0.267 C  
HETATM   21  O   UNL     1      -6.304  16.899  66.646  1.00  0.00    -0.193 OA 
HETATM   22  C   UNL     1      -6.922  16.796  67.841  1.00  0.00    -0.144 C  
HETATM   23  O   UNL     1      -7.286  15.702  68.259  1.00  0.00    -0.111 OA 
ENDBRANCH  17  20
ENDBRANCH  14  15
ENDBRANCH  13  14
ENDBRANCH   4  13
BRANCH  10  24
HETATM   24  N   UNL     1     -10.570  12.224  69.012  1.00  0.00    -0.409 N  
HETATM   25  C   UNL     1     -10.311  10.885  68.885  1.00  0.00    -0.204 C  
HETATM   26  O   UNL     1      -9.455  10.371  69.605  1.00  0.00    -0.187 OA 
HETATM   27  H   UNL     1      -9.989  12.743  69.670  1.00  0.00     0.000 HD 
BRANCH  25  28
HETATM   28  C   UNL     1     -11.105  10.081  67.867  1.00  0.00    -0.260 C  
BRANCH  28  29
HETATM   29  C   UNL     1     -10.361   8.898  67.284  1.00  0.00    -0.350 A  
HETATM   30  C   UNL     1      -9.501   9.011  66.168  1.00  0.00    -0.318 A  
HETATM   31  C   UNL     1      -8.847   7.852  65.706  1.00  0.00    -0.155 A  
HETATM   32  C   UNL     1     -10.511   7.641  67.908  1.00  0.00    -0.270 A  
HETATM   33  C   UNL     1      -9.005   6.619  66.339  1.00  0.00    -0.161 A  
HETATM   34  C   UNL     1      -9.844   6.512  67.437  1.00  0.00    -0.163 A  
BRANCH  30  35
HETATM   35  C   UNL     1      -9.310  10.315  65.415  1.00  0.00    -0.207 C  
HETATM   36  N   UNL     1     -10.256  10.476  64.310  1.00  0.00    -0.370 NA 
HETATM   37  H1  UNL     1     -10.128  11.352  63.803  1.00  0.00     0.000 HD 
HETATM   38  H2  UNL     1     -11.218  10.380  64.636  1.00  0.00     0.000 HD 
ENDBRANCH  30  35
ENDBRANCH  28  29
ENDBRANCH  25  28
ENDBRANCH  10  24
TORSDOF 8
ENDMDL
MODEL       52
REMARK 921   NORMALIZED FREE ENERGY PREDICTED BY IDOCK:   -7.24 KCAL/MOL
REMARK 922        TOTAL FREE ENERGY PREDICTED BY IDOCK:  -11.45 KCAL/MOL
REMARK 923 INTER-LIGAND FREE ENERGY PREDICTED BY IDOCK:  -10.32 KCAL/MOL
REMARK 924 INTRA-LIGAND FREE ENERGY PREDICTED BY IDOCK:   -1.13 KCAL/MOL
REMARK 927      BINDING AFFINITY PREDICTED BY RF-SCORE:    0.00 PKD
ROOT
HETATM    1  C   UNL     1     -10.634  10.452  69.049  1.00  0.00    -0.221 C  
HETATM    2  S   UNL     1      -9.064   9.864  69.716  1.00  0.00    -0.204 SA 
HETATM    3  C   UNL     1      -9.808   8.477  70.603  1.00  0.00    -0.186 C  
HETATM    4  C   UNL     1     -11.078   8.812  71.376  1.00  0.00    -0.361 C  
HETATM    5  O   UNL     1     -13.427  11.502  72.148  1.00  0.00    -0.410 OA 
HETATM    6  CA  UNL     1     -11.827   9.936  71.172  1.00  0.00    -0.386 C  
HETATM    7  N   UNL     1     -11.492  10.797  70.164  1.00  0.00    -0.312 N  
HETATM    8  O   UNL     1     -12.395  12.927  70.321  1.00  0.00    -0.299 OA 
HETATM    9  C   UNL     1     -13.026  10.224  72.050  1.00  0.00    -0.402 C  
HETATM   10  CA  UNL     1     -10.714  11.953  68.617  1.00  0.00    -0.235 C  
HETATM   11  OXT UNL     1     -13.632   9.350  72.649  1.00  0.00    -0.425 OA 
HETATM   12  C   UNL     1     -11.721  12.071  69.798  1.00  0.00    -0.319 C  
ENDROOT
BRANCH   4  13
HETATM   13  C   UNL     1     -11.315   7.801  72.497  1.00  0.00    -0.374 C  
BRANCH  13  14
HETATM   14  S   UNL     1      -9.738   7.157  73.160  1.00  0.00    -0.216 SA 
BRANCH  14  15
HETATM   15  C   UNL     1     -10.122   5.470  73.227  1.00  0.00    -0.184 A  
HETATM   16  N   UNL     1     -10.817   4.880  74.172  1.00  0.00    -0.319 NA 
HETATM   17  N   UNL     1      -9.767   4.530  72.296  1.00  0.00    -0.156 NA 
HETATM   18  N   UNL     1     -10.925   3.565  73.802  1.00  0.00    -0.228 NA 
HETATM   19  N   UNL     1     -10.320   3.347  72.645  1.00  0.00    -0.161 NA 
BRANCH  17  20
HETATM   20  C   UNL     1      -9.076   4.675  71.035  1.00  0.00    -0.132 C  
HETATM   21  O   UNL     1     -11.123   5.473  69.940  1.00  0.00    -0.260 OA 
HETATM   22  C   UNL     1      -9.946   4.828  69.807  1.00  0.00    -0.238 C  
HETATM   23  O   UNL     1      -9.560   4.461  68.702  1.00  0.00    -0.150 OA 
ENDBRANCH  17  20
ENDBRANCH  14  15
ENDBRANCH  13  14
ENDBRANCH   4  13
BRANCH  10  24
HETATM   24  N   UNL     1      -9.491  12.782  68.724  1.00  0.00    -0.410 N  
HETATM   25  C   UNL     1      -9.413  14.141  68.578  1.00  0.00    -0.202 C  
HETATM   26  O   UNL     1      -8.309  14.685  68.628  1.00  0.00    -0.155 OA 
HETATM   27  H   UNL     1      -8.620  12.292  68.927  1.00  0.00     0.000 HD 
BRANCH  25  28
HETATM   28  C   UNL     1     -10.693  14.927  68.342  1.00  0.00    -0.245 C  
BRANCH  28  29
HETATM   29  C   UNL     1     -11.180  14.918  66.909  1.00  0.00    -0.343 A  
HETATM   30  C   UNL     1     -10.684  15.807  65.928  1.00  0.00    -0.320 A  
HETATM   31  C   UNL     1     -11.196  15.712  64.618  1.00  0.00    -0.380 A  
HETATM   32  C   UNL     1     -12.145  13.957  66.537  1.00  0.00    -0.484 A  
HETATM   33  C   UNL     1     -12.145  14.753  64.270  1.00  0.00    -0.415 A  
HETATM   34  C   UNL     1     -12.626  13.878  65.232  1.00  0.00    -0.508 A  
BRANCH  30  35
HETATM   35  C   UNL     1      -9.676  16.894  66.249  1.00  0.00    -0.280 C  
HETATM   36  N   UNL     1      -8.298  16.493  65.963  1.00  0.00    -0.395 NA 
HETATM   37  H1  UNL     1      -7.619  17.225  66.178  1.00  0.00     0.000 HD 
HETATM   38  H2  UNL     1      -8.202  16.179  64.996  1.00  0.00     0.000 HD 
ENDBRANCH  30  35
ENDBRANCH  28  29
ENDBRANCH  25  28
ENDBRANCH  10  24
TORSDOF 8
ENDMDL
MODEL       53
REMARK 921   NORMALIZED FREE ENERGY PREDICTED BY IDOCK:   -7.23 KCAL/MOL
REMARK 922        TOTAL FREE ENERGY PREDICTED BY IDOCK:  -11.43 KCAL/MOL
REMARK 923 INTER-LIGAND FREE ENERGY PREDICTED BY IDOCK:  -10.07 KCAL/MOL
REMARK 924 INTRA-LIGAND FREE ENERGY PREDICTED BY IDOCK:   -1.36 KCAL/MOL
REMARK 927      BINDING AFFINITY PREDICTED BY RF-SCORE:    0.00 PKD
ROOT
HETATM    1  C   UNL     1     -10.300  10.515  69.329  1.00  0.00    -0.227 C  
HETATM    2  S   UNL     1     -10.721  10.467  67.575  1.00  0.00    -0.291 SA 
HETATM    3  C   UNL     1     -10.765  12.265  67.400  1.00  0.00    -0.230 C  
HETATM    4  C   UNL     1     -11.500  13.004  68.512  1.00  0.00    -0.340 C  
HETATM    5  O   UNL     1     -13.288  12.546  71.665  1.00  0.00    -0.358 OA 
HETATM    6  CA  UNL     1     -11.806  12.456  69.725  1.00  0.00    -0.317 C  
HETATM    7  N   UNL     1     -11.370  11.197  70.028  1.00  0.00    -0.270 N  
HETATM    8  O   UNL     1     -12.466  10.148  71.782  1.00  0.00    -0.394 OA 
HETATM    9  C   UNL     1     -12.616  13.243  70.735  1.00  0.00    -0.280 C  
HETATM   10  CA  UNL     1     -10.643   9.252  70.185  1.00  0.00    -0.231 C  
HETATM   11  OXT UNL     1     -12.667  14.462  70.735  1.00  0.00    -0.331 OA 
HETATM   12  C   UNL     1     -11.650  10.205  70.893  1.00  0.00    -0.372 C  
ENDROOT
BRANCH   4  13
HETATM   13  C   UNL     1     -11.969  14.378  68.034  1.00  0.00    -0.291 C  
BRANCH  13  14
HETATM   14  S   UNL     1     -10.896  15.023  66.701  1.00  0.00    -0.319 SA 
BRANCH  14  15
HETATM   15  C   UNL     1      -9.637  15.724  67.660  1.00  0.00    -0.220 A  
HETATM   16  N   UNL     1      -8.509  15.138  67.988  1.00  0.00    -0.145 NA 
HETATM   17  N   UNL     1      -9.642  16.987  68.189  1.00  0.00    -0.258 NA 
HETATM   18  N   UNL     1      -7.790  16.064  68.698  1.00  0.00    -0.167 NA 
HETATM   19  N   UNL     1      -8.454  17.205  68.798  1.00  0.00    -0.250 NA 
BRANCH  17  20
HETATM   20  C   UNL     1     -10.604  18.057  68.051  1.00  0.00    -0.347 C  
HETATM   21  O   UNL     1     -10.043  18.333  65.677  1.00  0.00    -0.532 OA 
HETATM   22  C   UNL     1     -10.479  18.916  66.813  1.00  0.00    -0.428 C  
HETATM   23  O   UNL     1     -10.848  20.086  66.808  1.00  0.00    -0.374 OA 
ENDBRANCH  17  20
ENDBRANCH  14  15
ENDBRANCH  13  14
ENDBRANCH   4  13
BRANCH  10  24
HETATM   24  N   UNL     1     -11.234   8.078  69.502  1.00  0.00    -0.441 N  
HETATM   25  C   UNL     1     -10.858   6.770  69.656  1.00  0.00    -0.271 C  
HETATM   26  O   UNL     1     -11.401   5.907  68.966  1.00  0.00    -0.258 OA 
HETATM   27  H   UNL     1     -11.997   8.262  68.851  1.00  0.00     0.000 HD 
BRANCH  25  28
HETATM   28  C   UNL     1      -9.771   6.437  70.666  1.00  0.00    -0.197 C  
BRANCH  28  29
HETATM   29  C   UNL     1     -10.121   5.312  71.617  1.00  0.00    -0.259 A  
HETATM   30  C   UNL     1      -9.638   3.994  71.452  1.00  0.00    -0.241 A  
HETATM   31  C   UNL     1     -10.015   3.020  72.398  1.00  0.00    -0.235 A  
HETATM   32  C   UNL     1     -10.935   5.609  72.731  1.00  0.00    -0.320 A  
HETATM   33  C   UNL     1     -10.816   3.334  73.495  1.00  0.00    -0.320 A  
HETATM   34  C   UNL     1     -11.283   4.629  73.658  1.00  0.00    -0.347 A  
BRANCH  30  35
HETATM   35  C   UNL     1      -8.790   3.579  70.264  1.00  0.00    -0.089 C  
HETATM   36  N   UNL     1      -9.565   3.455  69.029  1.00  0.00    -0.125 NA 
HETATM   37  H1  UNL     1      -8.995   3.175  68.229  1.00  0.00     0.000 HD 
HETATM   38  H2  UNL     1     -10.076   4.316  68.830  1.00  0.00     0.000 HD 
ENDBRANCH  30  35
ENDBRANCH  28  29
ENDBRANCH  25  28
ENDBRANCH  10  24
TORSDOF 8
ENDMDL
MODEL       54
REMARK 921   NORMALIZED FREE ENERGY PREDICTED BY IDOCK:   -7.19 KCAL/MOL
REMARK 922        TOTAL FREE ENERGY PREDICTED BY IDOCK:  -11.37 KCAL/MOL
REMARK 923 INTER-LIGAND FREE ENERGY PREDICTED BY IDOCK:   -9.79 KCAL/MOL
REMARK 924 INTRA-LIGAND FREE ENERGY PREDICTED BY IDOCK:   -1.58 KCAL/MOL
REMARK 927      BINDING AFFINITY PREDICTED BY RF-SCORE:    0.00 PKD
ROOT
HETATM    1  C   UNL     1     -10.646  10.468  68.947  1.00  0.00    -0.216 C  
HETATM    2  S   UNL     1      -9.105   9.861  69.664  1.00  0.00    -0.221 SA 
HETATM    3  C   UNL     1      -9.904   8.525  70.581  1.00  0.00    -0.186 C  
HETATM    4  C   UNL     1     -11.179   8.919  71.317  1.00  0.00    -0.368 C  
HETATM    5  O   UNL     1     -13.468  11.695  71.954  1.00  0.00    -0.361 OA 
HETATM    6  CA  UNL     1     -11.893  10.055  71.061  1.00  0.00    -0.386 C  
HETATM    7  N   UNL     1     -11.516  10.873  70.032  1.00  0.00    -0.308 N  
HETATM    8  O   UNL     1     -12.362  13.031  70.101  1.00  0.00    -0.283 OA 
HETATM    9  C   UNL     1     -13.100  10.404  71.905  1.00  0.00    -0.458 C  
HETATM   10  CA  UNL     1     -10.677  11.956  68.464  1.00  0.00    -0.224 C  
HETATM   11  OXT UNL     1     -13.741   9.568  72.521  1.00  0.00    -0.424 OA 
HETATM   12  C   UNL     1     -11.703  12.140  69.620  1.00  0.00    -0.325 C  
ENDROOT
BRANCH   4  13
HETATM   13  C   UNL     1     -11.465   7.952  72.466  1.00  0.00    -0.398 C  
BRANCH  13  14
HETATM   14  S   UNL     1      -9.925   7.439  73.306  1.00  0.00    -0.321 SA 
BRANCH  14  15
HETATM   15  C   UNL     1     -10.194   5.731  73.382  1.00  0.00    -0.209 A  
HETATM   16  N   UNL     1     -10.953   5.114  74.258  1.00  0.00    -0.195 NA 
HETATM   17  N   UNL     1      -9.665   4.798  72.529  1.00  0.00    -0.145 NA 
HETATM   18  N   UNL     1     -10.923   3.786  73.920  1.00  0.00    -0.217 NA 
HETATM   19  N   UNL     1     -10.171   3.586  72.849  1.00  0.00    -0.157 NA 
BRANCH  17  20
HETATM   20  C   UNL     1      -8.842   4.964  71.353  1.00  0.00    -0.133 C  
HETATM   21  O   UNL     1     -10.817   5.384  69.958  1.00  0.00    -0.293 OA 
HETATM   22  C   UNL     1      -9.555   4.911  70.021  1.00  0.00    -0.191 C  
HETATM   23  O   UNL     1      -8.982   4.536  69.004  1.00  0.00    -0.098 OA 
ENDBRANCH  17  20
ENDBRANCH  14  15
ENDBRANCH  13  14
ENDBRANCH   4  13
BRANCH  10  24
HETATM   24  N   UNL     1      -9.434  12.755  68.568  1.00  0.00    -0.381 N  
HETATM   25  C   UNL     1      -9.207  13.985  68.010  1.00  0.00    -0.201 C  
HETATM   26  O   UNL     1      -8.094  14.498  68.128  1.00  0.00    -0.122 OA 
HETATM   27  H   UNL     1      -8.671  12.348  69.109  1.00  0.00     0.000 HD 
BRANCH  25  28
HETATM   28  C   UNL     1     -10.336  14.663  67.252  1.00  0.00    -0.256 C  
BRANCH  28  29
HETATM   29  C   UNL     1     -10.288  16.176  67.274  1.00  0.00    -0.287 A  
HETATM   30  C   UNL     1     -10.569  16.933  68.433  1.00  0.00    -0.365 A  
HETATM   31  C   UNL     1     -10.487  18.338  68.353  1.00  0.00    -0.292 A  
HETATM   32  C   UNL     1      -9.911  16.849  66.092  1.00  0.00    -0.318 A  
HETATM   33  C   UNL     1     -10.108  18.984  67.177  1.00  0.00    -0.435 A  
HETATM   34  C   UNL     1      -9.826  18.239  66.042  1.00  0.00    -0.164 A  
BRANCH  30  35
HETATM   35  C   UNL     1     -11.018  16.295  69.734  1.00  0.00    -0.354 C  
HETATM   36  N   UNL     1     -12.457  16.033  69.772  1.00  0.00    -0.498 NA 
HETATM   37  H1  UNL     1     -12.760  15.604  70.647  1.00  0.00     0.000 HD 
HETATM   38  H2  UNL     1     -12.747  15.472  68.970  1.00  0.00     0.000 HD 
ENDBRANCH  30  35
ENDBRANCH  28  29
ENDBRANCH  25  28
ENDBRANCH  10  24
TORSDOF 8
ENDMDL
MODEL       55
REMARK 921   NORMALIZED FREE ENERGY PREDICTED BY IDOCK:   -7.17 KCAL/MOL
REMARK 922        TOTAL FREE ENERGY PREDICTED BY IDOCK:  -11.35 KCAL/MOL
REMARK 923 INTER-LIGAND FREE ENERGY PREDICTED BY IDOCK:  -10.69 KCAL/MOL
REMARK 924 INTRA-LIGAND FREE ENERGY PREDICTED BY IDOCK:   -0.66 KCAL/MOL
REMARK 927      BINDING AFFINITY PREDICTED BY RF-SCORE:    0.00 PKD
ROOT
HETATM    1  C   UNL     1     -10.937  14.447  68.565  1.00  0.00    -0.251 C  
HETATM    2  S   UNL     1      -9.462  15.235  69.245  1.00  0.00    -0.227 SA 
HETATM    3  C   UNL     1      -9.813  16.841  68.497  1.00  0.00    -0.257 C  
HETATM    4  C   UNL     1     -10.251  16.792  67.038  1.00  0.00    -0.292 C  
HETATM    5  O   UNL     1     -10.991  14.531  64.264  1.00  0.00    -0.200 OA 
HETATM    6  CA  UNL     1     -10.697  15.665  66.408  1.00  0.00    -0.291 C  
HETATM    7  N   UNL     1     -10.852  14.509  67.121  1.00  0.00    -0.290 N  
HETATM    8  O   UNL     1     -10.973  12.563  65.865  1.00  0.00    -0.265 OA 
HETATM    9  C   UNL     1     -11.029  15.697  64.931  1.00  0.00    -0.431 C  
HETATM   10  CA  UNL     1     -10.921  12.889  68.428  1.00  0.00    -0.258 C  
HETATM   11  OXT UNL     1     -11.331  16.722  64.343  1.00  0.00    -1.089 OA 
HETATM   12  C   UNL     1     -10.961  13.186  66.900  1.00  0.00    -0.276 C  
ENDROOT
BRANCH   4  13
HETATM   13  C   UNL     1      -9.989  18.129  66.346  1.00  0.00    -0.376 C  
BRANCH  13  14
HETATM   14  S   UNL     1     -10.208  19.532  67.498  1.00  0.00    -0.456 SA 
BRANCH  14  15
HETATM   15  C   UNL     1      -8.567  19.749  68.002  1.00  0.00    -0.295 A  
HETATM   16  N   UNL     1      -8.134  19.699  69.241  1.00  0.00    -0.136 NA 
HETATM   17  N   UNL     1      -7.500  19.985  67.177  1.00  0.00    -0.259 NA 
HETATM   18  N   UNL     1      -6.775  19.869  69.177  1.00  0.00    -0.331 NA 
HETATM   19  N   UNL     1      -6.373  20.009  67.924  1.00  0.00    -0.225 NA 
BRANCH  17  20
HETATM   20  C   UNL     1      -7.426  20.047  65.734  1.00  0.00    -0.295 C  
HETATM   21  O   UNL     1      -6.544  17.759  65.624  1.00  0.00    -0.225 OA 
HETATM   22  C   UNL     1      -6.591  18.983  65.059  1.00  0.00    -0.103 C  
HETATM   23  O   UNL     1      -6.042  19.190  63.982  1.00  0.00    -0.460 OA 
ENDBRANCH  17  20
ENDBRANCH  14  15
ENDBRANCH  13  14
ENDBRANCH   4  13
BRANCH  10  24
HETATM   24  N   UNL     1      -9.731  12.152  68.913  1.00  0.00    -0.416 N  
HETATM   25  C   UNL     1      -9.598  10.793  69.012  1.00  0.00    -0.180 C  
HETATM   26  O   UNL     1      -8.569  10.327  69.499  1.00  0.00    -0.169 OA 
HETATM   27  H   UNL     1      -8.930  12.714  69.203  1.00  0.00     0.000 HD 
BRANCH  25  28
HETATM   28  C   UNL     1     -10.739   9.910  68.528  1.00  0.00    -0.260 C  
BRANCH  28  29
HETATM   29  C   UNL     1     -11.100   8.780  69.468  1.00  0.00     0.006 A  
HETATM   30  C   UNL     1     -10.849   7.423  69.163  1.00  0.00    -0.129 A  
HETATM   31  C   UNL     1     -11.215   6.445  70.110  1.00  0.00    -0.454 A  
HETATM   32  C   UNL     1     -11.678   9.106  70.714  1.00  0.00    -0.308 A  
HETATM   33  C   UNL     1     -11.781   6.788  71.337  1.00  0.00    -0.371 A  
HETATM   34  C   UNL     1     -12.020   8.121  71.637  1.00  0.00    -0.340 A  
BRANCH  30  35
HETATM   35  C   UNL     1     -10.266   6.980  67.834  1.00  0.00    -0.183 C  
HETATM   36  N   UNL     1     -11.180   6.133  67.067  1.00  0.00    -0.592 NA 
HETATM   37  H1  UNL     1     -10.789   5.835  66.173  1.00  0.00     0.000 HD 
HETATM   38  H2  UNL     1     -12.081   6.594  66.936  1.00  0.00     0.000 HD 
ENDBRANCH  30  35
ENDBRANCH  28  29
ENDBRANCH  25  28
ENDBRANCH  10  24
TORSDOF 8
ENDMDL
MODEL       56
REMARK 921   NORMALIZED FREE ENERGY PREDICTED BY IDOCK:   -7.16 KCAL/MOL
REMARK 922        TOTAL FREE ENERGY PREDICTED BY IDOCK:  -11.33 KCAL/MOL
REMARK 923 INTER-LIGAND FREE ENERGY PREDICTED BY IDOCK:  -10.06 KCAL/MOL
REMARK 924 INTRA-LIGAND FREE ENERGY PREDICTED BY IDOCK:   -1.27 KCAL/MOL
REMARK 927      BINDING AFFINITY PREDICTED BY RF-SCORE:    0.00 PKD
ROOT
HETATM    1  C   UNL     1     -11.163  10.846  68.756  1.00  0.00    -0.270 C  
HETATM    2  S   UNL     1      -9.632   9.951  69.092  1.00  0.00    -0.211 SA 
HETATM    3  C   UNL     1     -10.472   8.502  69.770  1.00  0.00    -0.220 C  
HETATM    4  C   UNL     1     -11.602   8.808  70.746  1.00  0.00    -0.288 C  
HETATM    5  O   UNL     1     -13.468  11.523  72.325  1.00  0.00    -0.368 OA 
HETATM    6  CA  UNL     1     -12.203  10.029  70.865  1.00  0.00    -0.346 C  
HETATM    7  N   UNL     1     -11.853  11.041  70.015  1.00  0.00    -0.322 N  
HETATM    8  O   UNL     1     -12.431  13.178  70.705  1.00  0.00    -0.349 OA 
HETATM    9  C   UNL     1     -13.260  10.258  71.925  1.00  0.00    -0.445 C  
HETATM   10  CA  UNL     1     -11.076  12.403  68.646  1.00  0.00    -0.257 C  
HETATM   11  OXT UNL     1     -13.920   9.353  72.408  1.00  0.00    -0.426 OA 
HETATM   12  C   UNL     1     -11.937  12.381  69.943  1.00  0.00    -0.299 C  
ENDROOT
BRANCH   4  13
HETATM   13  C   UNL     1     -11.867   7.614  71.663  1.00  0.00    -0.291 C  
BRANCH  13  14
HETATM   14  S   UNL     1     -10.585   7.471  72.958  1.00  0.00    -0.390 SA 
BRANCH  14  15
HETATM   15  C   UNL     1     -10.467   5.747  73.056  1.00  0.00    -0.221 A  
HETATM   16  N   UNL     1     -11.238   4.967  73.780  1.00  0.00    -0.246 NA 
HETATM   17  N   UNL     1      -9.568   4.965  72.381  1.00  0.00    -0.144 NA 
HETATM   18  N   UNL     1     -10.833   3.683  73.519  1.00  0.00    -0.213 NA 
HETATM   19  N   UNL     1      -9.841   3.667  72.643  1.00  0.00    -0.144 NA 
BRANCH  17  20
HETATM   20  C   UNL     1      -8.568   5.322  71.399  1.00  0.00    -0.129 C  
HETATM   21  O   UNL     1     -10.174   5.017  69.568  1.00  0.00    -0.234 OA 
HETATM   22  C   UNL     1      -8.885   4.974  69.962  1.00  0.00    -0.102 C  
HETATM   23  O   UNL     1      -7.995   4.748  69.150  1.00  0.00    -0.071 OA 
ENDBRANCH  17  20
ENDBRANCH  14  15
ENDBRANCH  13  14
ENDBRANCH   4  13
BRANCH  10  24
HETATM   24  N   UNL     1      -9.745  13.044  68.763  1.00  0.00    -0.418 N  
HETATM   25  C   UNL     1      -8.823  13.197  67.762  1.00  0.00    -0.191 C  
HETATM   26  O   UNL     1      -7.728  13.692  68.030  1.00  0.00    -0.114 OA 
HETATM   27  H   UNL     1      -9.490  13.406  69.682  1.00  0.00     0.000 HD 
BRANCH  25  28
HETATM   28  C   UNL     1      -9.184  12.735  66.359  1.00  0.00    -0.149 C  
BRANCH  28  29
HETATM   29  C   UNL     1     -10.132  13.654  65.619  1.00  0.00    -0.299 A  
HETATM   30  C   UNL     1     -11.167  13.173  64.786  1.00  0.00    -0.347 A  
HETATM   31  C   UNL     1     -12.003  14.112  64.148  1.00  0.00    -0.421 A  
HETATM   32  C   UNL     1      -9.990  15.046  65.802  1.00  0.00    -0.376 A  
HETATM   33  C   UNL     1     -11.850  15.483  64.345  1.00  0.00    -0.222 A  
HETATM   34  C   UNL     1     -10.837  15.952  65.167  1.00  0.00    -0.438 A  
BRANCH  30  35
HETATM   35  C   UNL     1     -11.367  11.696  64.504  1.00  0.00    -0.240 C  
HETATM   36  N   UNL     1     -11.722  11.427  63.110  1.00  0.00    -0.865 NA 
HETATM   37  H1  UNL     1     -11.857  10.434  62.919  1.00  0.00     0.000 HD 
HETATM   38  H2  UNL     1     -11.034  11.831  62.474  1.00  0.00     0.000 HD 
ENDBRANCH  30  35
ENDBRANCH  28  29
ENDBRANCH  25  28
ENDBRANCH  10  24
TORSDOF 8
ENDMDL
MODEL       57
REMARK 921   NORMALIZED FREE ENERGY PREDICTED BY IDOCK:   -7.16 KCAL/MOL
REMARK 922        TOTAL FREE ENERGY PREDICTED BY IDOCK:  -11.33 KCAL/MOL
REMARK 923 INTER-LIGAND FREE ENERGY PREDICTED BY IDOCK:   -9.98 KCAL/MOL
REMARK 924 INTRA-LIGAND FREE ENERGY PREDICTED BY IDOCK:   -1.35 KCAL/MOL
REMARK 927      BINDING AFFINITY PREDICTED BY RF-SCORE:    0.00 PKD
ROOT
HETATM    1  C   UNL     1     -12.088  12.244  68.884  1.00  0.00    -0.126 C  
HETATM    2  S   UNL     1     -11.057  13.517  69.642  1.00  0.00     0.115 SA 
HETATM    3  C   UNL     1     -11.363  14.728  68.337  1.00  0.00    -0.299 C  
HETATM    4  C   UNL     1     -11.274  14.184  66.916  1.00  0.00    -0.326 C  
HETATM    5  O   UNL     1     -10.705  11.150  64.960  1.00  0.00    -0.289 OA 
HETATM    6  CA  UNL     1     -11.315  12.856  66.599  1.00  0.00    -0.317 C  
HETATM    7  N   UNL     1     -11.532  11.933  67.584  1.00  0.00    -0.308 N  
HETATM    8  O   UNL     1     -10.943   9.751  67.063  1.00  0.00    -0.162 OA 
HETATM    9  C   UNL     1     -11.131  12.407  65.165  1.00  0.00    -0.309 C  
HETATM   10  CA  UNL     1     -11.803  10.758  69.282  1.00  0.00    -0.288 C  
HETATM   11  OXT UNL     1     -11.362  13.132  64.210  1.00  0.00    -0.355 OA 
HETATM   12  C   UNL     1     -11.369  10.613  67.794  1.00  0.00    -0.244 C  
ENDROOT
BRANCH   4  13
HETATM   13  C   UNL     1     -10.989  15.307  65.920  1.00  0.00    -0.325 C  
BRANCH  13  14
HETATM   14  S   UNL     1      -9.233  15.814  65.970  1.00  0.00    -0.312 SA 
BRANCH  14  15
HETATM   15  C   UNL     1      -9.418  17.431  66.558  1.00  0.00    -0.273 A  
HETATM   16  N   UNL     1     -10.556  18.073  66.688  1.00  0.00    -0.306 NA 
HETATM   17  N   UNL     1      -8.405  18.250  66.982  1.00  0.00    -0.242 NA 
HETATM   18  N   UNL     1     -10.247  19.292  67.235  1.00  0.00    -0.383 NA 
HETATM   19  N   UNL     1      -8.945  19.398  67.451  1.00  0.00    -0.294 NA 
BRANCH  17  20
HETATM   20  C   UNL     1      -6.989  17.995  67.120  1.00  0.00    -0.191 C  
HETATM   21  O   UNL     1      -6.554  18.867  64.867  1.00  0.00    -0.500 OA 
HETATM   22  C   UNL     1      -6.176  18.019  65.846  1.00  0.00    -0.248 C  
HETATM   23  O   UNL     1      -5.149  17.358  65.731  1.00  0.00    -0.308 OA 
ENDBRANCH  17  20
ENDBRANCH  14  15
ENDBRANCH  13  14
ENDBRANCH   4  13
BRANCH  10  24
HETATM   24  N   UNL     1     -10.753  10.489  70.291  1.00  0.00    -0.454 N  
HETATM   25  C   UNL     1     -10.622   9.356  71.049  1.00  0.00    -0.330 C  
HETATM   26  O   UNL     1      -9.733   9.305  71.899  1.00  0.00    -0.260 OA 
HETATM   27  H   UNL     1     -10.057  11.221  70.436  1.00  0.00     0.000 HD 
BRANCH  25  28
HETATM   28  C   UNL     1     -11.593   8.208  70.822  1.00  0.00    -0.249 C  
BRANCH  28  29
HETATM   29  C   UNL     1     -10.937   6.891  70.470  1.00  0.00    -0.313 A  
HETATM   30  C   UNL     1     -10.635   5.905  71.436  1.00  0.00    -0.309 A  
HETATM   31  C   UNL     1     -10.032   4.706  71.005  1.00  0.00    -0.270 A  
HETATM   32  C   UNL     1     -10.650   6.629  69.113  1.00  0.00    -0.280 A  
HETATM   33  C   UNL     1      -9.761   4.465  69.659  1.00  0.00    -0.289 A  
HETATM   34  C   UNL     1     -10.064   5.431  68.711  1.00  0.00    -0.255 A  
BRANCH  30  35
HETATM   35  C   UNL     1     -10.875   6.117  72.920  1.00  0.00    -0.260 C  
HETATM   36  N   UNL     1     -11.555   4.986  73.552  1.00  0.00    -0.424 NA 
HETATM   37  H1  UNL     1     -11.716   5.129  74.550  1.00  0.00     0.000 HD 
HETATM   38  H2  UNL     1     -11.049   4.116  73.384  1.00  0.00     0.000 HD 
ENDBRANCH  30  35
ENDBRANCH  28  29
ENDBRANCH  25  28
ENDBRANCH  10  24
TORSDOF 8
ENDMDL
MODEL       58
REMARK 921   NORMALIZED FREE ENERGY PREDICTED BY IDOCK:   -7.11 KCAL/MOL
REMARK 922        TOTAL FREE ENERGY PREDICTED BY IDOCK:  -11.25 KCAL/MOL
REMARK 923 INTER-LIGAND FREE ENERGY PREDICTED BY IDOCK:  -10.32 KCAL/MOL
REMARK 924 INTRA-LIGAND FREE ENERGY PREDICTED BY IDOCK:   -0.94 KCAL/MOL
REMARK 927      BINDING AFFINITY PREDICTED BY RF-SCORE:    0.00 PKD
ROOT
HETATM    1  C   UNL     1     -10.236  10.403  69.486  1.00  0.00    -0.231 C  
HETATM    2  S   UNL     1     -10.410  10.489  67.691  1.00  0.00    -0.234 SA 
HETATM    3  C   UNL     1     -10.360  12.294  67.641  1.00  0.00    -0.204 C  
HETATM    4  C   UNL     1     -11.215  12.994  68.691  1.00  0.00    -0.316 C  
HETATM    5  O   UNL     1     -13.442  12.416  71.530  1.00  0.00    -0.172 OA 
HETATM    6  CA  UNL     1     -11.708  12.383  69.809  1.00  0.00    -0.291 C  
HETATM    7  N   UNL     1     -11.367  11.087  70.078  1.00  0.00    -0.290 N  
HETATM    8  O   UNL     1     -12.736   9.980  71.587  1.00  0.00    -0.369 OA 
HETATM    9  C   UNL     1     -12.620  13.140  70.752  1.00  0.00    -0.260 C  
HETATM   10  CA  UNL     1     -10.743   9.104  70.195  1.00  0.00    -0.233 C  
HETATM   11  OXT UNL     1     -12.626  14.357  70.832  1.00  0.00    -0.310 OA 
HETATM   12  C   UNL     1     -11.802  10.056  70.825  1.00  0.00    -0.346 C  
ENDROOT
BRANCH   4  13
HETATM   13  C   UNL     1     -11.560  14.416  68.252  1.00  0.00    -0.328 C  
BRANCH  13  14
HETATM   14  S   UNL     1     -10.254  15.600  68.736  1.00  0.00    -0.225 SA 
BRANCH  14  15
HETATM   15  C   UNL     1     -10.453  16.777  67.483  1.00  0.00    -0.319 A  
HETATM   16  N   UNL     1     -10.672  18.059  67.665  1.00  0.00    -0.398 NA 
HETATM   17  N   UNL     1     -10.393  16.531  66.137  1.00  0.00    -0.331 NA 
HETATM   18  N   UNL     1     -10.710  18.621  66.415  1.00  0.00    -0.308 NA 
HETATM   19  N   UNL     1     -10.507  17.707  65.478  1.00  0.00    -0.638 NA 
BRANCH  17  20
HETATM   20  C   UNL     1     -10.095  15.313  65.419  1.00  0.00    -0.362 C  
HETATM   21  O   UNL     1     -12.223  15.440  64.203  1.00  0.00    -0.598 OA 
HETATM   22  C   UNL     1     -11.255  14.651  64.711  1.00  0.00    -0.389 C  
HETATM   23  O   UNL     1     -11.277  13.439  64.518  1.00  0.00    -0.342 OA 
ENDBRANCH  17  20
ENDBRANCH  14  15
ENDBRANCH  13  14
ENDBRANCH   4  13
BRANCH  10  24
HETATM   24  N   UNL     1     -11.276   8.007  69.356  1.00  0.00    -0.425 N  
HETATM   25  C   UNL     1     -10.798   6.725  69.288  1.00  0.00    -0.264 C  
HETATM   26  O   UNL     1     -11.307   5.939  68.489  1.00  0.00    -0.116 OA 
HETATM   27  H   UNL     1     -12.082   8.227  68.769  1.00  0.00     0.000 HD 
BRANCH  25  28
HETATM   28  C   UNL     1      -9.642   6.328  70.193  1.00  0.00    -0.181 C  
BRANCH  28  29
HETATM   29  C   UNL     1     -10.009   5.347  71.286  1.00  0.00    -0.253 A  
HETATM   30  C   UNL     1      -9.576   4.003  71.283  1.00  0.00    -0.245 A  
HETATM   31  C   UNL     1      -9.964   3.171  72.353  1.00  0.00    -0.234 A  
HETATM   32  C   UNL     1     -10.788   5.813  72.367  1.00  0.00    -0.294 A  
HETATM   33  C   UNL     1     -10.730   3.652  73.414  1.00  0.00    -0.302 A  
HETATM   34  C   UNL     1     -11.149   4.973  73.418  1.00  0.00    -0.404 A  
BRANCH  30  35
HETATM   35  C   UNL     1      -8.769   3.408  70.144  1.00  0.00    -0.068 C  
HETATM   36  N   UNL     1      -7.570   2.706  70.603  1.00  0.00    -0.039 NA 
HETATM   37  H1  UNL     1      -7.027   2.306  69.837  1.00  0.00     0.000 HD 
HETATM   38  H2  UNL     1      -7.807   1.993  71.294  1.00  0.00     0.000 HD 
ENDBRANCH  30  35
ENDBRANCH  28  29
ENDBRANCH  25  28
ENDBRANCH  10  24
TORSDOF 8
ENDMDL
MODEL       59
REMARK 921   NORMALIZED FREE ENERGY PREDICTED BY IDOCK:   -7.11 KCAL/MOL
REMARK 922        TOTAL FREE ENERGY PREDICTED BY IDOCK:  -11.25 KCAL/MOL
REMARK 923 INTER-LIGAND FREE ENERGY PREDICTED BY IDOCK:  -10.01 KCAL/MOL
REMARK 924 INTRA-LIGAND FREE ENERGY PREDICTED BY IDOCK:   -1.24 KCAL/MOL
REMARK 927      BINDING AFFINITY PREDICTED BY RF-SCORE:    0.00 PKD
ROOT
HETATM    1  C   UNL     1      -9.927  11.427  66.884  1.00  0.00    -0.206 C  
HETATM    2  S   UNL     1     -11.370  10.963  67.862  1.00  0.00    -0.270 SA 
HETATM    3  C   UNL     1     -10.530   9.600  68.698  1.00  0.00    -0.210 C  
HETATM    4  C   UNL     1      -9.695   8.703  67.793  1.00  0.00    -0.202 C  
HETATM    5  O   UNL     1      -8.583   8.224  64.345  1.00  0.00    -0.063 OA 
HETATM    6  CA  UNL     1      -9.292   9.047  66.533  1.00  0.00    -0.191 C  
HETATM    7  N   UNL     1      -9.567  10.297  66.053  1.00  0.00    -0.193 N  
HETATM    8  O   UNL     1      -9.429  10.541  63.751  1.00  0.00    -0.247 OA 
HETATM    9  C   UNL     1      -8.537   8.053  65.676  1.00  0.00    -0.145 C  
HETATM   10  CA  UNL     1     -10.181  12.225  65.562  1.00  0.00    -0.269 C  
HETATM   11  OXT UNL     1      -7.894   7.128  66.147  1.00  0.00    -0.097 OA 
HETATM   12  C   UNL     1      -9.636  10.939  64.873  1.00  0.00    -0.248 C  
ENDROOT
BRANCH   4  13
HETATM   13  C   UNL     1      -9.496   7.326  68.425  1.00  0.00    -0.142 C  
BRANCH  13  14
HETATM   14  S   UNL     1     -11.084   6.439  68.608  1.00  0.00    -0.240 SA 
BRANCH  14  15
HETATM   15  C   UNL     1     -10.913   5.878  70.236  1.00  0.00    -0.320 A  
HETATM   16  N   UNL     1      -9.982   5.059  70.670  1.00  0.00    -0.213 NA 
HETATM   17  N   UNL     1     -11.714   6.225  71.291  1.00  0.00    -0.289 NA 
HETATM   18  N   UNL     1     -10.188   4.927  72.019  1.00  0.00    -0.195 NA 
HETATM   19  N   UNL     1     -11.217   5.659  72.415  1.00  0.00    -0.281 NA 
BRANCH  17  20
HETATM   20  C   UNL     1     -12.818   7.155  71.364  1.00  0.00    -0.384 C  
HETATM   21  O   UNL     1     -11.306   8.992  71.968  1.00  0.00    -0.364 OA 
HETATM   22  C   UNL     1     -12.545   8.467  72.064  1.00  0.00    -0.364 C  
HETATM   23  O   UNL     1     -13.440   9.088  72.627  1.00  0.00    -0.463 OA 
ENDBRANCH  17  20
ENDBRANCH  14  15
ENDBRANCH  13  14
ENDBRANCH   4  13
BRANCH  10  24
HETATM   24  N   UNL     1     -11.573  12.600  65.223  1.00  0.00    -0.335 N  
HETATM   25  C   UNL     1     -12.083  13.870  65.160  1.00  0.00    -0.403 C  
HETATM   26  O   UNL     1     -13.282  14.021  64.930  1.00  0.00    -0.593 OA 
HETATM   27  H   UNL     1     -12.217  11.837  65.015  1.00  0.00     0.000 HD 
BRANCH  25  28
HETATM   28  C   UNL     1     -11.147  15.045  65.395  1.00  0.00    -0.377 C  
BRANCH  28  29
HETATM   29  C   UNL     1     -11.110  15.543  66.824  1.00  0.00    -0.206 A  
HETATM   30  C   UNL     1     -10.469  16.746  67.197  1.00  0.00    -0.299 A  
HETATM   31  C   UNL     1     -10.499  17.127  68.554  1.00  0.00    -0.377 A  
HETATM   32  C   UNL     1     -11.776  14.786  67.812  1.00  0.00    -0.368 A  
HETATM   33  C   UNL     1     -11.165  16.368  69.515  1.00  0.00    -0.250 A  
HETATM   34  C   UNL     1     -11.799  15.192  69.145  1.00  0.00    -0.340 A  
BRANCH  30  35
HETATM   35  C   UNL     1      -9.698  17.600  66.209  1.00  0.00    -0.263 C  
HETATM   36  N   UNL     1     -10.456  18.767  65.755  1.00  0.00    -0.601 NA 
HETATM   37  H1  UNL     1      -9.938  19.342  65.090  1.00  0.00     0.000 HD 
HETATM   38  H2  UNL     1     -10.778  19.324  66.547  1.00  0.00     0.000 HD 
ENDBRANCH  30  35
ENDBRANCH  28  29
ENDBRANCH  25  28
ENDBRANCH  10  24
TORSDOF 8
ENDMDL
MODEL       60
REMARK 921   NORMALIZED FREE ENERGY PREDICTED BY IDOCK:   -7.08 KCAL/MOL
REMARK 922        TOTAL FREE ENERGY PREDICTED BY IDOCK:  -11.22 KCAL/MOL
REMARK 923 INTER-LIGAND FREE ENERGY PREDICTED BY IDOCK:  -10.37 KCAL/MOL
REMARK 924 INTRA-LIGAND FREE ENERGY PREDICTED BY IDOCK:   -0.84 KCAL/MOL
REMARK 927      BINDING AFFINITY PREDICTED BY RF-SCORE:    0.00 PKD
ROOT
HETATM    1  C   UNL     1     -10.181  10.269  69.600  1.00  0.00    -0.235 C  
HETATM    2  S   UNL     1     -10.435  10.129  67.819  1.00  0.00    -0.250 SA 
HETATM    3  C   UNL     1     -10.341  11.909  67.531  1.00  0.00    -0.200 C  
HETATM    4  C   UNL     1     -11.127  12.766  68.516  1.00  0.00    -0.300 C  
HETATM    5  O   UNL     1     -13.235  12.632  71.498  1.00  0.00    -0.345 OA 
HETATM    6  CA  UNL     1     -11.584  12.321  69.724  1.00  0.00    -0.243 C  
HETATM    7  N   UNL     1     -11.265  11.061  70.145  1.00  0.00    -0.240 N  
HETATM    8  O   UNL     1     -12.591  10.202  71.843  1.00  0.00    -0.396 OA 
HETATM    9  C   UNL     1     -12.431  13.222  70.598  1.00  0.00    -0.298 C  
HETATM   10  CA  UNL     1     -10.688   9.090  70.494  1.00  0.00    -0.239 C  
HETATM   11  OXT UNL     1     -12.401  14.440  70.518  1.00  0.00    -0.303 OA 
HETATM   12  C   UNL     1     -11.692  10.149  71.038  1.00  0.00    -0.382 C  
ENDROOT
BRANCH   4  13
HETATM   13  C   UNL     1     -11.455  14.130  67.910  1.00  0.00    -0.312 C  
BRANCH  13  14
HETATM   14  S   UNL     1      -9.938  15.019  67.407  1.00  0.00    -0.226 SA 
BRANCH  14  15
HETATM   15  C   UNL     1     -10.531  15.820  65.992  1.00  0.00    -0.338 A  
HETATM   16  N   UNL     1     -11.071  15.231  64.948  1.00  0.00    -0.421 NA 
HETATM   17  N   UNL     1     -10.532  17.172  65.778  1.00  0.00    -0.515 NA 
HETATM   18  N   UNL     1     -11.445  16.237  64.095  1.00  0.00    -0.942 NA 
HETATM   19  N   UNL     1     -11.154  17.424  64.603  1.00  0.00    -0.851 NA 
BRANCH  17  20
HETATM   20  C   UNL     1     -10.132  18.258  66.644  1.00  0.00    -0.375 C  
HETATM   21  O   UNL     1      -7.820  18.133  65.827  1.00  0.00    -0.526 OA 
HETATM   22  C   UNL     1      -8.645  18.438  66.850  1.00  0.00    -0.271 C  
HETATM   23  O   UNL     1      -8.198  18.932  67.880  1.00  0.00    -0.267 OA 
ENDBRANCH  17  20
ENDBRANCH  14  15
ENDBRANCH  13  14
ENDBRANCH   4  13
BRANCH  10  24
HETATM   24  N   UNL     1     -11.289   7.911  69.828  1.00  0.00    -0.454 N  
HETATM   25  C   UNL     1     -10.632   6.981  69.068  1.00  0.00    -0.217 C  
HETATM   26  O   UNL     1     -11.281   6.089  68.522  1.00  0.00    -0.299 OA 
HETATM   27  H   UNL     1     -12.293   7.779  69.948  1.00  0.00     0.000 HD 
BRANCH  25  28
HETATM   28  C   UNL     1      -9.123   7.096  68.915  1.00  0.00    -0.131 C  
BRANCH  28  29
HETATM   29  C   UNL     1      -8.397   5.770  68.841  1.00  0.00    -0.101 A  
HETATM   30  C   UNL     1      -8.116   5.121  67.618  1.00  0.00    -0.099 A  
HETATM   31  C   UNL     1      -7.425   3.893  67.655  1.00  0.00    -0.067 A  
HETATM   32  C   UNL     1      -7.954   5.183  70.046  1.00  0.00    -0.082 A  
HETATM   33  C   UNL     1      -6.992   3.331  68.855  1.00  0.00    -0.048 A  
HETATM   34  C   UNL     1      -7.264   3.973  70.054  1.00  0.00    -0.042 A  
BRANCH  30  35
HETATM   35  C   UNL     1      -8.586   5.661  66.280  1.00  0.00    -0.127 C  
HETATM   36  N   UNL     1      -9.860   5.083  65.850  1.00  0.00    -0.230 NA 
HETATM   37  H1  UNL     1     -10.176   5.446  64.951  1.00  0.00     0.000 HD 
HETATM   38  H2  UNL     1     -10.576   5.205  66.566  1.00  0.00     0.000 HD 
ENDBRANCH  30  35
ENDBRANCH  28  29
ENDBRANCH  25  28
ENDBRANCH  10  24
TORSDOF 8
ENDMDL
MODEL       61
REMARK 921   NORMALIZED FREE ENERGY PREDICTED BY IDOCK:   -7.07 KCAL/MOL
REMARK 922        TOTAL FREE ENERGY PREDICTED BY IDOCK:  -11.20 KCAL/MOL
REMARK 923 INTER-LIGAND FREE ENERGY PREDICTED BY IDOCK:  -10.67 KCAL/MOL
REMARK 924 INTRA-LIGAND FREE ENERGY PREDICTED BY IDOCK:   -0.53 KCAL/MOL
REMARK 927      BINDING AFFINITY PREDICTED BY RF-SCORE:    0.00 PKD
ROOT
HETATM    1  C   UNL     1     -11.557  10.720  70.875  1.00  0.00    -0.137 C  
HETATM    2  S   UNL     1     -11.607   9.994  69.224  1.00  0.00     0.108 SA 
HETATM    3  C   UNL     1     -10.713  11.360  68.451  1.00  0.00    -0.203 C  
HETATM    4  C   UNL     1     -11.174  12.752  68.868  1.00  0.00    -0.332 C  
HETATM    5  O   UNL     1     -13.509  14.551  71.027  1.00  0.00    -0.371 OA 
HETATM    6  CA  UNL     1     -11.936  13.009  69.973  1.00  0.00    -0.312 C  
HETATM    7  N   UNL     1     -12.253  11.989  70.826  1.00  0.00    -0.357 N  
HETATM    8  O   UNL     1     -14.034  12.394  72.256  1.00  0.00    -0.247 OA 
HETATM    9  C   UNL     1     -12.417  14.416  70.257  1.00  0.00    -0.354 C  
HETATM   10  CA  UNL     1     -12.640  10.248  71.901  1.00  0.00    -0.318 C  
HETATM   11  OXT UNL     1     -11.852  15.408  69.826  1.00  0.00    -0.304 OA 
HETATM   12  C   UNL     1     -13.148  11.716  71.793  1.00  0.00    -0.382 C  
ENDROOT
BRANCH   4  13
HETATM   13  C   UNL     1     -10.795  13.790  67.812  1.00  0.00    -0.250 C  
BRANCH  13  14
HETATM   14  S   UNL     1      -9.216  13.364  66.995  1.00  0.00    -0.246 SA 
BRANCH  14  15
HETATM   15  C   UNL     1      -9.827  12.537  65.603  1.00  0.00    -0.216 A  
HETATM   16  N   UNL     1      -9.742  11.245  65.382  1.00  0.00    -0.222 NA 
HETATM   17  N   UNL     1     -10.494  13.115  64.556  1.00  0.00    -0.399 NA 
HETATM   18  N   UNL     1     -10.398  11.016  64.200  1.00  0.00    -0.349 NA 
HETATM   19  N   UNL     1     -10.890  12.141  63.705  1.00  0.00    -0.389 NA 
BRANCH  17  20
HETATM   20  C   UNL     1     -10.917  14.482  64.355  1.00  0.00    -0.116 C  
HETATM   21  O   UNL     1     -13.176  13.962  65.161  1.00  0.00    -0.768 OA 
HETATM   22  C   UNL     1     -12.408  14.731  64.362  1.00  0.00    -0.368 C  
HETATM   23  O   UNL     1     -12.903  15.661  63.733  1.00  0.00    -0.536 OA 
ENDBRANCH  17  20
ENDBRANCH  14  15
ENDBRANCH  13  14
ENDBRANCH   4  13
BRANCH  10  24
HETATM   24  N   UNL     1     -13.597   9.199  71.480  1.00  0.00    -0.427 N  
HETATM   25  C   UNL     1     -13.429   7.845  71.601  1.00  0.00    -0.341 C  
HETATM   26  O   UNL     1     -14.288   7.093  71.142  1.00  0.00    -0.301 OA 
HETATM   27  H   UNL     1     -14.470   9.517  71.059  1.00  0.00     0.000 HD 
BRANCH  25  28
HETATM   28  C   UNL     1     -12.174   7.323  72.285  1.00  0.00    -0.192 C  
BRANCH  28  29
HETATM   29  C   UNL     1     -11.375   6.337  71.461  1.00  0.00    -0.352 A  
HETATM   30  C   UNL     1     -10.800   5.170  72.012  1.00  0.00    -0.194 A  
HETATM   31  C   UNL     1     -10.081   4.309  71.158  1.00  0.00    -0.173 A  
HETATM   32  C   UNL     1     -11.232   6.583  70.078  1.00  0.00    -0.453 A  
HETATM   33  C   UNL     1      -9.955   4.568  69.794  1.00  0.00    -0.268 A  
HETATM   34  C   UNL     1     -10.525   5.710  69.254  1.00  0.00    -0.356 A  
BRANCH  30  35
HETATM   35  C   UNL     1     -10.872   4.847  73.493  1.00  0.00    -0.305 C  
HETATM   36  N   UNL     1     -10.050   5.740  74.310  1.00  0.00    -0.245 NA 
HETATM   37  H1  UNL     1     -10.098   5.523  75.306  1.00  0.00     0.000 HD 
HETATM   38  H2  UNL     1     -10.289   6.717  74.137  1.00  0.00     0.000 HD 
ENDBRANCH  30  35
ENDBRANCH  28  29
ENDBRANCH  25  28
ENDBRANCH  10  24
TORSDOF 8
ENDMDL
MODEL       62
REMARK 921   NORMALIZED FREE ENERGY PREDICTED BY IDOCK:   -6.99 KCAL/MOL
REMARK 922        TOTAL FREE ENERGY PREDICTED BY IDOCK:  -11.08 KCAL/MOL
REMARK 923 INTER-LIGAND FREE ENERGY PREDICTED BY IDOCK:   -9.58 KCAL/MOL
REMARK 924 INTRA-LIGAND FREE ENERGY PREDICTED BY IDOCK:   -1.50 KCAL/MOL
REMARK 927      BINDING AFFINITY PREDICTED BY RF-SCORE:    0.00 PKD
ROOT
HETATM    1  C   UNL     1     -10.176  10.781  68.869  1.00  0.00    -0.203 C  
HETATM    2  S   UNL     1     -10.683  10.608  67.146  1.00  0.00    -0.259 SA 
HETATM    3  C   UNL     1     -10.693  12.387  66.831  1.00  0.00    -0.240 C  
HETATM    4  C   UNL     1     -11.355  13.231  67.913  1.00  0.00    -0.317 C  
HETATM    5  O   UNL     1     -12.997  13.070  71.173  1.00  0.00    -0.280 OA 
HETATM    6  CA  UNL     1     -11.615  12.789  69.179  1.00  0.00    -0.319 C  
HETATM    7  N   UNL     1     -11.194  11.545  69.560  1.00  0.00    -0.253 N  
HETATM    8  O   UNL     1     -12.228  10.668  71.442  1.00  0.00    -0.350 OA 
HETATM    9  C   UNL     1     -12.355  13.674  70.159  1.00  0.00    -0.304 C  
HETATM   10  CA  UNL     1     -10.507   9.599  69.838  1.00  0.00    -0.253 C  
HETATM   11  OXT UNL     1     -12.377  14.890  70.065  1.00  0.00    -0.324 OA 
HETATM   12  C   UNL     1     -11.455  10.632  70.514  1.00  0.00    -0.317 C  
ENDROOT
BRANCH   4  13
HETATM   13  C   UNL     1     -11.814  14.575  67.350  1.00  0.00    -0.388 C  
BRANCH  13  14
HETATM   14  S   UNL     1     -10.637  15.214  66.105  1.00  0.00    -0.325 SA 
BRANCH  14  15
HETATM   15  C   UNL     1      -9.931  16.507  67.014  1.00  0.00    -0.268 A  
HETATM   16  N   UNL     1     -10.343  17.754  67.018  1.00  0.00    -0.343 NA 
HETATM   17  N   UNL     1      -8.860  16.399  67.861  1.00  0.00    -0.183 NA 
HETATM   18  N   UNL     1      -9.540  18.418  67.909  1.00  0.00    -0.285 NA 
HETATM   19  N   UNL     1      -8.656  17.597  68.454  1.00  0.00    -0.278 NA 
BRANCH  17  20
HETATM   20  C   UNL     1      -8.103  15.238  68.271  1.00  0.00    -0.137 C  
HETATM   21  O   UNL     1      -6.155  15.979  66.975  1.00  0.00    -0.324 OA 
HETATM   22  C   UNL     1      -6.851  14.939  67.478  1.00  0.00    -0.161 C  
HETATM   23  O   UNL     1      -6.423  13.795  67.368  1.00  0.00    -0.292 OA 
ENDBRANCH  17  20
ENDBRANCH  14  15
ENDBRANCH  13  14
ENDBRANCH   4  13
BRANCH  10  24
HETATM   24  N   UNL     1     -11.158   8.392  69.278  1.00  0.00    -0.428 N  
HETATM   25  C   UNL     1     -10.896   7.092  69.619  1.00  0.00    -0.247 C  
HETATM   26  O   UNL     1     -11.474   6.188  69.016  1.00  0.00    -0.340 OA 
HETATM   27  H   UNL     1     -11.875   8.544  68.569  1.00  0.00     0.000 HD 
BRANCH  25  28
HETATM   28  C   UNL     1      -9.885   6.815  70.721  1.00  0.00    -0.194 C  
BRANCH  28  29
HETATM   29  C   UNL     1     -10.173   5.575  71.540  1.00  0.00    -0.270 A  
HETATM   30  C   UNL     1      -9.571   4.325  71.271  1.00  0.00    -0.242 A  
HETATM   31  C   UNL     1      -9.898   3.232  72.098  1.00  0.00    -0.237 A  
HETATM   32  C   UNL     1     -11.053   5.689  72.637  1.00  0.00    -0.331 A  
HETATM   33  C   UNL     1     -10.767   3.366  73.180  1.00  0.00    -0.266 A  
HETATM   34  C   UNL     1     -11.351   4.595  73.447  1.00  0.00    -0.394 A  
BRANCH  30  35
HETATM   35  C   UNL     1      -8.644   4.104  70.090  1.00  0.00    -0.069 C  
HETATM   36  N   UNL     1      -9.354   3.691  68.879  1.00  0.00    -0.161 NA 
HETATM   37  H1  UNL     1      -8.730   3.542  68.085  1.00  0.00     0.000 HD 
HETATM   38  H2  UNL     1     -10.092   4.355  68.645  1.00  0.00     0.000 HD 
ENDBRANCH  30  35
ENDBRANCH  28  29
ENDBRANCH  25  28
ENDBRANCH  10  24
TORSDOF 8
ENDMDL
MODEL       63
REMARK 921   NORMALIZED FREE ENERGY PREDICTED BY IDOCK:   -6.98 KCAL/MOL
REMARK 922        TOTAL FREE ENERGY PREDICTED BY IDOCK:  -11.07 KCAL/MOL
REMARK 923 INTER-LIGAND FREE ENERGY PREDICTED BY IDOCK:   -9.52 KCAL/MOL
REMARK 924 INTRA-LIGAND FREE ENERGY PREDICTED BY IDOCK:   -1.54 KCAL/MOL
REMARK 927      BINDING AFFINITY PREDICTED BY RF-SCORE:    0.00 PKD
ROOT
HETATM    1  C   UNL     1     -11.574  13.564  68.733  1.00  0.00    -0.325 C  
HETATM    2  S   UNL     1     -10.421  12.189  68.535  1.00  0.00    -0.221 SA 
HETATM    3  C   UNL     1     -11.611  10.940  69.071  1.00  0.00    -0.316 C  
HETATM    4  C   UNL     1     -12.416  11.306  70.313  1.00  0.00    -0.330 C  
HETATM    5  O   UNL     1     -12.976  13.939  72.783  1.00  0.00    -0.413 OA 
HETATM    6  CA  UNL     1     -12.530  12.574  70.807  1.00  0.00    -0.268 C  
HETATM    7  N   UNL     1     -11.970  13.618  70.126  1.00  0.00    -0.335 N  
HETATM    8  O   UNL     1     -11.662  15.566  71.347  1.00  0.00    -0.329 OA 
HETATM    9  C   UNL     1     -13.281  12.825  72.098  1.00  0.00    -0.441 C  
HETATM   10  CA  UNL     1     -10.964  14.991  68.926  1.00  0.00    -0.252 C  
HETATM   11  OXT UNL     1     -14.142  12.070  72.519  1.00  0.00     0.190 OA 
HETATM   12  C   UNL     1     -11.589  14.889  70.348  1.00  0.00    -0.281 C  
ENDROOT
BRANCH   4  13
HETATM   13  C   UNL     1     -12.951  10.052  71.003  1.00  0.00    -0.360 C  
BRANCH  13  14
HETATM   14  S   UNL     1     -11.636   9.190  71.936  1.00  0.00    -0.308 SA 
BRANCH  14  15
HETATM   15  C   UNL     1     -11.305   7.895  70.838  1.00  0.00    -0.277 A  
HETATM   16  N   UNL     1     -12.085   6.861  70.617  1.00  0.00    -0.358 NA 
HETATM   17  N   UNL     1     -10.197   7.783  70.040  1.00  0.00    -0.206 NA 
HETATM   18  N   UNL     1     -11.468   6.119  69.643  1.00  0.00    -0.391 NA 
HETATM   19  N   UNL     1     -10.336   6.687  69.259  1.00  0.00    -0.189 NA 
BRANCH  17  20
HETATM   20  C   UNL     1      -9.089   8.689  69.844  1.00  0.00    -0.151 C  
HETATM   21  O   UNL     1      -7.834   7.642  71.676  1.00  0.00    -0.083 OA 
HETATM   22  C   UNL     1      -8.076   8.762  70.964  1.00  0.00    -0.156 C  
HETATM   23  O   UNL     1      -7.422   9.780  71.169  1.00  0.00    -0.301 OA 
ENDBRANCH  17  20
ENDBRANCH  14  15
ENDBRANCH  13  14
ENDBRANCH   4  13
BRANCH  10  24
HETATM   24  N   UNL     1      -9.491  15.139  68.876  1.00  0.00    -0.204 N  
HETATM   25  C   UNL     1      -8.783  16.303  69.020  1.00  0.00    -0.246 C  
HETATM   26  O   UNL     1      -7.560  16.278  68.886  1.00  0.00    -0.186 OA 
HETATM   27  H   UNL     1      -8.949  14.289  68.718  1.00  0.00     0.000 HD 
BRANCH  25  28
HETATM   28  C   UNL     1      -9.540  17.586  69.325  1.00  0.00     0.062 C  
BRANCH  28  29
HETATM   29  C   UNL     1      -9.587  18.574  68.180  1.00  0.00    -0.353 A  
HETATM   30  C   UNL     1      -8.595  19.561  67.981  1.00  0.00    -0.365 A  
HETATM   31  C   UNL     1      -8.725  20.429  66.878  1.00  0.00    -0.345 A  
HETATM   32  C   UNL     1     -10.651  18.477  67.257  1.00  0.00    -0.453 A  
HETATM   33  C   UNL     1      -9.781  20.314  65.975  1.00  0.00    -0.353 A  
HETATM   34  C   UNL     1     -10.750  19.341  66.168  1.00  0.00    -0.478 A  
BRANCH  30  35
HETATM   35  C   UNL     1      -7.439  19.760  68.943  1.00  0.00    -0.268 C  
HETATM   36  N   UNL     1      -6.311  18.869  68.669  1.00  0.00    -0.230 NA 
HETATM   37  H1  UNL     1      -5.533  19.003  69.316  1.00  0.00     0.000 HD 
HETATM   38  H2  UNL     1      -6.001  18.960  67.701  1.00  0.00     0.000 HD 
ENDBRANCH  30  35
ENDBRANCH  28  29
ENDBRANCH  25  28
ENDBRANCH  10  24
TORSDOF 8
ENDMDL
MODEL       64
REMARK 921   NORMALIZED FREE ENERGY PREDICTED BY IDOCK:   -6.97 KCAL/MOL
REMARK 922        TOTAL FREE ENERGY PREDICTED BY IDOCK:  -11.05 KCAL/MOL
REMARK 923 INTER-LIGAND FREE ENERGY PREDICTED BY IDOCK:   -9.82 KCAL/MOL
REMARK 924 INTRA-LIGAND FREE ENERGY PREDICTED BY IDOCK:   -1.22 KCAL/MOL
REMARK 927      BINDING AFFINITY PREDICTED BY RF-SCORE:    0.00 PKD
ROOT
HETATM    1  C   UNL     1     -11.636  11.977  67.422  1.00  0.00    -0.318 C  
HETATM    2  S   UNL     1     -10.124  10.991  67.412  1.00  0.00    -0.192 SA 
HETATM    3  C   UNL     1     -10.793   9.713  68.499  1.00  0.00    -0.161 C  
HETATM    4  C   UNL     1     -11.556  10.231  69.713  1.00  0.00    -0.294 C  
HETATM    5  O   UNL     1     -12.710  13.270  71.382  1.00  0.00    -0.354 OA 
HETATM    6  CA  UNL     1     -12.028  11.508  69.834  1.00  0.00    -0.351 C  
HETATM    7  N   UNL     1     -11.899  12.378  68.788  1.00  0.00    -0.322 N  
HETATM    8  O   UNL     1     -12.128  14.625  69.317  1.00  0.00    -0.310 OA 
HETATM    9  C   UNL     1     -12.699  11.954  71.116  1.00  0.00    -0.284 C  
HETATM   10  CA  UNL     1     -11.505  13.497  67.077  1.00  0.00    -0.340 C  
HETATM   11  OXT UNL     1     -13.228  11.174  71.892  1.00  0.00    -0.470 OA 
HETATM   12  C   UNL     1     -11.931  13.704  68.560  1.00  0.00    -0.361 C  
ENDROOT
BRANCH   4  13
HETATM   13  C   UNL     1     -11.592   9.181  70.822  1.00  0.00    -0.276 C  
BRANCH  13  14
HETATM   14  S   UNL     1     -10.566   7.728  70.399  1.00  0.00    -0.231 SA 
BRANCH  14  15
HETATM   15  C   UNL     1     -10.764   6.805  71.850  1.00  0.00    -0.223 A  
HETATM   16  N   UNL     1     -11.606   5.811  72.017  1.00  0.00    -0.218 NA 
HETATM   17  N   UNL     1     -10.057   6.977  73.011  1.00  0.00    -0.192 NA 
HETATM   18  N   UNL     1     -11.391   5.337  73.285  1.00  0.00    -0.296 NA 
HETATM   19  N   UNL     1     -10.428   6.016  73.888  1.00  0.00    -0.276 NA 
BRANCH  17  20
HETATM   20  C   UNL     1      -8.965   7.871  73.320  1.00  0.00    -0.264 C  
HETATM   21  O   UNL     1      -7.333   6.295  72.382  1.00  0.00    -0.089 OA 
HETATM   22  C   UNL     1      -7.576   7.274  73.278  1.00  0.00    -0.082 C  
HETATM   23  O   UNL     1      -6.668   7.722  73.969  1.00  0.00    -0.088 OA 
ENDBRANCH  17  20
ENDBRANCH  14  15
ENDBRANCH  13  14
ENDBRANCH   4  13
BRANCH  10  24
HETATM   24  N   UNL     1     -10.170  14.023  66.709  1.00  0.00    -0.260 N  
HETATM   25  C   UNL     1      -9.850  15.329  66.450  1.00  0.00    -0.275 C  
HETATM   26  O   UNL     1      -8.706  15.604  66.089  1.00  0.00    -0.317 OA 
HETATM   27  H   UNL     1      -9.412  13.343  66.641  1.00  0.00     0.000 HD 
BRANCH  25  28
HETATM   28  C   UNL     1     -10.929  16.389  66.605  1.00  0.00     0.024 C  
BRANCH  28  29
HETATM   29  C   UNL     1     -10.408  17.771  66.936  1.00  0.00    -0.344 A  
HETATM   30  C   UNL     1      -9.784  18.078  68.165  1.00  0.00    -0.323 A  
HETATM   31  C   UNL     1      -9.324  19.394  68.373  1.00  0.00    -0.426 A  
HETATM   32  C   UNL     1     -10.524  18.781  65.956  1.00  0.00    -0.483 A  
HETATM   33  C   UNL     1      -9.444  20.376  67.391  1.00  0.00    -0.561 A  
HETATM   34  C   UNL     1     -10.052  20.072  66.183  1.00  0.00    -0.588 A  
BRANCH  30  35
HETATM   35  C   UNL     1      -9.651  17.066  69.288  1.00  0.00    -0.040 C  
HETATM   36  N   UNL     1     -10.812  17.049  70.178  1.00  0.00    -0.236 NA 
HETATM   37  H1  UNL     1     -10.723  16.368  70.933  1.00  0.00     0.000 HD 
HETATM   38  H2  UNL     1     -11.674  16.901  69.652  1.00  0.00     0.000 HD 
ENDBRANCH  30  35
ENDBRANCH  28  29
ENDBRANCH  25  28
ENDBRANCH  10  24
TORSDOF 8
ENDMDL
MODEL       65
REMARK 921   NORMALIZED FREE ENERGY PREDICTED BY IDOCK:   -6.97 KCAL/MOL
REMARK 922        TOTAL FREE ENERGY PREDICTED BY IDOCK:  -11.04 KCAL/MOL
REMARK 923 INTER-LIGAND FREE ENERGY PREDICTED BY IDOCK:   -9.42 KCAL/MOL
REMARK 924 INTRA-LIGAND FREE ENERGY PREDICTED BY IDOCK:   -1.62 KCAL/MOL
REMARK 927      BINDING AFFINITY PREDICTED BY RF-SCORE:    0.00 PKD
ROOT
HETATM    1  C   UNL     1     -11.077  10.416  68.612  1.00  0.00    -0.262 C  
HETATM    2  S   UNL     1      -9.565   9.491  68.950  1.00  0.00    -0.161 SA 
HETATM    3  C   UNL     1     -10.431   8.089  69.692  1.00  0.00    -0.224 C  
HETATM    4  C   UNL     1     -11.533   8.459  70.677  1.00  0.00    -0.235 C  
HETATM    5  O   UNL     1     -13.294  11.278  72.197  1.00  0.00    -0.457 OA 
HETATM    6  CA  UNL     1     -12.099   9.700  70.765  1.00  0.00    -0.248 C  
HETATM    7  N   UNL     1     -11.736  10.673  69.876  1.00  0.00    -0.290 N  
HETATM    8  O   UNL     1     -12.242  12.847  70.504  1.00  0.00    -0.368 OA 
HETATM    9  C   UNL     1     -13.128   9.995  71.836  1.00  0.00    -0.460 C  
HETATM   10  CA  UNL     1     -10.948  11.967  68.447  1.00  0.00    -0.232 C  
HETATM   11  OXT UNL     1     -13.804   9.125  72.361  1.00  0.00    -0.469 OA 
HETATM   12  C   UNL     1     -11.785  12.012  69.759  1.00  0.00    -0.319 C  
ENDROOT
BRANCH   4  13
HETATM   13  C   UNL     1     -11.814   7.305  71.638  1.00  0.00    -0.298 C  
BRANCH  13  14
HETATM   14  S   UNL     1     -10.809   7.444  73.159  1.00  0.00    -0.354 SA 
BRANCH  14  15
HETATM   15  C   UNL     1      -9.561   6.306  72.784  1.00  0.00    -0.154 A  
HETATM   16  N   UNL     1      -9.679   5.281  71.972  1.00  0.00    -0.157 NA 
HETATM   17  N   UNL     1      -8.280   6.332  73.270  1.00  0.00    -0.115 NA 
HETATM   18  N   UNL     1      -8.444   4.686  71.925  1.00  0.00    -0.115 NA 
HETATM   19  N   UNL     1      -7.576   5.337  72.684  1.00  0.00    -0.096 NA 
BRANCH  17  20
HETATM   20  C   UNL     1      -7.622   7.294  74.125  1.00  0.00    -0.111 C  
HETATM   21  O   UNL     1      -7.415   8.887  72.269  1.00  0.00    -0.338 OA 
HETATM   22  C   UNL     1      -6.903   8.428  73.429  1.00  0.00    -0.090 C  
HETATM   23  O   UNL     1      -5.935   8.980  73.942  1.00  0.00    -0.212 OA 
ENDBRANCH  17  20
ENDBRANCH  14  15
ENDBRANCH  13  14
ENDBRANCH   4  13
BRANCH  10  24
HETATM   24  N   UNL     1      -9.599  12.572  68.519  1.00  0.00    -0.367 N  
HETATM   25  C   UNL     1      -9.172  13.694  67.859  1.00  0.00    -0.203 C  
HETATM   26  O   UNL     1      -7.996  14.039  67.967  1.00  0.00    -0.127 OA 
HETATM   27  H   UNL     1      -8.918  12.108  69.120  1.00  0.00     0.000 HD 
BRANCH  25  28
HETATM   28  C   UNL     1     -10.168  14.462  67.004  1.00  0.00    -0.263 C  
BRANCH  28  29
HETATM   29  C   UNL     1     -10.140  15.962  67.202  1.00  0.00    -0.264 A  
HETATM   30  C   UNL     1     -10.690  16.593  68.341  1.00  0.00    -0.353 A  
HETATM   31  C   UNL     1     -10.604  17.997  68.436  1.00  0.00    -0.249 A  
HETATM   32  C   UNL     1      -9.506  16.753  66.220  1.00  0.00    -0.314 A  
HETATM   33  C   UNL     1      -9.970  18.760  67.457  1.00  0.00    -0.382 A  
HETATM   34  C   UNL     1      -9.425  18.139  66.344  1.00  0.00    -0.284 A  
BRANCH  30  35
HETATM   35  C   UNL     1     -11.422  15.825  69.425  1.00  0.00    -0.355 C  
HETATM   36  N   UNL     1     -10.524  15.291  70.449  1.00  0.00    -0.500 NA 
HETATM   37  H1  UNL     1     -11.016  14.774  71.178  1.00  0.00     0.000 HD 
HETATM   38  H2  UNL     1      -9.948  16.032  70.851  1.00  0.00     0.000 HD 
ENDBRANCH  30  35
ENDBRANCH  28  29
ENDBRANCH  25  28
ENDBRANCH  10  24
TORSDOF 8
ENDMDL
MODEL       66
REMARK 921   NORMALIZED FREE ENERGY PREDICTED BY IDOCK:   -6.96 KCAL/MOL
REMARK 922        TOTAL FREE ENERGY PREDICTED BY IDOCK:  -11.03 KCAL/MOL
REMARK 923 INTER-LIGAND FREE ENERGY PREDICTED BY IDOCK:   -9.17 KCAL/MOL
REMARK 924 INTRA-LIGAND FREE ENERGY PREDICTED BY IDOCK:   -1.86 KCAL/MOL
REMARK 927      BINDING AFFINITY PREDICTED BY RF-SCORE:    0.00 PKD
ROOT
HETATM    1  C   UNL     1      -8.934   8.576  68.665  1.00  0.00    -0.139 C  
HETATM    2  S   UNL     1      -8.840   9.541  70.187  1.00  0.00    -0.238 SA 
HETATM    3  C   UNL     1      -7.584   8.482  70.938  1.00  0.00    -0.080 C  
HETATM    4  C   UNL     1      -7.835   6.985  70.802  1.00  0.00    -0.096 C  
HETATM    5  O   UNL     1     -10.116   4.504  69.391  1.00  0.00    -0.193 OA 
HETATM    6  CA  UNL     1      -8.710   6.432  69.910  1.00  0.00    -0.142 C  
HETATM    7  N   UNL     1      -9.356   7.235  69.012  1.00  0.00    -0.148 N  
HETATM    8  O   UNL     1     -11.244   6.319  68.023  1.00  0.00    -0.323 OA 
HETATM    9  C   UNL     1      -8.955   4.938  69.908  1.00  0.00    -0.099 C  
HETATM   10  CA  UNL     1     -10.245   8.693  67.820  1.00  0.00    -0.225 C  
HETATM   11  OXT UNL     1      -8.146   4.135  70.343  1.00  0.00    -0.058 OA 
HETATM   12  C   UNL     1     -10.438   7.199  68.212  1.00  0.00    -0.198 C  
ENDROOT
BRANCH   4  13
HETATM   13  C   UNL     1      -7.090   6.207  71.886  1.00  0.00    -0.086 C  
BRANCH  13  14
HETATM   14  S   UNL     1      -7.796   6.529  73.542  1.00  0.00    -0.090 SA 
BRANCH  14  15
HETATM   15  C   UNL     1      -9.224   5.558  73.439  1.00  0.00    -0.131 A  
HETATM   16  N   UNL     1      -9.274   4.253  73.577  1.00  0.00    -0.101 NA 
HETATM   17  N   UNL     1     -10.494   6.021  73.218  1.00  0.00    -0.225 NA 
HETATM   18  N   UNL     1     -10.597   3.908  73.477  1.00  0.00    -0.180 NA 
HETATM   19  N   UNL     1     -11.353   4.979  73.293  1.00  0.00    -0.335 NA 
BRANCH  17  20
HETATM   20  C   UNL     1     -10.989   7.373  73.086  1.00  0.00    -0.359 C  
HETATM   21  O   UNL     1     -12.429   6.723  71.208  1.00  0.00    -0.362 OA 
HETATM   22  C   UNL     1     -11.711   7.700  71.798  1.00  0.00    -0.283 C  
HETATM   23  O   UNL     1     -11.723   8.840  71.345  1.00  0.00    -0.274 OA 
ENDBRANCH  17  20
ENDBRANCH  14  15
ENDBRANCH  13  14
ENDBRANCH   4  13
BRANCH  10  24
HETATM   24  N   UNL     1     -11.299   9.625  68.282  1.00  0.00    -0.505 N  
HETATM   25  C   UNL     1     -11.379  10.965  68.012  1.00  0.00    -0.312 C  
HETATM   26  O   UNL     1     -12.282  11.625  68.525  1.00  0.00    -0.485 OA 
HETATM   27  H   UNL     1     -12.041   9.229  68.859  1.00  0.00     0.000 HD 
BRANCH  25  28
HETATM   28  C   UNL     1     -10.335  11.590  67.099  1.00  0.00    -0.248 C  
BRANCH  28  29
HETATM   29  C   UNL     1     -10.868  12.055  65.762  1.00  0.00    -0.329 A  
HETATM   30  C   UNL     1     -10.579  11.388  64.550  1.00  0.00    -0.390 A  
HETATM   31  C   UNL     1     -11.132  11.896  63.357  1.00  0.00    -0.463 A  
HETATM   32  C   UNL     1     -11.717  13.183  65.737  1.00  0.00    -0.415 A  
HETATM   33  C   UNL     1     -11.972  13.009  63.354  1.00  0.00    -0.592 A  
HETATM   34  C   UNL     1     -12.260  13.658  64.545  1.00  0.00    -0.444 A  
BRANCH  30  35
HETATM   35  C   UNL     1      -9.646  10.193  64.479  1.00  0.00    -0.311 C  
HETATM   36  N   UNL     1      -8.239  10.577  64.367  1.00  0.00    -0.307 NA 
HETATM   37  H1  UNL     1      -7.612   9.773  64.319  1.00  0.00     0.000 HD 
HETATM   38  H2  UNL     1      -7.970  11.206  65.124  1.00  0.00     0.000 HD 
ENDBRANCH  30  35
ENDBRANCH  28  29
ENDBRANCH  25  28
ENDBRANCH  10  24
TORSDOF 8
ENDMDL
MODEL       67
REMARK 921   NORMALIZED FREE ENERGY PREDICTED BY IDOCK:   -6.92 KCAL/MOL
REMARK 922        TOTAL FREE ENERGY PREDICTED BY IDOCK:  -10.98 KCAL/MOL
REMARK 923 INTER-LIGAND FREE ENERGY PREDICTED BY IDOCK:   -9.75 KCAL/MOL
REMARK 924 INTRA-LIGAND FREE ENERGY PREDICTED BY IDOCK:   -1.23 KCAL/MOL
REMARK 927      BINDING AFFINITY PREDICTED BY RF-SCORE:    0.00 PKD
ROOT
HETATM    1  C   UNL     1     -11.660   9.979  69.196  1.00  0.00     0.045 C  
HETATM    2  S   UNL     1     -11.120  11.547  69.907  1.00  0.00     0.125 SA 
HETATM    3  C   UNL     1     -11.433  12.491  68.398  1.00  0.00    -0.312 C  
HETATM    4  C   UNL     1     -10.942  11.835  67.113  1.00  0.00    -0.326 C  
HETATM    5  O   UNL     1      -9.316   8.852  65.769  1.00  0.00    -0.229 OA 
HETATM    6  CA  UNL     1     -10.613  10.514  67.003  1.00  0.00    -0.253 C  
HETATM    7  N   UNL     1     -10.801   9.679  68.069  1.00  0.00    -0.228 N  
HETATM    8  O   UNL     1      -9.635   7.676  67.995  1.00  0.00    -0.142 OA 
HETATM    9  C   UNL     1     -10.052   9.973  65.704  1.00  0.00    -0.251 C  
HETATM   10  CA  UNL     1     -11.124   8.667  69.860  1.00  0.00    -0.116 C  
HETATM   11  OXT UNL     1     -10.251  10.506  64.625  1.00  0.00    -0.345 OA 
HETATM   12  C   UNL     1     -10.384   8.476  68.503  1.00  0.00    -0.198 C  
ENDROOT
BRANCH   4  13
HETATM   13  C   UNL     1     -10.733  12.878  66.016  1.00  0.00    -0.277 C  
BRANCH  13  14
HETATM   14  S   UNL     1     -10.050  14.433  66.694  1.00  0.00    -0.282 SA 
BRANCH  14  15
HETATM   15  C   UNL     1     -10.684  15.554  65.538  1.00  0.00    -0.381 A  
HETATM   16  N   UNL     1     -11.369  15.239  64.462  1.00  0.00    -0.342 NA 
HETATM   17  N   UNL     1     -10.570  16.917  65.598  1.00  0.00    -0.481 NA 
HETATM   18  N   UNL     1     -11.716  16.425  63.870  1.00  0.00    -1.024 NA 
HETATM   19  N   UNL     1     -11.266  17.454  64.570  1.00  0.00    -0.789 NA 
BRANCH  17  20
HETATM   20  C   UNL     1      -9.988  17.765  66.614  1.00  0.00    -0.338 C  
HETATM   21  O   UNL     1      -7.750  17.486  65.647  1.00  0.00    -0.495 OA 
HETATM   22  C   UNL     1      -8.484  17.706  66.757  1.00  0.00    -0.251 C  
HETATM   23  O   UNL     1      -7.935  17.941  67.828  1.00  0.00    -0.223 OA 
ENDBRANCH  17  20
ENDBRANCH  14  15
ENDBRANCH  13  14
ENDBRANCH   4  13
BRANCH  10  24
HETATM   24  N   UNL     1     -10.261   8.786  71.057  1.00  0.00    -0.218 N  
HETATM   25  C   UNL     1     -10.260   7.959  72.148  1.00  0.00    -0.227 C  
HETATM   26  O   UNL     1      -9.528   8.226  73.101  1.00  0.00    -0.257 OA 
HETATM   27  H   UNL     1      -9.599   9.563  71.071  1.00  0.00     0.000 HD 
BRANCH  25  28
HETATM   28  C   UNL     1     -11.180   6.748  72.146  1.00  0.00    -0.294 C  
BRANCH  28  29
HETATM   29  C   UNL     1     -10.504   5.446  72.520  1.00  0.00    -0.262 A  
HETATM   30  C   UNL     1      -9.493   4.855  71.729  1.00  0.00    -0.199 A  
HETATM   31  C   UNL     1      -8.919   3.646  72.169  1.00  0.00    -0.137 A  
HETATM   32  C   UNL     1     -10.882   4.820  73.728  1.00  0.00    -0.379 A  
HETATM   33  C   UNL     1      -9.302   3.045  73.368  1.00  0.00    -0.106 A  
HETATM   34  C   UNL     1     -10.291   3.629  74.145  1.00  0.00    -0.246 A  
BRANCH  30  35
HETATM   35  C   UNL     1      -9.052   5.439  70.400  1.00  0.00    -0.141 C  
HETATM   36  N   UNL     1      -9.902   5.017  69.285  1.00  0.00    -0.179 NA 
HETATM   37  H1  UNL     1      -9.606   5.410  68.391  1.00  0.00     0.000 HD 
HETATM   38  H2  UNL     1     -10.882   5.232  69.472  1.00  0.00     0.000 HD 
ENDBRANCH  30  35
ENDBRANCH  28  29
ENDBRANCH  25  28
ENDBRANCH  10  24
TORSDOF 8
ENDMDL
MODEL       68
REMARK 921   NORMALIZED FREE ENERGY PREDICTED BY IDOCK:   -6.90 KCAL/MOL
REMARK 922        TOTAL FREE ENERGY PREDICTED BY IDOCK:  -10.94 KCAL/MOL
REMARK 923 INTER-LIGAND FREE ENERGY PREDICTED BY IDOCK:   -9.08 KCAL/MOL
REMARK 924 INTRA-LIGAND FREE ENERGY PREDICTED BY IDOCK:   -1.87 KCAL/MOL
REMARK 927      BINDING AFFINITY PREDICTED BY RF-SCORE:    0.00 PKD
ROOT
HETATM    1  C   UNL     1      -9.543  12.295  68.671  1.00  0.00    -0.043 C  
HETATM    2  S   UNL     1      -7.844  12.646  68.173  1.00  0.00    -0.154 SA 
HETATM    3  C   UNL     1      -8.243  14.262  67.472  1.00  0.00    -0.189 C  
HETATM    4  C   UNL     1      -9.492  14.298  66.600  1.00  0.00    -0.302 C  
HETATM    5  O   UNL     1     -12.246  12.263  65.324  1.00  0.00    -0.508 OA 
HETATM    6  CA  UNL     1     -10.454  13.328  66.598  1.00  0.00    -0.279 C  
HETATM    7  N   UNL     1     -10.366  12.286  67.479  1.00  0.00    -0.202 N  
HETATM    8  O   UNL     1     -11.642  10.421  66.961  1.00  0.00    -0.080 OA 
HETATM    9  C   UNL     1     -11.618  13.409  65.632  1.00  0.00    -0.327 C  
HETATM   10  CA  UNL     1      -9.939  10.795  68.868  1.00  0.00    -0.202 C  
HETATM   11  OXT UNL     1     -12.000  14.461  65.145  1.00  0.00    -0.368 OA 
HETATM   12  C   UNL     1     -10.859  11.045  67.638  1.00  0.00    -0.256 C  
ENDROOT
BRANCH   4  13
HETATM   13  C   UNL     1      -9.449  15.482  65.635  1.00  0.00    -0.236 C  
BRANCH  13  14
HETATM   14  S   UNL     1      -8.313  16.786  66.229  1.00  0.00    -0.286 SA 
BRANCH  14  15
HETATM   15  C   UNL     1      -9.471  17.985  66.695  1.00  0.00    -0.297 A  
HETATM   16  N   UNL     1      -9.924  18.950  65.928  1.00  0.00    -0.506 NA 
HETATM   17  N   UNL     1     -10.081  18.077  67.917  1.00  0.00    -0.336 NA 
HETATM   18  N   UNL     1     -10.854  19.626  66.674  1.00  0.00    -0.436 NA 
HETATM   19  N   UNL     1     -10.984  19.083  67.875  1.00  0.00    -0.203 NA 
BRANCH  17  20
HETATM   20  C   UNL     1      -9.995  17.216  69.075  1.00  0.00    -0.273 C  
HETATM   21  O   UNL     1     -11.976  15.957  68.356  1.00  0.00    -0.251 OA 
HETATM   22  C   UNL     1     -11.221  16.388  69.387  1.00  0.00    -0.267 C  
HETATM   23  O   UNL     1     -11.480  16.038  70.534  1.00  0.00    -0.354 OA 
ENDBRANCH  17  20
ENDBRANCH  14  15
ENDBRANCH  13  14
ENDBRANCH   4  13
BRANCH  10  24
HETATM   24  N   UNL     1      -8.891   9.762  68.693  1.00  0.00    -0.123 N  
HETATM   25  C   UNL     1      -9.045   8.410  68.850  1.00  0.00    -0.147 C  
HETATM   26  O   UNL     1      -8.061   7.680  68.736  1.00  0.00    -0.123 OA 
HETATM   27  H   UNL     1      -7.962  10.091  68.430  1.00  0.00     0.000 HD 
BRANCH  25  28
HETATM   28  C   UNL     1     -10.427   7.865  69.174  1.00  0.00    -0.218 C  
BRANCH  28  29
HETATM   29  C   UNL     1     -10.583   7.352  70.590  1.00  0.00    -0.234 A  
HETATM   30  C   UNL     1     -10.291   6.019  70.956  1.00  0.00    -0.270 A  
HETATM   31  C   UNL     1     -10.460   5.642  72.304  1.00  0.00    -0.260 A  
HETATM   32  C   UNL     1     -11.003   8.259  71.586  1.00  0.00    -0.327 A  
HETATM   33  C   UNL     1     -10.872   6.554  73.274  1.00  0.00    -0.276 A  
HETATM   34  C   UNL     1     -11.152   7.863  72.914  1.00  0.00    -0.442 A  
BRANCH  30  35
HETATM   35  C   UNL     1      -9.870   4.969  69.945  1.00  0.00    -0.226 C  
HETATM   36  N   UNL     1      -8.422   4.765  69.907  1.00  0.00    -0.074 NA 
HETATM   37  H1  UNL     1      -8.138   4.059  69.227  1.00  0.00     0.000 HD 
HETATM   38  H2  UNL     1      -8.061   4.544  70.836  1.00  0.00     0.000 HD 
ENDBRANCH  30  35
ENDBRANCH  28  29
ENDBRANCH  25  28
ENDBRANCH  10  24
TORSDOF 8
ENDMDL
MODEL       69
REMARK 921   NORMALIZED FREE ENERGY PREDICTED BY IDOCK:   -6.86 KCAL/MOL
REMARK 922        TOTAL FREE ENERGY PREDICTED BY IDOCK:  -10.89 KCAL/MOL
REMARK 923 INTER-LIGAND FREE ENERGY PREDICTED BY IDOCK:   -9.92 KCAL/MOL
REMARK 924 INTRA-LIGAND FREE ENERGY PREDICTED BY IDOCK:   -0.97 KCAL/MOL
REMARK 927      BINDING AFFINITY PREDICTED BY RF-SCORE:    0.00 PKD
ROOT
HETATM    1  C   UNL     1      -9.102  12.945  68.080  1.00  0.00    -0.207 C  
HETATM    2  S   UNL     1      -7.331  13.289  68.048  1.00  0.00    -0.147 SA 
HETATM    3  C   UNL     1      -7.545  15.071  67.845  1.00  0.00    -0.139 C  
HETATM    4  C   UNL     1      -8.590  15.483  66.815  1.00  0.00    -0.307 C  
HETATM    5  O   UNL     1     -11.068  14.190  64.462  1.00  0.00    -0.376 OA 
HETATM    6  CA  UNL     1      -9.551  14.647  66.321  1.00  0.00    -0.308 C  
HETATM    7  N   UNL     1      -9.665  13.379  66.818  1.00  0.00    -0.255 N  
HETATM    8  O   UNL     1     -10.848  11.884  65.498  1.00  0.00    -0.280 OA 
HETATM    9  C   UNL     1     -10.492  15.125  65.235  1.00  0.00    -0.409 C  
HETATM   10  CA  UNL     1      -9.560  11.498  67.705  1.00  0.00    -0.171 C  
HETATM   11  OXT UNL     1     -10.746  16.304  65.051  1.00  0.00    -0.600 OA 
HETATM   12  C   UNL     1     -10.206  12.197  66.473  1.00  0.00    -0.206 C  
ENDROOT
BRANCH   4  13
HETATM   13  C   UNL     1      -8.327  16.901  66.310  1.00  0.00    -0.296 C  
BRANCH  13  14
HETATM   14  S   UNL     1      -6.566  17.357  66.489  1.00  0.00    -0.266 SA 
BRANCH  14  15
HETATM   15  C   UNL     1      -6.681  18.420  67.850  1.00  0.00    -0.216 A  
HETATM   16  N   UNL     1      -6.063  18.263  68.999  1.00  0.00    -0.219 NA 
HETATM   17  N   UNL     1      -7.417  19.574  67.905  1.00  0.00    -0.267 NA 
HETATM   18  N   UNL     1      -6.392  19.354  69.761  1.00  0.00    -0.294 NA 
HETATM   19  N   UNL     1      -7.188  20.176  69.095  1.00  0.00    -0.133 NA 
BRANCH  17  20
HETATM   20  C   UNL     1      -8.203  20.234  66.888  1.00  0.00    -0.294 C  
HETATM   21  O   UNL     1     -10.287  19.707  68.073  1.00  0.00    -0.426 OA 
HETATM   22  C   UNL     1      -9.686  19.938  66.888  1.00  0.00    -0.407 C  
HETATM   23  O   UNL     1     -10.348  19.995  65.857  1.00  0.00    -0.485 OA 
ENDBRANCH  17  20
ENDBRANCH  14  15
ENDBRANCH  13  14
ENDBRANCH   4  13
BRANCH  10  24
HETATM   24  N   UNL     1      -8.521  10.486  67.404  1.00  0.00    -0.122 N  
HETATM   25  C   UNL     1      -8.722   9.148  67.195  1.00  0.00    -0.123 C  
HETATM   26  O   UNL     1      -7.746   8.418  67.021  1.00  0.00    -0.091 OA 
HETATM   27  H   UNL     1      -7.559  10.820  67.346  1.00  0.00     0.000 HD 
BRANCH  25  28
HETATM   28  C   UNL     1     -10.145   8.613  67.202  1.00  0.00    -0.329 C  
BRANCH  28  29
HETATM   29  C   UNL     1     -10.474   7.719  68.379  1.00  0.00    -0.207 A  
HETATM   30  C   UNL     1     -10.401   6.310  68.311  1.00  0.00    -0.233 A  
HETATM   31  C   UNL     1     -10.719   5.566  69.466  1.00  0.00    -0.332 A  
HETATM   32  C   UNL     1     -10.833   8.329  69.600  1.00  0.00    -0.154 A  
HETATM   33  C   UNL     1     -11.067   6.187  70.665  1.00  0.00    -0.384 A  
HETATM   34  C   UNL     1     -11.131   7.571  70.731  1.00  0.00    -0.280 A  
BRANCH  30  35
HETATM   35  C   UNL     1     -10.061   5.571  67.030  1.00  0.00    -0.194 C  
HETATM   36  N   UNL     1     -11.198   5.470  66.114  1.00  0.00    -0.761 NA 
HETATM   37  H1  UNL     1     -10.969   4.973  65.252  1.00  0.00     0.000 HD 
HETATM   38  H2  UNL     1     -11.587   6.392  65.912  1.00  0.00     0.000 HD 
ENDBRANCH  30  35
ENDBRANCH  28  29
ENDBRANCH  25  28
ENDBRANCH  10  24
TORSDOF 8
ENDMDL
MODEL       70
REMARK 921   NORMALIZED FREE ENERGY PREDICTED BY IDOCK:   -6.86 KCAL/MOL
REMARK 922        TOTAL FREE ENERGY PREDICTED BY IDOCK:  -10.88 KCAL/MOL
REMARK 923 INTER-LIGAND FREE ENERGY PREDICTED BY IDOCK:   -9.48 KCAL/MOL
REMARK 924 INTRA-LIGAND FREE ENERGY PREDICTED BY IDOCK:   -1.40 KCAL/MOL
REMARK 927      BINDING AFFINITY PREDICTED BY RF-SCORE:    0.00 PKD
ROOT
HETATM    1  C   UNL     1     -10.714   9.890  68.856  1.00  0.00    -0.221 C  
HETATM    2  S   UNL     1     -11.997  11.127  69.139  1.00  0.00    -0.285 SA 
HETATM    3  C   UNL     1     -11.500  12.154  67.738  1.00  0.00    -0.332 C  
HETATM    4  C   UNL     1     -10.000  12.386  67.607  1.00  0.00    -0.200 C  
HETATM    5  O   UNL     1      -6.759  11.566  69.082  1.00  0.00    -0.089 OA 
HETATM    6  CA  UNL     1      -9.049  11.633  68.237  1.00  0.00    -0.187 C  
HETATM    7  N   UNL     1      -9.428  10.545  68.973  1.00  0.00    -0.196 N  
HETATM    8  O   UNL     1      -7.854   9.758  70.484  1.00  0.00    -0.214 OA 
HETATM    9  C   UNL     1      -7.584  11.994  68.114  1.00  0.00    -0.120 C  
HETATM   10  CA  UNL     1     -10.291   9.002  70.073  1.00  0.00    -0.206 C  
HETATM   11  OXT UNL     1      -7.139  12.639  67.178  1.00  0.00    -0.129 OA 
HETATM   12  C   UNL     1      -8.931   9.747  69.936  1.00  0.00    -0.229 C  
ENDROOT
BRANCH   4  13
HETATM   13  C   UNL     1      -9.712  13.651  66.800  1.00  0.00    -0.275 C  
BRANCH  13  14
HETATM   14  S   UNL     1     -11.232  14.632  66.533  1.00  0.00    -0.349 SA 
BRANCH  14  15
HETATM   15  C   UNL     1     -10.559  16.225  66.588  1.00  0.00    -0.252 A  
HETATM   16  N   UNL     1     -10.032  16.869  65.571  1.00  0.00    -0.584 NA 
HETATM   17  N   UNL     1     -10.503  17.033  67.692  1.00  0.00    -0.336 NA 
HETATM   18  N   UNL     1      -9.678  18.106  66.045  1.00  0.00    -0.527 NA 
HETATM   19  N   UNL     1      -9.991  18.231  67.325  1.00  0.00    -0.320 NA 
BRANCH  17  20
HETATM   20  C   UNL     1     -11.018  16.833  69.028  1.00  0.00    -0.239 C  
HETATM   21  O   UNL     1      -9.003  15.593  69.681  1.00  0.00    -0.262 OA 
HETATM   22  C   UNL     1     -10.326  15.779  69.862  1.00  0.00    -0.309 C  
HETATM   23  O   UNL     1     -10.923  15.170  70.744  1.00  0.00    -0.283 OA 
ENDBRANCH  17  20
ENDBRANCH  14  15
ENDBRANCH  13  14
ENDBRANCH   4  13
BRANCH  10  24
HETATM   24  N   UNL     1     -11.003   9.187  71.359  1.00  0.00    -0.316 N  
HETATM   25  C   UNL     1     -11.949   8.354  71.895  1.00  0.00    -0.338 C  
HETATM   26  O   UNL     1     -12.503   8.677  72.946  1.00  0.00    -0.278 OA 
HETATM   27  H   UNL     1     -10.764  10.018  71.901  1.00  0.00     0.000 HD 
BRANCH  25  28
HETATM   28  C   UNL     1     -12.290   7.068  71.159  1.00  0.00    -0.423 C  
BRANCH  28  29
HETATM   29  C   UNL     1     -11.383   5.900  71.483  1.00  0.00    -0.256 A  
HETATM   30  C   UNL     1     -10.557   5.283  70.516  1.00  0.00    -0.272 A  
HETATM   31  C   UNL     1      -9.741   4.208  70.920  1.00  0.00    -0.259 A  
HETATM   32  C   UNL     1     -11.341   5.436  72.815  1.00  0.00    -0.358 A  
HETATM   33  C   UNL     1      -9.710   3.767  72.243  1.00  0.00    -0.221 A  
HETATM   34  C   UNL     1     -10.516   4.378  73.191  1.00  0.00    -0.251 A  
BRANCH  30  35
HETATM   35  C   UNL     1     -10.567   5.692  69.055  1.00  0.00    -0.246 C  
HETATM   36  N   UNL     1      -9.223   5.810  68.489  1.00  0.00    -0.120 NA 
HETATM   37  H1  UNL     1      -9.229   6.085  67.506  1.00  0.00     0.000 HD 
HETATM   38  H2  UNL     1      -8.693   4.949  68.624  1.00  0.00     0.000 HD 
ENDBRANCH  30  35
ENDBRANCH  28  29
ENDBRANCH  25  28
ENDBRANCH  10  24
TORSDOF 8
ENDMDL
MODEL       71
REMARK 921   NORMALIZED FREE ENERGY PREDICTED BY IDOCK:   -6.82 KCAL/MOL
REMARK 922        TOTAL FREE ENERGY PREDICTED BY IDOCK:  -10.84 KCAL/MOL
REMARK 923 INTER-LIGAND FREE ENERGY PREDICTED BY IDOCK:   -9.72 KCAL/MOL
REMARK 924 INTRA-LIGAND FREE ENERGY PREDICTED BY IDOCK:   -1.12 KCAL/MOL
REMARK 927      BINDING AFFINITY PREDICTED BY RF-SCORE:    0.00 PKD
ROOT
HETATM    1  C   UNL     1     -11.530  10.432  67.717  1.00  0.00     0.028 C  
HETATM    2  S   UNL     1     -11.100  11.502  69.105  1.00  0.00    -0.258 SA 
HETATM    3  C   UNL     1     -11.920  12.954  68.411  1.00  0.00    -0.248 C  
HETATM    4  C   UNL     1     -11.654  13.201  66.931  1.00  0.00    -0.417 C  
HETATM    5  O   UNL     1      -9.932  11.877  63.993  1.00  0.00    -0.295 OA 
HETATM    6  CA  UNL     1     -11.148  12.264  66.076  1.00  0.00    -0.309 C  
HETATM    7  N   UNL     1     -10.932  10.989  66.521  1.00  0.00    -0.215 N  
HETATM    8  O   UNL     1      -9.505   9.701  65.224  1.00  0.00    -0.250 OA 
HETATM    9  C   UNL     1     -10.836  12.630  64.640  1.00  0.00    -0.319 C  
HETATM   10  CA  UNL     1     -10.641   9.166  67.483  1.00  0.00    -0.249 C  
HETATM   11  OXT UNL     1     -11.376  13.560  64.063  1.00  0.00    -0.363 OA 
HETATM   12  C   UNL     1     -10.230   9.896  66.171  1.00  0.00    -0.207 C  
ENDROOT
BRANCH   4  13
HETATM   13  C   UNL     1     -11.892  14.668  66.573  1.00  0.00    -0.304 C  
BRANCH  13  14
HETATM   14  S   UNL     1     -11.275  15.783  67.883  1.00  0.00    -0.272 SA 
BRANCH  14  15
HETATM   15  C   UNL     1      -9.931  16.489  67.051  1.00  0.00    -0.268 A  
HETATM   16  N   UNL     1      -9.056  15.837  66.320  1.00  0.00    -0.312 NA 
HETATM   17  N   UNL     1      -9.611  17.820  67.031  1.00  0.00    -0.275 NA 
HETATM   18  N   UNL     1      -8.205  16.783  65.810  1.00  0.00    -0.295 NA 
HETATM   19  N   UNL     1      -8.553  17.997  66.207  1.00  0.00    -0.447 NA 
BRANCH  17  20
HETATM   20  C   UNL     1     -10.296  18.958  67.600  1.00  0.00    -0.426 C  
HETATM   21  O   UNL     1      -8.372  19.471  69.036  1.00  0.00    -0.339 OA 
HETATM   22  C   UNL     1      -9.710  19.525  68.874  1.00  0.00    -0.426 C  
HETATM   23  O   UNL     1     -10.412  20.102  69.697  1.00  0.00    -0.084 OA 
ENDBRANCH  17  20
ENDBRANCH  14  15
ENDBRANCH  13  14
ENDBRANCH   4  13
BRANCH  10  24
HETATM   24  N   UNL     1      -9.545   8.890  68.441  1.00  0.00    -0.144 N  
HETATM   25  C   UNL     1      -9.464   7.830  69.304  1.00  0.00    -0.155 C  
HETATM   26  O   UNL     1      -8.520   7.771  70.091  1.00  0.00    -0.130 OA 
HETATM   27  H   UNL     1      -8.772   9.555  68.458  1.00  0.00     0.000 HD 
BRANCH  25  28
HETATM   28  C   UNL     1     -10.558   6.773  69.268  1.00  0.00    -0.262 C  
BRANCH  28  29
HETATM   29  C   UNL     1     -10.065   5.369  68.991  1.00  0.00    -0.283 A  
HETATM   30  C   UNL     1     -10.028   4.814  67.692  1.00  0.00    -0.178 A  
HETATM   31  C   UNL     1      -9.542   3.500  67.539  1.00  0.00    -0.177 A  
HETATM   32  C   UNL     1      -9.591   4.602  70.077  1.00  0.00    -0.259 A  
HETATM   33  C   UNL     1      -9.075   2.760  68.624  1.00  0.00    -0.215 A  
HETATM   34  C   UNL     1      -9.106   3.308  69.897  1.00  0.00    -0.199 A  
BRANCH  30  35
HETATM   35  C   UNL     1     -10.551   5.553  66.475  1.00  0.00    -0.279 C  
HETATM   36  N   UNL     1     -11.406   4.720  65.629  1.00  0.00    -0.884 NA 
HETATM   37  H1  UNL     1     -11.758   5.217  64.809  1.00  0.00     0.000 HD 
HETATM   38  H2  UNL     1     -12.172   4.317  66.169  1.00  0.00     0.000 HD 
ENDBRANCH  30  35
ENDBRANCH  28  29
ENDBRANCH  25  28
ENDBRANCH  10  24
TORSDOF 8
ENDMDL
MODEL       72
REMARK 921   NORMALIZED FREE ENERGY PREDICTED BY IDOCK:   -6.82 KCAL/MOL
REMARK 922        TOTAL FREE ENERGY PREDICTED BY IDOCK:  -10.82 KCAL/MOL
REMARK 923 INTER-LIGAND FREE ENERGY PREDICTED BY IDOCK:  -10.72 KCAL/MOL
REMARK 924 INTRA-LIGAND FREE ENERGY PREDICTED BY IDOCK:   -0.11 KCAL/MOL
REMARK 927      BINDING AFFINITY PREDICTED BY RF-SCORE:    0.00 PKD
ROOT
HETATM    1  C   UNL     1      -8.734  14.088  69.182  1.00  0.00     0.295 C  
HETATM    2  S   UNL     1      -7.830  13.715  67.666  1.00  0.00    -0.185 SA 
HETATM    3  C   UNL     1      -6.744  15.152  67.803  1.00  0.00    -0.165 C  
HETATM    4  C   UNL     1      -7.441  16.457  68.171  1.00  0.00    -0.152 C  
HETATM    5  O   UNL     1     -10.681  17.922  69.016  1.00  0.00    -0.074 OA 
HETATM    6  CA  UNL     1      -8.697  16.531  68.706  1.00  0.00    -0.259 C  
HETATM    7  N   UNL     1      -9.366  15.381  69.020  1.00  0.00    -0.216 N  
HETATM    8  O   UNL     1     -11.660  15.597  69.292  1.00  0.00    -0.319 OA 
HETATM    9  C   UNL     1      -9.340  17.878  68.959  1.00  0.00    -0.067 C  
HETATM   10  CA  UNL     1     -10.170  13.486  69.330  1.00  0.00     0.280 C  
HETATM   11  OXT UNL     1      -8.692  18.900  69.118  1.00  0.00    -0.178 OA 
HETATM   12  C   UNL     1     -10.625  14.973  69.262  1.00  0.00    -0.247 C  
ENDROOT
BRANCH   4  13
HETATM   13  C   UNL     1      -6.611  17.661  67.731  1.00  0.00    -0.181 C  
BRANCH  13  14
HETATM   14  S   UNL     1      -6.730  17.930  65.926  1.00  0.00    -0.236 SA 
BRANCH  14  15
HETATM   15  C   UNL     1      -8.337  18.566  65.836  1.00  0.00     0.131 A  
HETATM   16  N   UNL     1      -8.655  19.839  65.788  1.00  0.00    -0.353 NA 
HETATM   17  N   UNL     1      -9.489  17.827  65.785  1.00  0.00    -0.482 NA 
HETATM   18  N   UNL     1     -10.020  19.888  65.668  1.00  0.00    -0.373 NA 
HETATM   19  N   UNL     1     -10.536  18.669  65.631  1.00  0.00    -0.594 NA 
BRANCH  17  20
HETATM   20  C   UNL     1      -9.682  16.396  65.724  1.00  0.00    -0.236 C  
HETATM   21  O   UNL     1     -11.432  16.647  64.021  1.00  0.00    -1.192 OA 
HETATM   22  C   UNL     1     -10.947  15.918  65.048  1.00  0.00    -0.412 C  
HETATM   23  O   UNL     1     -11.473  14.853  65.355  1.00  0.00    -0.346 OA 
ENDBRANCH  17  20
ENDBRANCH  14  15
ENDBRANCH  13  14
ENDBRANCH   4  13
BRANCH  10  24
HETATM   24  N   UNL     1     -10.677  12.604  68.253  1.00  0.00    -0.223 N  
HETATM   25  C   UNL     1     -11.572  11.577  68.393  1.00  0.00    -0.308 C  
HETATM   26  O   UNL     1     -11.848  10.887  67.412  1.00  0.00    -0.465 OA 
HETATM   27  H   UNL     1     -10.325  12.780  67.312  1.00  0.00     0.000 HD 
BRANCH  25  28
HETATM   28  C   UNL     1     -12.179  11.319  69.764  1.00  0.00    -0.343 C  
BRANCH  28  29
HETATM   29  C   UNL     1     -11.485  10.237  70.564  1.00  0.00    -0.427 A  
HETATM   30  C   UNL     1     -12.107   9.565  71.640  1.00  0.00    -0.474 A  
HETATM   31  C   UNL     1     -11.379   8.565  72.316  1.00  0.00    -0.441 A  
HETATM   32  C   UNL     1     -10.175   9.867  70.190  1.00  0.00    -0.326 A  
HETATM   33  C   UNL     1     -10.087   8.211  71.929  1.00  0.00    -0.285 A  
HETATM   34  C   UNL     1      -9.481   8.867  70.869  1.00  0.00    -0.295 A  
BRANCH  30  35
HETATM   35  C   UNL     1     -13.496   9.924  72.132  1.00  0.00    -0.356 C  
HETATM   36  N   UNL     1     -14.026   8.958  73.095  1.00  0.00    -1.215 NA 
HETATM   37  H1  UNL     1     -14.960   9.199  73.426  1.00  0.00     0.000 HD 
HETATM   38  H2  UNL     1     -13.382   8.831  73.876  1.00  0.00     0.000 HD 
ENDBRANCH  30  35
ENDBRANCH  28  29
ENDBRANCH  25  28
ENDBRANCH  10  24
TORSDOF 8
ENDMDL
MODEL       73
REMARK 921   NORMALIZED FREE ENERGY PREDICTED BY IDOCK:   -6.81 KCAL/MOL
REMARK 922        TOTAL FREE ENERGY PREDICTED BY IDOCK:  -10.82 KCAL/MOL
REMARK 923 INTER-LIGAND FREE ENERGY PREDICTED BY IDOCK:   -9.67 KCAL/MOL
REMARK 924 INTRA-LIGAND FREE ENERGY PREDICTED BY IDOCK:   -1.15 KCAL/MOL
REMARK 927      BINDING AFFINITY PREDICTED BY RF-SCORE:    0.00 PKD
ROOT
HETATM    1  C   UNL     1     -10.054  13.017  67.504  1.00  0.00    -0.218 C  
HETATM    2  S   UNL     1     -11.672  13.625  68.022  1.00  0.00    -0.364 SA 
HETATM    3  C   UNL     1     -11.893  12.351  69.284  1.00  0.00    -0.304 C  
HETATM    4  C   UNL     1     -11.528  10.938  68.846  1.00  0.00    -0.369 C  
HETATM    5  O   UNL     1     -10.221   8.968  66.060  1.00  0.00    -0.225 OA 
HETATM    6  CA  UNL     1     -10.770  10.646  67.748  1.00  0.00    -0.257 C  
HETATM    7  N   UNL     1     -10.219  11.663  67.019  1.00  0.00    -0.209 N  
HETATM    8  O   UNL     1      -9.530  11.102  64.876  1.00  0.00    -0.217 OA 
HETATM    9  C   UNL     1     -10.533   9.206  67.345  1.00  0.00    -0.271 C  
HETATM   10  CA  UNL     1      -9.571  13.397  66.065  1.00  0.00    -0.159 C  
HETATM   11  OXT UNL     1     -10.605   8.278  68.134  1.00  0.00    -0.191 OA 
HETATM   12  C   UNL     1      -9.697  11.868  65.796  1.00  0.00    -0.237 C  
ENDROOT
BRANCH   4  13
HETATM   13  C   UNL     1     -12.240   9.899  69.713  1.00  0.00     0.290 C  
BRANCH  13  14
HETATM   14  S   UNL     1     -11.685   9.988  71.452  1.00  0.00    -0.270 SA 
BRANCH  14  15
HETATM   15  C   UNL     1     -11.713   8.304  71.849  1.00  0.00    -0.322 A  
HETATM   16  N   UNL     1     -12.638   7.446  71.482  1.00  0.00    -0.352 NA 
HETATM   17  N   UNL     1     -10.768   7.638  72.583  1.00  0.00    -0.290 NA 
HETATM   18  N   UNL     1     -12.240   6.226  71.964  1.00  0.00    -0.303 NA 
HETATM   19  N   UNL     1     -11.086   6.323  72.606  1.00  0.00    -0.253 NA 
BRANCH  17  20
HETATM   20  C   UNL     1      -9.519   8.101  73.143  1.00  0.00    -0.246 C  
HETATM   21  O   UNL     1      -8.444   8.048  70.937  1.00  0.00    -0.117 OA 
HETATM   22  C   UNL     1      -8.293   7.939  72.273  1.00  0.00    -0.131 C  
HETATM   23  O   UNL     1      -7.176   7.805  72.762  1.00  0.00    -0.072 OA 
ENDBRANCH  17  20
ENDBRANCH  14  15
ENDBRANCH  13  14
ENDBRANCH   4  13
BRANCH  10  24
HETATM   24  N   UNL     1     -10.435  14.273  65.241  1.00  0.00    -0.364 N  
HETATM   25  C   UNL     1     -10.344  15.634  65.127  1.00  0.00    -0.334 C  
HETATM   26  O   UNL     1     -11.180  16.235  64.453  1.00  0.00    -0.716 OA 
HETATM   27  H   UNL     1     -11.172  13.816  64.703  1.00  0.00     0.000 HD 
BRANCH  25  28
HETATM   28  C   UNL     1      -9.219  16.354  65.855  1.00  0.00    -0.234 C  
BRANCH  28  29
HETATM   29  C   UNL     1      -9.672  17.504  66.730  1.00  0.00    -0.296 A  
HETATM   30  C   UNL     1      -9.556  17.484  68.138  1.00  0.00    -0.294 A  
HETATM   31  C   UNL     1      -9.999  18.609  68.863  1.00  0.00    -0.399 A  
HETATM   32  C   UNL     1     -10.200  18.653  66.102  1.00  0.00    -0.450 A  
HETATM   33  C   UNL     1     -10.513  19.736  68.224  1.00  0.00    -0.449 A  
HETATM   34  C   UNL     1     -10.620  19.756  66.842  1.00  0.00    -0.588 A  
BRANCH  30  35
HETATM   35  C   UNL     1      -9.037  16.277  68.896  1.00  0.00    -0.250 C  
HETATM   36  N   UNL     1      -7.575  16.233  68.962  1.00  0.00    -0.210 NA 
HETATM   37  H1  UNL     1      -7.226  15.421  69.472  1.00  0.00     0.000 HD 
HETATM   38  H2  UNL     1      -7.202  17.098  69.352  1.00  0.00     0.000 HD 
ENDBRANCH  30  35
ENDBRANCH  28  29
ENDBRANCH  25  28
ENDBRANCH  10  24
TORSDOF 8
ENDMDL
MODEL       74
REMARK 921   NORMALIZED FREE ENERGY PREDICTED BY IDOCK:   -6.81 KCAL/MOL
REMARK 922        TOTAL FREE ENERGY PREDICTED BY IDOCK:  -10.82 KCAL/MOL
REMARK 923 INTER-LIGAND FREE ENERGY PREDICTED BY IDOCK:   -9.65 KCAL/MOL
REMARK 924 INTRA-LIGAND FREE ENERGY PREDICTED BY IDOCK:   -1.17 KCAL/MOL
REMARK 927      BINDING AFFINITY PREDICTED BY RF-SCORE:    0.00 PKD
ROOT
HETATM    1  C   UNL     1      -9.393  13.423  66.846  1.00  0.00    -0.252 C  
HETATM    2  S   UNL     1      -9.879  12.470  68.300  1.00  0.00    -0.209 SA 
HETATM    3  C   UNL     1      -9.087  10.949  67.731  1.00  0.00    -0.149 C  
HETATM    4  C   UNL     1      -9.333  10.600  66.268  1.00  0.00    -0.199 C  
HETATM    5  O   UNL     1     -10.961  11.749  63.206  1.00  0.00    -0.367 OA 
HETATM    6  CA  UNL     1      -9.796  11.485  65.336  1.00  0.00    -0.235 C  
HETATM    7  N   UNL     1      -9.984  12.794  65.682  1.00  0.00    -0.263 N  
HETATM    8  O   UNL     1     -11.349  14.022  64.265  1.00  0.00    -0.351 OA 
HETATM    9  C   UNL     1     -10.091  11.022  63.925  1.00  0.00    -0.356 C  
HETATM   10  CA  UNL     1     -10.241  14.691  66.502  1.00  0.00    -0.278 C  
HETATM   11  OXT UNL     1      -9.568  10.038  63.429  1.00  0.00    -0.262 OA 
HETATM   12  C   UNL     1     -10.648  13.877  65.238  1.00  0.00    -0.361 C  
ENDROOT
BRANCH   4  13
HETATM   13  C   UNL     1      -9.131   9.105  66.024  1.00  0.00    -0.197 C  
BRANCH  13  14
HETATM   14  S   UNL     1     -10.319   8.104  66.987  1.00  0.00    -0.325 SA 
BRANCH  14  15
HETATM   15  C   UNL     1      -9.233   7.385  68.126  1.00  0.00    -0.133 A  
HETATM   16  N   UNL     1      -7.928   7.535  68.139  1.00  0.00    -0.121 NA 
HETATM   17  N   UNL     1      -9.589   6.578  69.173  1.00  0.00    -0.134 NA 
HETATM   18  N   UNL     1      -7.475   6.842  69.231  1.00  0.00    -0.092 NA 
HETATM   19  N   UNL     1      -8.479   6.284  69.889  1.00  0.00    -0.128 NA 
BRANCH  17  20
HETATM   20  C   UNL     1     -10.895   6.176  69.645  1.00  0.00    -0.356 C  
HETATM   21  O   UNL     1     -11.299   8.403  70.595  1.00  0.00    -0.263 OA 
HETATM   22  C   UNL     1     -11.544   7.079  70.670  1.00  0.00    -0.335 C  
HETATM   23  O   UNL     1     -12.344   6.641  71.490  1.00  0.00    -0.349 OA 
ENDBRANCH  17  20
ENDBRANCH  14  15
ENDBRANCH  13  14
ENDBRANCH   4  13
BRANCH  10  24
HETATM   24  N   UNL     1     -11.346  15.067  67.413  1.00  0.00    -0.337 N  
HETATM   25  C   UNL     1     -11.256  15.876  68.514  1.00  0.00    -0.362 C  
HETATM   26  O   UNL     1     -12.253  16.043  69.216  1.00  0.00    -0.226 OA 
HETATM   27  H   UNL     1     -12.268  14.686  67.199  1.00  0.00     0.000 HD 
BRANCH  25  28
HETATM   28  C   UNL     1      -9.919  16.524  68.837  1.00  0.00    -0.262 C  
BRANCH  28  29
HETATM   29  C   UNL     1      -9.670  17.838  68.126  1.00  0.00    -0.313 A  
HETATM   30  C   UNL     1      -8.377  18.278  67.763  1.00  0.00    -0.261 A  
HETATM   31  C   UNL     1      -8.253  19.513  67.096  1.00  0.00    -0.308 A  
HETATM   32  C   UNL     1     -10.785  18.633  67.785  1.00  0.00    -0.394 A  
HETATM   33  C   UNL     1      -9.367  20.282  66.764  1.00  0.00    -0.489 A  
HETATM   34  C   UNL     1     -10.635  19.846  67.115  1.00  0.00    -0.527 A  
BRANCH  30  35
HETATM   35  C   UNL     1      -7.122  17.505  68.123  1.00  0.00    -0.206 C  
HETATM   36  N   UNL     1      -6.487  17.992  69.348  1.00  0.00    -0.251 NA 
HETATM   37  H1  UNL     1      -5.642  17.473  69.590  1.00  0.00     0.000 HD 
HETATM   38  H2  UNL     1      -7.148  17.998  70.125  1.00  0.00     0.000 HD 
ENDBRANCH  30  35
ENDBRANCH  28  29
ENDBRANCH  25  28
ENDBRANCH  10  24
TORSDOF 8
ENDMDL
MODEL       75
REMARK 921   NORMALIZED FREE ENERGY PREDICTED BY IDOCK:   -6.79 KCAL/MOL
REMARK 922        TOTAL FREE ENERGY PREDICTED BY IDOCK:  -10.79 KCAL/MOL
REMARK 923 INTER-LIGAND FREE ENERGY PREDICTED BY IDOCK:   -9.71 KCAL/MOL
REMARK 924 INTRA-LIGAND FREE ENERGY PREDICTED BY IDOCK:   -1.09 KCAL/MOL
REMARK 927      BINDING AFFINITY PREDICTED BY RF-SCORE:    0.00 PKD
ROOT
HETATM    1  C   UNL     1     -10.007   9.826  69.676  1.00  0.00    -0.223 C  
HETATM    2  S   UNL     1     -10.348   9.299  67.984  1.00  0.00    -0.226 SA 
HETATM    3  C   UNL     1     -10.357  10.979  67.321  1.00  0.00    -0.211 C  
HETATM    4  C   UNL     1     -11.131  11.997  68.150  1.00  0.00    -0.294 C  
HETATM    5  O   UNL     1     -13.068  12.425  71.219  1.00  0.00    -0.274 OA 
HETATM    6  CA  UNL     1     -11.501  11.804  69.451  1.00  0.00    -0.307 C  
HETATM    7  N   UNL     1     -11.098  10.675  70.108  1.00  0.00    -0.289 N  
HETATM    8  O   UNL     1     -12.288  10.151  72.028  1.00  0.00    -0.307 OA 
HETATM    9  C   UNL     1     -12.344  12.839  70.166  1.00  0.00    -0.165 C  
HETATM   10  CA  UNL     1     -10.407   8.847  70.828  1.00  0.00    -0.226 C  
HETATM   11  OXT UNL     1     -12.378  14.012  69.830  1.00  0.00    -0.336 OA 
HETATM   12  C   UNL     1     -11.431   9.960  71.198  1.00  0.00    -0.383 C  
ENDROOT
BRANCH   4  13
HETATM   13  C   UNL     1     -11.558  13.187  67.292  1.00  0.00    -0.355 C  
BRANCH  13  14
HETATM   14  S   UNL     1     -11.466  12.792  65.510  1.00  0.00    -0.355 SA 
BRANCH  14  15
HETATM   15  C   UNL     1     -11.548  14.392  64.856  1.00  0.00    -0.395 A  
HETATM   16  N   UNL     1     -12.465  14.833  64.024  1.00  0.00    -0.809 NA 
HETATM   17  N   UNL     1     -10.681  15.415  65.130  1.00  0.00    -0.414 NA 
HETATM   18  N   UNL     1     -12.181  16.157  63.811  1.00  0.00    -0.643 NA 
HETATM   19  N   UNL     1     -11.119  16.532  64.506  1.00  0.00    -0.866 NA 
BRANCH  17  20
HETATM   20  C   UNL     1      -9.559  15.475  66.041  1.00  0.00    -0.345 C  
HETATM   21  O   UNL     1     -10.913  16.642  67.723  1.00  0.00    -0.320 OA 
HETATM   22  C   UNL     1      -9.687  16.437  67.200  1.00  0.00    -0.239 C  
HETATM   23  O   UNL     1      -8.699  16.950  67.715  1.00  0.00    -0.207 OA 
ENDBRANCH  17  20
ENDBRANCH  14  15
ENDBRANCH  13  14
ENDBRANCH   4  13
BRANCH  10  24
HETATM   24  N   UNL     1     -10.983   7.532  70.466  1.00  0.00    -0.249 N  
HETATM   25  C   UNL     1     -10.323   6.333  70.434  1.00  0.00    -0.208 C  
HETATM   26  O   UNL     1     -10.922   5.330  70.046  1.00  0.00    -0.169 OA 
HETATM   27  H   UNL     1     -11.972   7.518  70.215  1.00  0.00     0.000 HD 
BRANCH  25  28
HETATM   28  C   UNL     1      -8.865   6.290  70.865  1.00  0.00    -0.136 C  
BRANCH  28  29
HETATM   29  C   UNL     1      -7.884   6.748  69.807  1.00  0.00    -0.115 A  
HETATM   30  C   UNL     1      -6.654   7.368  70.123  1.00  0.00    -0.043 A  
HETATM   31  C   UNL     1      -5.804   7.749  69.065  1.00  0.00    -0.031 A  
HETATM   32  C   UNL     1      -8.203   6.510  68.453  1.00  0.00    -0.114 A  
HETATM   33  C   UNL     1      -6.136   7.501  67.733  1.00  0.00    -0.044 A  
HETATM   34  C   UNL     1      -7.340   6.887  67.426  1.00  0.00    -0.092 A  
BRANCH  30  35
HETATM   35  C   UNL     1      -6.248   7.695  71.548  1.00  0.00    -0.035 C  
HETATM   36  N   UNL     1      -6.781   8.978  72.010  1.00  0.00    -0.284 NA 
HETATM   37  H1  UNL     1      -6.508   9.198  72.968  1.00  0.00     0.000 HD 
HETATM   38  H2  UNL     1      -7.795   9.012  71.902  1.00  0.00     0.000 HD 
ENDBRANCH  30  35
ENDBRANCH  28  29
ENDBRANCH  25  28
ENDBRANCH  10  24
TORSDOF 8
ENDMDL
MODEL       76
REMARK 921   NORMALIZED FREE ENERGY PREDICTED BY IDOCK:   -6.78 KCAL/MOL
REMARK 922        TOTAL FREE ENERGY PREDICTED BY IDOCK:  -10.78 KCAL/MOL
REMARK 923 INTER-LIGAND FREE ENERGY PREDICTED BY IDOCK:   -8.99 KCAL/MOL
REMARK 924 INTRA-LIGAND FREE ENERGY PREDICTED BY IDOCK:   -1.79 KCAL/MOL
REMARK 927      BINDING AFFINITY PREDICTED BY RF-SCORE:    0.00 PKD
ROOT
HETATM    1  C   UNL     1      -9.818  12.501  67.882  1.00  0.00    -0.207 C  
HETATM    2  S   UNL     1     -10.978  11.731  66.734  1.00  0.00    -0.301 SA 
HETATM    3  C   UNL     1     -10.750  10.071  67.410  1.00  0.00    -0.274 C  
HETATM    4  C   UNL     1      -9.303   9.674  67.673  1.00  0.00    -0.144 C  
HETATM    5  O   UNL     1      -5.853  10.870  67.529  1.00  0.00    -0.043 OA 
HETATM    6  CA  UNL     1      -8.266  10.560  67.750  1.00  0.00    -0.107 C  
HETATM    7  N   UNL     1      -8.517  11.902  67.672  1.00  0.00    -0.148 N  
HETATM    8  O   UNL     1      -6.690  13.238  67.165  1.00  0.00    -0.162 OA 
HETATM    9  C   UNL     1      -6.847  10.062  67.930  1.00  0.00    -0.075 C  
HETATM   10  CA  UNL     1      -9.181  13.863  67.453  1.00  0.00    -0.224 C  
HETATM   11  OXT UNL     1      -6.585   8.978  68.426  1.00  0.00    -0.058 OA 
HETATM   12  C   UNL     1      -7.856  13.046  67.416  1.00  0.00    -0.164 C  
ENDROOT
BRANCH   4  13
HETATM   13  C   UNL     1      -9.150   8.153  67.696  1.00  0.00    -0.134 C  
BRANCH  13  14
HETATM   14  S   UNL     1     -10.372   7.376  68.812  1.00  0.00    -0.195 SA 
BRANCH  14  15
HETATM   15  C   UNL     1      -9.727   7.878  70.338  1.00  0.00    -0.179 A  
HETATM   16  N   UNL     1      -8.457   7.863  70.674  1.00  0.00    -0.123 NA 
HETATM   17  N   UNL     1     -10.450   8.372  71.390  1.00  0.00    -0.211 NA 
HETATM   18  N   UNL     1      -8.391   8.390  71.937  1.00  0.00    -0.156 NA 
HETATM   19  N   UNL     1      -9.593   8.736  72.371  1.00  0.00    -0.281 NA 
BRANCH  17  20
HETATM   20  C   UNL     1     -11.861   8.667  71.501  1.00  0.00    -0.306 C  
HETATM   21  O   UNL     1     -11.505  10.957  70.692  1.00  0.00    -0.302 OA 
HETATM   22  C   UNL     1     -12.247  10.128  71.456  1.00  0.00    -0.380 C  
HETATM   23  O   UNL     1     -13.255  10.540  72.019  1.00  0.00    -0.464 OA 
ENDBRANCH  17  20
ENDBRANCH  14  15
ENDBRANCH  13  14
ENDBRANCH   4  13
BRANCH  10  24
HETATM   24  N   UNL     1      -9.606  14.466  66.169  1.00  0.00    -0.396 N  
HETATM   25  C   UNL     1     -10.284  15.644  66.005  1.00  0.00    -0.335 C  
HETATM   26  O   UNL     1     -10.629  15.983  64.873  1.00  0.00    -0.587 OA 
HETATM   27  H   UNL     1      -9.370  13.951  65.320  1.00  0.00     0.000 HD 
BRANCH  25  28
HETATM   28  C   UNL     1     -10.599  16.482  67.235  1.00  0.00    -0.285 C  
BRANCH  28  29
HETATM   29  C   UNL     1      -9.923  17.836  67.262  1.00  0.00    -0.324 A  
HETATM   30  C   UNL     1      -8.655  18.046  67.847  1.00  0.00    -0.258 A  
HETATM   31  C   UNL     1      -8.106  19.344  67.812  1.00  0.00    -0.326 A  
HETATM   32  C   UNL     1     -10.580  18.922  66.643  1.00  0.00    -0.469 A  
HETATM   33  C   UNL     1      -8.769  20.403  67.192  1.00  0.00    -0.413 A  
HETATM   34  C   UNL     1     -10.011  20.194  66.612  1.00  0.00    -0.595 A  
BRANCH  30  35
HETATM   35  C   UNL     1      -7.896  16.945  68.565  1.00  0.00    -0.240 C  
HETATM   36  N   UNL     1      -6.752  16.450  67.799  1.00  0.00    -0.126 NA 
HETATM   37  H1  UNL     1      -6.242  15.710  68.282  1.00  0.00     0.000 HD 
HETATM   38  H2  UNL     1      -6.128  17.215  67.540  1.00  0.00     0.000 HD 
ENDBRANCH  30  35
ENDBRANCH  28  29
ENDBRANCH  25  28
ENDBRANCH  10  24
TORSDOF 8
ENDMDL
MODEL       77
REMARK 921   NORMALIZED FREE ENERGY PREDICTED BY IDOCK:   -6.78 KCAL/MOL
REMARK 922        TOTAL FREE ENERGY PREDICTED BY IDOCK:  -10.77 KCAL/MOL
REMARK 923 INTER-LIGAND FREE ENERGY PREDICTED BY IDOCK:   -9.69 KCAL/MOL
REMARK 924 INTRA-LIGAND FREE ENERGY PREDICTED BY IDOCK:   -1.09 KCAL/MOL
REMARK 927      BINDING AFFINITY PREDICTED BY RF-SCORE:    0.00 PKD
ROOT
HETATM    1  C   UNL     1     -10.200  11.095  67.800  1.00  0.00    -0.180 C  
HETATM    2  S   UNL     1     -11.729  10.955  68.748  1.00  0.00    -0.230 SA 
HETATM    3  C   UNL     1     -11.092   9.661  69.836  1.00  0.00    -0.235 C  
HETATM    4  C   UNL     1     -10.328   8.545  69.134  1.00  0.00    -0.227 C  
HETATM    5  O   UNL     1      -9.131   7.398  65.878  1.00  0.00    -0.131 OA 
HETATM    6  CA  UNL     1      -9.834   8.635  67.864  1.00  0.00    -0.173 C  
HETATM    7  N   UNL     1      -9.939   9.813  67.179  1.00  0.00    -0.187 N  
HETATM    8  O   UNL     1      -9.673   9.667  64.880  1.00  0.00    -0.267 OA 
HETATM    9  C   UNL     1      -9.163   7.439  67.220  1.00  0.00    -0.131 C  
HETATM   10  CA  UNL     1     -10.302  11.692  66.358  1.00  0.00    -0.230 C  
HETATM   11  OXT UNL     1      -8.654   6.538  67.867  1.00  0.00    -0.118 OA 
HETATM   12  C   UNL     1      -9.881  10.260  65.912  1.00  0.00    -0.237 C  
ENDROOT
BRANCH   4  13
HETATM   13  C   UNL     1     -10.319   7.274  69.984  1.00  0.00    -0.213 C  
BRANCH  13  14
HETATM   14  S   UNL     1     -11.915   7.034  70.843  1.00  0.00    -0.349 SA 
BRANCH  14  15
HETATM   15  C   UNL     1     -11.362   6.172  72.239  1.00  0.00    -0.300 A  
HETATM   16  N   UNL     1     -11.648   4.924  72.530  1.00  0.00     0.046 NA 
HETATM   17  N   UNL     1     -10.541   6.671  73.215  1.00  0.00    -0.270 NA 
HETATM   18  N   UNL     1     -10.965   4.635  73.683  1.00  0.00    -0.303 NA 
HETATM   19  N   UNL     1     -10.260   5.679  74.090  1.00  0.00    -0.246 NA 
BRANCH  17  20
HETATM   20  C   UNL     1      -9.883   7.953  73.322  1.00  0.00    -0.277 C  
HETATM   21  O   UNL     1      -7.798   7.022  72.420  1.00  0.00    -0.094 OA 
HETATM   22  C   UNL     1      -8.374   7.943  73.220  1.00  0.00    -0.193 C  
HETATM   23  O   UNL     1      -7.691   8.799  73.771  1.00  0.00    -0.412 OA 
ENDBRANCH  17  20
ENDBRANCH  14  15
ENDBRANCH  13  14
ENDBRANCH   4  13
BRANCH  10  24
HETATM   24  N   UNL     1     -11.624  12.156  65.879  1.00  0.00    -0.384 N  
HETATM   25  C   UNL     1     -12.002  13.454  65.659  1.00  0.00    -0.401 C  
HETATM   26  O   UNL     1     -13.163  13.690  65.325  1.00  0.00    -0.724 OA 
HETATM   27  H   UNL     1     -12.324  11.438  65.695  1.00  0.00     0.000 HD 
BRANCH  25  28
HETATM   28  C   UNL     1     -10.973  14.557  65.854  1.00  0.00    -0.320 C  
BRANCH  28  29
HETATM   29  C   UNL     1     -11.010  15.217  67.216  1.00  0.00    -0.327 A  
HETATM   30  C   UNL     1     -10.441  16.486  67.466  1.00  0.00    -0.310 A  
HETATM   31  C   UNL     1     -10.536  17.018  68.768  1.00  0.00    -0.346 A  
HETATM   32  C   UNL     1     -11.672  14.545  68.266  1.00  0.00    -0.368 A  
HETATM   33  C   UNL     1     -11.198  16.340  69.790  1.00  0.00    -0.314 A  
HETATM   34  C   UNL     1     -11.762  15.098  69.541  1.00  0.00    -0.351 A  
BRANCH  30  35
HETATM   35  C   UNL     1      -9.679  17.261  66.407  1.00  0.00    -0.290 C  
HETATM   36  N   UNL     1     -10.543  18.128  65.606  1.00  0.00    -0.595 NA 
HETATM   37  H1  UNL     1     -10.030  18.650  64.894  1.00  0.00     0.000 HD 
HETATM   38  H2  UNL     1     -11.082  18.757  66.203  1.00  0.00     0.000 HD 
ENDBRANCH  30  35
ENDBRANCH  28  29
ENDBRANCH  25  28
ENDBRANCH  10  24
TORSDOF 8
ENDMDL
MODEL       78
REMARK 921   NORMALIZED FREE ENERGY PREDICTED BY IDOCK:   -6.77 KCAL/MOL
REMARK 922        TOTAL FREE ENERGY PREDICTED BY IDOCK:  -10.75 KCAL/MOL
REMARK 923 INTER-LIGAND FREE ENERGY PREDICTED BY IDOCK:   -9.16 KCAL/MOL
REMARK 924 INTRA-LIGAND FREE ENERGY PREDICTED BY IDOCK:   -1.59 KCAL/MOL
REMARK 927      BINDING AFFINITY PREDICTED BY RF-SCORE:    0.00 PKD
ROOT
HETATM    1  C   UNL     1     -12.141  11.246  68.991  1.00  0.00    -0.257 C  
HETATM    2  S   UNL     1     -11.961  12.535  70.241  1.00  0.00    -0.189 SA 
HETATM    3  C   UNL     1     -12.162  13.890  69.064  1.00  0.00    -0.239 C  
HETATM    4  C   UNL     1     -11.379  13.740  67.765  1.00  0.00    -0.331 C  
HETATM    5  O   UNL     1      -9.134  11.520  65.926  1.00  0.00    -0.209 OA 
HETATM    6  CA  UNL     1     -10.845  12.563  67.323  1.00  0.00    -0.245 C  
HETATM    7  N   UNL     1     -11.077  11.411  68.021  1.00  0.00    -0.236 N  
HETATM    8  O   UNL     1      -9.631   9.655  67.572  1.00  0.00    -0.145 OA 
HETATM    9  C   UNL     1     -10.007  12.531  66.062  1.00  0.00    -0.257 C  
HETATM   10  CA  UNL     1     -11.532   9.842  69.313  1.00  0.00     0.007 C  
HETATM   11  OXT UNL     1     -10.106  13.370  65.181  1.00  0.00    -0.301 OA 
HETATM   12  C   UNL     1     -10.562  10.174  68.141  1.00  0.00    -0.223 C  
ENDROOT
BRANCH   4  13
HETATM   13  C   UNL     1     -11.152  15.100  67.106  1.00  0.00    -0.335 C  
BRANCH  13  14
HETATM   14  S   UNL     1     -11.105  16.443  68.346  1.00  0.00    -0.310 SA 
BRANCH  14  15
HETATM   15  C   UNL     1      -9.393  16.583  68.553  1.00  0.00    -0.229 A  
HETATM   16  N   UNL     1      -8.674  15.933  69.439  1.00  0.00    -0.244 NA 
HETATM   17  N   UNL     1      -8.558  17.377  67.812  1.00  0.00    -0.224 NA 
HETATM   18  N   UNL     1      -7.372  16.301  69.218  1.00  0.00    -0.228 NA 
HETATM   19  N   UNL     1      -7.285  17.152  68.208  1.00  0.00    -0.195 NA 
BRANCH  17  20
HETATM   20  C   UNL     1      -8.835  18.219  66.670  1.00  0.00    -0.284 C  
HETATM   21  O   UNL     1      -9.696  20.002  68.121  1.00  0.00    -0.365 OA 
HETATM   22  C   UNL     1      -9.744  19.402  66.913  1.00  0.00    -0.343 C  
HETATM   23  O   UNL     1     -10.441  19.866  66.017  1.00  0.00    -0.484 OA 
ENDBRANCH  17  20
ENDBRANCH  14  15
ENDBRANCH  13  14
ENDBRANCH   4  13
BRANCH  10  24
HETATM   24  N   UNL     1     -10.900   9.636  70.637  1.00  0.00    -0.295 N  
HETATM   25  C   UNL     1     -11.015   8.528  71.432  1.00  0.00    -0.264 C  
HETATM   26  O   UNL     1     -10.483   8.530  72.542  1.00  0.00    -0.317 OA 
HETATM   27  H   UNL     1     -10.320  10.397  70.992  1.00  0.00     0.000 HD 
BRANCH  25  28
HETATM   28  C   UNL     1     -11.813   7.339  70.917  1.00  0.00    -0.351 C  
BRANCH  28  29
HETATM   29  C   UNL     1     -10.970   6.211  70.362  1.00  0.00    -0.404 A  
HETATM   30  C   UNL     1     -10.515   5.135  71.157  1.00  0.00    -0.240 A  
HETATM   31  C   UNL     1      -9.744   4.128  70.542  1.00  0.00    -0.270 A  
HETATM   32  C   UNL     1     -10.661   6.224  68.985  1.00  0.00    -0.322 A  
HETATM   33  C   UNL     1      -9.452   4.156  69.179  1.00  0.00    -0.248 A  
HETATM   34  C   UNL     1      -9.905   5.210  68.400  1.00  0.00    -0.211 A  
BRANCH  30  35
HETATM   35  C   UNL     1     -10.769   5.060  72.651  1.00  0.00    -0.222 C  
HETATM   36  N   UNL     1      -9.727   5.719  73.438  1.00  0.00    -0.150 NA 
HETATM   37  H1  UNL     1      -9.898   5.669  74.443  1.00  0.00     0.000 HD 
HETATM   38  H2  UNL     1      -9.599   6.686  73.137  1.00  0.00     0.000 HD 
ENDBRANCH  30  35
ENDBRANCH  28  29
ENDBRANCH  25  28
ENDBRANCH  10  24
TORSDOF 8
ENDMDL
MODEL       79
REMARK 921   NORMALIZED FREE ENERGY PREDICTED BY IDOCK:   -6.76 KCAL/MOL
REMARK 922        TOTAL FREE ENERGY PREDICTED BY IDOCK:  -10.74 KCAL/MOL
REMARK 923 INTER-LIGAND FREE ENERGY PREDICTED BY IDOCK:   -9.77 KCAL/MOL
REMARK 924 INTRA-LIGAND FREE ENERGY PREDICTED BY IDOCK:   -0.96 KCAL/MOL
REMARK 927      BINDING AFFINITY PREDICTED BY RF-SCORE:    0.00 PKD
ROOT
HETATM    1  C   UNL     1     -10.674  12.856  67.431  1.00  0.00    -0.237 C  
HETATM    2  S   UNL     1      -8.872  12.865  67.339  1.00  0.00    -0.208 SA 
HETATM    3  C   UNL     1      -8.762  14.649  67.077  1.00  0.00    -0.235 C  
HETATM    4  C   UNL     1      -9.746  15.214  66.060  1.00  0.00    -0.361 C  
HETATM    5  O   UNL     1     -12.496  14.328  63.823  1.00  0.00    -0.810 OA 
HETATM    6  CA  UNL     1     -10.860  14.555  65.623  1.00  0.00    -0.326 C  
HETATM    7  N   UNL     1     -11.189  13.346  66.169  1.00  0.00    -0.292 N  
HETATM    8  O   UNL     1     -12.669  12.055  64.936  1.00  0.00    -0.413 OA 
HETATM    9  C   UNL     1     -11.733  15.164  64.545  1.00  0.00    -0.328 C  
HETATM   10  CA  UNL     1     -11.403  11.507  67.121  1.00  0.00    -0.284 C  
HETATM   11  OXT UNL     1     -11.771  16.364  64.325  1.00  0.00    -0.739 OA 
HETATM   12  C   UNL     1     -11.949  12.274  65.882  1.00  0.00    -0.287 C  
ENDROOT
BRANCH   4  13
HETATM   13  C   UNL     1      -9.244  16.543  65.497  1.00  0.00     0.390 C  
BRANCH  13  14
HETATM   14  S   UNL     1      -7.939  17.265  66.554  1.00  0.00    -0.306 SA 
BRANCH  14  15
HETATM   15  C   UNL     1      -8.867  18.479  67.367  1.00  0.00    -0.268 A  
HETATM   16  N   UNL     1      -9.197  19.650  66.871  1.00  0.00    -0.332 NA 
HETATM   17  N   UNL     1      -9.393  18.375  68.627  1.00  0.00    -0.329 NA 
HETATM   18  N   UNL     1      -9.970  20.262  67.823  1.00  0.00    -0.411 NA 
HETATM   19  N   UNL     1     -10.126  19.483  68.882  1.00  0.00    -0.441 NA 
BRANCH  17  20
HETATM   20  C   UNL     1      -9.389  17.267  69.555  1.00  0.00     0.416 C  
HETATM   21  O   UNL     1     -11.555  16.477  68.712  1.00  0.00    -0.251 OA 
HETATM   22  C   UNL     1     -10.709  16.558  69.759  1.00  0.00    -0.298 C  
HETATM   23  O   UNL     1     -10.972  15.991  70.815  1.00  0.00    -0.314 OA 
ENDBRANCH  17  20
ENDBRANCH  14  15
ENDBRANCH  13  14
ENDBRANCH   4  13
BRANCH  10  24
HETATM   24  N   UNL     1     -10.577  10.312  66.830  1.00  0.00    -0.238 N  
HETATM   25  C   UNL     1      -9.950   9.511  67.747  1.00  0.00    -0.174 C  
HETATM   26  O   UNL     1      -9.240   8.588  67.348  1.00  0.00    -0.137 OA 
HETATM   27  H   UNL     1     -10.465  10.060  65.848  1.00  0.00     0.000 HD 
BRANCH  25  28
HETATM   28  C   UNL     1     -10.144   9.804  69.227  1.00  0.00    -0.207 C  
BRANCH  28  29
HETATM   29  C   UNL     1     -10.831   8.700  70.001  1.00  0.00    -0.226 A  
HETATM   30  C   UNL     1     -11.684   8.954  71.099  1.00  0.00    -0.356 A  
HETATM   31  C   UNL     1     -12.284   7.856  71.748  1.00  0.00    -0.344 A  
HETATM   32  C   UNL     1     -10.634   7.367  69.581  1.00  0.00    -0.243 A  
HETATM   33  C   UNL     1     -12.080   6.547  71.315  1.00  0.00    -0.328 A  
HETATM   34  C   UNL     1     -11.248   6.301  70.234  1.00  0.00    -0.455 A  
BRANCH  30  35
HETATM   35  C   UNL     1     -11.922  10.351  71.641  1.00  0.00    -0.074 C  
HETATM   36  N   UNL     1     -12.734  11.176  70.747  1.00  0.00    -0.320 NA 
HETATM   37  H1  UNL     1     -12.895  12.116  71.111  1.00  0.00     0.000 HD 
HETATM   38  H2  UNL     1     -13.617  10.714  70.526  1.00  0.00     0.000 HD 
ENDBRANCH  30  35
ENDBRANCH  28  29
ENDBRANCH  25  28
ENDBRANCH  10  24
TORSDOF 8
ENDMDL
MODEL       80
REMARK 921   NORMALIZED FREE ENERGY PREDICTED BY IDOCK:   -6.74 KCAL/MOL
REMARK 922        TOTAL FREE ENERGY PREDICTED BY IDOCK:  -10.72 KCAL/MOL
REMARK 923 INTER-LIGAND FREE ENERGY PREDICTED BY IDOCK:  -10.70 KCAL/MOL
REMARK 924 INTRA-LIGAND FREE ENERGY PREDICTED BY IDOCK:   -0.02 KCAL/MOL
REMARK 927      BINDING AFFINITY PREDICTED BY RF-SCORE:    0.00 PKD
ROOT
HETATM    1  C   UNL     1      -8.852  14.611  66.807  1.00  0.00    -0.241 C  
HETATM    2  S   UNL     1      -8.038  13.962  68.281  1.00  0.00    -0.156 SA 
HETATM    3  C   UNL     1      -7.623  12.379  67.516  1.00  0.00    -0.155 C  
HETATM    4  C   UNL     1      -8.747  11.732  66.716  1.00  0.00    -0.192 C  
HETATM    5  O   UNL     1     -12.194  12.188  65.593  1.00  0.00    -0.571 OA 
HETATM    6  CA  UNL     1      -9.861  12.396  66.284  1.00  0.00    -0.247 C  
HETATM    7  N   UNL     1      -9.969  13.742  66.493  1.00  0.00    -0.281 N  
HETATM    8  O   UNL     1     -12.109  14.617  66.320  1.00  0.00    -0.319 OA 
HETATM    9  C   UNL     1     -10.965  11.647  65.569  1.00  0.00    -0.270 C  
HETATM   10  CA  UNL     1      -9.895  15.759  67.008  1.00  0.00    -0.234 C  
HETATM   11  OXT UNL     1     -10.776  10.597  64.976  1.00  0.00    -0.203 OA 
HETATM   12  C   UNL     1     -10.920  14.693  66.519  1.00  0.00    -0.318 C  
ENDROOT
BRANCH   4  13
HETATM   13  C   UNL     1      -8.529  10.225  66.589  1.00  0.00    -0.124 C  
BRANCH  13  14
HETATM   14  S   UNL     1      -8.506   9.414  68.228  1.00  0.00    -0.120 SA 
BRANCH  14  15
HETATM   15  C   UNL     1      -9.680   8.173  67.950  1.00  0.00    -0.161 A  
HETATM   16  N   UNL     1     -10.163   7.825  66.780  1.00  0.00    -0.286 NA 
HETATM   17  N   UNL     1     -10.247   7.378  68.910  1.00  0.00    -0.191 NA 
HETATM   18  N   UNL     1     -11.013   6.775  67.015  1.00  0.00    -0.401 NA 
HETATM   19  N   UNL     1     -11.047   6.472  68.303  1.00  0.00    -0.280 NA 
BRANCH  17  20
HETATM   20  C   UNL     1      -9.996   7.301  70.332  1.00  0.00    -0.191 C  
HETATM   21  O   UNL     1     -12.012   8.614  70.818  1.00  0.00    -0.240 OA 
HETATM   22  C   UNL     1     -10.766   8.267  71.203  1.00  0.00    -0.226 C  
HETATM   23  O   UNL     1     -10.317   8.657  72.276  1.00  0.00    -0.327 OA 
ENDBRANCH  17  20
ENDBRANCH  14  15
ENDBRANCH  13  14
ENDBRANCH   4  13
BRANCH  10  24
HETATM   24  N   UNL     1     -10.110  16.282  68.377  1.00  0.00    -0.230 N  
HETATM   25  C   UNL     1     -11.063  15.868  69.269  1.00  0.00    -0.312 C  
HETATM   26  O   UNL     1     -11.161  16.447  70.350  1.00  0.00    -0.378 OA 
HETATM   27  H   UNL     1      -9.484  17.026  68.687  1.00  0.00     0.000 HD 
BRANCH  25  28
HETATM   28  C   UNL     1     -11.975  14.715  68.880  1.00  0.00    -0.309 C  
BRANCH  28  29
HETATM   29  C   UNL     1     -12.535  13.935  70.051  1.00  0.00    -0.325 A  
HETATM   30  C   UNL     1     -12.242  12.571  70.271  1.00  0.00    -0.345 A  
HETATM   31  C   UNL     1     -12.807  11.937  71.396  1.00  0.00    -0.411 A  
HETATM   32  C   UNL     1     -13.356  14.617  70.975  1.00  0.00    -0.410 A  
HETATM   33  C   UNL     1     -13.612  12.630  72.300  1.00  0.00    -0.508 A  
HETATM   34  C   UNL     1     -13.893  13.970  72.085  1.00  0.00    -0.627 A  
BRANCH  30  35
HETATM   35  C   UNL     1     -11.401  11.752  69.309  1.00  0.00    -0.286 C  
HETATM   36  N   UNL     1     -12.181  10.745  68.589  1.00  0.00    -0.827 NA 
HETATM   37  H1  UNL     1     -11.615  10.194  67.942  1.00  0.00     0.000 HD 
HETATM   38  H2  UNL     1     -12.973  11.172  68.109  1.00  0.00     0.000 HD 
ENDBRANCH  30  35
ENDBRANCH  28  29
ENDBRANCH  25  28
ENDBRANCH  10  24
TORSDOF 8
ENDMDL
MODEL       81
REMARK 921   NORMALIZED FREE ENERGY PREDICTED BY IDOCK:   -6.70 KCAL/MOL
REMARK 922        TOTAL FREE ENERGY PREDICTED BY IDOCK:  -10.65 KCAL/MOL
REMARK 923 INTER-LIGAND FREE ENERGY PREDICTED BY IDOCK:   -9.82 KCAL/MOL
REMARK 924 INTRA-LIGAND FREE ENERGY PREDICTED BY IDOCK:   -0.83 KCAL/MOL
REMARK 927      BINDING AFFINITY PREDICTED BY RF-SCORE:    0.00 PKD
ROOT
HETATM    1  C   UNL     1     -11.662  11.045  68.278  1.00  0.00    -0.229 C  
HETATM    2  S   UNL     1     -11.102  12.558  69.087  1.00  0.00    -0.151 SA 
HETATM    3  C   UNL     1     -12.007  13.649  67.968  1.00  0.00    -0.350 C  
HETATM    4  C   UNL     1     -11.900  13.293  66.490  1.00  0.00    -0.450 C  
HETATM    5  O   UNL     1     -10.479  10.877  64.145  1.00  0.00    -0.364 OA 
HETATM    6  CA  UNL     1     -11.475  12.081  66.022  1.00  0.00    -0.338 C  
HETATM    7  N   UNL     1     -11.200  11.075  66.905  1.00  0.00    -0.218 N  
HETATM    8  O   UNL     1      -9.901   9.340  66.078  1.00  0.00    -0.277 OA 
HETATM    9  C   UNL     1     -11.320  11.850  64.534  1.00  0.00    -0.316 C  
HETATM   10  CA  UNL     1     -10.788   9.762  68.469  1.00  0.00    -0.188 C  
HETATM   11  OXT UNL     1     -11.927  12.498  63.697  1.00  0.00    -0.449 OA 
HETATM   12  C   UNL     1     -10.525   9.911  66.941  1.00  0.00    -0.215 C  
ENDROOT
BRANCH   4  13
HETATM   13  C   UNL     1     -12.191  14.510  65.614  1.00  0.00    -0.273 C  
BRANCH  13  14
HETATM   14  S   UNL     1     -10.647  15.279  65.007  1.00  0.00    -0.375 SA 
BRANCH  14  15
HETATM   15  C   UNL     1      -9.751  15.332  66.486  1.00  0.00    -0.268 A  
HETATM   16  N   UNL     1      -8.765  14.528  66.813  1.00  0.00    -0.218 NA 
HETATM   17  N   UNL     1      -9.939  16.227  67.506  1.00  0.00    -0.244 NA 
HETATM   18  N   UNL     1      -8.312  14.956  68.034  1.00  0.00    -0.142 NA 
HETATM   19  N   UNL     1      -8.996  16.010  68.450  1.00  0.00    -0.183 NA 
BRANCH  17  20
HETATM   20  C   UNL     1     -10.833  17.358  67.606  1.00  0.00    -0.233 C  
HETATM   21  O   UNL     1      -9.434  18.672  66.076  1.00  0.00    -0.486 OA 
HETATM   22  C   UNL     1     -10.296  18.683  67.113  1.00  0.00    -0.401 C  
HETATM   23  O   UNL     1     -10.696  19.746  67.576  1.00  0.00    -0.431 OA 
ENDBRANCH  17  20
ENDBRANCH  14  15
ENDBRANCH  13  14
ENDBRANCH   4  13
BRANCH  10  24
HETATM   24  N   UNL     1      -9.595   9.847  69.342  1.00  0.00    -0.202 N  
HETATM   25  C   UNL     1      -9.365   9.122  70.481  1.00  0.00    -0.240 C  
HETATM   26  O   UNL     1      -8.352   9.353  71.142  1.00  0.00    -0.310 OA 
HETATM   27  H   UNL     1      -8.872  10.512  69.068  1.00  0.00     0.000 HD 
BRANCH  25  28
HETATM   28  C   UNL     1     -10.381   8.069  70.895  1.00  0.00    -0.221 C  
BRANCH  28  29
HETATM   29  C   UNL     1     -10.069   6.670  70.408  1.00  0.00    -0.205 A  
HETATM   30  C   UNL     1     -10.167   5.532  71.239  1.00  0.00    -0.283 A  
HETATM   31  C   UNL     1      -9.863   4.271  70.688  1.00  0.00    -0.265 A  
HETATM   32  C   UNL     1      -9.699   6.501  69.056  1.00  0.00    -0.140 A  
HETATM   33  C   UNL     1      -9.504   4.124  69.349  1.00  0.00    -0.260 A  
HETATM   34  C   UNL     1      -9.415   5.241  68.533  1.00  0.00    -0.166 A  
BRANCH  30  35
HETATM   35  C   UNL     1     -10.520   5.626  72.712  1.00  0.00    -0.211 C  
HETATM   36  N   UNL     1     -11.903   5.238  72.991  1.00  0.00    -0.515 NA 
HETATM   37  H1  UNL     1     -12.140   5.301  73.981  1.00  0.00     0.000 HD 
HETATM   38  H2  UNL     1     -12.100   4.306  72.626  1.00  0.00     0.000 HD 
ENDBRANCH  30  35
ENDBRANCH  28  29
ENDBRANCH  25  28
ENDBRANCH  10  24
TORSDOF 8
ENDMDL
MODEL       82
REMARK 921   NORMALIZED FREE ENERGY PREDICTED BY IDOCK:   -6.69 KCAL/MOL
REMARK 922        TOTAL FREE ENERGY PREDICTED BY IDOCK:  -10.64 KCAL/MOL
REMARK 923 INTER-LIGAND FREE ENERGY PREDICTED BY IDOCK:   -9.51 KCAL/MOL
REMARK 924 INTRA-LIGAND FREE ENERGY PREDICTED BY IDOCK:   -1.13 KCAL/MOL
REMARK 927      BINDING AFFINITY PREDICTED BY RF-SCORE:    0.00 PKD
ROOT
HETATM    1  C   UNL     1     -10.739   9.879  68.341  1.00  0.00    -0.232 C  
HETATM    2  S   UNL     1     -11.748  11.197  69.050  1.00  0.00    -0.354 SA 
HETATM    3  C   UNL     1     -11.243  12.424  67.824  1.00  0.00    -0.275 C  
HETATM    4  C   UNL     1      -9.750  12.459  67.521  1.00  0.00    -0.191 C  
HETATM    5  O   UNL     1      -6.553  10.873  68.307  1.00  0.00    -0.057 OA 
HETATM    6  CA  UNL     1      -8.879  11.456  67.841  1.00  0.00    -0.149 C  
HETATM    7  N   UNL     1      -9.354  10.299  68.393  1.00  0.00    -0.139 N  
HETATM    8  O   UNL     1      -7.779   8.979  69.468  1.00  0.00    -0.077 OA 
HETATM    9  C   UNL     1      -7.397  11.619  67.576  1.00  0.00    -0.119 C  
HETATM   10  CA  UNL     1     -10.340   8.694  69.281  1.00  0.00    -0.221 C  
HETATM   11  OXT UNL     1      -6.957  12.382  66.731  1.00  0.00     0.028 OA 
HETATM   12  C   UNL     1      -8.896   9.245  69.094  1.00  0.00    -0.141 C  
ENDROOT
BRANCH   4  13
HETATM   13  C   UNL     1      -9.342  13.815  66.948  1.00  0.00    -0.261 C  
BRANCH  13  14
HETATM   14  S   UNL     1     -10.471  15.141  67.504  1.00  0.00    -0.263 SA 
BRANCH  14  15
HETATM   15  C   UNL     1     -11.025  15.711  65.966  1.00  0.00    -0.213 A  
HETATM   16  N   UNL     1     -10.592  16.786  65.348  1.00  0.00    -0.596 NA 
HETATM   17  N   UNL     1     -11.973  15.109  65.183  1.00  0.00    -0.130 NA 
HETATM   18  N   UNL     1     -11.256  16.829  64.149  1.00  0.00    -1.039 NA 
HETATM   19  N   UNL     1     -12.073  15.796  64.022  1.00  0.00    -0.604 NA 
BRANCH  17  20
HETATM   20  C   UNL     1     -12.690  13.868  65.366  1.00  0.00    -0.490 C  
HETATM   21  O   UNL     1     -11.154  12.691  63.856  1.00  0.00    -0.368 OA 
HETATM   22  C   UNL     1     -12.400  12.772  64.366  1.00  0.00    -0.424 C  
HETATM   23  O   UNL     1     -13.239  11.921  64.089  1.00  0.00    -0.645 OA 
ENDBRANCH  17  20
ENDBRANCH  14  15
ENDBRANCH  13  14
ENDBRANCH   4  13
BRANCH  10  24
HETATM   24  N   UNL     1     -10.858   8.693  70.669  1.00  0.00    -0.223 N  
HETATM   25  C   UNL     1     -11.431   7.636  71.324  1.00  0.00    -0.269 C  
HETATM   26  O   UNL     1     -11.876   7.806  72.459  1.00  0.00    -0.335 OA 
HETATM   27  H   UNL     1     -10.779   9.566  71.189  1.00  0.00     0.000 HD 
BRANCH  25  28
HETATM   28  C   UNL     1     -11.509   6.292  70.616  1.00  0.00    -0.397 C  
BRANCH  28  29
HETATM   29  C   UNL     1     -10.364   5.352  70.924  1.00  0.00    -0.312 A  
HETATM   30  C   UNL     1      -9.496   4.852  69.928  1.00  0.00    -0.229 A  
HETATM   31  C   UNL     1      -8.453   3.988  70.319  1.00  0.00    -0.090 A  
HETATM   32  C   UNL     1     -10.140   4.992  72.271  1.00  0.00    -0.245 A  
HETATM   33  C   UNL     1      -8.246   3.648  71.655  1.00  0.00    -0.068 A  
HETATM   34  C   UNL     1      -9.094   4.145  72.632  1.00  0.00    -0.129 A  
BRANCH  30  35
HETATM   35  C   UNL     1      -9.687   5.156  68.453  1.00  0.00    -0.147 C  
HETATM   36  N   UNL     1      -8.726   4.455  67.600  1.00  0.00    -0.103 NA 
HETATM   37  H1  UNL     1      -8.854   4.660  66.608  1.00  0.00     0.000 HD 
HETATM   38  H2  UNL     1      -8.751   3.450  67.772  1.00  0.00     0.000 HD 
ENDBRANCH  30  35
ENDBRANCH  28  29
ENDBRANCH  25  28
ENDBRANCH  10  24
TORSDOF 8
ENDMDL
MODEL       83
REMARK 921   NORMALIZED FREE ENERGY PREDICTED BY IDOCK:   -6.69 KCAL/MOL
REMARK 922        TOTAL FREE ENERGY PREDICTED BY IDOCK:  -10.64 KCAL/MOL
REMARK 923 INTER-LIGAND FREE ENERGY PREDICTED BY IDOCK:   -8.98 KCAL/MOL
REMARK 924 INTRA-LIGAND FREE ENERGY PREDICTED BY IDOCK:   -1.66 KCAL/MOL
REMARK 927      BINDING AFFINITY PREDICTED BY RF-SCORE:    0.00 PKD
ROOT
HETATM    1  C   UNL     1     -10.907  12.104  65.872  1.00  0.00    -0.278 C  
HETATM    2  S   UNL     1      -9.325  11.370  65.405  1.00  0.00    -0.144 SA 
HETATM    3  C   UNL     1      -9.789   9.707  65.937  1.00  0.00    -0.288 C  
HETATM    4  C   UNL     1     -10.484   9.632  67.291  1.00  0.00    -0.323 C  
HETATM    5  O   UNL     1     -11.737  11.649  70.068  1.00  0.00    -0.318 OA 
HETATM    6  CA  UNL     1     -11.048  10.703  67.924  1.00  0.00    -0.308 C  
HETATM    7  N   UNL     1     -11.084  11.917  67.297  1.00  0.00    -0.270 N  
HETATM    8  O   UNL     1     -11.451  13.748  68.672  1.00  0.00    -0.259 OA 
HETATM    9  C   UNL     1     -11.641  10.546  69.309  1.00  0.00    -0.236 C  
HETATM   10  CA  UNL     1     -10.932  13.644  66.143  1.00  0.00    -0.284 C  
HETATM   11  OXT UNL     1     -12.034   9.475  69.742  1.00  0.00     0.132 OA 
HETATM   12  C   UNL     1     -11.245  13.217  67.607  1.00  0.00    -0.282 C  
ENDROOT
BRANCH   4  13
HETATM   13  C   UNL     1     -10.337   8.239  67.902  1.00  0.00    -0.219 C  
BRANCH  13  14
HETATM   14  S   UNL     1      -8.587   7.846  68.254  1.00  0.00    -0.123 SA 
BRANCH  14  15
HETATM   15  C   UNL     1      -8.595   8.015  69.977  1.00  0.00    -0.134 A  
HETATM   16  N   UNL     1      -8.695   9.148  70.634  1.00  0.00    -0.213 NA 
HETATM   17  N   UNL     1      -8.516   6.991  70.883  1.00  0.00    -0.133 NA 
HETATM   18  N   UNL     1      -8.715   8.817  71.964  1.00  0.00    -0.371 NA 
HETATM   19  N   UNL     1      -8.642   7.505  72.127  1.00  0.00    -0.112 NA 
BRANCH  17  20
HETATM   20  C   UNL     1      -8.477   5.561  70.679  1.00  0.00    -0.121 C  
HETATM   21  O   UNL     1     -10.915   5.475  70.409  1.00  0.00    -0.253 OA 
HETATM   22  C   UNL     1      -9.796   4.830  70.797  1.00  0.00    -0.210 C  
HETATM   23  O   UNL     1      -9.846   3.656  71.147  1.00  0.00    -0.180 OA 
ENDBRANCH  17  20
ENDBRANCH  14  15
ENDBRANCH  13  14
ENDBRANCH   4  13
BRANCH  10  24
HETATM   24  N   UNL     1      -9.683  14.414  65.946  1.00  0.00    -0.435 N  
HETATM   25  C   UNL     1      -9.564  15.777  65.896  1.00  0.00    -0.347 C  
HETATM   26  O   UNL     1      -8.463  16.273  65.657  1.00  0.00    -0.163 OA 
HETATM   27  H   UNL     1      -8.824  13.875  65.837  1.00  0.00     0.000 HD 
BRANCH  25  28
HETATM   28  C   UNL     1     -10.805  16.627  66.120  1.00  0.00    -0.024 C  
BRANCH  28  29
HETATM   29  C   UNL     1     -10.532  17.988  66.725  1.00  0.00    -0.335 A  
HETATM   30  C   UNL     1     -10.386  18.191  68.116  1.00  0.00    -0.393 A  
HETATM   31  C   UNL     1     -10.124  19.496  68.579  1.00  0.00    -0.543 A  
HETATM   32  C   UNL     1     -10.385  19.089  65.854  1.00  0.00    -0.435 A  
HETATM   33  C   UNL     1      -9.978  20.569  67.701  1.00  0.00    -0.454 A  
HETATM   34  C   UNL     1     -10.116  20.367  66.336  1.00  0.00    -0.382 A  
BRANCH  30  35
HETATM   35  C   UNL     1     -10.565  17.073  69.126  1.00  0.00    -0.303 C  
HETATM   36  N   UNL     1      -9.355  16.269  69.304  1.00  0.00    -0.237 NA 
HETATM   37  H1  UNL     1      -9.475  15.517  69.984  1.00  0.00     0.000 HD 
HETATM   38  H2  UNL     1      -8.558  16.858  69.548  1.00  0.00     0.000 HD 
ENDBRANCH  30  35
ENDBRANCH  28  29
ENDBRANCH  25  28
ENDBRANCH  10  24
TORSDOF 8
ENDMDL
MODEL       84
REMARK 921   NORMALIZED FREE ENERGY PREDICTED BY IDOCK:   -6.69 KCAL/MOL
REMARK 922        TOTAL FREE ENERGY PREDICTED BY IDOCK:  -10.64 KCAL/MOL
REMARK 923 INTER-LIGAND FREE ENERGY PREDICTED BY IDOCK:   -9.67 KCAL/MOL
REMARK 924 INTRA-LIGAND FREE ENERGY PREDICTED BY IDOCK:   -0.97 KCAL/MOL
REMARK 927      BINDING AFFINITY PREDICTED BY RF-SCORE:    0.00 PKD
ROOT
HETATM    1  C   UNL     1      -9.790  14.273  66.539  1.00  0.00    -0.288 C  
HETATM    2  S   UNL     1     -10.328  15.371  65.211  1.00  0.00    -0.376 SA 
HETATM    3  C   UNL     1     -10.082  16.877  66.177  1.00  0.00    -0.333 C  
HETATM    4  C   UNL     1     -10.608  16.822  67.606  1.00  0.00    -0.325 C  
HETATM    5  O   UNL     1     -12.237  14.656  70.057  1.00  0.00    -0.307 OA 
HETATM    6  CA  UNL     1     -10.922  15.666  68.263  1.00  0.00    -0.315 C  
HETATM    7  N   UNL     1     -10.684  14.461  67.663  1.00  0.00    -0.260 N  
HETATM    8  O   UNL     1     -11.822  12.650  68.559  1.00  0.00    -0.306 OA 
HETATM    9  C   UNL     1     -11.520  15.717  69.653  1.00  0.00    -0.346 C  
HETATM   10  CA  UNL     1     -10.283  12.790  66.488  1.00  0.00    -0.253 C  
HETATM   11  OXT UNL     1     -11.367  16.667  70.405  1.00  0.00    -0.207 OA 
HETATM   12  C   UNL     1     -11.067  13.176  67.776  1.00  0.00    -0.262 C  
ENDROOT
BRANCH   4  13
HETATM   13  C   UNL     1     -10.872  18.228  68.144  1.00  0.00    -0.071 C  
BRANCH  13  14
HETATM   14  S   UNL     1     -10.041  19.499  67.125  1.00  0.00    -0.435 SA 
BRANCH  14  15
HETATM   15  C   UNL     1      -8.523  19.583  67.952  1.00  0.00    -0.316 A  
HETATM   16  N   UNL     1      -8.308  19.219  69.195  1.00  0.00    -0.223 NA 
HETATM   17  N   UNL     1      -7.343  20.025  67.417  1.00  0.00    -0.258 NA 
HETATM   18  N   UNL     1      -6.968  19.402  69.420  1.00  0.00    -0.325 NA 
HETATM   19  N   UNL     1      -6.364  19.860  68.335  1.00  0.00    -0.262 NA 
BRANCH  17  20
HETATM   20  C   UNL     1      -7.026  20.454  66.073  1.00  0.00    -0.236 C  
HETATM   21  O   UNL     1      -6.779  18.129  65.327  1.00  0.00    -0.443 OA 
HETATM   22  C   UNL     1      -6.407  19.415  65.166  1.00  0.00    -0.274 C  
HETATM   23  O   UNL     1      -5.658  19.734  64.248  1.00  0.00    -0.196 OA 
ENDBRANCH  17  20
ENDBRANCH  14  15
ENDBRANCH  13  14
ENDBRANCH   4  13
BRANCH  10  24
HETATM   24  N   UNL     1     -11.105  12.360  65.334  1.00  0.00    -0.296 N  
HETATM   25  C   UNL     1     -10.767  11.422  64.396  1.00  0.00    -0.342 C  
HETATM   26  O   UNL     1     -11.530  11.219  63.451  1.00  0.00    -0.229 OA 
HETATM   27  H   UNL     1     -12.016  12.808  65.227  1.00  0.00     0.000 HD 
BRANCH  25  28
HETATM   28  C   UNL     1      -9.450  10.676  64.549  1.00  0.00    -0.313 C  
BRANCH  28  29
HETATM   29  C   UNL     1      -9.536   9.417  65.385  1.00  0.00    -0.322 A  
HETATM   30  C   UNL     1      -8.768   8.263  65.109  1.00  0.00    -0.089 A  
HETATM   31  C   UNL     1      -8.913   7.144  65.953  1.00  0.00    -0.098 A  
HETATM   32  C   UNL     1     -10.395   9.415  66.505  1.00  0.00    -0.268 A  
HETATM   33  C   UNL     1      -9.764   7.164  67.057  1.00  0.00    -0.222 A  
HETATM   34  C   UNL     1     -10.512   8.299  67.330  1.00  0.00    -0.373 A  
BRANCH  30  35
HETATM   35  C   UNL     1      -7.848   8.165  63.905  1.00  0.00    -0.147 C  
HETATM   36  N   UNL     1      -8.289   7.162  62.935  1.00  0.00    -0.352 NA 
HETATM   37  H1  UNL     1      -7.671   7.095  62.126  1.00  0.00     0.000 HD 
HETATM   38  H2  UNL     1      -9.252   7.332  62.646  1.00  0.00     0.000 HD 
ENDBRANCH  30  35
ENDBRANCH  28  29
ENDBRANCH  25  28
ENDBRANCH  10  24
TORSDOF 8
ENDMDL
MODEL       85
REMARK 921   NORMALIZED FREE ENERGY PREDICTED BY IDOCK:   -6.68 KCAL/MOL
REMARK 922        TOTAL FREE ENERGY PREDICTED BY IDOCK:  -10.62 KCAL/MOL
REMARK 923 INTER-LIGAND FREE ENERGY PREDICTED BY IDOCK:   -9.51 KCAL/MOL
REMARK 924 INTRA-LIGAND FREE ENERGY PREDICTED BY IDOCK:   -1.11 KCAL/MOL
REMARK 927      BINDING AFFINITY PREDICTED BY RF-SCORE:    0.00 PKD
ROOT
HETATM    1  C   UNL     1     -11.539  10.428  69.153  1.00  0.00    -0.164 C  
HETATM    2  S   UNL     1      -9.748  10.365  68.940  1.00  0.00    -0.207 SA 
HETATM    3  C   UNL     1      -9.665   8.564  69.061  1.00  0.00    -0.170 C  
HETATM    4  C   UNL     1     -10.488   7.953  70.189  1.00  0.00    -0.231 C  
HETATM    5  O   UNL     1     -12.792   8.749  72.910  1.00  0.00    -0.313 OA 
HETATM    6  CA  UNL     1     -11.488   8.608  70.850  1.00  0.00    -0.275 C  
HETATM    7  N   UNL     1     -11.856   9.862  70.448  1.00  0.00    -0.257 N  
HETATM    8  O   UNL     1     -13.061  11.100  71.995  1.00  0.00    -0.492 OA 
HETATM    9  C   UNL     1     -12.193   7.947  72.016  1.00  0.00    -0.317 C  
HETATM   10  CA  UNL     1     -12.154  11.770  69.670  1.00  0.00    -0.258 C  
HETATM   11  OXT UNL     1     -12.240   6.736  72.159  1.00  0.00    -0.291 OA 
HETATM   12  C   UNL     1     -12.517  10.931  70.930  1.00  0.00    -0.408 C  
ENDROOT
BRANCH   4  13
HETATM   13  C   UNL     1      -9.950   6.575  70.570  1.00  0.00    -0.184 C  
BRANCH  13  14
HETATM   14  S   UNL     1      -8.677   6.005  69.389  1.00  0.00    -0.121 SA 
BRANCH  14  15
HETATM   15  C   UNL     1      -9.089   4.326  69.310  1.00  0.00    -0.122 A  
HETATM   16  N   UNL     1      -9.505   3.591  70.316  1.00  0.00    -0.177 NA 
HETATM   17  N   UNL     1      -9.054   3.544  68.185  1.00  0.00    -0.136 NA 
HETATM   18  N   UNL     1      -9.766   2.348  69.800  1.00  0.00     0.033 NA 
HETATM   19  N   UNL     1      -9.529   2.317  68.498  1.00  0.00    -0.190 NA 
BRANCH  17  20
HETATM   20  C   UNL     1      -8.751   3.888  66.814  1.00  0.00    -0.115 C  
HETATM   21  O   UNL     1     -10.777   5.265  66.652  1.00  0.00    -0.291 OA 
HETATM   22  C   UNL     1      -9.881   4.489  66.008  1.00  0.00    -0.229 C  
HETATM   23  O   UNL     1      -9.937   4.355  64.790  1.00  0.00    -0.161 OA 
ENDBRANCH  17  20
ENDBRANCH  14  15
ENDBRANCH  13  14
ENDBRANCH   4  13
BRANCH  10  24
HETATM   24  N   UNL     1     -11.247  12.919  69.896  1.00  0.00    -0.482 N  
HETATM   25  C   UNL     1     -11.180  14.065  69.150  1.00  0.00    -0.269 C  
HETATM   26  O   UNL     1     -10.324  14.906  69.422  1.00  0.00    -0.235 OA 
HETATM   27  H   UNL     1     -10.608  12.849  70.688  1.00  0.00     0.000 HD 
BRANCH  25  28
HETATM   28  C   UNL     1     -12.159  14.246  68.000  1.00  0.00    -0.289 C  
BRANCH  28  29
HETATM   29  C   UNL     1     -11.642  13.780  66.656  1.00  0.00    -0.392 A  
HETATM   30  C   UNL     1     -10.823  14.583  65.832  1.00  0.00    -0.308 A  
HETATM   31  C   UNL     1     -10.385  14.053  64.601  1.00  0.00    -0.337 A  
HETATM   32  C   UNL     1     -11.968  12.474  66.232  1.00  0.00    -0.410 A  
HETATM   33  C   UNL     1     -10.715  12.759  64.202  1.00  0.00    -0.441 A  
HETATM   34  C   UNL     1     -11.514  11.970  65.016  1.00  0.00    -0.343 A  
BRANCH  30  35
HETATM   35  C   UNL     1     -10.455  16.011  66.192  1.00  0.00    -0.326 C  
HETATM   36  N   UNL     1     -10.903  16.982  65.193  1.00  0.00    -0.601 NA 
HETATM   37  H1  UNL     1     -10.655  17.942  65.435  1.00  0.00     0.000 HD 
HETATM   38  H2  UNL     1     -11.905  16.894  65.023  1.00  0.00     0.000 HD 
ENDBRANCH  30  35
ENDBRANCH  28  29
ENDBRANCH  25  28
ENDBRANCH  10  24
TORSDOF 8
ENDMDL
MODEL       86
REMARK 921   NORMALIZED FREE ENERGY PREDICTED BY IDOCK:   -6.65 KCAL/MOL
REMARK 922        TOTAL FREE ENERGY PREDICTED BY IDOCK:  -10.58 KCAL/MOL
REMARK 923 INTER-LIGAND FREE ENERGY PREDICTED BY IDOCK:   -8.36 KCAL/MOL
REMARK 924 INTRA-LIGAND FREE ENERGY PREDICTED BY IDOCK:   -2.22 KCAL/MOL
REMARK 927      BINDING AFFINITY PREDICTED BY RF-SCORE:    0.00 PKD
ROOT
HETATM    1  C   UNL     1     -10.683   7.130  67.905  1.00  0.00    -0.192 C  
HETATM    2  S   UNL     1      -9.342   5.925  67.992  1.00  0.00    -0.112 SA 
HETATM    3  C   UNL     1      -9.978   5.126  69.482  1.00  0.00    -0.231 C  
HETATM    4  C   UNL     1     -10.443   6.078  70.577  1.00  0.00    -0.303 C  
HETATM    5  O   UNL     1     -10.874   9.609  71.416  1.00  0.00    -0.340 OA 
HETATM    6  CA  UNL     1     -10.712   7.403  70.379  1.00  0.00    -0.237 C  
HETATM    7  N   UNL     1     -10.651   7.924  69.116  1.00  0.00    -0.206 N  
HETATM    8  O   UNL     1     -10.482  10.233  68.989  1.00  0.00    -0.191 OA 
HETATM    9  C   UNL     1     -11.086   8.289  71.548  1.00  0.00    -0.259 C  
HETATM   10  CA  UNL     1     -10.411   8.453  67.117  1.00  0.00    -0.310 C  
HETATM   11  OXT UNL     1     -11.572   7.853  72.579  1.00  0.00    -0.352 OA 
HETATM   12  C   UNL     1     -10.544   9.123  68.516  1.00  0.00    -0.169 C  
ENDROOT
BRANCH   4  13
HETATM   13  C   UNL     1     -10.427   5.389  71.941  1.00  0.00    -0.224 C  
BRANCH  13  14
HETATM   14  S   UNL     1      -8.719   5.065  72.506  1.00  0.00    -0.120 SA 
BRANCH  14  15
HETATM   15  C   UNL     1      -8.340   6.615  73.176  1.00  0.00    -0.116 A  
HETATM   16  N   UNL     1      -8.707   7.046  74.362  1.00  0.00    -0.185 NA 
HETATM   17  N   UNL     1      -7.594   7.590  72.569  1.00  0.00    -0.080 NA 
HETATM   18  N   UNL     1      -8.149   8.291  74.504  1.00  0.00    -0.228 NA 
HETATM   19  N   UNL     1      -7.441   8.618  73.435  1.00  0.00    -0.376 NA 
BRANCH  17  20
HETATM   20  C   UNL     1      -6.893   7.583  71.305  1.00  0.00    -0.050 C  
HETATM   21  O   UNL     1      -7.703   9.839  70.778  1.00  0.00    -0.308 OA 
HETATM   22  C   UNL     1      -7.301   8.641  70.306  1.00  0.00    -0.054 C  
HETATM   23  O   UNL     1      -7.187   8.456  69.098  1.00  0.00    -0.062 OA 
ENDBRANCH  17  20
ENDBRANCH  14  15
ENDBRANCH  13  14
ENDBRANCH   4  13
BRANCH  10  24
HETATM   24  N   UNL     1      -9.102   8.614  66.443  1.00  0.00    -0.162 N  
HETATM   25  C   UNL     1      -8.826   9.435  65.383  1.00  0.00    -0.184 C  
HETATM   26  O   UNL     1      -7.700   9.411  64.885  1.00  0.00    -0.105 OA 
HETATM   27  H   UNL     1      -8.328   8.058  66.806  1.00  0.00     0.000 HD 
BRANCH  25  28
HETATM   28  C   UNL     1      -9.929  10.335  64.849  1.00  0.00    -0.393 C  
BRANCH  28  29
HETATM   29  C   UNL     1      -9.833  11.779  65.295  1.00  0.00    -0.267 A  
HETATM   30  C   UNL     1     -10.557  12.821  64.673  1.00  0.00    -0.371 A  
HETATM   31  C   UNL     1     -10.405  14.131  65.170  1.00  0.00    -0.429 A  
HETATM   32  C   UNL     1      -9.009  12.083  66.401  1.00  0.00    -0.161 A  
HETATM   33  C   UNL     1      -9.590  14.410  66.266  1.00  0.00    -0.321 A  
HETATM   34  C   UNL     1      -8.885  13.385  66.878  1.00  0.00    -0.185 A  
BRANCH  30  35
HETATM   35  C   UNL     1     -11.435  12.590  63.457  1.00  0.00    -0.496 C  
HETATM   36  N   UNL     1     -12.807  13.063  63.649  1.00  0.00    -0.579 NA 
HETATM   37  H1  UNL     1     -13.397  12.909  62.831  1.00  0.00     0.000 HD 
HETATM   38  H2  UNL     1     -12.818  14.045  63.928  1.00  0.00     0.000 HD 
ENDBRANCH  30  35
ENDBRANCH  28  29
ENDBRANCH  25  28
ENDBRANCH  10  24
TORSDOF 8
ENDMDL
MODEL       87
REMARK 921   NORMALIZED FREE ENERGY PREDICTED BY IDOCK:   -6.64 KCAL/MOL
REMARK 922        TOTAL FREE ENERGY PREDICTED BY IDOCK:  -10.56 KCAL/MOL
REMARK 923 INTER-LIGAND FREE ENERGY PREDICTED BY IDOCK:   -9.66 KCAL/MOL
REMARK 924 INTRA-LIGAND FREE ENERGY PREDICTED BY IDOCK:   -0.90 KCAL/MOL
REMARK 927      BINDING AFFINITY PREDICTED BY RF-SCORE:    0.00 PKD
ROOT
HETATM    1  C   UNL     1     -10.298   8.868  68.216  1.00  0.00    -0.206 C  
HETATM    2  S   UNL     1      -9.897   9.909  69.635  1.00  0.00    -0.240 SA 
HETATM    3  C   UNL     1     -10.545  11.417  68.880  1.00  0.00    -0.202 C  
HETATM    4  C   UNL     1     -10.144  11.635  67.426  1.00  0.00    -0.218 C  
HETATM    5  O   UNL     1      -8.306  10.166  64.630  1.00  0.00    -0.154 OA 
HETATM    6  CA  UNL     1      -9.647  10.657  66.612  1.00  0.00    -0.175 C  
HETATM    7  N   UNL     1      -9.567   9.372  67.071  1.00  0.00    -0.151 N  
HETATM    8  O   UNL     1      -8.148   7.969  65.889  1.00  0.00    -0.104 OA 
HETATM    9  C   UNL     1      -9.197  10.990  65.205  1.00  0.00    -0.207 C  
HETATM   10  CA  UNL     1      -9.495   7.536  68.052  1.00  0.00    -0.142 C  
HETATM   11  OXT UNL     1      -9.615  11.957  64.588  1.00  0.00    -0.155 OA 
HETATM   12  C   UNL     1      -8.927   8.225  66.776  1.00  0.00    -0.147 C  
ENDROOT
BRANCH   4  13
HETATM   13  C   UNL     1     -10.238  13.114  67.051  1.00  0.00    -0.250 C  
BRANCH  13  14
HETATM   14  S   UNL     1     -11.978  13.664  66.938  1.00  0.00    -0.399 SA 
BRANCH  14  15
HETATM   15  C   UNL     1     -12.292  13.284  65.279  1.00  0.00    -0.476 A  
HETATM   16  N   UNL     1     -12.619  12.100  64.814  1.00  0.00    -0.460 NA 
HETATM   17  N   UNL     1     -12.258  14.168  64.234  1.00  0.00    -0.601 NA 
HETATM   18  N   UNL     1     -12.826  12.262  63.468  1.00  0.00    -0.796 NA 
HETATM   19  N   UNL     1     -12.644  13.523  63.109  1.00  0.00    -0.693 NA 
BRANCH  17  20
HETATM   20  C   UNL     1     -12.035  15.596  64.221  1.00  0.00    -0.115 C  
HETATM   21  O   UNL     1      -9.632  15.283  64.609  1.00  0.00     0.191 OA 
HETATM   22  C   UNL     1     -10.711  16.074  64.775  1.00  0.00    -0.204 C  
HETATM   23  O   UNL     1     -10.595  17.185  65.280  1.00  0.00    -0.662 OA 
ENDBRANCH  17  20
ENDBRANCH  14  15
ENDBRANCH  13  14
ENDBRANCH   4  13
BRANCH  10  24
HETATM   24  N   UNL     1      -8.503   7.180  69.092  1.00  0.00    -0.132 N  
HETATM   25  C   UNL     1      -8.605   6.163  70.003  1.00  0.00    -0.136 C  
HETATM   26  O   UNL     1      -7.725   6.032  70.853  1.00  0.00    -0.094 OA 
HETATM   27  H   UNL     1      -7.657   7.749  69.133  1.00  0.00     0.000 HD 
BRANCH  25  28
HETATM   28  C   UNL     1      -9.814   5.243  69.937  1.00  0.00    -0.282 C  
BRANCH  28  29
HETATM   29  C   UNL     1     -10.201   4.619  71.261  1.00  0.00    -0.205 A  
HETATM   30  C   UNL     1     -10.988   5.292  72.222  1.00  0.00    -0.249 A  
HETATM   31  C   UNL     1     -11.302   4.620  73.421  1.00  0.00    -0.394 A  
HETATM   32  C   UNL     1      -9.783   3.297  71.524  1.00  0.00    -0.233 A  
HETATM   33  C   UNL     1     -10.883   3.312  73.659  1.00  0.00    -0.322 A  
HETATM   34  C   UNL     1     -10.116   2.651  72.712  1.00  0.00    -0.225 A  
BRANCH  30  35
HETATM   35  C   UNL     1     -11.449   6.727  72.039  1.00  0.00    -0.282 C  
HETATM   36  N   UNL     1     -12.906   6.855  72.004  1.00  0.00    -0.543 NA 
HETATM   37  H1  UNL     1     -13.216   7.820  71.881  1.00  0.00     0.000 HD 
HETATM   38  H2  UNL     1     -13.329   6.438  72.833  1.00  0.00     0.000 HD 
ENDBRANCH  30  35
ENDBRANCH  28  29
ENDBRANCH  25  28
ENDBRANCH  10  24
TORSDOF 8
ENDMDL
MODEL       88
REMARK 921   NORMALIZED FREE ENERGY PREDICTED BY IDOCK:   -6.63 KCAL/MOL
REMARK 922        TOTAL FREE ENERGY PREDICTED BY IDOCK:  -10.55 KCAL/MOL
REMARK 923 INTER-LIGAND FREE ENERGY PREDICTED BY IDOCK:   -8.67 KCAL/MOL
REMARK 924 INTRA-LIGAND FREE ENERGY PREDICTED BY IDOCK:   -1.88 KCAL/MOL
REMARK 927      BINDING AFFINITY PREDICTED BY RF-SCORE:    0.00 PKD
ROOT
HETATM    1  C   UNL     1     -10.861  10.710  67.269  1.00  0.00    -0.287 C  
HETATM    2  S   UNL     1      -9.848  11.643  68.435  1.00  0.00    -0.196 SA 
HETATM    3  C   UNL     1     -10.836  13.149  68.292  1.00  0.00    -0.253 C  
HETATM    4  C   UNL     1     -11.213  13.542  66.869  1.00  0.00    -0.329 C  
HETATM    5  O   UNL     1     -10.943  12.526  63.369  1.00  0.00    -0.452 OA 
HETATM    6  CA  UNL     1     -11.149  12.697  65.797  1.00  0.00    -0.297 C  
HETATM    7  N   UNL     1     -10.808  11.387  65.989  1.00  0.00    -0.272 N  
HETATM    8  O   UNL     1     -10.108  10.243  64.097  1.00  0.00    -0.287 OA 
HETATM    9  C   UNL     1     -11.463  13.204  64.406  1.00  0.00    -0.366 C  
HETATM   10  CA  UNL     1     -10.197   9.481  66.565  1.00  0.00    -0.237 C  
HETATM   11  OXT UNL     1     -12.165  14.181  64.201  1.00  0.00    -0.556 OA 
HETATM   12  C   UNL     1     -10.357  10.339  65.276  1.00  0.00    -0.148 C  
ENDROOT
BRANCH   4  13
HETATM   13  C   UNL     1     -11.531  15.034  66.782  1.00  0.00    -0.251 C  
BRANCH  13  14
HETATM   14  S   UNL     1     -11.360  15.849  68.410  1.00  0.00    -0.339 SA 
BRANCH  14  15
HETATM   15  C   UNL     1     -10.263  17.117  67.982  1.00  0.00    -0.332 A  
HETATM   16  N   UNL     1     -10.579  18.220  67.342  1.00  0.00    -0.413 NA 
HETATM   17  N   UNL     1      -8.924  17.148  68.268  1.00  0.00    -0.241 NA 
HETATM   18  N   UNL     1      -9.427  18.959  67.265  1.00  0.00    -0.297 NA 
HETATM   19  N   UNL     1      -8.421  18.334  67.855  1.00  0.00    -0.249 NA 
BRANCH  17  20
HETATM   20  C   UNL     1      -8.105  16.226  69.022  1.00  0.00    -0.236 C  
HETATM   21  O   UNL     1      -7.002  15.441  66.975  1.00  0.00    -0.230 OA 
HETATM   22  C   UNL     1      -7.404  15.147  68.228  1.00  0.00    -0.113 C  
HETATM   23  O   UNL     1      -7.125  14.064  68.731  1.00  0.00    -0.099 OA 
ENDBRANCH  17  20
ENDBRANCH  14  15
ENDBRANCH  13  14
ENDBRANCH   4  13
BRANCH  10  24
HETATM   24  N   UNL     1      -8.809   9.122  66.936  1.00  0.00    -0.122 N  
HETATM   25  C   UNL     1      -8.426   8.126  67.794  1.00  0.00    -0.132 C  
HETATM   26  O   UNL     1      -7.231   7.991  68.057  1.00  0.00    -0.089 OA 
HETATM   27  H   UNL     1      -8.063   9.672  66.509  1.00  0.00     0.000 HD 
BRANCH  25  28
HETATM   28  C   UNL     1      -9.497   7.235  68.403  1.00  0.00    -0.142 C  
BRANCH  28  29
HETATM   29  C   UNL     1      -9.808   7.529  69.855  1.00  0.00    -0.187 A  
HETATM   30  C   UNL     1      -9.129   6.903  70.924  1.00  0.00    -0.153 A  
HETATM   31  C   UNL     1      -9.486   7.253  72.242  1.00  0.00    -0.167 A  
HETATM   32  C   UNL     1     -10.794   8.497  70.144  1.00  0.00    -0.238 A  
HETATM   33  C   UNL     1     -10.461   8.214  72.506  1.00  0.00    -0.409 A  
HETATM   34  C   UNL     1     -11.121   8.832  71.456  1.00  0.00    -0.377 A  
BRANCH  30  35
HETATM   35  C   UNL     1      -8.083   5.825  70.706  1.00  0.00    -0.118 C  
HETATM   36  N   UNL     1      -6.729   6.366  70.576  1.00  0.00    -0.052 NA 
HETATM   37  H1  UNL     1      -6.025   5.642  70.429  1.00  0.00     0.000 HD 
HETATM   38  H2  UNL     1      -6.491   6.951  71.378  1.00  0.00     0.000 HD 
ENDBRANCH  30  35
ENDBRANCH  28  29
ENDBRANCH  25  28
ENDBRANCH  10  24
TORSDOF 8
ENDMDL
MODEL       89
REMARK 921   NORMALIZED FREE ENERGY PREDICTED BY IDOCK:   -6.63 KCAL/MOL
REMARK 922        TOTAL FREE ENERGY PREDICTED BY IDOCK:  -10.55 KCAL/MOL
REMARK 923 INTER-LIGAND FREE ENERGY PREDICTED BY IDOCK:   -9.43 KCAL/MOL
REMARK 924 INTRA-LIGAND FREE ENERGY PREDICTED BY IDOCK:   -1.12 KCAL/MOL
REMARK 927      BINDING AFFINITY PREDICTED BY RF-SCORE:    0.00 PKD
ROOT
HETATM    1  C   UNL     1     -10.636  13.299  67.286  1.00  0.00    -0.247 C  
HETATM    2  S   UNL     1     -11.615  14.757  67.703  1.00  0.00    -0.336 SA 
HETATM    3  C   UNL     1     -10.640  15.871  66.668  1.00  0.00    -0.305 C  
HETATM    4  C   UNL     1      -9.130  15.704  66.784  1.00  0.00    -0.281 C  
HETATM    5  O   UNL     1      -6.504  13.744  68.401  1.00  0.00    -0.082 OA 
HETATM    6  CA  UNL     1      -8.518  14.607  67.322  1.00  0.00    -0.215 C  
HETATM    7  N   UNL     1      -9.273  13.538  67.717  1.00  0.00    -0.203 N  
HETATM    8  O   UNL     1      -8.237  12.059  69.172  1.00  0.00     0.165 OA 
HETATM    9  C   UNL     1      -7.012  14.570  67.472  1.00  0.00    -0.164 C  
HETATM   10  CA  UNL     1     -10.666  12.102  68.292  1.00  0.00    -0.223 C  
HETATM   11  OXT UNL     1      -6.262  15.245  66.785  1.00  0.00     0.096 OA 
HETATM   12  C   UNL     1      -9.166  12.456  68.509  1.00  0.00    -0.076 C  
ENDROOT
BRANCH   4  13
HETATM   13  C   UNL     1      -8.406  16.979  66.352  1.00  0.00    -0.284 C  
BRANCH  13  14
HETATM   14  S   UNL     1      -9.195  18.467  67.063  1.00  0.00    -0.292 SA 
BRANCH  14  15
HETATM   15  C   UNL     1      -7.807  19.216  67.775  1.00  0.00    -0.264 A  
HETATM   16  N   UNL     1      -7.445  19.117  69.034  1.00  0.00    -0.342 NA 
HETATM   17  N   UNL     1      -6.892  19.996  67.119  1.00  0.00    -0.214 NA 
HETATM   18  N   UNL     1      -6.271  19.815  69.150  1.00  0.00    -0.287 NA 
HETATM   19  N   UNL     1      -5.906  20.325  67.984  1.00  0.00    -0.218 NA 
BRANCH  17  20
HETATM   20  C   UNL     1      -6.786  20.340  65.719  1.00  0.00    -0.259 C  
HETATM   21  O   UNL     1      -5.392  18.369  65.281  1.00  0.00    -0.155 OA 
HETATM   22  C   UNL     1      -5.703  19.635  64.935  1.00  0.00    -0.211 C  
HETATM   23  O   UNL     1      -5.183  20.156  63.955  1.00  0.00    -0.165 OA 
ENDBRANCH  17  20
ENDBRANCH  14  15
ENDBRANCH  13  14
ENDBRANCH   4  13
BRANCH  10  24
HETATM   24  N   UNL     1     -11.536  12.208  69.486  1.00  0.00    -0.398 N  
HETATM   25  C   UNL     1     -11.933  11.180  70.300  1.00  0.00    -0.373 C  
HETATM   26  O   UNL     1     -12.716  11.416  71.221  1.00  0.00    -0.405 OA 
HETATM   27  H   UNL     1     -11.872  13.140  69.728  1.00  0.00     0.000 HD 
BRANCH  25  28
HETATM   28  C   UNL     1     -11.403   9.782  70.022  1.00  0.00    -0.269 C  
BRANCH  28  29
HETATM   29  C   UNL     1     -10.967   9.020  71.255  1.00  0.00    -0.384 A  
HETATM   30  C   UNL     1     -11.878   8.347  72.099  1.00  0.00    -0.441 A  
HETATM   31  C   UNL     1     -11.370   7.657  73.219  1.00  0.00    -0.054 A  
HETATM   32  C   UNL     1      -9.587   8.956  71.547  1.00  0.00    -0.362 A  
HETATM   33  C   UNL     1     -10.003   7.601  73.487  1.00  0.00    -0.354 A  
HETATM   34  C   UNL     1      -9.110   8.258  72.654  1.00  0.00    -0.327 A  
BRANCH  30  35
HETATM   35  C   UNL     1     -13.379   8.395  71.883  1.00  0.00    -0.357 C  
HETATM   36  N   UNL     1     -14.100   8.957  73.025  1.00  0.00    -1.139 NA 
HETATM   37  H1  UNL     1     -15.110   8.990  72.879  1.00  0.00     0.000 HD 
HETATM   38  H2  UNL     1     -13.736   9.879  73.268  1.00  0.00     0.000 HD 
ENDBRANCH  30  35
ENDBRANCH  28  29
ENDBRANCH  25  28
ENDBRANCH  10  24
TORSDOF 8
ENDMDL
MODEL       90
REMARK 921   NORMALIZED FREE ENERGY PREDICTED BY IDOCK:   -6.61 KCAL/MOL
REMARK 922        TOTAL FREE ENERGY PREDICTED BY IDOCK:  -10.53 KCAL/MOL
REMARK 923 INTER-LIGAND FREE ENERGY PREDICTED BY IDOCK:   -9.35 KCAL/MOL
REMARK 924 INTRA-LIGAND FREE ENERGY PREDICTED BY IDOCK:   -1.18 KCAL/MOL
REMARK 927      BINDING AFFINITY PREDICTED BY RF-SCORE:    0.00 PKD
ROOT
HETATM    1  C   UNL     1      -8.626  10.161  69.087  1.00  0.00    -0.165 C  
HETATM    2  S   UNL     1      -8.513   9.852  67.313  1.00  0.00    -0.121 SA 
HETATM    3  C   UNL     1      -8.892  11.559  66.857  1.00  0.00    -0.182 C  
HETATM    4  C   UNL     1     -10.053  12.188  67.618  1.00  0.00    -0.205 C  
HETATM    5  O   UNL     1     -12.518  11.582  70.247  1.00  0.00    -0.267 OA 
HETATM    6  CA  UNL     1     -10.565  11.692  68.784  1.00  0.00    -0.212 C  
HETATM    7  N   UNL     1      -9.971  10.613  69.378  1.00  0.00    -0.197 N  
HETATM    8  O   UNL     1     -11.266   9.487  70.937  1.00  0.00    -0.283 OA 
HETATM    9  C   UNL     1     -11.777  12.339  69.421  1.00  0.00    -0.330 C  
HETATM   10  CA  UNL     1      -8.917   8.934  70.013  1.00  0.00    -0.165 C  
HETATM   11  OXT UNL     1     -12.088  13.502  69.220  1.00  0.00    -0.322 OA 
HETATM   12  C   UNL     1     -10.264   9.666  70.287  1.00  0.00    -0.277 C  
ENDROOT
BRANCH   4  13
HETATM   13  C   UNL     1     -10.653  13.352  66.831  1.00  0.00    -0.273 C  
BRANCH  13  14
HETATM   14  S   UNL     1      -9.351  14.359  66.033  1.00  0.00    -0.037 SA 
BRANCH  14  15
HETATM   15  C   UNL     1     -10.344  15.531  65.235  1.00  0.00    -0.386 A  
HETATM   16  N   UNL     1     -11.274  15.268  64.346  1.00  0.00    -0.248 NA 
HETATM   17  N   UNL     1     -10.303  16.885  65.436  1.00  0.00    -0.638 NA 
HETATM   18  N   UNL     1     -11.842  16.473  64.020  1.00  0.00    -0.952 NA 
HETATM   19  N   UNL     1     -11.283  17.460  64.702  1.00  0.00    -0.824 NA 
BRANCH  17  20
HETATM   20  C   UNL     1      -9.522  17.672  66.363  1.00  0.00    -0.259 C  
HETATM   21  O   UNL     1     -11.004  17.059  68.221  1.00  0.00    -0.365 OA 
HETATM   22  C   UNL     1     -10.169  17.979  67.694  1.00  0.00    -0.368 C  
HETATM   23  O   UNL     1      -9.881  18.989  68.327  1.00  0.00    -0.334 OA 
ENDBRANCH  17  20
ENDBRANCH  14  15
ENDBRANCH  13  14
ENDBRANCH   4  13
BRANCH  10  24
HETATM   24  N   UNL     1      -9.023   7.594  69.392  1.00  0.00    -0.139 N  
HETATM   25  C   UNL     1      -8.759   6.393  69.995  1.00  0.00    -0.142 C  
HETATM   26  O   UNL     1      -8.827   5.361  69.327  1.00  0.00    -0.100 OA 
HETATM   27  H   UNL     1      -9.323   7.561  68.418  1.00  0.00     0.000 HD 
BRANCH  25  28
HETATM   28  C   UNL     1      -8.374   6.383  71.466  1.00  0.00    -0.125 C  
BRANCH  28  29
HETATM   29  C   UNL     1      -9.206   5.456  72.326  1.00  0.00    -0.155 A  
HETATM   30  C   UNL     1      -8.648   4.380  73.052  1.00  0.00    -0.101 A  
HETATM   31  C   UNL     1      -9.507   3.580  73.832  1.00  0.00    -0.118 A  
HETATM   32  C   UNL     1     -10.592   5.705  72.430  1.00  0.00    -0.270 A  
HETATM   33  C   UNL     1     -10.873   3.845  73.925  1.00  0.00    -0.308 A  
HETATM   34  C   UNL     1     -11.418   4.906  73.217  1.00  0.00    -0.359 A  
BRANCH  30  35
HETATM   35  C   UNL     1      -7.177   4.017  72.970  1.00  0.00    -0.067 C  
HETATM   36  N   UNL     1      -6.398   4.545  74.090  1.00  0.00    -0.049 NA 
HETATM   37  H1  UNL     1      -5.408   4.301  74.034  1.00  0.00     0.000 HD 
HETATM   38  H2  UNL     1      -6.797   4.253  74.982  1.00  0.00     0.000 HD 
ENDBRANCH  30  35
ENDBRANCH  28  29
ENDBRANCH  25  28
ENDBRANCH  10  24
TORSDOF 8
ENDMDL
MODEL       91
REMARK 921   NORMALIZED FREE ENERGY PREDICTED BY IDOCK:   -6.61 KCAL/MOL
REMARK 922        TOTAL FREE ENERGY PREDICTED BY IDOCK:  -10.53 KCAL/MOL
REMARK 923 INTER-LIGAND FREE ENERGY PREDICTED BY IDOCK:   -9.08 KCAL/MOL
REMARK 924 INTRA-LIGAND FREE ENERGY PREDICTED BY IDOCK:   -1.45 KCAL/MOL
REMARK 927      BINDING AFFINITY PREDICTED BY RF-SCORE:    0.00 PKD
ROOT
HETATM    1  C   UNL     1     -11.338  14.930  67.184  1.00  0.00    -0.343 C  
HETATM    2  S   UNL     1     -10.432  13.427  66.762  1.00  0.00    -0.277 SA 
HETATM    3  C   UNL     1     -11.440  12.364  67.819  1.00  0.00    -0.324 C  
HETATM    4  C   UNL     1     -11.723  12.918  69.211  1.00  0.00    -0.378 C  
HETATM    5  O   UNL     1     -11.183  15.797  71.395  1.00  0.00    -0.366 OA 
HETATM    6  CA  UNL     1     -11.564  14.229  69.561  1.00  0.00    -0.301 C  
HETATM    7  N   UNL     1     -11.210  15.145  68.611  1.00  0.00    -0.271 N  
HETATM    8  O   UNL     1     -10.352  17.145  69.413  1.00  0.00    -0.290 OA 
HETATM    9  C   UNL     1     -11.789  14.668  70.993  1.00  0.00    -0.322 C  
HETATM   10  CA  UNL     1     -10.600  16.294  66.985  1.00  0.00    -0.284 C  
HETATM   11  OXT UNL     1     -12.496  14.049  71.771  1.00  0.00    -0.313 OA 
HETATM   12  C   UNL     1     -10.686  16.382  68.537  1.00  0.00    -0.320 C  
ENDROOT
BRANCH   4  13
HETATM   13  C   UNL     1     -12.067  11.792  70.185  1.00  0.00    -0.317 C  
BRANCH  13  14
HETATM   14  S   UNL     1     -11.868  10.151  69.405  1.00  0.00     0.140 SA 
BRANCH  14  15
HETATM   15  C   UNL     1     -10.698   9.463  70.479  1.00  0.00    -0.276 A  
HETATM   16  N   UNL     1     -10.746   9.503  71.791  1.00  0.00    -0.137 NA 
HETATM   17  N   UNL     1      -9.577   8.771  70.105  1.00  0.00    -0.167 NA 
HETATM   18  N   UNL     1      -9.659   8.794  72.235  1.00  0.00    -0.295 NA 
HETATM   19  N   UNL     1      -8.959   8.314  71.219  1.00  0.00    -0.148 NA 
BRANCH  17  20
HETATM   20  C   UNL     1      -9.112   8.377  68.794  1.00  0.00    -0.143 C  
HETATM   21  O   UNL     1      -8.049  10.563  68.452  1.00  0.00    -0.109 OA 
HETATM   22  C   UNL     1      -8.642   9.492  67.887  1.00  0.00    -0.119 C  
HETATM   23  O   UNL     1      -8.711   9.393  66.666  1.00  0.00    -0.128 OA 
ENDBRANCH  17  20
ENDBRANCH  14  15
ENDBRANCH  13  14
ENDBRANCH   4  13
BRANCH  10  24
HETATM   24  N   UNL     1      -9.234  16.278  66.412  1.00  0.00    -0.273 N  
HETATM   25  C   UNL     1      -8.385  17.346  66.299  1.00  0.00    -0.236 C  
HETATM   26  O   UNL     1      -7.301  17.191  65.736  1.00  0.00    -0.280 OA 
HETATM   27  H   UNL     1      -8.891  15.381  66.068  1.00  0.00     0.000 HD 
BRANCH  25  28
HETATM   28  C   UNL     1      -8.822  18.690  66.860  1.00  0.00    -0.289 C  
BRANCH  28  29
HETATM   29  C   UNL     1      -7.727  19.463  67.564  1.00  0.00    -0.289 A  
HETATM   30  C   UNL     1      -6.897  20.392  66.896  1.00  0.00    -0.307 A  
HETATM   31  C   UNL     1      -5.912  21.068  67.644  1.00  0.00    -0.387 A  
HETATM   32  C   UNL     1      -7.559  19.268  68.952  1.00  0.00    -0.384 A  
HETATM   33  C   UNL     1      -5.764  20.864  69.015  1.00  0.00    -0.375 A  
HETATM   34  C   UNL     1      -6.584  19.957  69.669  1.00  0.00    -0.373 A  
BRANCH  30  35
HETATM   35  C   UNL     1      -6.984  20.636  65.401  1.00  0.00    -0.086 C  
HETATM   36  N   UNL     1      -6.192  19.683  64.623  1.00  0.00    -0.311 NA 
HETATM   37  H1  UNL     1      -6.251  19.847  63.618  1.00  0.00     0.000 HD 
HETATM   38  H2  UNL     1      -6.450  18.722  64.852  1.00  0.00     0.000 HD 
ENDBRANCH  30  35
ENDBRANCH  28  29
ENDBRANCH  25  28
ENDBRANCH  10  24
TORSDOF 8
ENDMDL
MODEL       92
REMARK 921   NORMALIZED FREE ENERGY PREDICTED BY IDOCK:   -6.60 KCAL/MOL
REMARK 922        TOTAL FREE ENERGY PREDICTED BY IDOCK:  -10.50 KCAL/MOL
REMARK 923 INTER-LIGAND FREE ENERGY PREDICTED BY IDOCK:   -9.47 KCAL/MOL
REMARK 924 INTRA-LIGAND FREE ENERGY PREDICTED BY IDOCK:   -1.03 KCAL/MOL
REMARK 927      BINDING AFFINITY PREDICTED BY RF-SCORE:    0.00 PKD
ROOT
HETATM    1  C   UNL     1      -9.420   8.399  70.095  1.00  0.00    -0.164 C  
HETATM    2  S   UNL     1      -9.059   8.430  68.327  1.00  0.00    -0.138 SA 
HETATM    3  C   UNL     1      -8.987  10.233  68.238  1.00  0.00    -0.132 C  
HETATM    4  C   UNL     1     -10.108  10.961  68.969  1.00  0.00    -0.212 C  
HETATM    5  O   UNL     1     -13.073  10.463  71.047  1.00  0.00    -0.381 OA 
HETATM    6  CA  UNL     1     -10.911  10.383  69.912  1.00  0.00    -0.305 C  
HETATM    7  N   UNL     1     -10.671   9.097  70.308  1.00  0.00    -0.220 N  
HETATM    8  O   UNL     1     -12.428   8.032  71.383  1.00  0.00    -0.311 OA 
HETATM    9  C   UNL     1     -12.056  11.165  70.522  1.00  0.00    -0.381 C  
HETATM   10  CA  UNL     1     -10.120   7.121  70.664  1.00  0.00    -0.191 C  
HETATM   11  OXT UNL     1     -12.077  12.385  70.560  1.00  0.00    -0.363 OA 
HETATM   12  C   UNL     1     -11.311   8.088  70.926  1.00  0.00    -0.276 C  
ENDROOT
BRANCH   4  13
HETATM   13  C   UNL     1     -10.302  12.368  68.406  1.00  0.00    -0.229 C  
BRANCH  13  14
HETATM   14  S   UNL     1     -11.738  12.443  67.277  1.00  0.00    -0.296 SA 
BRANCH  14  15
HETATM   15  C   UNL     1     -10.916  12.338  65.758  1.00  0.00    -0.301 A  
HETATM   16  N   UNL     1     -10.649  11.229  65.107  1.00  0.00    -0.292 NA 
HETATM   17  N   UNL     1     -10.448  13.397  65.025  1.00  0.00    -0.346 NA 
HETATM   18  N   UNL     1     -10.042  11.609  63.938  1.00  0.00    -0.323 NA 
HETATM   19  N   UNL     1      -9.945  12.927  63.861  1.00  0.00    -0.249 NA 
BRANCH  17  20
HETATM   20  C   UNL     1     -10.561  14.819  65.256  1.00  0.00    -0.395 C  
HETATM   21  O   UNL     1     -12.583  14.942  63.870  1.00  0.00    -0.831 OA 
HETATM   22  C   UNL     1     -11.487  15.577  64.332  1.00  0.00    -0.259 C  
HETATM   23  O   UNL     1     -11.304  16.763  64.077  1.00  0.00    -1.153 OA 
ENDBRANCH  17  20
ENDBRANCH  14  15
ENDBRANCH  13  14
ENDBRANCH   4  13
BRANCH  10  24
HETATM   24  N   UNL     1     -10.390   5.996  69.739  1.00  0.00    -0.206 N  
HETATM   25  C   UNL     1      -9.689   4.823  69.655  1.00  0.00    -0.202 C  
HETATM   26  O   UNL     1      -9.993   4.006  68.785  1.00  0.00    -0.051 OA 
HETATM   27  H   UNL     1     -11.178   6.107  69.100  1.00  0.00     0.000 HD 
BRANCH  25  28
HETATM   28  C   UNL     1      -8.549   4.582  70.632  1.00  0.00    -0.118 C  
BRANCH  28  29
HETATM   29  C   UNL     1      -8.986   4.132  72.009  1.00  0.00    -0.151 A  
HETATM   30  C   UNL     1      -8.536   4.754  73.195  1.00  0.00    -0.106 A  
HETATM   31  C   UNL     1      -9.011   4.266  74.429  1.00  0.00    -0.104 A  
HETATM   32  C   UNL     1      -9.910   3.068  72.102  1.00  0.00    -0.239 A  
HETATM   33  C   UNL     1      -9.926   3.217  74.500  1.00  0.00    -0.178 A  
HETATM   34  C   UNL     1     -10.371   2.612  73.334  1.00  0.00    -0.218 A  
BRANCH  30  35
HETATM   35  C   UNL     1      -7.517   5.878  73.190  1.00  0.00    -0.095 C  
HETATM   36  N   UNL     1      -6.164   5.418  73.506  1.00  0.00    -0.054 NA 
HETATM   37  H1  UNL     1      -5.478   6.174  73.503  1.00  0.00     0.000 HD 
HETATM   38  H2  UNL     1      -5.879   4.663  72.881  1.00  0.00     0.000 HD 
ENDBRANCH  30  35
ENDBRANCH  28  29
ENDBRANCH  25  28
ENDBRANCH  10  24
TORSDOF 8
ENDMDL
MODEL       93
REMARK 921   NORMALIZED FREE ENERGY PREDICTED BY IDOCK:   -6.58 KCAL/MOL
REMARK 922        TOTAL FREE ENERGY PREDICTED BY IDOCK:  -10.48 KCAL/MOL
REMARK 923 INTER-LIGAND FREE ENERGY PREDICTED BY IDOCK:   -9.39 KCAL/MOL
REMARK 924 INTRA-LIGAND FREE ENERGY PREDICTED BY IDOCK:   -1.09 KCAL/MOL
REMARK 927      BINDING AFFINITY PREDICTED BY RF-SCORE:    0.00 PKD
ROOT
HETATM    1  C   UNL     1     -10.070   7.811  70.880  1.00  0.00    -0.187 C  
HETATM    2  S   UNL     1      -9.671   8.277  69.183  1.00  0.00    -0.174 SA 
HETATM    3  C   UNL     1      -9.846  10.049  69.488  1.00  0.00    -0.229 C  
HETATM    4  C   UNL     1     -11.075  10.448  70.296  1.00  0.00    -0.379 C  
HETATM    5  O   UNL     1     -13.996   9.127  72.049  1.00  0.00    -0.402 OA 
HETATM    6  CA  UNL     1     -11.815   9.578  71.046  1.00  0.00    -0.330 C  
HETATM    7  N   UNL     1     -11.410   8.278  71.169  1.00  0.00    -0.257 N  
HETATM    8  O   UNL     1     -13.032   6.785  71.890  1.00  0.00    -0.325 OA 
HETATM    9  C   UNL     1     -13.071  10.052  71.745  1.00  0.00    -0.457 C  
HETATM   10  CA  UNL     1     -10.602   6.360  71.121  1.00  0.00    -0.236 C  
HETATM   11  OXT UNL     1     -13.262  11.220  72.044  1.00  0.00    -0.506 OA 
HETATM   12  C   UNL     1     -11.922   7.084  71.518  1.00  0.00    -0.334 C  
ENDROOT
BRANCH   4  13
HETATM   13  C   UNL     1     -11.445  11.908  70.039  1.00  0.00    -0.130 C  
BRANCH  13  14
HETATM   14  S   UNL     1     -11.604  12.251  68.250  1.00  0.00    -0.347 SA 
BRANCH  14  15
HETATM   15  C   UNL     1     -11.456  13.975  68.273  1.00  0.00    -0.304 A  
HETATM   16  N   UNL     1     -11.605  14.741  69.330  1.00  0.00    -0.286 NA 
HETATM   17  N   UNL     1     -11.148  14.768  67.200  1.00  0.00    -0.324 NA 
HETATM   18  N   UNL     1     -11.349  16.022  68.911  1.00  0.00    -0.357 NA 
HETATM   19  N   UNL     1     -11.036  16.047  67.626  1.00  0.00    -0.313 NA 
BRANCH  17  20
HETATM   20  C   UNL     1     -10.809  14.413  65.840  1.00  0.00    -0.304 C  
HETATM   21  O   UNL     1     -13.180  14.193  65.245  1.00  0.00    -0.760 OA 
HETATM   22  C   UNL     1     -11.913  13.794  65.013  1.00  0.00    -0.383 C  
HETATM   23  O   UNL     1     -11.665  13.020  64.095  1.00  0.00    -0.362 OA 
ENDBRANCH  17  20
ENDBRANCH  14  15
ENDBRANCH  13  14
ENDBRANCH   4  13
BRANCH  10  24
HETATM   24  N   UNL     1     -10.691   5.442  69.962  1.00  0.00    -0.287 N  
HETATM   25  C   UNL     1      -9.851   4.397  69.683  1.00  0.00    -0.202 C  
HETATM   26  O   UNL     1     -10.012   3.762  68.641  1.00  0.00     0.014 OA 
HETATM   27  H   UNL     1     -11.454   5.604  69.305  1.00  0.00     0.000 HD 
BRANCH  25  28
HETATM   28  C   UNL     1      -8.738   4.072  70.667  1.00  0.00    -0.120 C  
BRANCH  28  29
HETATM   29  C   UNL     1      -9.195   3.348  71.915  1.00  0.00    -0.179 A  
HETATM   30  C   UNL     1      -8.867   3.788  73.217  1.00  0.00    -0.091 A  
HETATM   31  C   UNL     1      -9.350   3.049  74.316  1.00  0.00    -0.101 A  
HETATM   32  C   UNL     1     -10.012   2.207  71.764  1.00  0.00    -0.209 A  
HETATM   33  C   UNL     1     -10.159   1.927  74.146  1.00  0.00    -0.146 A  
HETATM   34  C   UNL     1     -10.485   1.500  72.868  1.00  0.00    -0.213 A  
BRANCH  30  35
HETATM   35  C   UNL     1      -7.964   4.981  73.471  1.00  0.00    -0.107 C  
HETATM   36  N   UNL     1      -6.595   4.595  73.811  1.00  0.00    -0.060 NA 
HETATM   37  H1  UNL     1      -5.987   5.397  73.982  1.00  0.00     0.000 HD 
HETATM   38  H2  UNL     1      -6.200   3.984  73.096  1.00  0.00     0.000 HD 
ENDBRANCH  30  35
ENDBRANCH  28  29
ENDBRANCH  25  28
ENDBRANCH  10  24
TORSDOF 8
ENDMDL
MODEL       94
REMARK 921   NORMALIZED FREE ENERGY PREDICTED BY IDOCK:   -6.58 KCAL/MOL
REMARK 922        TOTAL FREE ENERGY PREDICTED BY IDOCK:  -10.47 KCAL/MOL
REMARK 923 INTER-LIGAND FREE ENERGY PREDICTED BY IDOCK:   -8.91 KCAL/MOL
REMARK 924 INTRA-LIGAND FREE ENERGY PREDICTED BY IDOCK:   -1.57 KCAL/MOL
REMARK 927      BINDING AFFINITY PREDICTED BY RF-SCORE:    0.00 PKD
ROOT
HETATM    1  C   UNL     1     -10.524  10.464  66.550  1.00  0.00    -0.196 C  
HETATM    2  S   UNL     1      -9.506  11.264  67.807  1.00  0.00    -0.174 SA 
HETATM    3  C   UNL     1     -10.777  12.464  68.264  1.00  0.00    -0.230 C  
HETATM    4  C   UNL     1     -11.494  13.123  67.092  1.00  0.00    -0.378 C  
HETATM    5  O   UNL     1     -11.719  13.193  63.446  1.00  0.00    -0.475 OA 
HETATM    6  CA  UNL     1     -11.476  12.643  65.813  1.00  0.00    -0.358 C  
HETATM    7  N   UNL     1     -10.856  11.455  65.546  1.00  0.00    -0.253 N  
HETATM    8  O   UNL     1     -10.329  11.074  63.320  1.00  0.00    -0.345 OA 
HETATM    9  C   UNL     1     -12.148  13.416  64.698  1.00  0.00    -0.410 C  
HETATM   10  CA  UNL     1      -9.785   9.673  65.422  1.00  0.00    -0.295 C  
HETATM   11  OXT UNL     1     -13.054  14.211  64.897  1.00  0.00    -0.677 OA 
HETATM   12  C   UNL     1     -10.357  10.783  64.492  1.00  0.00    -0.331 C  
ENDROOT
BRANCH   4  13
HETATM   13  C   UNL     1     -12.107  14.459  67.511  1.00  0.00    -0.292 C  
BRANCH  13  14
HETATM   14  S   UNL     1     -10.969  15.410  68.580  1.00  0.00    -0.290 SA 
BRANCH  14  15
HETATM   15  C   UNL     1     -10.112  16.299  67.368  1.00  0.00    -0.260 A  
HETATM   16  N   UNL     1     -10.458  17.474  66.893  1.00  0.00    -0.315 NA 
HETATM   17  N   UNL     1      -8.953  15.906  66.755  1.00  0.00    -0.228 NA 
HETATM   18  N   UNL     1      -9.479  17.829  66.002  1.00  0.00    -0.527 NA 
HETATM   19  N   UNL     1      -8.539  16.899  65.935  1.00  0.00    -0.517 NA 
BRANCH  17  20
HETATM   20  C   UNL     1      -8.122  14.744  66.978  1.00  0.00    -0.144 C  
HETATM   21  O   UNL     1      -6.794  15.944  68.657  1.00  0.00    -0.117 OA 
HETATM   22  C   UNL     1      -6.823  14.979  67.715  1.00  0.00    -0.170 C  
HETATM   23  O   UNL     1      -5.847  14.258  67.534  1.00  0.00    -0.343 OA 
ENDBRANCH  17  20
ENDBRANCH  14  15
ENDBRANCH  13  14
ENDBRANCH   4  13
BRANCH  10  24
HETATM   24  N   UNL     1      -8.308   9.577  65.482  1.00  0.00    -0.127 N  
HETATM   25  C   UNL     1      -7.569   8.429  65.588  1.00  0.00    -0.089 C  
HETATM   26  O   UNL     1      -6.346   8.513  65.695  1.00  0.00    -0.054 OA 
HETATM   27  H   UNL     1      -7.789  10.454  65.440  1.00  0.00     0.000 HD 
BRANCH  25  28
HETATM   28  C   UNL     1      -8.293   7.092  65.584  1.00  0.00    -0.137 C  
BRANCH  28  29
HETATM   29  C   UNL     1      -8.429   6.448  66.947  1.00  0.00    -0.110 A  
HETATM   30  C   UNL     1      -8.535   5.050  67.125  1.00  0.00    -0.106 A  
HETATM   31  C   UNL     1      -8.648   4.548  68.437  1.00  0.00    -0.104 A  
HETATM   32  C   UNL     1      -8.413   7.283  68.085  1.00  0.00    -0.123 A  
HETATM   33  C   UNL     1      -8.626   5.390  69.548  1.00  0.00    -0.103 A  
HETATM   34  C   UNL     1      -8.515   6.761  69.372  1.00  0.00    -0.132 A  
BRANCH  30  35
HETATM   35  C   UNL     1      -8.598   4.082  65.958  1.00  0.00    -0.110 C  
HETATM   36  N   UNL     1      -9.429   2.910  66.237  1.00  0.00    -0.383 NA 
HETATM   37  H1  UNL     1      -9.472   2.259  65.452  1.00  0.00     0.000 HD 
HETATM   38  H2  UNL     1     -10.366   3.189  66.532  1.00  0.00     0.000 HD 
ENDBRANCH  30  35
ENDBRANCH  28  29
ENDBRANCH  25  28
ENDBRANCH  10  24
TORSDOF 8
ENDMDL
MODEL       95
REMARK 921   NORMALIZED FREE ENERGY PREDICTED BY IDOCK:   -6.57 KCAL/MOL
REMARK 922        TOTAL FREE ENERGY PREDICTED BY IDOCK:  -10.47 KCAL/MOL
REMARK 923 INTER-LIGAND FREE ENERGY PREDICTED BY IDOCK:   -9.00 KCAL/MOL
REMARK 924 INTRA-LIGAND FREE ENERGY PREDICTED BY IDOCK:   -1.47 KCAL/MOL
REMARK 927      BINDING AFFINITY PREDICTED BY RF-SCORE:    0.00 PKD
ROOT
HETATM    1  C   UNL     1     -11.347  11.626  68.128  1.00  0.00    -0.292 C  
HETATM    2  S   UNL     1     -11.978  13.268  68.532  1.00  0.00    -0.234 SA 
HETATM    3  C   UNL     1     -10.915  14.114  67.341  1.00  0.00    -0.299 C  
HETATM    4  C   UNL     1      -9.462  13.654  67.331  1.00  0.00    -0.225 C  
HETATM    5  O   UNL     1      -7.116  11.289  68.833  1.00  0.00    -0.087 OA 
HETATM    6  CA  UNL     1      -9.024  12.484  67.885  1.00  0.00    -0.188 C  
HETATM    7  N   UNL     1      -9.928  11.608  68.417  1.00  0.00    -0.197 N  
HETATM    8  O   UNL     1      -9.056  10.024  69.869  1.00  0.00    -0.213 OA 
HETATM    9  C   UNL     1      -7.546  12.154  67.900  1.00  0.00    -0.123 C  
HETATM   10  CA  UNL     1     -11.508  10.508  69.211  1.00  0.00    -0.256 C  
HETATM   11  OXT UNL     1      -6.753  12.631  67.104  1.00  0.00    -0.138 OA 
HETATM   12  C   UNL     1      -9.953  10.566  69.267  1.00  0.00    -0.213 C  
ENDROOT
BRANCH   4  13
HETATM   13  C   UNL     1      -8.553  14.736  66.751  1.00  0.00    -0.193 C  
BRANCH  13  14
HETATM   14  S   UNL     1      -8.192  16.037  67.984  1.00  0.00    -0.152 SA 
BRANCH  14  15
HETATM   15  C   UNL     1      -9.008  17.371  67.241  1.00  0.00    -0.236 A  
HETATM   16  N   UNL     1     -10.293  17.629  67.332  1.00  0.00    -0.349 NA 
HETATM   17  N   UNL     1      -8.421  18.343  66.476  1.00  0.00    -0.271 NA 
HETATM   18  N   UNL     1     -10.497  18.797  66.644  1.00  0.00    -0.412 NA 
HETATM   19  N   UNL     1      -9.360  19.259  66.148  1.00  0.00    -0.425 NA 
BRANCH  17  20
HETATM   20  C   UNL     1      -7.032  18.564  66.145  1.00  0.00    -0.260 C  
HETATM   21  O   UNL     1      -6.900  20.448  67.713  1.00  0.00    -0.269 OA 
HETATM   22  C   UNL     1      -6.443  19.890  66.573  1.00  0.00    -0.188 C  
HETATM   23  O   UNL     1      -5.515  20.404  65.958  1.00  0.00    -0.171 OA 
ENDBRANCH  17  20
ENDBRANCH  14  15
ENDBRANCH  13  14
ENDBRANCH   4  13
BRANCH  10  24
HETATM   24  N   UNL     1     -12.214  10.844  70.469  1.00  0.00    -0.336 N  
HETATM   25  C   UNL     1     -12.784   9.959  71.345  1.00  0.00    -0.403 C  
HETATM   26  O   UNL     1     -13.398  10.394  72.319  1.00  0.00    -0.396 OA 
HETATM   27  H   UNL     1     -12.282  11.833  70.708  1.00  0.00     0.000 HD 
BRANCH  25  28
HETATM   28  C   UNL     1     -12.650   8.469  71.070  1.00  0.00    -0.060 C  
BRANCH  28  29
HETATM   29  C   UNL     1     -11.296   7.886  71.415  1.00  0.00    -0.285 A  
HETATM   30  C   UNL     1     -10.671   6.890  70.631  1.00  0.00    -0.267 A  
HETATM   31  C   UNL     1      -9.404   6.419  71.032  1.00  0.00    -0.171 A  
HETATM   32  C   UNL     1     -10.621   8.390  72.548  1.00  0.00    -0.368 A  
HETATM   33  C   UNL     1      -8.753   6.932  72.152  1.00  0.00    -0.131 A  
HETATM   34  C   UNL     1      -9.365   7.914  72.916  1.00  0.00    -0.309 A  
BRANCH  30  35
HETATM   35  C   UNL     1     -11.340   6.267  69.420  1.00  0.00    -0.378 C  
HETATM   36  N   UNL     1     -11.119   7.032  68.193  1.00  0.00    -0.506 NA 
HETATM   37  H1  UNL     1     -11.569   6.613  67.378  1.00  0.00     0.000 HD 
HETATM   38  H2  UNL     1     -10.123   7.176  68.026  1.00  0.00     0.000 HD 
ENDBRANCH  30  35
ENDBRANCH  28  29
ENDBRANCH  25  28
ENDBRANCH  10  24
TORSDOF 8
ENDMDL
MODEL       96
REMARK 921   NORMALIZED FREE ENERGY PREDICTED BY IDOCK:   -6.55 KCAL/MOL
REMARK 922        TOTAL FREE ENERGY PREDICTED BY IDOCK:  -10.43 KCAL/MOL
REMARK 923 INTER-LIGAND FREE ENERGY PREDICTED BY IDOCK:   -8.85 KCAL/MOL
REMARK 924 INTRA-LIGAND FREE ENERGY PREDICTED BY IDOCK:   -1.58 KCAL/MOL
REMARK 927      BINDING AFFINITY PREDICTED BY RF-SCORE:    0.00 PKD
ROOT
HETATM    1  C   UNL     1     -11.630  10.899  67.857  1.00  0.00    -0.188 C  
HETATM    2  S   UNL     1     -10.933  11.567  69.381  1.00  0.00    -0.125 SA 
HETATM    3  C   UNL     1     -11.759  13.165  69.215  1.00  0.00    -0.321 C  
HETATM    4  C   UNL     1     -11.704  13.779  67.821  1.00  0.00    -0.393 C  
HETATM    5  O   UNL     1     -10.527  13.221  64.407  1.00  0.00    -0.412 OA 
HETATM    6  CA  UNL     1     -11.390  13.083  66.688  1.00  0.00    -0.325 C  
HETATM    7  N   UNL     1     -11.188  11.733  66.759  1.00  0.00    -0.316 N  
HETATM    8  O   UNL     1     -10.052  10.793  64.968  1.00  0.00    -0.272 OA 
HETATM    9  C   UNL     1     -11.277  13.800  65.359  1.00  0.00    -0.302 C  
HETATM   10  CA  UNL     1     -10.865   9.718  67.173  1.00  0.00    -0.136 C  
HETATM   11  OXT UNL     1     -11.840  14.858  65.128  1.00  0.00    -0.335 OA 
HETATM   12  C   UNL     1     -10.613  10.753  66.038  1.00  0.00    -0.156 C  
ENDROOT
BRANCH   4  13
HETATM   13  C   UNL     1     -11.904  15.293  67.885  1.00  0.00    -0.125 C  
BRANCH  13  14
HETATM   14  S   UNL     1     -11.417  15.962  69.515  1.00  0.00    -0.336 SA 
BRANCH  14  15
HETATM   15  C   UNL     1     -10.087  16.959  69.031  1.00  0.00    -0.292 A  
HETATM   16  N   UNL     1     -10.163  18.229  68.702  1.00  0.00    -0.380 NA 
HETATM   17  N   UNL     1      -8.780  16.563  68.942  1.00  0.00    -0.254 NA 
HETATM   18  N   UNL     1      -8.879  18.632  68.443  1.00  0.00    -0.331 NA 
HETATM   19  N   UNL     1      -8.024  17.637  68.618  1.00  0.00    -0.284 NA 
BRANCH  17  20
HETATM   20  C   UNL     1      -8.158  15.300  69.272  1.00  0.00    -0.236 C  
HETATM   21  O   UNL     1      -8.119  14.635  66.910  1.00  0.00    -0.167 OA 
HETATM   22  C   UNL     1      -8.184  14.238  68.197  1.00  0.00    -0.146 C  
HETATM   23  O   UNL     1      -8.173  13.044  68.479  1.00  0.00    -0.140 OA 
ENDBRANCH  17  20
ENDBRANCH  14  15
ENDBRANCH  13  14
ENDBRANCH   4  13
BRANCH  10  24
HETATM   24  N   UNL     1      -9.656   9.183  67.841  1.00  0.00    -0.144 N  
HETATM   25  C   UNL     1      -9.626   8.289  68.878  1.00  0.00    -0.153 C  
HETATM   26  O   UNL     1      -8.541   7.987  69.376  1.00  0.00    -0.133 OA 
HETATM   27  H   UNL     1      -8.756   9.513  67.494  1.00  0.00     0.000 HD 
BRANCH  25  28
HETATM   28  C   UNL     1     -10.939   7.714  69.386  1.00  0.00    -0.071 C  
BRANCH  28  29
HETATM   29  C   UNL     1     -10.821   6.917  70.668  1.00  0.00    -0.280 A  
HETATM   30  C   UNL     1     -11.068   7.477  71.941  1.00  0.00    -0.277 A  
HETATM   31  C   UNL     1     -10.941   6.647  73.074  1.00  0.00    -0.279 A  
HETATM   32  C   UNL     1     -10.485   5.549  70.574  1.00  0.00    -0.347 A  
HETATM   33  C   UNL     1     -10.612   5.297  72.960  1.00  0.00    -0.278 A  
HETATM   34  C   UNL     1     -10.376   4.748  71.709  1.00  0.00    -0.230 A  
BRANCH  30  35
HETATM   35  C   UNL     1     -11.398   8.945  72.137  1.00  0.00    -0.299 C  
HETATM   36  N   UNL     1     -12.826   9.230  71.993  1.00  0.00    -0.391 NA 
HETATM   37  H1  UNL     1     -13.048  10.218  72.124  1.00  0.00     0.000 HD 
HETATM   38  H2  UNL     1     -13.380   8.645  72.618  1.00  0.00     0.000 HD 
ENDBRANCH  30  35
ENDBRANCH  28  29
ENDBRANCH  25  28
ENDBRANCH  10  24
TORSDOF 8
ENDMDL
MODEL       97
REMARK 921   NORMALIZED FREE ENERGY PREDICTED BY IDOCK:   -6.53 KCAL/MOL
REMARK 922        TOTAL FREE ENERGY PREDICTED BY IDOCK:  -10.40 KCAL/MOL
REMARK 923 INTER-LIGAND FREE ENERGY PREDICTED BY IDOCK:   -9.17 KCAL/MOL
REMARK 924 INTRA-LIGAND FREE ENERGY PREDICTED BY IDOCK:   -1.23 KCAL/MOL
REMARK 927      BINDING AFFINITY PREDICTED BY RF-SCORE:    0.00 PKD
ROOT
HETATM    1  C   UNL     1      -9.948  11.306  67.014  1.00  0.00    -0.198 C  
HETATM    2  S   UNL     1     -11.359  10.792  68.016  1.00  0.00    -0.258 SA 
HETATM    3  C   UNL     1     -10.470   9.435  68.810  1.00  0.00    -0.212 C  
HETATM    4  C   UNL     1      -9.635   8.572  67.871  1.00  0.00    -0.177 C  
HETATM    5  O   UNL     1      -8.589   8.177  64.392  1.00  0.00    -0.033 OA 
HETATM    6  CA  UNL     1      -9.268   8.946  66.609  1.00  0.00    -0.170 C  
HETATM    7  N   UNL     1      -9.581  10.197  66.157  1.00  0.00    -0.190 N  
HETATM    8  O   UNL     1      -9.500  10.484  63.857  1.00  0.00    -0.241 OA 
HETATM    9  C   UNL     1      -8.510   7.984  65.719  1.00  0.00    -0.147 C  
HETATM   10  CA  UNL     1     -10.249  12.119  65.713  1.00  0.00    -0.254 C  
HETATM   11  OXT UNL     1      -7.836   7.066  66.159  1.00  0.00    -0.095 OA 
HETATM   12  C   UNL     1      -9.691  10.858  64.990  1.00  0.00    -0.267 C  
ENDROOT
BRANCH   4  13
HETATM   13  C   UNL     1      -9.390   7.190  68.475  1.00  0.00    -0.136 C  
BRANCH  13  14
HETATM   14  S   UNL     1     -10.909   6.173  68.450  1.00  0.00    -0.292 SA 
BRANCH  14  15
HETATM   15  C   UNL     1     -11.280   6.168  70.140  1.00  0.00    -0.382 A  
HETATM   16  N   UNL     1     -12.166   6.936  70.732  1.00  0.00    -0.364 NA 
HETATM   17  N   UNL     1     -10.712   5.352  71.082  1.00  0.00    -0.208 NA 
HETATM   18  N   UNL     1     -12.173   6.565  72.051  1.00  0.00    -0.329 NA 
HETATM   19  N   UNL     1     -11.317   5.578  72.271  1.00  0.00    -0.233 NA 
BRANCH  17  20
HETATM   20  C   UNL     1      -9.753   4.280  70.939  1.00  0.00    -0.196 C  
HETATM   21  O   UNL     1      -7.886   5.816  71.364  1.00  0.00    -0.107 OA 
HETATM   22  C   UNL     1      -8.310   4.691  70.751  1.00  0.00    -0.092 C  
HETATM   23  O   UNL     1      -7.519   3.982  70.139  1.00  0.00    -0.045 OA 
ENDBRANCH  17  20
ENDBRANCH  14  15
ENDBRANCH  13  14
ENDBRANCH   4  13
BRANCH  10  24
HETATM   24  N   UNL     1     -11.656  12.468  65.411  1.00  0.00    -0.357 N  
HETATM   25  C   UNL     1     -12.178  13.730  65.299  1.00  0.00    -0.439 C  
HETATM   26  O   UNL     1     -13.387  13.862  65.110  1.00  0.00    -0.698 OA 
HETATM   27  H   UNL     1     -12.302  11.691  65.272  1.00  0.00     0.000 HD 
BRANCH  25  28
HETATM   28  C   UNL     1     -11.242  14.921  65.430  1.00  0.00    -0.359 C  
BRANCH  28  29
HETATM   29  C   UNL     1     -11.121  15.473  66.834  1.00  0.00    -0.221 A  
HETATM   30  C   UNL     1     -10.494  16.707  67.119  1.00  0.00    -0.300 A  
HETATM   31  C   UNL     1     -10.442  17.139  68.460  1.00  0.00    -0.377 A  
HETATM   32  C   UNL     1     -11.692  14.735  67.894  1.00  0.00    -0.367 A  
HETATM   33  C   UNL     1     -11.016  16.397  69.491  1.00  0.00    -0.317 A  
HETATM   34  C   UNL     1     -11.636  15.190  69.209  1.00  0.00    -0.344 A  
BRANCH  30  35
HETATM   35  C   UNL     1      -9.822  17.546  66.048  1.00  0.00    -0.179 C  
HETATM   36  N   UNL     1     -10.643  18.677  65.613  1.00  0.00    -0.587 NA 
HETATM   37  H1  UNL     1     -10.191  19.241  64.893  1.00  0.00     0.000 HD 
HETATM   38  H2  UNL     1     -10.921  19.253  66.408  1.00  0.00     0.000 HD 
ENDBRANCH  30  35
ENDBRANCH  28  29
ENDBRANCH  25  28
ENDBRANCH  10  24
TORSDOF 8
ENDMDL
MODEL       98
REMARK 921   NORMALIZED FREE ENERGY PREDICTED BY IDOCK:   -6.51 KCAL/MOL
REMARK 922        TOTAL FREE ENERGY PREDICTED BY IDOCK:  -10.37 KCAL/MOL
REMARK 923 INTER-LIGAND FREE ENERGY PREDICTED BY IDOCK:   -9.72 KCAL/MOL
REMARK 924 INTRA-LIGAND FREE ENERGY PREDICTED BY IDOCK:   -0.65 KCAL/MOL
REMARK 927      BINDING AFFINITY PREDICTED BY RF-SCORE:    0.00 PKD
ROOT
HETATM    1  C   UNL     1      -8.573  12.394  68.525  1.00  0.00    -0.060 C  
HETATM    2  S   UNL     1      -7.277  12.896  67.374  1.00  0.00    -0.082 SA 
HETATM    3  C   UNL     1      -7.023  14.506  68.154  1.00  0.00    -0.122 C  
HETATM    4  C   UNL     1      -8.299  15.262  68.503  1.00  0.00    -0.152 C  
HETATM    5  O   UNL     1     -11.947  15.061  68.441  1.00  0.00    -0.291 OA 
HETATM    6  CA  UNL     1      -9.537  14.688  68.574  1.00  0.00    -0.221 C  
HETATM    7  N   UNL     1      -9.665  13.337  68.407  1.00  0.00    -0.220 N  
HETATM    8  O   UNL     1     -11.801  12.586  67.904  1.00  0.00    -0.351 OA 
HETATM    9  C   UNL     1     -10.759  15.540  68.844  1.00  0.00    -0.242 C  
HETATM   10  CA  UNL     1      -9.570  11.289  68.046  1.00  0.00    -0.180 C  
HETATM   11  OXT UNL     1     -10.701  16.618  69.413  1.00  0.00    -0.321 OA 
HETATM   12  C   UNL     1     -10.621  12.436  68.114  1.00  0.00    -0.216 C  
ENDROOT
BRANCH   4  13
HETATM   13  C   UNL     1      -8.028  16.762  68.620  1.00  0.00    -0.246 C  
BRANCH  13  14
HETATM   14  S   UNL     1      -7.381  17.447  67.054  1.00  0.00    -0.204 SA 
BRANCH  14  15
HETATM   15  C   UNL     1      -8.835  18.144  66.423  1.00  0.00    -0.236 A  
HETATM   16  N   UNL     1      -9.144  19.420  66.445  1.00  0.00    -0.349 NA 
HETATM   17  N   UNL     1      -9.847  17.461  65.804  1.00  0.00    -0.555 NA 
HETATM   18  N   UNL     1     -10.346  19.533  65.796  1.00  0.00    -0.483 NA 
HETATM   19  N   UNL     1     -10.768  18.352  65.371  1.00  0.00    -0.525 NA 
BRANCH  17  20
HETATM   20  C   UNL     1      -9.958  16.062  65.455  1.00  0.00    -0.247 C  
HETATM   21  O   UNL     1     -11.724  16.551  63.822  1.00  0.00    -1.086 OA 
HETATM   22  C   UNL     1     -11.195  15.659  64.685  1.00  0.00    -0.369 C  
HETATM   23  O   UNL     1     -11.658  14.526  64.768  1.00  0.00    -0.377 OA 
ENDBRANCH  17  20
ENDBRANCH  14  15
ENDBRANCH  13  14
ENDBRANCH   4  13
BRANCH  10  24
HETATM   24  N   UNL     1      -9.361  10.682  66.711  1.00  0.00    -0.156 N  
HETATM   25  C   UNL     1      -9.684   9.406  66.336  1.00  0.00    -0.250 C  
HETATM   26  O   UNL     1      -9.386   9.022  65.205  1.00  0.00    -0.176 OA 
HETATM   27  H   UNL     1      -8.932  11.275  66.000  1.00  0.00     0.000 HD 
BRANCH  25  28
HETATM   28  C   UNL     1     -10.387   8.505  67.339  1.00  0.00    -0.356 C  
BRANCH  28  29
HETATM   29  C   UNL     1      -9.458   7.664  68.187  1.00  0.00    -0.150 A  
HETATM   30  C   UNL     1      -9.916   6.605  69.003  1.00  0.00    -0.162 A  
HETATM   31  C   UNL     1      -8.968   5.875  69.748  1.00  0.00    -0.135 A  
HETATM   32  C   UNL     1      -8.073   7.932  68.127  1.00  0.00    -0.123 A  
HETATM   33  C   UNL     1      -7.604   6.153  69.672  1.00  0.00    -0.093 A  
HETATM   34  C   UNL     1      -7.156   7.188  68.865  1.00  0.00    -0.084 A  
BRANCH  30  35
HETATM   35  C   UNL     1     -11.388   6.272  69.157  1.00  0.00    -0.287 C  
HETATM   36  N   UNL     1     -12.002   6.931  70.311  1.00  0.00    -0.613 NA 
HETATM   37  H1  UNL     1     -12.992   6.707  70.414  1.00  0.00     0.000 HD 
HETATM   38  H2  UNL     1     -11.857   7.940  70.274  1.00  0.00     0.000 HD 
ENDBRANCH  30  35
ENDBRANCH  28  29
ENDBRANCH  25  28
ENDBRANCH  10  24
TORSDOF 8
ENDMDL
MODEL       99
REMARK 921   NORMALIZED FREE ENERGY PREDICTED BY IDOCK:   -6.50 KCAL/MOL
REMARK 922        TOTAL FREE ENERGY PREDICTED BY IDOCK:  -10.36 KCAL/MOL
REMARK 923 INTER-LIGAND FREE ENERGY PREDICTED BY IDOCK:   -9.12 KCAL/MOL
REMARK 924 INTRA-LIGAND FREE ENERGY PREDICTED BY IDOCK:   -1.24 KCAL/MOL
REMARK 927      BINDING AFFINITY PREDICTED BY RF-SCORE:    0.00 PKD
ROOT
HETATM    1  C   UNL     1     -10.528   8.896  67.010  1.00  0.00    -0.256 C  
HETATM    2  S   UNL     1     -10.395  10.278  68.162  1.00  0.00    -0.190 SA 
HETATM    3  C   UNL     1     -11.153  11.466  67.032  1.00  0.00    -0.303 C  
HETATM    4  C   UNL     1     -10.648  11.404  65.595  1.00  0.00    -0.314 C  
HETATM    5  O   UNL     1      -8.385   9.618  63.349  1.00  0.00    -0.145 OA 
HETATM    6  CA  UNL     1      -9.958  10.348  65.070  1.00  0.00    -0.330 C  
HETATM    7  N   UNL     1      -9.761   9.226  65.826  1.00  0.00    -0.286 N  
HETATM    8  O   UNL     1      -8.072   7.811  65.102  1.00  0.00    -0.126 OA 
HETATM    9  C   UNL     1      -9.422  10.415  63.655  1.00  0.00    -0.306 C  
HETATM   10  CA  UNL     1      -9.552   7.691  67.217  1.00  0.00    -0.157 C  
HETATM   11  OXT UNL     1      -9.899  11.145  62.801  1.00  0.00    -0.290 OA 
HETATM   12  C   UNL     1      -8.957   8.148  65.853  1.00  0.00    -0.151 C  
ENDROOT
BRANCH   4  13
HETATM   13  C   UNL     1     -10.891  12.729  64.874  1.00  0.00    -0.299 C  
BRANCH  13  14
HETATM   14  S   UNL     1     -12.071  13.781  65.792  1.00  0.00    -0.459 SA 
BRANCH  14  15
HETATM   15  C   UNL     1     -11.115  15.215  65.951  1.00  0.00    -0.319 A  
HETATM   16  N   UNL     1     -10.411  15.776  64.994  1.00  0.00    -0.517 NA 
HETATM   17  N   UNL     1     -10.978  15.965  67.089  1.00  0.00    -0.267 NA 
HETATM   18  N   UNL     1      -9.862  16.908  65.537  1.00  0.00    -0.556 NA 
HETATM   19  N   UNL     1     -10.227  17.052  66.802  1.00  0.00    -0.292 NA 
BRANCH  17  20
HETATM   20  C   UNL     1     -11.606  15.827  68.383  1.00  0.00    -0.338 C  
HETATM   21  O   UNL     1      -9.974  14.123  69.059  1.00  0.00    -0.175 OA 
HETATM   22  C   UNL     1     -11.228  14.603  69.186  1.00  0.00    -0.270 C  
HETATM   23  O   UNL     1     -12.002  14.109  69.999  1.00  0.00    -0.298 OA 
ENDBRANCH  17  20
ENDBRANCH  14  15
ENDBRANCH  13  14
ENDBRANCH   4  13
BRANCH  10  24
HETATM   24  N   UNL     1      -8.625   7.728  68.372  1.00  0.00    -0.128 N  
HETATM   25  C   UNL     1      -8.570   6.828  69.402  1.00  0.00    -0.132 C  
HETATM   26  O   UNL     1      -7.787   7.029  70.330  1.00  0.00    -0.103 OA 
HETATM   27  H   UNL     1      -7.960   8.501  68.403  1.00  0.00     0.000 HD 
BRANCH  25  28
HETATM   28  C   UNL     1      -9.494   5.620  69.368  1.00  0.00    -0.169 C  
BRANCH  28  29
HETATM   29  C   UNL     1     -10.133   5.280  70.697  1.00  0.00    -0.310 A  
HETATM   30  C   UNL     1      -9.769   4.142  71.451  1.00  0.00    -0.251 A  
HETATM   31  C   UNL     1     -10.418   3.919  72.683  1.00  0.00    -0.204 A  
HETATM   32  C   UNL     1     -11.108   6.161  71.213  1.00  0.00    -0.351 A  
HETATM   33  C   UNL     1     -11.375   4.803  73.178  1.00  0.00    -0.380 A  
HETATM   34  C   UNL     1     -11.727   5.923  72.439  1.00  0.00    -0.307 A  
BRANCH  30  35
HETATM   35  C   UNL     1      -8.760   3.124  70.955  1.00  0.00    -0.075 C  
HETATM   36  N   UNL     1      -8.972   1.791  71.521  1.00  0.00    -0.068 NA 
HETATM   37  H1  UNL     1      -8.293   1.106  71.187  1.00  0.00     0.000 HD 
HETATM   38  H2  UNL     1      -9.927   1.472  71.353  1.00  0.00     0.000 HD 
ENDBRANCH  30  35
ENDBRANCH  28  29
ENDBRANCH  25  28
ENDBRANCH  10  24
TORSDOF 8
ENDMDL
MODEL      100
REMARK 921   NORMALIZED FREE ENERGY PREDICTED BY IDOCK:   -6.49 KCAL/MOL
REMARK 922        TOTAL FREE ENERGY PREDICTED BY IDOCK:  -10.35 KCAL/MOL
REMARK 923 INTER-LIGAND FREE ENERGY PREDICTED BY IDOCK:   -8.98 KCAL/MOL
REMARK 924 INTRA-LIGAND FREE ENERGY PREDICTED BY IDOCK:   -1.37 KCAL/MOL
REMARK 927      BINDING AFFINITY PREDICTED BY RF-SCORE:    0.00 PKD
ROOT
HETATM    1  C   UNL     1      -9.524  11.647  67.690  1.00  0.00    -0.177 C  
HETATM    2  S   UNL     1     -11.103  11.437  68.537  1.00  0.00    -0.261 SA 
HETATM    3  C   UNL     1     -10.591   9.935  69.401  1.00  0.00    -0.229 C  
HETATM    4  C   UNL     1      -9.855   8.914  68.541  1.00  0.00    -0.182 C  
HETATM    5  O   UNL     1      -8.561   8.287  65.182  1.00  0.00    -0.165 OA 
HETATM    6  CA  UNL     1      -9.294   9.196  67.328  1.00  0.00    -0.135 C  
HETATM    7  N   UNL     1      -9.301  10.480  66.861  1.00  0.00    -0.158 N  
HETATM    8  O   UNL     1      -8.930  10.725  64.585  1.00  0.00    -0.195 OA 
HETATM    9  C   UNL     1      -8.657   8.093  66.507  1.00  0.00    -0.138 C  
HETATM   10  CA  UNL     1      -9.521  12.493  66.375  1.00  0.00    -0.233 C  
HETATM   11  OXT UNL     1      -8.231   7.063  67.003  1.00  0.00    -0.115 OA 
HETATM   12  C   UNL     1      -9.157  11.140  65.697  1.00  0.00    -0.205 C  
ENDROOT
BRANCH   4  13
HETATM   13  C   UNL     1      -9.956   7.516  69.150  1.00  0.00    -0.179 C  
BRANCH  13  14
HETATM   14  S   UNL     1      -8.986   7.388  70.694  1.00  0.00    -0.156 SA 
BRANCH  14  15
HETATM   15  C   UNL     1     -10.000   6.302  71.581  1.00  0.00    -0.179 A  
HETATM   16  N   UNL     1      -9.795   5.013  71.731  1.00  0.00    -0.170 NA 
HETATM   17  N   UNL     1     -11.141   6.643  72.258  1.00  0.00    -0.248 NA 
HETATM   18  N   UNL     1     -10.802   4.558  72.542  1.00  0.00    -0.125 NA 
HETATM   19  N   UNL     1     -11.607   5.547  72.898  1.00  0.00    -0.274 NA 
BRANCH  17  20
HETATM   20  C   UNL     1     -11.751   7.935  72.475  1.00  0.00    -0.367 C  
HETATM   21  O   UNL     1     -13.789   7.234  71.301  1.00  0.00    -0.362 OA 
HETATM   22  C   UNL     1     -12.969   8.251  71.638  1.00  0.00    -0.337 C  
HETATM   23  O   UNL     1     -13.261   9.406  71.345  1.00  0.00    -0.348 OA 
ENDBRANCH  17  20
ENDBRANCH  14  15
ENDBRANCH  13  14
ENDBRANCH   4  13
BRANCH  10  24
HETATM   24  N   UNL     1     -10.791  13.116  65.936  1.00  0.00    -0.272 N  
HETATM   25  C   UNL     1     -10.997  14.441  65.662  1.00  0.00    -0.314 C  
HETATM   26  O   UNL     1     -12.131  14.822  65.371  1.00  0.00    -0.284 OA 
HETATM   27  H   UNL     1     -11.592  12.494  65.825  1.00  0.00     0.000 HD 
BRANCH  25  28
HETATM   28  C   UNL     1      -9.817  15.397  65.746  1.00  0.00    -0.399 C  
BRANCH  28  29
HETATM   29  C   UNL     1     -10.044  16.598  66.639  1.00  0.00    -0.305 A  
HETATM   30  C   UNL     1      -9.861  16.554  68.039  1.00  0.00    -0.240 A  
HETATM   31  C   UNL     1     -10.088  17.731  68.782  1.00  0.00    -0.381 A  
HETATM   32  C   UNL     1     -10.420  17.818  66.035  1.00  0.00    -0.286 A  
HETATM   33  C   UNL     1     -10.455  18.927  68.166  1.00  0.00    -0.387 A  
HETATM   34  C   UNL     1     -10.628  18.969  66.791  1.00  0.00    -0.508 A  
BRANCH  30  35
HETATM   35  C   UNL     1      -9.495  15.278  68.774  1.00  0.00    -0.212 C  
HETATM   36  N   UNL     1     -10.398  14.985  69.887  1.00  0.00    -0.450 NA 
HETATM   37  H1  UNL     1     -10.153  14.127  70.382  1.00  0.00     0.000 HD 
HETATM   38  H2  UNL     1     -11.369  14.960  69.572  1.00  0.00     0.000 HD 
ENDBRANCH  30  35
ENDBRANCH  28  29
ENDBRANCH  25  28
ENDBRANCH  10  24
TORSDOF 8
ENDMDL
MODEL      101
REMARK 921   NORMALIZED FREE ENERGY PREDICTED BY IDOCK:   -6.48 KCAL/MOL
REMARK 922        TOTAL FREE ENERGY PREDICTED BY IDOCK:  -10.33 KCAL/MOL
REMARK 923 INTER-LIGAND FREE ENERGY PREDICTED BY IDOCK:   -9.09 KCAL/MOL
REMARK 924 INTRA-LIGAND FREE ENERGY PREDICTED BY IDOCK:   -1.25 KCAL/MOL
REMARK 927      BINDING AFFINITY PREDICTED BY RF-SCORE:    0.00 PKD
ROOT
HETATM    1  C   UNL     1     -11.548  10.928  68.775  1.00  0.00    -0.309 C  
HETATM    2  S   UNL     1      -9.803  10.577  68.480  1.00  0.00    -0.175 SA 
HETATM    3  C   UNL     1     -10.013   8.784  68.560  1.00  0.00    -0.182 C  
HETATM    4  C   UNL     1     -10.879   8.286  69.711  1.00  0.00    -0.186 C  
HETATM    5  O   UNL     1     -12.906   9.375  72.550  1.00  0.00    -0.349 OA 
HETATM    6  CA  UNL     1     -11.729   9.079  70.430  1.00  0.00    -0.062 C  
HETATM    7  N   UNL     1     -11.901  10.386  70.071  1.00  0.00    -0.276 N  
HETATM    8  O   UNL     1     -12.819  11.763  71.696  1.00  0.00    -0.383 OA 
HETATM    9  C   UNL     1     -12.484   8.510  71.613  1.00  0.00    -0.330 C  
HETATM   10  CA  UNL     1     -11.910  12.339  69.346  1.00  0.00    -0.310 C  
HETATM   11  OXT UNL     1     -12.726   7.320  71.734  1.00  0.00    -0.332 OA 
HETATM   12  C   UNL     1     -12.354  11.535  70.604  1.00  0.00    -0.364 C  
ENDROOT
BRANCH   4  13
HETATM   13  C   UNL     1     -10.562   6.828  70.039  1.00  0.00    -0.220 C  
BRANCH  13  14
HETATM   14  S   UNL     1      -8.928   6.665  70.842  1.00  0.00    -0.146 SA 
BRANCH  14  15
HETATM   15  C   UNL     1      -9.432   6.499  72.490  1.00  0.00    -0.144 A  
HETATM   16  N   UNL     1      -9.274   7.399  73.433  1.00  0.00    -0.179 NA 
HETATM   17  N   UNL     1     -10.079   5.416  73.024  1.00  0.00    -0.171 NA 
HETATM   18  N   UNL     1      -9.863   6.881  74.557  1.00  0.00    -0.230 NA 
HETATM   19  N   UNL     1     -10.387   5.690  74.312  1.00  0.00    -0.276 NA 
BRANCH  17  20
HETATM   20  C   UNL     1     -10.560   4.207  72.395  1.00  0.00    -0.045 C  
HETATM   21  O   UNL     1      -8.463   3.038  72.909  1.00  0.00    -0.077 OA 
HETATM   22  C   UNL     1      -9.519   3.156  72.078  1.00  0.00    -0.134 C  
HETATM   23  O   UNL     1      -9.669   2.371  71.148  1.00  0.00    -0.151 OA 
ENDBRANCH  17  20
ENDBRANCH  14  15
ENDBRANCH  13  14
ENDBRANCH   4  13
BRANCH  10  24
HETATM   24  N   UNL     1     -10.817  13.315  69.555  1.00  0.00    -0.447 N  
HETATM   25  C   UNL     1     -10.739  14.577  69.029  1.00  0.00    -0.251 C  
HETATM   26  O   UNL     1      -9.730  15.251  69.239  1.00  0.00    -0.230 OA 
HETATM   27  H   UNL     1     -10.044  13.018  70.151  1.00  0.00     0.000 HD 
BRANCH  25  28
HETATM   28  C   UNL     1     -11.898  15.092  68.191  1.00  0.00    -0.286 C  
BRANCH  28  29
HETATM   29  C   UNL     1     -11.861  14.665  66.739  1.00  0.00    -0.334 A  
HETATM   30  C   UNL     1     -11.048  15.304  65.776  1.00  0.00    -0.301 A  
HETATM   31  C   UNL     1     -11.077  14.825  64.450  1.00  0.00    -0.133 A  
HETATM   32  C   UNL     1     -12.647  13.560  66.347  1.00  0.00    -0.244 A  
HETATM   33  C   UNL     1     -11.858  13.729  64.084  1.00  0.00    -0.439 A  
HETATM   34  C   UNL     1     -12.650  13.100  65.032  1.00  0.00    -0.499 A  
BRANCH  30  35
HETATM   35  C   UNL     1     -10.202  16.521  66.100  1.00  0.00    -0.346 C  
HETATM   36  N   UNL     1     -10.729  17.753  65.513  1.00  0.00    -0.546 NA 
HETATM   37  H1  UNL     1     -10.160  18.572  65.731  1.00  0.00     0.000 HD 
HETATM   38  H2  UNL     1     -11.701  17.900  65.786  1.00  0.00     0.000 HD 
ENDBRANCH  30  35
ENDBRANCH  28  29
ENDBRANCH  25  28
ENDBRANCH  10  24
TORSDOF 8
ENDMDL
MODEL      102
REMARK 921   NORMALIZED FREE ENERGY PREDICTED BY IDOCK:   -6.46 KCAL/MOL
REMARK 922        TOTAL FREE ENERGY PREDICTED BY IDOCK:  -10.30 KCAL/MOL
REMARK 923 INTER-LIGAND FREE ENERGY PREDICTED BY IDOCK:   -8.64 KCAL/MOL
REMARK 924 INTRA-LIGAND FREE ENERGY PREDICTED BY IDOCK:   -1.66 KCAL/MOL
REMARK 927      BINDING AFFINITY PREDICTED BY RF-SCORE:    0.00 PKD
ROOT
HETATM    1  C   UNL     1      -9.920  13.497  67.900  1.00  0.00    -0.245 C  
HETATM    2  S   UNL     1     -11.094  12.939  66.648  1.00  0.00    -0.294 SA 
HETATM    3  C   UNL     1     -10.826  11.185  66.988  1.00  0.00    -0.284 C  
HETATM    4  C   UNL     1      -9.368  10.772  67.142  1.00  0.00    -0.171 C  
HETATM    5  O   UNL     1      -5.940  12.038  67.163  1.00  0.00    -0.133 OA 
HETATM    6  CA  UNL     1      -8.342  11.646  67.367  1.00  0.00    -0.152 C  
HETATM    7  N   UNL     1      -8.614  12.973  67.553  1.00  0.00    -0.180 N  
HETATM    8  O   UNL     1      -6.819  14.415  67.277  1.00  0.00    -0.241 OA 
HETATM    9  C   UNL     1      -6.913  11.149  67.421  1.00  0.00    -0.093 C  
HETATM   10  CA  UNL     1      -9.311  14.928  67.728  1.00  0.00    -0.194 C  
HETATM   11  OXT UNL     1      -6.624   9.995  67.694  1.00  0.00    -0.066 OA 
HETATM   12  C   UNL     1      -7.976  14.157  67.509  1.00  0.00    -0.188 C  
ENDROOT
BRANCH   4  13
HETATM   13  C   UNL     1      -9.193   9.278  66.869  1.00  0.00    -0.144 C  
BRANCH  13  14
HETATM   14  S   UNL     1     -10.468   8.289  67.729  1.00  0.00    -0.182 SA 
BRANCH  14  15
HETATM   15  C   UNL     1      -9.777   8.248  69.316  1.00  0.00    -0.177 A  
HETATM   16  N   UNL     1      -8.493   8.248  69.591  1.00  0.00    -0.124 NA 
HETATM   17  N   UNL     1     -10.476   8.227  70.493  1.00  0.00    -0.207 NA 
HETATM   18  N   UNL     1      -8.396   8.265  70.959  1.00  0.00    -0.114 NA 
HETATM   19  N   UNL     1      -9.595   8.287  71.519  1.00  0.00    -0.173 NA 
BRANCH  17  20
HETATM   20  C   UNL     1     -11.898   8.300  70.741  1.00  0.00    -0.162 C  
HETATM   21  O   UNL     1     -11.789  10.741  70.977  1.00  0.00    -0.323 OA 
HETATM   22  C   UNL     1     -12.411   9.596  71.327  1.00  0.00    -0.360 C  
HETATM   23  O   UNL     1     -13.417   9.626  72.027  1.00  0.00    -0.410 OA 
ENDBRANCH  17  20
ENDBRANCH  14  15
ENDBRANCH  13  14
ENDBRANCH   4  13
BRANCH  10  24
HETATM   24  N   UNL     1      -9.774  15.757  66.591  1.00  0.00    -0.238 N  
HETATM   25  C   UNL     1     -10.111  17.083  66.633  1.00  0.00    -0.306 C  
HETATM   26  O   UNL     1     -10.545  17.623  65.615  1.00  0.00    -0.565 OA 
HETATM   27  H   UNL     1      -9.849  15.293  65.685  1.00  0.00     0.000 HD 
BRANCH  25  28
HETATM   28  C   UNL     1      -9.951  17.836  67.945  1.00  0.00    -0.322 C  
BRANCH  28  29
HETATM   29  C   UNL     1      -8.652  18.601  68.076  1.00  0.00    -0.321 A  
HETATM   30  C   UNL     1      -8.531  19.966  67.730  1.00  0.00    -0.356 A  
HETATM   31  C   UNL     1      -7.278  20.591  67.897  1.00  0.00    -0.288 A  
HETATM   32  C   UNL     1      -7.528  17.925  68.598  1.00  0.00    -0.280 A  
HETATM   33  C   UNL     1      -6.182  19.907  68.419  1.00  0.00    -0.299 A  
HETATM   34  C   UNL     1      -6.304  18.569  68.764  1.00  0.00    -0.232 A  
BRANCH  30  35
HETATM   35  C   UNL     1      -9.675  20.759  67.127  1.00  0.00    -0.317 C  
HETATM   36  N   UNL     1      -9.838  20.520  65.692  1.00  0.00    -0.498 NA 
HETATM   37  H1  UNL     1     -10.608  21.053  65.286  1.00  0.00     0.000 HD 
HETATM   38  H2  UNL     1      -9.941  19.523  65.498  1.00  0.00     0.000 HD 
ENDBRANCH  30  35
ENDBRANCH  28  29
ENDBRANCH  25  28
ENDBRANCH  10  24
TORSDOF 8
ENDMDL
MODEL      103
REMARK 921   NORMALIZED FREE ENERGY PREDICTED BY IDOCK:   -6.45 KCAL/MOL
REMARK 922        TOTAL FREE ENERGY PREDICTED BY IDOCK:  -10.29 KCAL/MOL
REMARK 923 INTER-LIGAND FREE ENERGY PREDICTED BY IDOCK:   -9.24 KCAL/MOL
REMARK 924 INTRA-LIGAND FREE ENERGY PREDICTED BY IDOCK:   -1.06 KCAL/MOL
REMARK 927      BINDING AFFINITY PREDICTED BY RF-SCORE:    0.00 PKD
ROOT
HETATM    1  C   UNL     1     -10.140  11.105  67.054  1.00  0.00    -0.200 C  
HETATM    2  S   UNL     1      -8.859  12.077  67.873  1.00  0.00    -0.182 SA 
HETATM    3  C   UNL     1      -9.910  13.533  68.079  1.00  0.00    -0.238 C  
HETATM    4  C   UNL     1     -10.727  13.919  66.851  1.00  0.00    -0.284 C  
HETATM    5  O   UNL     1     -11.508  12.949  63.416  1.00  0.00    -0.475 OA 
HETATM    6  CA  UNL     1     -10.959  13.088  65.792  1.00  0.00    -0.277 C  
HETATM    7  N   UNL     1     -10.517  11.795  65.838  1.00  0.00    -0.246 N  
HETATM    8  O   UNL     1     -10.386  10.706  63.794  1.00  0.00    -0.297 OA 
HETATM    9  C   UNL     1     -11.711  13.591  64.578  1.00  0.00    -0.397 C  
HETATM   10  CA  UNL     1      -9.672   9.917  66.150  1.00  0.00    -0.236 C  
HETATM   11  OXT UNL     1     -12.486  14.533  64.623  1.00  0.00    -0.555 OA 
HETATM   12  C   UNL     1     -10.262  10.778  64.994  1.00  0.00    -0.306 C  
ENDROOT
BRANCH   4  13
HETATM   13  C   UNL     1     -11.123  15.394  66.903  1.00  0.00    -0.256 C  
BRANCH  13  14
HETATM   14  S   UNL     1      -9.800  16.464  66.237  1.00  0.00    -0.335 SA 
BRANCH  14  15
HETATM   15  C   UNL     1      -9.853  17.745  67.400  1.00  0.00    -0.311 A  
HETATM   16  N   UNL     1     -10.241  17.628  68.649  1.00  0.00    -0.365 NA 
HETATM   17  N   UNL     1      -9.483  19.044  67.178  1.00  0.00    -0.301 NA 
HETATM   18  N   UNL     1     -10.072  18.864  69.218  1.00  0.00    -0.194 NA 
HETATM   19  N   UNL     1      -9.579  19.726  68.342  1.00  0.00    -0.366 NA 
BRANCH  17  20
HETATM   20  C   UNL     1      -8.910  19.669  66.007  1.00  0.00    -0.246 C  
HETATM   21  O   UNL     1      -6.695  18.748  66.528  1.00  0.00    -0.189 OA 
HETATM   22  C   UNL     1      -7.401  19.747  65.958  1.00  0.00    -0.307 C  
HETATM   23  O   UNL     1      -6.827  20.639  65.342  1.00  0.00    -0.222 OA 
ENDBRANCH  17  20
ENDBRANCH  14  15
ENDBRANCH  13  14
ENDBRANCH   4  13
BRANCH  10  24
HETATM   24  N   UNL     1      -8.223   9.626  66.065  1.00  0.00    -0.118 N  
HETATM   25  C   UNL     1      -7.647   8.395  65.896  1.00  0.00    -0.082 C  
HETATM   26  O   UNL     1      -6.419   8.302  65.912  1.00  0.00    -0.051 OA 
HETATM   27  H   UNL     1      -7.589  10.422  66.140  1.00  0.00     0.000 HD 
BRANCH  25  28
HETATM   28  C   UNL     1      -8.550   7.185  65.710  1.00  0.00    -0.143 C  
BRANCH  28  29
HETATM   29  C   UNL     1      -8.894   6.456  66.991  1.00  0.00    -0.115 A  
HETATM   30  C   UNL     1      -9.428   5.148  67.005  1.00  0.00    -0.143 A  
HETATM   31  C   UNL     1      -9.706   4.551  68.252  1.00  0.00    -0.186 A  
HETATM   32  C   UNL     1      -8.633   7.103  68.218  1.00  0.00    -0.122 A  
HETATM   33  C   UNL     1      -9.438   5.205  69.453  1.00  0.00    -0.198 A  
HETATM   34  C   UNL     1      -8.907   6.486  69.437  1.00  0.00    -0.133 A  
BRANCH  30  35
HETATM   35  C   UNL     1      -9.774   4.394  65.734  1.00  0.00    -0.209 C  
HETATM   36  N   UNL     1     -11.176   4.551  65.344  1.00  0.00    -0.953 NA 
HETATM   37  H1  UNL     1     -11.408   4.044  64.490  1.00  0.00     0.000 HD 
HETATM   38  H2  UNL     1     -11.424   5.537  65.263  1.00  0.00     0.000 HD 
ENDBRANCH  30  35
ENDBRANCH  28  29
ENDBRANCH  25  28
ENDBRANCH  10  24
TORSDOF 8
ENDMDL
MODEL      104
REMARK 921   NORMALIZED FREE ENERGY PREDICTED BY IDOCK:   -6.45 KCAL/MOL
REMARK 922        TOTAL FREE ENERGY PREDICTED BY IDOCK:  -10.29 KCAL/MOL
REMARK 923 INTER-LIGAND FREE ENERGY PREDICTED BY IDOCK:   -8.79 KCAL/MOL
REMARK 924 INTRA-LIGAND FREE ENERGY PREDICTED BY IDOCK:   -1.50 KCAL/MOL
REMARK 927      BINDING AFFINITY PREDICTED BY RF-SCORE:    0.00 PKD
ROOT
HETATM    1  C   UNL     1      -9.807   8.545  70.998  1.00  0.00    -0.195 C  
HETATM    2  S   UNL     1      -9.758   8.174  69.232  1.00  0.00    -0.173 SA 
HETATM    3  C   UNL     1      -9.822   9.909  68.731  1.00  0.00    -0.171 C  
HETATM    4  C   UNL     1     -10.847  10.758  69.473  1.00  0.00    -0.288 C  
HETATM    5  O   UNL     1     -13.372  10.681  72.113  1.00  0.00    -0.444 OA 
HETATM    6  CA  UNL     1     -11.436  10.395  70.650  1.00  0.00    -0.349 C  
HETATM    7  N   UNL     1     -11.047   9.243  71.274  1.00  0.00    -0.326 N  
HETATM    8  O   UNL     1     -12.520   8.412  72.861  1.00  0.00    -0.248 OA 
HETATM    9  C   UNL     1     -12.508  11.268  71.268  1.00  0.00    -0.336 C  
HETATM   10  CA  UNL     1     -10.313   7.417  71.955  1.00  0.00    -0.193 C  
HETATM   11  OXT UNL     1     -12.604  12.462  71.036  1.00  0.00    -0.360 OA 
HETATM   12  C   UNL     1     -11.504   8.388  72.207  1.00  0.00    -0.384 C  
ENDROOT
BRANCH   4  13
HETATM   13  C   UNL     1     -11.227  11.991  68.654  1.00  0.00    -0.258 C  
BRANCH  13  14
HETATM   14  S   UNL     1     -10.271  12.080  67.098  1.00  0.00    -0.203 SA 
BRANCH  14  15
HETATM   15  C   UNL     1     -11.499  12.688  66.040  1.00  0.00    -0.368 A  
HETATM   16  N   UNL     1     -12.171  11.980  65.161  1.00  0.00    -0.380 NA 
HETATM   17  N   UNL     1     -11.945  13.981  65.991  1.00  0.00    -0.396 NA 
HETATM   18  N   UNL     1     -13.070  12.840  64.586  1.00  0.00    -0.810 NA 
HETATM   19  N   UNL     1     -12.967  14.053  65.108  1.00  0.00    -0.771 NA 
BRANCH  17  20
HETATM   20  C   UNL     1     -11.595  15.125  66.803  1.00  0.00    -0.134 C  
HETATM   21  O   UNL     1     -10.368  16.145  64.939  1.00  0.00    -0.563 OA 
HETATM   22  C   UNL     1     -10.488  16.009  66.275  1.00  0.00    -0.320 C  
HETATM   23  O   UNL     1      -9.774  16.658  67.032  1.00  0.00    -0.238 OA 
ENDBRANCH  17  20
ENDBRANCH  14  15
ENDBRANCH  13  14
ENDBRANCH   4  13
BRANCH  10  24
HETATM   24  N   UNL     1     -10.663   6.102  71.370  1.00  0.00    -0.246 N  
HETATM   25  C   UNL     1      -9.869   4.987  71.337  1.00  0.00    -0.182 C  
HETATM   26  O   UNL     1     -10.274   3.982  70.753  1.00  0.00    -0.062 OA 
HETATM   27  H   UNL     1     -11.589   6.018  70.951  1.00  0.00     0.000 HD 
BRANCH  25  28
HETATM   28  C   UNL     1      -8.506   5.040  72.010  1.00  0.00    -0.125 C  
BRANCH  28  29
HETATM   29  C   UNL     1      -7.333   4.874  71.067  1.00  0.00    -0.061 A  
HETATM   30  C   UNL     1      -6.681   3.636  70.870  1.00  0.00    -0.032 A  
HETATM   31  C   UNL     1      -5.604   3.583  69.962  1.00  0.00    -0.017 A  
HETATM   32  C   UNL     1      -6.902   5.999  70.332  1.00  0.00    -0.054 A  
HETATM   33  C   UNL     1      -5.196   4.706  69.243  1.00  0.00    -0.004 A  
HETATM   34  C   UNL     1      -5.841   5.918  69.433  1.00  0.00    -0.020 A  
BRANCH  30  35
HETATM   35  C   UNL     1      -7.054   2.386  71.644  1.00  0.00    -0.031 C  
HETATM   36  N   UNL     1      -8.219   1.698  71.087  1.00  0.00    -0.046 NA 
HETATM   37  H1  UNL     1      -8.469   0.857  71.607  1.00  0.00     0.000 HD 
HETATM   38  H2  UNL     1      -8.079   1.488  70.098  1.00  0.00     0.000 HD 
ENDBRANCH  30  35
ENDBRANCH  28  29
ENDBRANCH  25  28
ENDBRANCH  10  24
TORSDOF 8
ENDMDL
MODEL      105
REMARK 921   NORMALIZED FREE ENERGY PREDICTED BY IDOCK:   -6.44 KCAL/MOL
REMARK 922        TOTAL FREE ENERGY PREDICTED BY IDOCK:  -10.28 KCAL/MOL
REMARK 923 INTER-LIGAND FREE ENERGY PREDICTED BY IDOCK:   -8.37 KCAL/MOL
REMARK 924 INTRA-LIGAND FREE ENERGY PREDICTED BY IDOCK:   -1.91 KCAL/MOL
REMARK 927      BINDING AFFINITY PREDICTED BY RF-SCORE:    0.00 PKD
ROOT
HETATM    1  C   UNL     1      -9.453  10.336  67.429  1.00  0.00    -0.153 C  
HETATM    2  S   UNL     1     -10.466   9.022  66.721  1.00  0.00    -0.139 SA 
HETATM    3  C   UNL     1     -10.074   7.836  68.027  1.00  0.00    -0.186 C  
HETATM    4  C   UNL     1      -8.603   7.766  68.416  1.00  0.00    -0.128 C  
HETATM    5  O   UNL     1      -5.313   9.209  67.746  1.00  0.00    -0.034 OA 
HETATM    6  CA  UNL     1      -7.681   8.725  68.103  1.00  0.00    -0.101 C  
HETATM    7  N   UNL     1      -8.082   9.870  67.475  1.00  0.00    -0.110 N  
HETATM    8  O   UNL     1      -6.404  11.087  66.435  1.00  0.00    -0.119 OA 
HETATM    9  C   UNL     1      -6.222   8.525  68.460  1.00  0.00    -0.053 C  
HETATM   10  CA  UNL     1      -8.961  11.464  66.462  1.00  0.00    -0.189 C  
HETATM   11  OXT UNL     1      -5.857   7.787  69.360  1.00  0.00    -0.029 OA 
HETATM   12  C   UNL     1      -7.550  10.875  66.756  1.00  0.00    -0.134 C  
ENDROOT
BRANCH   4  13
HETATM   13  C   UNL     1      -8.275   6.425  69.070  1.00  0.00    -0.115 C  
BRANCH  13  14
HETATM   14  S   UNL     1      -9.504   5.990  70.352  1.00  0.00    -0.165 SA 
BRANCH  14  15
HETATM   15  C   UNL     1      -9.016   7.084  71.601  1.00  0.00    -0.134 A  
HETATM   16  N   UNL     1      -7.789   7.241  72.045  1.00  0.00    -0.090 NA 
HETATM   17  N   UNL     1      -9.838   7.942  72.281  1.00  0.00    -0.197 NA 
HETATM   18  N   UNL     1      -7.848   8.236  72.985  1.00  0.00    -0.256 NA 
HETATM   19  N   UNL     1      -9.083   8.695  73.113  1.00  0.00    -0.240 NA 
BRANCH  17  20
HETATM   20  C   UNL     1     -11.247   8.218  72.116  1.00  0.00    -0.345 C  
HETATM   21  O   UNL     1     -10.762  10.096  70.611  1.00  0.00    -0.297 OA 
HETATM   22  C   UNL     1     -11.602   9.562  71.521  1.00  0.00    -0.395 C  
HETATM   23  O   UNL     1     -12.665  10.116  71.784  1.00  0.00    -0.396 OA 
ENDBRANCH  17  20
ENDBRANCH  14  15
ENDBRANCH  13  14
ENDBRANCH   4  13
BRANCH  10  24
HETATM   24  N   UNL     1      -9.399  11.419  65.048  1.00  0.00    -0.355 N  
HETATM   25  C   UNL     1     -10.621  11.801  64.561  1.00  0.00    -0.313 C  
HETATM   26  O   UNL     1     -10.863  11.642  63.365  1.00  0.00    -0.391 OA 
HETATM   27  H   UNL     1      -8.724  11.069  64.369  1.00  0.00     0.000 HD 
BRANCH  25  28
HETATM   28  C   UNL     1     -11.638  12.394  65.523  1.00  0.00    -0.432 C  
BRANCH  28  29
HETATM   29  C   UNL     1     -11.308  13.790  66.005  1.00  0.00    -0.319 A  
HETATM   30  C   UNL     1     -11.356  14.160  67.368  1.00  0.00    -0.346 A  
HETATM   31  C   UNL     1     -11.020  15.484  67.716  1.00  0.00    -0.317 A  
HETATM   32  C   UNL     1     -10.901  14.747  65.050  1.00  0.00    -0.440 A  
HETATM   33  C   UNL     1     -10.617  16.413  66.758  1.00  0.00    -0.238 A  
HETATM   34  C   UNL     1     -10.564  16.047  65.422  1.00  0.00    -0.428 A  
BRANCH  30  35
HETATM   35  C   UNL     1     -11.818  13.207  68.455  1.00  0.00    -0.351 C  
HETATM   36  N   UNL     1     -10.794  12.966  69.472  1.00  0.00    -0.432 NA 
HETATM   37  H1  UNL     1     -11.104  12.325  70.203  1.00  0.00     0.000 HD 
HETATM   38  H2  UNL     1     -10.463  13.844  69.872  1.00  0.00     0.000 HD 
ENDBRANCH  30  35
ENDBRANCH  28  29
ENDBRANCH  25  28
ENDBRANCH  10  24
TORSDOF 8
ENDMDL
MODEL      106
REMARK 921   NORMALIZED FREE ENERGY PREDICTED BY IDOCK:   -6.43 KCAL/MOL
REMARK 922        TOTAL FREE ENERGY PREDICTED BY IDOCK:  -10.26 KCAL/MOL
REMARK 923 INTER-LIGAND FREE ENERGY PREDICTED BY IDOCK:   -8.96 KCAL/MOL
REMARK 924 INTRA-LIGAND FREE ENERGY PREDICTED BY IDOCK:   -1.30 KCAL/MOL
REMARK 927      BINDING AFFINITY PREDICTED BY RF-SCORE:    0.00 PKD
ROOT
HETATM    1  C   UNL     1     -11.419  11.206  70.396  1.00  0.00    -0.170 C  
HETATM    2  S   UNL     1     -13.049  10.431  70.364  1.00  0.00     0.128 SA 
HETATM    3  C   UNL     1     -12.767   9.470  71.868  1.00  0.00    -0.411 C  
HETATM    4  C   UNL     1     -11.412   8.778  71.949  1.00  0.00    -0.428 C  
HETATM    5  O   UNL     1      -8.239   8.315  70.197  1.00  0.00    -0.112 OA 
HETATM    6  CA  UNL     1     -10.339   9.100  71.167  1.00  0.00    -0.317 C  
HETATM    7  N   UNL     1     -10.423  10.158  70.305  1.00  0.00    -0.270 N  
HETATM    8  O   UNL     1      -8.838  10.204  68.613  1.00  0.00    -0.125 OA 
HETATM    9  C   UNL     1      -9.058   8.297  71.261  1.00  0.00    -0.160 C  
HETATM   10  CA  UNL     1     -10.859  11.756  69.044  1.00  0.00    -0.195 C  
HETATM   11  OXT UNL     1      -8.750   7.657  72.254  1.00  0.00    -0.114 OA 
HETATM   12  C   UNL     1      -9.797  10.631  69.212  1.00  0.00    -0.180 C  
ENDROOT
BRANCH   4  13
HETATM   13  C   UNL     1     -11.462   7.593  72.912  1.00  0.00    -0.290 C  
BRANCH  13  14
HETATM   14  S   UNL     1     -12.011   6.068  72.066  1.00  0.00    -0.050 SA 
BRANCH  14  15
HETATM   15  C   UNL     1     -10.976   4.919  72.844  1.00  0.00    -0.262 A  
HETATM   16  N   UNL     1     -10.928   4.685  74.135  1.00  0.00    -0.307 NA 
HETATM   17  N   UNL     1     -10.084   4.092  72.217  1.00  0.00    -0.171 NA 
HETATM   18  N   UNL     1     -10.020   3.672  74.305  1.00  0.00    -0.123 NA 
HETATM   19  N   UNL     1      -9.525   3.278  73.142  1.00  0.00    -0.097 NA 
BRANCH  17  20
HETATM   20  C   UNL     1      -9.814   3.898  70.810  1.00  0.00    -0.141 C  
HETATM   21  O   UNL     1      -7.584   4.897  71.041  1.00  0.00    -0.073 OA 
HETATM   22  C   UNL     1      -8.644   4.667  70.239  1.00  0.00    -0.081 C  
HETATM   23  O   UNL     1      -8.611   4.995  69.058  1.00  0.00    -0.086 OA 
ENDBRANCH  17  20
ENDBRANCH  14  15
ENDBRANCH  13  14
ENDBRANCH   4  13
BRANCH  10  24
HETATM   24  N   UNL     1     -11.714  11.664  67.838  1.00  0.00    -0.288 N  
HETATM   25  C   UNL     1     -11.470  12.240  66.620  1.00  0.00    -0.373 C  
HETATM   26  O   UNL     1     -12.312  12.129  65.728  1.00  0.00    -0.564 OA 
HETATM   27  H   UNL     1     -12.570  11.116  67.924  1.00  0.00     0.000 HD 
BRANCH  25  28
HETATM   28  C   UNL     1     -10.174  13.009  66.421  1.00  0.00    -0.283 C  
BRANCH  28  29
HETATM   29  C   UNL     1     -10.230  14.458  66.858  1.00  0.00    -0.265 A  
HETATM   30  C   UNL     1     -10.712  15.490  66.022  1.00  0.00    -0.331 A  
HETATM   31  C   UNL     1     -10.732  16.806  66.527  1.00  0.00    -0.104 A  
HETATM   32  C   UNL     1      -9.814  14.776  68.169  1.00  0.00    -0.221 A  
HETATM   33  C   UNL     1     -10.321  17.099  67.826  1.00  0.00    -0.347 A  
HETATM   34  C   UNL     1      -9.855  16.084  68.647  1.00  0.00    -0.218 A  
BRANCH  30  35
HETATM   35  C   UNL     1     -11.143  15.244  64.588  1.00  0.00    -0.332 C  
HETATM   36  N   UNL     1     -11.661  16.447  63.937  1.00  0.00    -1.602 NA 
HETATM   37  H1  UNL     1     -11.950  16.282  62.972  1.00  0.00     0.000 HD 
HETATM   38  H2  UNL     1     -10.985  17.210  63.990  1.00  0.00     0.000 HD 
ENDBRANCH  30  35
ENDBRANCH  28  29
ENDBRANCH  25  28
ENDBRANCH  10  24
TORSDOF 8
ENDMDL
MODEL      107
REMARK 921   NORMALIZED FREE ENERGY PREDICTED BY IDOCK:   -6.42 KCAL/MOL
REMARK 922        TOTAL FREE ENERGY PREDICTED BY IDOCK:  -10.25 KCAL/MOL
REMARK 923 INTER-LIGAND FREE ENERGY PREDICTED BY IDOCK:   -8.75 KCAL/MOL
REMARK 924 INTRA-LIGAND FREE ENERGY PREDICTED BY IDOCK:   -1.50 KCAL/MOL
REMARK 927      BINDING AFFINITY PREDICTED BY RF-SCORE:    0.00 PKD
ROOT
HETATM    1  C   UNL     1      -8.795   9.473  67.721  1.00  0.00    -0.119 C  
HETATM    2  S   UNL     1      -8.816  10.422  69.256  1.00  0.00    -0.120 SA 
HETATM    3  C   UNL     1      -7.595   9.374  70.076  1.00  0.00    -0.113 C  
HETATM    4  C   UNL     1      -7.812   7.875  69.908  1.00  0.00    -0.103 C  
HETATM    5  O   UNL     1      -9.956   5.375  68.324  1.00  0.00    -0.142 OA 
HETATM    6  CA  UNL     1      -8.618   7.319  68.955  1.00  0.00    -0.129 C  
HETATM    7  N   UNL     1      -9.217   8.121  68.024  1.00  0.00    -0.133 N  
HETATM    8  O   UNL     1     -11.021   7.188  66.905  1.00  0.00    -0.363 OA 
HETATM    9  C   UNL     1      -8.838   5.821  68.921  1.00  0.00    -0.110 C  
HETATM   10  CA  UNL     1     -10.050   9.580  66.793  1.00  0.00    -0.245 C  
HETATM   11  OXT UNL     1      -8.046   5.025  69.399  1.00  0.00    -0.078 OA 
HETATM   12  C   UNL     1     -10.244   8.078  67.155  1.00  0.00    -0.292 C  
ENDROOT
BRANCH   4  13
HETATM   13  C   UNL     1      -7.127   7.096  71.030  1.00  0.00    -0.069 C  
BRANCH  13  14
HETATM   14  S   UNL     1      -7.228   7.991  72.621  1.00  0.00    -0.102 SA 
BRANCH  14  15
HETATM   15  C   UNL     1      -8.899   7.732  72.991  1.00  0.00    -0.192 A  
HETATM   16  N   UNL     1      -9.900   8.467  72.562  1.00  0.00    -0.296 NA 
HETATM   17  N   UNL     1      -9.401   6.720  73.764  1.00  0.00    -0.162 NA 
HETATM   18  N   UNL     1     -11.040   7.878  73.046  1.00  0.00    -0.385 NA 
HETATM   19  N   UNL     1     -10.752   6.795  73.750  1.00  0.00    -0.287 NA 
BRANCH  17  20
HETATM   20  C   UNL     1      -8.734   5.604  74.396  1.00  0.00    -0.114 C  
HETATM   21  O   UNL     1      -9.084   4.198  72.415  1.00  0.00    -0.112 OA 
HETATM   22  C   UNL     1      -8.937   4.250  73.754  1.00  0.00    -0.091 C  
HETATM   23  O   UNL     1      -8.880   3.217  74.413  1.00  0.00    -0.079 OA 
ENDBRANCH  17  20
ENDBRANCH  14  15
ENDBRANCH  13  14
ENDBRANCH   4  13
BRANCH  10  24
HETATM   24  N   UNL     1     -11.147  10.490  67.195  1.00  0.00    -0.228 N  
HETATM   25  C   UNL     1     -11.337  11.776  66.767  1.00  0.00    -0.320 C  
HETATM   26  O   UNL     1     -12.262  12.434  67.244  1.00  0.00    -0.478 OA 
HETATM   27  H   UNL     1     -11.830  10.121  67.856  1.00  0.00     0.000 HD 
BRANCH  25  28
HETATM   28  C   UNL     1     -10.385  12.349  65.728  1.00  0.00    -0.289 C  
BRANCH  28  29
HETATM   29  C   UNL     1      -9.799  13.697  66.090  1.00  0.00    -0.304 A  
HETATM   30  C   UNL     1     -10.285  14.911  65.554  1.00  0.00    -0.401 A  
HETATM   31  C   UNL     1      -9.676  16.115  65.962  1.00  0.00    -0.376 A  
HETATM   32  C   UNL     1      -8.745  13.736  67.028  1.00  0.00    -0.212 A  
HETATM   33  C   UNL     1      -8.639  16.133  66.893  1.00  0.00    -0.253 A  
HETATM   34  C   UNL     1      -8.168  14.941  67.423  1.00  0.00    -0.217 A  
BRANCH  30  35
HETATM   35  C   UNL     1     -11.388  14.958  64.512  1.00  0.00    -0.300 C  
HETATM   36  N   UNL     1     -11.477  16.254  63.839  1.00  0.00    -1.539 NA 
HETATM   37  H1  UNL     1     -12.219  16.287  63.139  1.00  0.00     0.000 HD 
HETATM   38  H2  UNL     1     -10.579  16.518  63.433  1.00  0.00     0.000 HD 
ENDBRANCH  30  35
ENDBRANCH  28  29
ENDBRANCH  25  28
ENDBRANCH  10  24
TORSDOF 8
ENDMDL
MODEL      108
REMARK 921   NORMALIZED FREE ENERGY PREDICTED BY IDOCK:   -6.42 KCAL/MOL
REMARK 922        TOTAL FREE ENERGY PREDICTED BY IDOCK:  -10.24 KCAL/MOL
REMARK 923 INTER-LIGAND FREE ENERGY PREDICTED BY IDOCK:   -8.07 KCAL/MOL
REMARK 924 INTRA-LIGAND FREE ENERGY PREDICTED BY IDOCK:   -2.16 KCAL/MOL
REMARK 927      BINDING AFFINITY PREDICTED BY RF-SCORE:    0.00 PKD
ROOT
HETATM    1  C   UNL     1     -10.847   9.018  68.334  1.00  0.00    -0.011 C  
HETATM    2  S   UNL     1      -9.237   8.561  67.660  1.00  0.00    -0.134 SA 
HETATM    3  C   UNL     1      -9.491   6.789  67.901  1.00  0.00    -0.118 C  
HETATM    4  C   UNL     1     -10.077   6.398  69.253  1.00  0.00    -0.203 C  
HETATM    5  O   UNL     1     -11.328   7.739  72.413  1.00  0.00    -0.295 OA 
HETATM    6  CA  UNL     1     -10.701   7.270  70.099  1.00  0.00    -0.244 C  
HETATM    7  N   UNL     1     -10.903   8.564  69.708  1.00  0.00    -0.211 N  
HETATM    8  O   UNL     1     -11.355  10.070  71.413  1.00  0.00    -0.339 OA 
HETATM    9  C   UNL     1     -11.175   6.805  71.460  1.00  0.00    -0.260 C  
HETATM   10  CA  UNL     1     -11.009  10.474  68.884  1.00  0.00    -0.246 C  
HETATM   11  OXT UNL     1     -11.426   5.637  71.709  1.00  0.00    -0.188 OA 
HETATM   12  C   UNL     1     -11.173   9.762  70.259  1.00  0.00    -0.288 C  
ENDROOT
BRANCH   4  13
HETATM   13  C   UNL     1      -9.747   4.944  69.589  1.00  0.00    -0.196 C  
BRANCH  13  14
HETATM   14  S   UNL     1      -7.952   4.709  69.842  1.00  0.00    -0.068 SA 
BRANCH  14  15
HETATM   15  C   UNL     1      -7.855   5.040  71.538  1.00  0.00    -0.110 A  
HETATM   16  N   UNL     1      -8.132   4.190  72.501  1.00  0.00    -0.093 NA 
HETATM   17  N   UNL     1      -7.460   6.223  72.103  1.00  0.00    -0.093 NA 
HETATM   18  N   UNL     1      -7.870   4.845  73.676  1.00  0.00    -0.095 NA 
HETATM   19  N   UNL     1      -7.428   6.071  73.446  1.00  0.00    -0.093 NA 
BRANCH  17  20
HETATM   20  C   UNL     1      -6.974   7.438  71.489  1.00  0.00    -0.055 C  
HETATM   21  O   UNL     1      -8.411   8.810  72.931  1.00  0.00    -0.414 OA 
HETATM   22  C   UNL     1      -7.785   8.689  71.742  1.00  0.00    -0.088 C  
HETATM   23  O   UNL     1      -7.805   9.611  70.933  1.00  0.00    -0.317 OA 
ENDBRANCH  17  20
ENDBRANCH  14  15
ENDBRANCH  13  14
ENDBRANCH   4  13
BRANCH  10  24
HETATM   24  N   UNL     1      -9.861  11.402  68.768  1.00  0.00    -0.310 N  
HETATM   25  C   UNL     1      -9.919  12.738  68.475  1.00  0.00    -0.164 C  
HETATM   26  O   UNL     1      -8.869  13.368  68.346  1.00  0.00    -0.178 OA 
HETATM   27  H   UNL     1      -8.934  11.006  68.922  1.00  0.00     0.000 HD 
BRANCH  25  28
HETATM   28  C   UNL     1     -11.282  13.390  68.305  1.00  0.00    -0.310 C  
BRANCH  28  29
HETATM   29  C   UNL     1     -11.824  14.049  69.555  1.00  0.00    -0.378 A  
HETATM   30  C   UNL     1     -11.803  15.448  69.752  1.00  0.00    -0.367 A  
HETATM   31  C   UNL     1     -12.342  15.965  70.948  1.00  0.00    -0.373 A  
HETATM   32  C   UNL     1     -12.403  13.227  70.546  1.00  0.00    -0.389 A  
HETATM   33  C   UNL     1     -12.913  15.136  71.912  1.00  0.00    -0.443 A  
HETATM   34  C   UNL     1     -12.938  13.764  71.715  1.00  0.00    -0.441 A  
BRANCH  30  35
HETATM   35  C   UNL     1     -11.167  16.402  68.758  1.00  0.00    -0.313 C  
HETATM   36  N   UNL     1      -9.711  16.466  68.884  1.00  0.00    -0.247 NA 
HETATM   37  H1  UNL     1      -9.283  17.108  68.216  1.00  0.00     0.000 HD 
HETATM   38  H2  UNL     1      -9.297  15.536  68.815  1.00  0.00     0.000 HD 
ENDBRANCH  30  35
ENDBRANCH  28  29
ENDBRANCH  25  28
ENDBRANCH  10  24
TORSDOF 8
ENDMDL
MODEL      109
REMARK 921   NORMALIZED FREE ENERGY PREDICTED BY IDOCK:   -6.41 KCAL/MOL
REMARK 922        TOTAL FREE ENERGY PREDICTED BY IDOCK:  -10.24 KCAL/MOL
REMARK 923 INTER-LIGAND FREE ENERGY PREDICTED BY IDOCK:   -9.09 KCAL/MOL
REMARK 924 INTRA-LIGAND FREE ENERGY PREDICTED BY IDOCK:   -1.15 KCAL/MOL
REMARK 927      BINDING AFFINITY PREDICTED BY RF-SCORE:    0.00 PKD
ROOT
HETATM    1  C   UNL     1     -11.946  12.122  68.506  1.00  0.00    -0.217 C  
HETATM    2  S   UNL     1     -11.072  13.436  69.379  1.00  0.00    -0.032 SA 
HETATM    3  C   UNL     1     -11.296  14.647  68.057  1.00  0.00    -0.311 C  
HETATM    4  C   UNL     1     -11.025  14.125  66.651  1.00  0.00    -0.303 C  
HETATM    5  O   UNL     1     -10.090  11.149  64.749  1.00  0.00    -0.253 OA 
HETATM    6  CA  UNL     1     -10.962  12.801  66.323  1.00  0.00    -0.280 C  
HETATM    7  N   UNL     1     -11.237  11.856  67.271  1.00  0.00    -0.296 N  
HETATM    8  O   UNL     1     -10.482   9.713  66.803  1.00  0.00    -0.230 OA 
HETATM    9  C   UNL     1     -10.600  12.380  64.914  1.00  0.00    -0.294 C  
HETATM   10  CA  UNL     1     -11.629  10.648  68.922  1.00  0.00    -0.249 C  
HETATM   11  OXT UNL     1     -10.764  13.104  63.945  1.00  0.00    -0.361 OA 
HETATM   12  C   UNL     1     -11.029  10.544  67.489  1.00  0.00    -0.303 C  
ENDROOT
BRANCH   4  13
HETATM   13  C   UNL     1     -10.692  15.274  65.699  1.00  0.00    -0.365 C  
BRANCH  13  14
HETATM   14  S   UNL     1     -10.100  16.745  66.610  1.00  0.00    -0.310 SA 
BRANCH  14  15
HETATM   15  C   UNL     1      -8.423  16.340  66.750  1.00  0.00    -0.247 A  
HETATM   16  N   UNL     1      -7.944  15.152  67.041  1.00  0.00    -0.213 NA 
HETATM   17  N   UNL     1      -7.373  17.199  66.561  1.00  0.00    -0.248 NA 
HETATM   18  N   UNL     1      -6.579  15.269  66.994  1.00  0.00    -0.184 NA 
HETATM   19  N   UNL     1      -6.220  16.501  66.669  1.00  0.00    -0.295 NA 
BRANCH  17  20
HETATM   20  C   UNL     1      -7.358  18.584  66.146  1.00  0.00    -0.259 C  
HETATM   21  O   UNL     1      -6.985  19.331  68.455  1.00  0.00    -0.259 OA 
HETATM   22  C   UNL     1      -7.506  19.614  67.243  1.00  0.00    -0.246 C  
HETATM   23  O   UNL     1      -8.002  20.714  67.023  1.00  0.00    -0.310 OA 
ENDBRANCH  17  20
ENDBRANCH  14  15
ENDBRANCH  13  14
ENDBRANCH   4  13
BRANCH  10  24
HETATM   24  N   UNL     1     -10.683  10.420  70.038  1.00  0.00    -0.366 N  
HETATM   25  C   UNL     1     -10.734   9.405  70.956  1.00  0.00    -0.337 C  
HETATM   26  O   UNL     1      -9.911   9.385  71.871  1.00  0.00    -0.155 OA 
HETATM   27  H   UNL     1      -9.915  11.086  70.132  1.00  0.00     0.000 HD 
BRANCH  25  28
HETATM   28  C   UNL     1     -11.818   8.348  70.817  1.00  0.00    -0.178 C  
BRANCH  28  29
HETATM   29  C   UNL     1     -11.395   6.956  71.232  1.00  0.00    -0.319 A  
HETATM   30  C   UNL     1     -10.772   6.050  70.344  1.00  0.00    -0.358 A  
HETATM   31  C   UNL     1     -10.406   4.779  70.831  1.00  0.00    -0.187 A  
HETATM   32  C   UNL     1     -11.603   6.566  72.573  1.00  0.00    -0.243 A  
HETATM   33  C   UNL     1     -10.616   4.415  72.160  1.00  0.00    -0.101 A  
HETATM   34  C   UNL     1     -11.222   5.307  73.031  1.00  0.00    -0.387 A  
BRANCH  30  35
HETATM   35  C   UNL     1     -10.544   6.371  68.879  1.00  0.00    -0.252 C  
HETATM   36  N   UNL     1      -9.466   7.338  68.670  1.00  0.00    -0.138 NA 
HETATM   37  H1  UNL     1      -9.312   7.555  67.685  1.00  0.00     0.000 HD 
HETATM   38  H2  UNL     1      -8.602   7.024  69.114  1.00  0.00     0.000 HD 
ENDBRANCH  30  35
ENDBRANCH  28  29
ENDBRANCH  25  28
ENDBRANCH  10  24
TORSDOF 8
ENDMDL
MODEL      110
REMARK 921   NORMALIZED FREE ENERGY PREDICTED BY IDOCK:   -6.41 KCAL/MOL
REMARK 922        TOTAL FREE ENERGY PREDICTED BY IDOCK:  -10.23 KCAL/MOL
REMARK 923 INTER-LIGAND FREE ENERGY PREDICTED BY IDOCK:   -8.69 KCAL/MOL
REMARK 924 INTRA-LIGAND FREE ENERGY PREDICTED BY IDOCK:   -1.54 KCAL/MOL
REMARK 927      BINDING AFFINITY PREDICTED BY RF-SCORE:    0.00 PKD
ROOT
HETATM    1  C   UNL     1      -9.200   9.015  69.713  1.00  0.00    -0.167 C  
HETATM    2  S   UNL     1      -7.602   9.621  70.290  1.00  0.00    -0.166 SA 
HETATM    3  C   UNL     1      -7.317   8.217  71.391  1.00  0.00    -0.083 C  
HETATM    4  C   UNL     1      -8.516   7.807  72.238  1.00  0.00    -0.165 C  
HETATM    5  O   UNL     1     -12.025   8.558  72.925  1.00  0.00    -0.243 OA 
HETATM    6  CA  UNL     1      -9.803   8.188  71.982  1.00  0.00    -0.232 C  
HETATM    7  N   UNL     1     -10.081   8.915  70.858  1.00  0.00    -0.221 N  
HETATM    8  O   UNL     1     -12.113  10.034  70.863  1.00  0.00    -0.307 OA 
HETATM    9  C   UNL     1     -10.917   7.800  72.931  1.00  0.00    -0.407 C  
HETATM   10  CA  UNL     1     -10.199  10.066  69.127  1.00  0.00    -0.210 C  
HETATM   11  OXT UNL     1     -10.844   6.837  73.677  1.00  0.00    -0.290 OA 
HETATM   12  C   UNL     1     -11.055   9.709  70.377  1.00  0.00    -0.290 C  
ENDROOT
BRANCH   4  13
HETATM   13  C   UNL     1      -8.067   7.039  73.481  1.00  0.00    -0.107 C  
BRANCH  13  14
HETATM   14  S   UNL     1      -7.113   5.545  73.034  1.00  0.00    -0.087 SA 
BRANCH  14  15
HETATM   15  C   UNL     1      -8.399   4.388  72.981  1.00  0.00    -0.095 A  
HETATM   16  N   UNL     1      -9.046   3.914  74.021  1.00  0.00    -0.093 NA 
HETATM   17  N   UNL     1      -8.925   3.826  71.848  1.00  0.00    -0.103 NA 
HETATM   18  N   UNL     1     -10.009   3.076  73.522  1.00  0.00    -0.105 NA 
HETATM   19  N   UNL     1      -9.968   3.041  72.200  1.00  0.00    -0.168 NA 
BRANCH  17  20
HETATM   20  C   UNL     1      -8.628   4.072  70.455  1.00  0.00    -0.072 C  
HETATM   21  O   UNL     1     -10.685   5.383  70.188  1.00  0.00    -0.298 OA 
HETATM   22  C   UNL     1      -9.769   4.583  69.605  1.00  0.00    -0.218 C  
HETATM   23  O   UNL     1      -9.820   4.356  68.401  1.00  0.00    -0.137 OA 
ENDBRANCH  17  20
ENDBRANCH  14  15
ENDBRANCH  13  14
ENDBRANCH   4  13
BRANCH  10  24
HETATM   24  N   UNL     1      -9.757  11.476  69.026  1.00  0.00    -0.415 N  
HETATM   25  C   UNL     1     -10.386  12.481  68.341  1.00  0.00    -0.230 C  
HETATM   26  O   UNL     1      -9.860  13.593  68.293  1.00  0.00    -0.224 OA 
HETATM   27  H   UNL     1      -8.899  11.724  69.518  1.00  0.00     0.000 HD 
BRANCH  25  28
HETATM   28  C   UNL     1     -11.706  12.178  67.648  1.00  0.00    -0.386 C  
BRANCH  28  29
HETATM   29  C   UNL     1     -11.744  12.546  66.181  1.00  0.00    -0.466 A  
HETATM   30  C   UNL     1     -11.149  11.749  65.177  1.00  0.00    -0.341 A  
HETATM   31  C   UNL     1     -11.249  12.174  63.837  1.00  0.00    -0.485 A  
HETATM   32  C   UNL     1     -12.435  13.719  65.804  1.00  0.00    -0.527 A  
HETATM   33  C   UNL     1     -11.939  13.333  63.485  1.00  0.00    -0.537 A  
HETATM   34  C   UNL     1     -12.527  14.111  64.471  1.00  0.00    -0.350 A  
BRANCH  30  35
HETATM   35  C   UNL     1     -10.357  10.495  65.495  1.00  0.00    -0.217 C  
HETATM   36  N   UNL     1      -9.297  10.230  64.521  1.00  0.00    -0.251 NA 
HETATM   37  H1  UNL     1      -8.764   9.387  64.735  1.00  0.00     0.000 HD 
HETATM   38  H2  UNL     1      -8.681  11.038  64.424  1.00  0.00     0.000 HD 
ENDBRANCH  30  35
ENDBRANCH  28  29
ENDBRANCH  25  28
ENDBRANCH  10  24
TORSDOF 8
ENDMDL
MODEL      111
REMARK 921   NORMALIZED FREE ENERGY PREDICTED BY IDOCK:   -6.41 KCAL/MOL
REMARK 922        TOTAL FREE ENERGY PREDICTED BY IDOCK:  -10.23 KCAL/MOL
REMARK 923 INTER-LIGAND FREE ENERGY PREDICTED BY IDOCK:   -9.14 KCAL/MOL
REMARK 924 INTRA-LIGAND FREE ENERGY PREDICTED BY IDOCK:   -1.09 KCAL/MOL
REMARK 927      BINDING AFFINITY PREDICTED BY RF-SCORE:    0.00 PKD
ROOT
HETATM    1  C   UNL     1     -10.677   9.688  68.277  1.00  0.00    -0.217 C  
HETATM    2  S   UNL     1     -10.382   8.304  67.157  1.00  0.00    -0.318 SA 
HETATM    3  C   UNL     1      -9.611   7.271  68.423  1.00  0.00    -0.139 C  
HETATM    4  C   UNL     1      -8.595   7.983  69.308  1.00  0.00    -0.137 C  
HETATM    5  O   UNL     1      -7.030  11.218  69.970  1.00  0.00    -0.064 OA 
HETATM    6  CA  UNL     1      -8.492   9.341  69.419  1.00  0.00    -0.137 C  
HETATM    7  N   UNL     1      -9.395  10.142  68.775  1.00  0.00    -0.159 N  
HETATM    8  O   UNL     1      -8.757  12.355  68.500  1.00  0.00    -0.152 OA 
HETATM    9  C   UNL     1      -7.393   9.958  70.257  1.00  0.00    -0.157 C  
HETATM   10  CA  UNL     1     -10.849  11.105  67.639  1.00  0.00    -0.247 C  
HETATM   11  OXT UNL     1      -6.845   9.362  71.171  1.00  0.00    -0.194 OA 
HETATM   12  C   UNL     1      -9.513  11.420  68.373  1.00  0.00    -0.194 C  
ENDROOT
BRANCH   4  13
HETATM   13  C   UNL     1      -7.622   6.984  69.933  1.00  0.00    -0.102 C  
BRANCH  13  14
HETATM   14  S   UNL     1      -8.504   5.730  70.930  1.00  0.00    -0.127 SA 
BRANCH  14  15
HETATM   15  C   UNL     1      -8.347   6.447  72.497  1.00  0.00    -0.116 A  
HETATM   16  N   UNL     1      -7.441   6.133  73.395  1.00  0.00    -0.092 NA 
HETATM   17  N   UNL     1      -9.135   7.446  73.003  1.00  0.00    -0.143 NA 
HETATM   18  N   UNL     1      -7.648   6.976  74.456  1.00  0.00    -0.114 NA 
HETATM   19  N   UNL     1      -8.654   7.803  74.216  1.00  0.00    -0.236 NA 
BRANCH  17  20
HETATM   20  C   UNL     1     -10.209   8.194  72.390  1.00  0.00    -0.298 C  
HETATM   21  O   UNL     1     -11.685   6.234  72.451  1.00  0.00    -0.295 OA 
HETATM   22  C   UNL     1     -11.355   7.383  71.828  1.00  0.00    -0.255 C  
HETATM   23  O   UNL     1     -12.028   7.796  70.889  1.00  0.00    -0.284 OA 
ENDBRANCH  17  20
ENDBRANCH  14  15
ENDBRANCH  13  14
ENDBRANCH   4  13
BRANCH  10  24
HETATM   24  N   UNL     1     -10.819  11.220  66.162  1.00  0.00    -0.253 N  
HETATM   25  C   UNL     1     -11.586  12.054  65.393  1.00  0.00    -0.286 C  
HETATM   26  O   UNL     1     -11.496  11.988  64.167  1.00  0.00    -0.345 OA 
HETATM   27  H   UNL     1     -10.160  10.618  65.668  1.00  0.00     0.000 HD 
BRANCH  25  28
HETATM   28  C   UNL     1     -12.535  13.020  66.086  1.00  0.00    -0.190 C  
BRANCH  28  29
HETATM   29  C   UNL     1     -11.851  14.154  66.820  1.00  0.00    -0.449 A  
HETATM   30  C   UNL     1     -11.197  15.212  66.151  1.00  0.00    -0.271 A  
HETATM   31  C   UNL     1     -10.599  16.227  66.925  1.00  0.00    -0.270 A  
HETATM   32  C   UNL     1     -11.905  14.164  68.230  1.00  0.00    -0.391 A  
HETATM   33  C   UNL     1     -10.666  16.221  68.318  1.00  0.00    -0.322 A  
HETATM   34  C   UNL     1     -11.314  15.185  68.972  1.00  0.00    -0.307 A  
BRANCH  30  35
HETATM   35  C   UNL     1     -11.060  15.261  64.640  1.00  0.00    -0.332 C  
HETATM   36  N   UNL     1     -11.594  16.494  64.061  1.00  0.00    -1.544 NA 
HETATM   37  H1  UNL     1     -11.502  16.527  63.045  1.00  0.00     0.000 HD 
HETATM   38  H2  UNL     1     -11.169  17.315  64.493  1.00  0.00     0.000 HD 
ENDBRANCH  30  35
ENDBRANCH  28  29
ENDBRANCH  25  28
ENDBRANCH  10  24
TORSDOF 8
ENDMDL
MODEL      112
REMARK 921   NORMALIZED FREE ENERGY PREDICTED BY IDOCK:   -6.40 KCAL/MOL
REMARK 922        TOTAL FREE ENERGY PREDICTED BY IDOCK:  -10.22 KCAL/MOL
REMARK 923 INTER-LIGAND FREE ENERGY PREDICTED BY IDOCK:   -9.44 KCAL/MOL
REMARK 924 INTRA-LIGAND FREE ENERGY PREDICTED BY IDOCK:   -0.78 KCAL/MOL
REMARK 927      BINDING AFFINITY PREDICTED BY RF-SCORE:    0.00 PKD
ROOT
HETATM    1  C   UNL     1      -8.751  10.857  68.903  1.00  0.00    -0.140 C  
HETATM    2  S   UNL     1      -7.292  11.474  68.039  1.00  0.00    -0.098 SA 
HETATM    3  C   UNL     1      -7.587  13.197  68.497  1.00  0.00    -0.122 C  
HETATM    4  C   UNL     1      -9.028  13.670  68.341  1.00  0.00    -0.160 C  
HETATM    5  O   UNL     1     -12.389  12.592  67.399  1.00  0.00    -0.338 OA 
HETATM    6  CA  UNL     1     -10.100  12.832  68.216  1.00  0.00    -0.237 C  
HETATM    7  N   UNL     1      -9.918  11.481  68.314  1.00  0.00    -0.195 N  
HETATM    8  O   UNL     1     -11.630  10.172  67.457  1.00  0.00    -0.155 OA 
HETATM    9  C   UNL     1     -11.485  13.397  67.979  1.00  0.00    -0.304 C  
HETATM   10  CA  UNL     1      -9.338   9.485  68.433  1.00  0.00    -0.133 C  
HETATM   11  OXT UNL     1     -11.801  14.531  68.301  1.00  0.00    -0.323 OA 
HETATM   12  C   UNL     1     -10.557  10.343  67.987  1.00  0.00    -0.221 C  
ENDROOT
BRANCH   4  13
HETATM   13  C   UNL     1      -9.090  15.190  68.201  1.00  0.00    -0.176 C  
BRANCH  13  14
HETATM   14  S   UNL     1      -8.194  15.760  66.712  1.00  0.00    -0.265 SA 
BRANCH  14  15
HETATM   15  C   UNL     1      -9.506  16.485  65.848  1.00  0.00    -0.219 A  
HETATM   16  N   UNL     1     -10.375  15.846  65.098  1.00  0.00    -0.518 NA 
HETATM   17  N   UNL     1      -9.824  17.817  65.843  1.00  0.00    -0.550 NA 
HETATM   18  N   UNL     1     -11.264  16.790  64.654  1.00  0.00    -0.914 NA 
HETATM   19  N   UNL     1     -10.960  17.988  65.128  1.00  0.00    -0.556 NA 
BRANCH  17  20
HETATM   20  C   UNL     1      -9.239  18.923  66.567  1.00  0.00    -0.331 C  
HETATM   21  O   UNL     1     -11.383  19.420  67.654  1.00  0.00    -0.131 OA 
HETATM   22  C   UNL     1     -10.206  19.898  67.199  1.00  0.00    -0.443 C  
HETATM   23  O   UNL     1      -9.902  21.073  67.379  1.00  0.00    -0.393 OA 
ENDBRANCH  17  20
ENDBRANCH  14  15
ENDBRANCH  13  14
ENDBRANCH   4  13
BRANCH  10  24
HETATM   24  N   UNL     1      -8.634   8.751  67.356  1.00  0.00    -0.125 N  
HETATM   25  C   UNL     1      -9.023   7.567  66.788  1.00  0.00    -0.144 C  
HETATM   26  O   UNL     1      -8.295   7.042  65.945  1.00  0.00    -0.128 OA 
HETATM   27  H   UNL     1      -7.774   9.169  67.002  1.00  0.00     0.000 HD 
BRANCH  25  28
HETATM   28  C   UNL     1     -10.334   6.939  67.233  1.00  0.00    -0.320 C  
BRANCH  28  29
HETATM   29  C   UNL     1     -10.231   6.088  68.480  1.00  0.00    -0.227 A  
HETATM   30  C   UNL     1      -9.728   4.767  68.465  1.00  0.00    -0.215 A  
HETATM   31  C   UNL     1      -9.664   4.060  69.683  1.00  0.00    -0.245 A  
HETATM   32  C   UNL     1     -10.623   6.657  69.711  1.00  0.00    -0.270 A  
HETATM   33  C   UNL     1     -10.052   4.642  70.889  1.00  0.00    -0.257 A  
HETATM   34  C   UNL     1     -10.539   5.940  70.903  1.00  0.00    -0.319 A  
BRANCH  30  35
HETATM   35  C   UNL     1      -9.320   4.065  67.183  1.00  0.00    -0.184 C  
HETATM   36  N   UNL     1      -7.944   3.569  67.220  1.00  0.00    -0.082 NA 
HETATM   37  H1  UNL     1      -7.669   3.096  66.358  1.00  0.00     0.000 HD 
HETATM   38  H2  UNL     1      -7.795   2.967  68.031  1.00  0.00     0.000 HD 
ENDBRANCH  30  35
ENDBRANCH  28  29
ENDBRANCH  25  28
ENDBRANCH  10  24
TORSDOF 8
ENDMDL
MODEL      113
REMARK 921   NORMALIZED FREE ENERGY PREDICTED BY IDOCK:   -6.39 KCAL/MOL
REMARK 922        TOTAL FREE ENERGY PREDICTED BY IDOCK:  -10.20 KCAL/MOL
REMARK 923 INTER-LIGAND FREE ENERGY PREDICTED BY IDOCK:  -10.36 KCAL/MOL
REMARK 924 INTRA-LIGAND FREE ENERGY PREDICTED BY IDOCK:    0.17 KCAL/MOL
REMARK 927      BINDING AFFINITY PREDICTED BY RF-SCORE:    0.00 PKD
ROOT
HETATM    1  C   UNL     1      -8.661   8.908  66.789  1.00  0.00    -0.115 C  
HETATM    2  S   UNL     1     -10.297   9.562  66.401  1.00  0.00    -0.113 SA 
HETATM    3  C   UNL     1      -9.705  11.248  66.136  1.00  0.00    -0.220 C  
HETATM    4  C   UNL     1      -8.724  11.761  67.183  1.00  0.00    -0.169 C  
HETATM    5  O   UNL     1      -6.909  10.831  70.215  1.00  0.00    -0.234 OA 
HETATM    6  CA  UNL     1      -8.047  10.959  68.058  1.00  0.00    -0.119 C  
HETATM    7  N   UNL     1      -8.168   9.601  67.961  1.00  0.00    -0.109 N  
HETATM    8  O   UNL     1      -7.526   8.400  69.839  1.00  0.00    -0.062 OA 
HETATM    9  C   UNL     1      -7.158  11.569  69.121  1.00  0.00    -0.105 C  
HETATM   10  CA  UNL     1      -8.595   7.590  67.629  1.00  0.00    -0.119 C  
HETATM   11  OXT UNL     1      -6.665  12.680  69.013  1.00  0.00    -0.095 OA 
HETATM   12  C   UNL     1      -7.958   8.506  68.715  1.00  0.00    -0.119 C  
ENDROOT
BRANCH   4  13
HETATM   13  C   UNL     1      -8.714  13.289  67.218  1.00  0.00    -0.214 C  
BRANCH  13  14
HETATM   14  S   UNL     1     -10.339  13.957  67.723  1.00  0.00    -0.243 SA 
BRANCH  14  15
HETATM   15  C   UNL     1     -10.465  15.277  66.611  1.00  0.00    -0.290 A  
HETATM   16  N   UNL     1     -10.246  16.541  66.895  1.00  0.00    -0.290 NA 
HETATM   17  N   UNL     1     -10.794  15.179  65.285  1.00  0.00    -0.373 NA 
HETATM   18  N   UNL     1     -10.404  17.229  65.719  1.00  0.00    -0.581 NA 
HETATM   19  N   UNL     1     -10.704  16.407  64.726  1.00  0.00    -0.701 NA 
BRANCH  17  20
HETATM   20  C   UNL     1     -11.044  14.015  64.465  1.00  0.00    -0.351 C  
HETATM   21  O   UNL     1     -13.376  13.912  65.222  1.00  0.00    -0.732 OA 
HETATM   22  C   UNL     1     -12.300  13.233  64.776  1.00  0.00    -0.402 C  
HETATM   23  O   UNL     1     -12.376  12.031  64.546  1.00  0.00    -0.318 OA 
ENDBRANCH  17  20
ENDBRANCH  14  15
ENDBRANCH  13  14
ENDBRANCH   4  13
BRANCH  10  24
HETATM   24  N   UNL     1      -9.867   6.930  68.004  1.00  0.00    -0.136 N  
HETATM   25  C   UNL     1     -10.563   7.104  69.170  1.00  0.00    -0.214 C  
HETATM   26  O   UNL     1     -11.575   6.432  69.368  1.00  0.00    -0.382 OA 
HETATM   27  H   UNL     1     -10.265   6.281  67.325  1.00  0.00     0.000 HD 
BRANCH  25  28
HETATM   28  C   UNL     1     -10.048   8.112  70.186  1.00  0.00    -0.194 C  
BRANCH  28  29
HETATM   29  C   UNL     1     -11.066   9.145  70.617  1.00  0.00    -0.320 A  
HETATM   30  C   UNL     1     -11.933   8.951  71.716  1.00  0.00    -0.429 A  
HETATM   31  C   UNL     1     -12.840   9.979  72.044  1.00  0.00    -0.484 A  
HETATM   32  C   UNL     1     -11.121  10.365  69.909  1.00  0.00    -0.367 A  
HETATM   33  C   UNL     1     -12.876  11.178  71.334  1.00  0.00    -0.544 A  
HETATM   34  C   UNL     1     -12.020  11.370  70.261  1.00  0.00    -0.460 A  
BRANCH  30  35
HETATM   35  C   UNL     1     -11.968   7.657  72.508  1.00  0.00    -0.214 C  
HETATM   36  N   UNL     1     -13.023   6.746  72.062  1.00  0.00    -0.546 NA 
HETATM   37  H1  UNL     1     -13.046   5.876  72.595  1.00  0.00     0.000 HD 
HETATM   38  H2  UNL     1     -12.945   6.560  71.062  1.00  0.00     0.000 HD 
ENDBRANCH  30  35
ENDBRANCH  28  29
ENDBRANCH  25  28
ENDBRANCH  10  24
TORSDOF 8
ENDMDL
MODEL      114
REMARK 921   NORMALIZED FREE ENERGY PREDICTED BY IDOCK:   -6.38 KCAL/MOL
REMARK 922        TOTAL FREE ENERGY PREDICTED BY IDOCK:  -10.19 KCAL/MOL
REMARK 923 INTER-LIGAND FREE ENERGY PREDICTED BY IDOCK:   -9.36 KCAL/MOL
REMARK 924 INTRA-LIGAND FREE ENERGY PREDICTED BY IDOCK:   -0.83 KCAL/MOL
REMARK 927      BINDING AFFINITY PREDICTED BY RF-SCORE:    0.00 PKD
ROOT
HETATM    1  C   UNL     1     -10.610  11.813  67.012  1.00  0.00    -0.232 C  
HETATM    2  S   UNL     1     -11.889  13.077  67.172  1.00  0.00    -0.345 SA 
HETATM    3  C   UNL     1     -10.965  14.320  66.243  1.00  0.00    -0.317 C  
HETATM    4  C   UNL     1      -9.491  14.438  66.612  1.00  0.00    -0.300 C  
HETATM    5  O   UNL     1      -6.875  13.049  68.752  1.00  0.00    -0.093 OA 
HETATM    6  CA  UNL     1      -8.796  13.491  67.309  1.00  0.00    -0.224 C  
HETATM    7  N   UNL     1      -9.406  12.314  67.642  1.00  0.00    -0.180 N  
HETATM    8  O   UNL     1      -8.388  11.098  69.334  1.00  0.00     0.028 OA 
HETATM    9  C   UNL     1      -7.355  13.738  67.704  1.00  0.00    -0.172 C  
HETATM   10  CA  UNL     1     -10.600  10.663  68.071  1.00  0.00    -0.211 C  
HETATM   11  OXT UNL     1      -6.630  14.517  67.107  1.00  0.00    -0.219 OA 
HETATM   12  C   UNL     1      -9.246  11.295  68.506  1.00  0.00    -0.181 C  
ENDROOT
BRANCH   4  13
HETATM   13  C   UNL     1      -8.941  15.811  66.225  1.00  0.00    -0.345 C  
BRANCH  13  14
HETATM   14  S   UNL     1      -9.671  17.135  67.254  1.00  0.00    -0.261 SA 
BRANCH  14  15
HETATM   15  C   UNL     1      -8.252  17.661  68.094  1.00  0.00    -0.257 A  
HETATM   16  N   UNL     1      -7.646  17.005  69.058  1.00  0.00    -0.227 NA 
HETATM   17  N   UNL     1      -7.562  18.820  67.855  1.00  0.00    -0.247 NA 
HETATM   18  N   UNL     1      -6.546  17.751  69.394  1.00  0.00    -0.237 NA 
HETATM   19  N   UNL     1      -6.465  18.840  68.645  1.00  0.00    -0.233 NA 
BRANCH  17  20
HETATM   20  C   UNL     1      -7.764  19.840  66.851  1.00  0.00    -0.272 C  
HETATM   21  O   UNL     1      -6.820  18.392  65.108  1.00  0.00    -0.512 OA 
HETATM   22  C   UNL     1      -7.024  19.651  65.545  1.00  0.00    -0.291 C  
HETATM   23  O   UNL     1      -6.698  20.609  64.853  1.00  0.00    -0.279 OA 
ENDBRANCH  17  20
ENDBRANCH  14  15
ENDBRANCH  13  14
ENDBRANCH   4  13
BRANCH  10  24
HETATM   24  N   UNL     1     -11.666  10.644  69.100  1.00  0.00    -0.443 N  
HETATM   25  C   UNL     1     -11.631   9.982  70.298  1.00  0.00    -0.280 C  
HETATM   26  O   UNL     1     -12.625  10.006  71.023  1.00  0.00    -0.326 OA 
HETATM   27  H   UNL     1     -12.511  11.177  68.895  1.00  0.00     0.000 HD 
BRANCH  25  28
HETATM   28  C   UNL     1     -10.366   9.229  70.680  1.00  0.00    -0.326 C  
BRANCH  28  29
HETATM   29  C   UNL     1     -10.604   7.835  71.219  1.00  0.00    -0.241 A  
HETATM   30  C   UNL     1     -10.537   6.680  70.407  1.00  0.00    -0.266 A  
HETATM   31  C   UNL     1     -10.766   5.425  71.007  1.00  0.00    -0.239 A  
HETATM   32  C   UNL     1     -10.869   7.688  72.598  1.00  0.00    -0.395 A  
HETATM   33  C   UNL     1     -11.021   5.301  72.372  1.00  0.00    -0.273 A  
HETATM   34  C   UNL     1     -11.080   6.434  73.168  1.00  0.00    -0.194 A  
BRANCH  30  35
HETATM   35  C   UNL     1     -10.296   6.748  68.910  1.00  0.00    -0.192 C  
HETATM   36  N   UNL     1     -11.512   6.525  68.128  1.00  0.00    -0.579 NA 
HETATM   37  H1  UNL     1     -11.350   6.570  67.122  1.00  0.00     0.000 HD 
HETATM   38  H2  UNL     1     -12.251   7.170  68.409  1.00  0.00     0.000 HD 
ENDBRANCH  30  35
ENDBRANCH  28  29
ENDBRANCH  25  28
ENDBRANCH  10  24
TORSDOF 8
ENDMDL
MODEL      115
REMARK 921   NORMALIZED FREE ENERGY PREDICTED BY IDOCK:   -6.36 KCAL/MOL
REMARK 922        TOTAL FREE ENERGY PREDICTED BY IDOCK:  -10.16 KCAL/MOL
REMARK 923 INTER-LIGAND FREE ENERGY PREDICTED BY IDOCK:   -9.03 KCAL/MOL
REMARK 924 INTRA-LIGAND FREE ENERGY PREDICTED BY IDOCK:   -1.13 KCAL/MOL
REMARK 927      BINDING AFFINITY PREDICTED BY RF-SCORE:    0.00 PKD
ROOT
HETATM    1  C   UNL     1     -11.783  10.993  69.263  1.00  0.00    -0.326 C  
HETATM    2  S   UNL     1      -9.995  10.754  69.202  1.00  0.00    -0.148 SA 
HETATM    3  C   UNL     1     -10.103   8.951  69.190  1.00  0.00    -0.197 C  
HETATM    4  C   UNL     1     -11.086   8.355  70.190  1.00  0.00    -0.183 C  
HETATM    5  O   UNL     1     -13.547   9.203  72.755  1.00  0.00    -0.430 OA 
HETATM    6  CA  UNL     1     -12.074   9.066  70.811  1.00  0.00    -0.125 C  
HETATM    7  N   UNL     1     -12.276  10.376  70.477  1.00  0.00    -0.305 N  
HETATM    8  O   UNL     1     -13.492  11.627  72.005  1.00  0.00    -0.411 OA 
HETATM    9  C   UNL     1     -12.948   8.405  71.856  1.00  0.00    -0.355 C  
HETATM   10  CA  UNL     1     -12.307  12.354  69.827  1.00  0.00    -0.012 C  
HETATM   11  OXT UNL     1     -13.128   7.199  71.901  1.00  0.00    -0.309 OA 
HETATM   12  C   UNL     1     -12.869  11.473  70.981  1.00  0.00    -0.263 C  
ENDROOT
BRANCH   4  13
HETATM   13  C   UNL     1     -10.726   6.904  70.509  1.00  0.00    -0.235 C  
BRANCH  13  14
HETATM   14  S   UNL     1      -9.905   6.762  72.136  1.00  0.00    -0.146 SA 
BRANCH  14  15
HETATM   15  C   UNL     1      -8.430   7.596  71.788  1.00  0.00    -0.109 A  
HETATM   16  N   UNL     1      -8.141   8.825  72.151  1.00  0.00    -0.368 NA 
HETATM   17  N   UNL     1      -7.362   7.082  71.102  1.00  0.00    -0.076 NA 
HETATM   18  N   UNL     1      -6.862   9.061  71.717  1.00  0.00    -0.272 NA 
HETATM   19  N   UNL     1      -6.365   7.996  71.107  1.00  0.00    -0.034 NA 
BRANCH  17  20
HETATM   20  C   UNL     1      -7.141   5.758  70.567  1.00  0.00    -0.067 C  
HETATM   21  O   UNL     1      -7.545   6.552  68.279  1.00  0.00    -0.099 OA 
HETATM   22  C   UNL     1      -7.607   5.521  69.148  1.00  0.00    -0.086 C  
HETATM   23  O   UNL     1      -7.945   4.407  68.764  1.00  0.00    -0.073 OA 
ENDBRANCH  17  20
ENDBRANCH  14  15
ENDBRANCH  13  14
ENDBRANCH   4  13
BRANCH  10  24
HETATM   24  N   UNL     1     -11.316  13.382  70.220  1.00  0.00    -0.469 N  
HETATM   25  C   UNL     1     -11.121  14.598  69.622  1.00  0.00    -0.253 C  
HETATM   26  O   UNL     1     -10.208  15.321  70.022  1.00  0.00    -0.269 OA 
HETATM   27  H   UNL     1     -10.718  13.161  71.017  1.00  0.00     0.000 HD 
BRANCH  25  28
HETATM   28  C   UNL     1     -12.032  15.002  68.474  1.00  0.00    -0.257 C  
BRANCH  28  29
HETATM   29  C   UNL     1     -11.504  14.649  67.100  1.00  0.00    -0.380 A  
HETATM   30  C   UNL     1     -10.624  15.489  66.381  1.00  0.00    -0.312 A  
HETATM   31  C   UNL     1     -10.181  15.065  65.111  1.00  0.00    -0.399 A  
HETATM   32  C   UNL     1     -11.884  13.412  66.536  1.00  0.00    -0.443 A  
HETATM   33  C   UNL     1     -10.565  13.837  64.573  1.00  0.00    -0.405 A  
HETATM   34  C   UNL     1     -11.424  13.012  65.283  1.00  0.00    -0.340 A  
BRANCH  30  35
HETATM   35  C   UNL     1     -10.194  16.850  66.894  1.00  0.00    -0.296 C  
HETATM   36  N   UNL     1     -10.346  17.908  65.895  1.00  0.00    -0.578 NA 
HETATM   37  H1  UNL     1     -10.057  18.824  66.240  1.00  0.00     0.000 HD 
HETATM   38  H2  UNL     1     -11.302  17.937  65.538  1.00  0.00     0.000 HD 
ENDBRANCH  30  35
ENDBRANCH  28  29
ENDBRANCH  25  28
ENDBRANCH  10  24
TORSDOF 8
ENDMDL
MODEL      116
REMARK 921   NORMALIZED FREE ENERGY PREDICTED BY IDOCK:   -6.29 KCAL/MOL
REMARK 922        TOTAL FREE ENERGY PREDICTED BY IDOCK:  -10.05 KCAL/MOL
REMARK 923 INTER-LIGAND FREE ENERGY PREDICTED BY IDOCK:   -8.55 KCAL/MOL
REMARK 924 INTRA-LIGAND FREE ENERGY PREDICTED BY IDOCK:   -1.50 KCAL/MOL
REMARK 927      BINDING AFFINITY PREDICTED BY RF-SCORE:    0.00 PKD
ROOT
HETATM    1  C   UNL     1     -11.822  10.963  69.406  1.00  0.00    -0.328 C  
HETATM    2  S   UNL     1     -10.036  10.852  69.172  1.00  0.00    -0.133 SA 
HETATM    3  C   UNL     1     -10.014   9.045  69.182  1.00  0.00    -0.185 C  
HETATM    4  C   UNL     1     -10.849   8.395  70.279  1.00  0.00    -0.244 C  
HETATM    5  O   UNL     1     -13.103   9.102  73.067  1.00  0.00    -0.255 OA 
HETATM    6  CA  UNL     1     -11.821   9.042  70.989  1.00  0.00    -0.285 C  
HETATM    7  N   UNL     1     -12.149  10.330  70.667  1.00  0.00    -0.313 N  
HETATM    8  O   UNL     1     -13.297  11.512  72.298  1.00  0.00    -0.422 OA 
HETATM    9  C   UNL     1     -12.538   8.336  72.119  1.00  0.00    -0.337 C  
HETATM   10  CA  UNL     1     -12.386  12.291  70.009  1.00  0.00    -0.089 C  
HETATM   11  OXT UNL     1     -12.626   7.120  72.189  1.00  0.00    -0.236 OA 
HETATM   12  C   UNL     1     -12.768  11.389  71.219  1.00  0.00    -0.393 C  
ENDROOT
BRANCH   4  13
HETATM   13  C   UNL     1     -10.357   6.978  70.570  1.00  0.00    -0.201 C  
BRANCH  13  14
HETATM   14  S   UNL     1     -10.701   5.851  69.173  1.00  0.00    -0.323 SA 
BRANCH  14  15
HETATM   15  C   UNL     1      -9.164   5.065  69.052  1.00  0.00    -0.114 A  
HETATM   16  N   UNL     1      -8.114   5.531  68.416  1.00  0.00    -0.098 NA 
HETATM   17  N   UNL     1      -8.833   3.862  69.618  1.00  0.00    -0.081 NA 
HETATM   18  N   UNL     1      -7.109   4.621  68.621  1.00  0.00    -0.052 NA 
HETATM   19  N   UNL     1      -7.524   3.619  69.380  1.00  0.00    -0.052 NA 
BRANCH  17  20
HETATM   20  C   UNL     1      -9.597   2.990  70.482  1.00  0.00    -0.117 C  
HETATM   21  O   UNL     1      -8.941   4.284  72.462  1.00  0.00    -0.109 OA 
HETATM   22  C   UNL     1      -9.299   3.084  71.961  1.00  0.00    -0.123 C  
HETATM   23  O   UNL     1      -9.464   2.125  72.707  1.00  0.00    -0.080 OA 
ENDBRANCH  17  20
ENDBRANCH  14  15
ENDBRANCH  13  14
ENDBRANCH   4  13
BRANCH  10  24
HETATM   24  N   UNL     1     -11.438  13.392  70.296  1.00  0.00    -0.509 N  
HETATM   25  C   UNL     1     -11.311  14.562  69.597  1.00  0.00    -0.273 C  
HETATM   26  O   UNL     1     -10.427  15.357  69.916  1.00  0.00    -0.276 OA 
HETATM   27  H   UNL     1     -10.817  13.267  71.096  1.00  0.00     0.000 HD 
BRANCH  25  28
HETATM   28  C   UNL     1     -12.260  14.827  68.438  1.00  0.00    -0.098 C  
BRANCH  28  29
HETATM   29  C   UNL     1     -11.771  14.320  67.098  1.00  0.00    -0.430 A  
HETATM   30  C   UNL     1     -10.832  15.023  66.311  1.00  0.00    -0.333 A  
HETATM   31  C   UNL     1     -10.433  14.461  65.081  1.00  0.00    -0.437 A  
HETATM   32  C   UNL     1     -12.253  13.075  66.640  1.00  0.00    -0.285 A  
HETATM   33  C   UNL     1     -10.918  13.228  64.648  1.00  0.00    -0.384 A  
HETATM   34  C   UNL     1     -11.835  12.536  65.425  1.00  0.00    -0.479 A  
BRANCH  30  35
HETATM   35  C   UNL     1     -10.291  16.384  66.708  1.00  0.00    -0.293 C  
HETATM   36  N   UNL     1      -8.975  16.308  67.345  1.00  0.00    -0.186 NA 
HETATM   37  H1  UNL     1      -8.611  17.223  67.612  1.00  0.00     0.000 HD 
HETATM   38  H2  UNL     1      -8.311  15.809  66.752  1.00  0.00     0.000 HD 
ENDBRANCH  30  35
ENDBRANCH  28  29
ENDBRANCH  25  28
ENDBRANCH  10  24
TORSDOF 8
ENDMDL
MODEL      117
REMARK 921   NORMALIZED FREE ENERGY PREDICTED BY IDOCK:   -6.29 KCAL/MOL
REMARK 922        TOTAL FREE ENERGY PREDICTED BY IDOCK:  -10.05 KCAL/MOL
REMARK 923 INTER-LIGAND FREE ENERGY PREDICTED BY IDOCK:   -8.90 KCAL/MOL
REMARK 924 INTRA-LIGAND FREE ENERGY PREDICTED BY IDOCK:   -1.15 KCAL/MOL
REMARK 927      BINDING AFFINITY PREDICTED BY RF-SCORE:    0.00 PKD
ROOT
HETATM    1  C   UNL     1     -10.638  10.862  67.474  1.00  0.00    -0.230 C  
HETATM    2  S   UNL     1      -9.442  11.553  68.635  1.00  0.00    -0.090 SA 
HETATM    3  C   UNL     1      -9.956  13.262  68.353  1.00  0.00    -0.226 C  
HETATM    4  C   UNL     1     -10.159  13.643  66.891  1.00  0.00    -0.260 C  
HETATM    5  O   UNL     1     -10.071  12.347  63.476  1.00  0.00    -0.393 OA 
HETATM    6  CA  UNL     1     -10.301  12.740  65.876  1.00  0.00    -0.283 C  
HETATM    7  N   UNL     1     -10.353  11.404  66.162  1.00  0.00    -0.241 N  
HETATM    8  O   UNL     1      -9.943   9.979  64.378  1.00  0.00    -0.265 OA 
HETATM    9  C   UNL     1     -10.411  13.216  64.443  1.00  0.00    -0.407 C  
HETATM   10  CA  UNL     1     -10.327   9.450  66.878  1.00  0.00    -0.238 C  
HETATM   11  OXT UNL     1     -10.800  14.333  64.144  1.00  0.00    -0.101 OA 
HETATM   12  C   UNL     1     -10.193  10.225  65.535  1.00  0.00    -0.238 C  
ENDROOT
BRANCH   4  13
HETATM   13  C   UNL     1     -10.037  15.155  66.701  1.00  0.00    -0.264 C  
BRANCH  13  14
HETATM   14  S   UNL     1      -9.052  15.918  68.038  1.00  0.00    -0.184 SA 
BRANCH  14  15
HETATM   15  C   UNL     1      -7.834  16.698  67.088  1.00  0.00    -0.179 A  
HETATM   16  N   UNL     1      -6.612  16.256  66.897  1.00  0.00    -0.273 NA 
HETATM   17  N   UNL     1      -7.986  17.870  66.395  1.00  0.00    -0.300 NA 
HETATM   18  N   UNL     1      -6.012  17.147  66.045  1.00  0.00    -0.178 NA 
HETATM   19  N   UNL     1      -6.849  18.114  65.704  1.00  0.00    -0.458 NA 
BRANCH  17  20
HETATM   20  C   UNL     1      -9.152  18.704  66.210  1.00  0.00    -0.228 C  
HETATM   21  O   UNL     1      -8.891  19.666  68.453  1.00  0.00    -0.340 OA 
HETATM   22  C   UNL     1      -9.736  19.327  67.458  1.00  0.00    -0.323 C  
HETATM   23  O   UNL     1     -10.928  19.605  67.534  1.00  0.00    -0.419 OA 
ENDBRANCH  17  20
ENDBRANCH  14  15
ENDBRANCH  13  14
ENDBRANCH   4  13
BRANCH  10  24
HETATM   24  N   UNL     1      -9.111   8.742  67.342  1.00  0.00    -0.132 N  
HETATM   25  C   UNL     1      -9.068   7.635  68.145  1.00  0.00    -0.132 C  
HETATM   26  O   UNL     1      -7.975   7.197  68.502  1.00  0.00    -0.119 OA 
HETATM   27  H   UNL     1      -8.215   9.118  67.031  1.00  0.00     0.000 HD 
BRANCH  25  28
HETATM   28  C   UNL     1     -10.378   6.996  68.579  1.00  0.00    -0.204 C  
BRANCH  28  29
HETATM   29  C   UNL     1     -10.743   7.234  70.029  1.00  0.00    -0.261 A  
HETATM   30  C   UNL     1     -10.710   6.212  71.003  1.00  0.00    -0.317 A  
HETATM   31  C   UNL     1     -11.059   6.538  72.330  1.00  0.00    -0.297 A  
HETATM   32  C   UNL     1     -11.096   8.543  70.422  1.00  0.00    -0.246 A  
HETATM   33  C   UNL     1     -11.400   7.838  72.699  1.00  0.00    -0.449 A  
HETATM   34  C   UNL     1     -11.426   8.842  71.742  1.00  0.00    -0.413 A  
BRANCH  30  35
HETATM   35  C   UNL     1     -10.379   4.771  70.662  1.00  0.00    -0.114 C  
HETATM   36  N   UNL     1      -9.054   4.619  70.061  1.00  0.00    -0.099 NA 
HETATM   37  H1  UNL     1      -8.831   3.650  69.831  1.00  0.00     0.000 HD 
HETATM   38  H2  UNL     1      -8.334   5.029  70.657  1.00  0.00     0.000 HD 
ENDBRANCH  30  35
ENDBRANCH  28  29
ENDBRANCH  25  28
ENDBRANCH  10  24
TORSDOF 8
ENDMDL
MODEL      118
REMARK 921   NORMALIZED FREE ENERGY PREDICTED BY IDOCK:   -6.28 KCAL/MOL
REMARK 922        TOTAL FREE ENERGY PREDICTED BY IDOCK:  -10.04 KCAL/MOL
REMARK 923 INTER-LIGAND FREE ENERGY PREDICTED BY IDOCK:   -8.70 KCAL/MOL
REMARK 924 INTRA-LIGAND FREE ENERGY PREDICTED BY IDOCK:   -1.34 KCAL/MOL
REMARK 927      BINDING AFFINITY PREDICTED BY RF-SCORE:    0.00 PKD
ROOT
HETATM    1  C   UNL     1      -8.702   8.388  67.966  1.00  0.00    -0.139 C  
HETATM    2  S   UNL     1      -8.585   9.015  69.654  1.00  0.00    -0.146 SA 
HETATM    3  C   UNL     1      -7.328   7.818  70.153  1.00  0.00    -0.071 C  
HETATM    4  C   UNL     1      -7.591   6.383  69.712  1.00  0.00    -0.093 C  
HETATM    5  O   UNL     1      -9.903   4.259  67.844  1.00  0.00    -0.140 OA 
HETATM    6  CA  UNL     1      -8.479   6.031  68.735  1.00  0.00    -0.113 C  
HETATM    7  N   UNL     1      -9.130   7.005  68.031  1.00  0.00    -0.128 N  
HETATM    8  O   UNL     1     -11.034   6.323  66.897  1.00  0.00    -0.358 OA 
HETATM    9  C   UNL     1      -8.734   4.571  68.426  1.00  0.00    -0.099 C  
HETATM   10  CA  UNL     1     -10.022   8.683  67.179  1.00  0.00    -0.231 C  
HETATM   11  OXT UNL     1      -7.926   3.691  68.675  1.00  0.00    -0.065 OA 
HETATM   12  C   UNL     1     -10.220   7.141  67.255  1.00  0.00    -0.245 C  
ENDROOT
BRANCH   4  13
HETATM   13  C   UNL     1      -6.839   5.394  70.602  1.00  0.00    -0.048 C  
BRANCH  13  14
HETATM   14  S   UNL     1      -7.950   4.633  71.839  1.00  0.00    -0.102 SA 
BRANCH  14  15
HETATM   15  C   UNL     1      -8.291   6.022  72.812  1.00  0.00    -0.118 A  
HETATM   16  N   UNL     1      -7.405   6.892  73.242  1.00  0.00    -0.075 NA 
HETATM   17  N   UNL     1      -9.529   6.409  73.250  1.00  0.00    -0.138 NA 
HETATM   18  N   UNL     1      -8.110   7.850  73.923  1.00  0.00    -0.195 NA 
HETATM   19  N   UNL     1      -9.407   7.586  73.905  1.00  0.00    -0.267 NA 
BRANCH  17  20
HETATM   20  C   UNL     1     -10.835   5.848  72.985  1.00  0.00    -0.267 C  
HETATM   21  O   UNL     1     -11.030   7.138  70.905  1.00  0.00    -0.239 OA 
HETATM   22  C   UNL     1     -11.669   6.555  71.940  1.00  0.00    -0.324 C  
HETATM   23  O   UNL     1     -12.895   6.526  71.976  1.00  0.00    -0.276 OA 
ENDBRANCH  17  20
ENDBRANCH  14  15
ENDBRANCH  13  14
ENDBRANCH   4  13
BRANCH  10  24
HETATM   24  N   UNL     1     -11.065   9.503  67.837  1.00  0.00    -0.515 N  
HETATM   25  C   UNL     1     -11.262  10.850  67.683  1.00  0.00    -0.309 C  
HETATM   26  O   UNL     1     -12.132  11.407  68.352  1.00  0.00    -0.575 OA 
HETATM   27  H   UNL     1     -11.700   9.017  68.469  1.00  0.00     0.000 HD 
BRANCH  25  28
HETATM   28  C   UNL     1     -10.384  11.608  66.700  1.00  0.00    -0.257 C  
BRANCH  28  29
HETATM   29  C   UNL     1     -11.141  12.301  65.587  1.00  0.00    -0.357 A  
HETATM   30  C   UNL     1     -11.444  13.680  65.612  1.00  0.00    -0.320 A  
HETATM   31  C   UNL     1     -12.146  14.232  64.521  1.00  0.00    -0.499 A  
HETATM   32  C   UNL     1     -11.526  11.535  64.465  1.00  0.00    -0.204 A  
HETATM   33  C   UNL     1     -12.513  13.460  63.420  1.00  0.00    -0.229 A  
HETATM   34  C   UNL     1     -12.209  12.108  63.394  1.00  0.00    -0.635 A  
BRANCH  30  35
HETATM   35  C   UNL     1     -11.102  14.569  66.793  1.00  0.00    -0.325 C  
HETATM   36  N   UNL     1     -12.104  14.510  67.857  1.00  0.00    -0.596 NA 
HETATM   37  H1  UNL     1     -11.874  15.108  68.652  1.00  0.00     0.000 HD 
HETATM   38  H2  UNL     1     -12.261  13.547  68.158  1.00  0.00     0.000 HD 
ENDBRANCH  30  35
ENDBRANCH  28  29
ENDBRANCH  25  28
ENDBRANCH  10  24
TORSDOF 8
ENDMDL
MODEL      119
REMARK 921   NORMALIZED FREE ENERGY PREDICTED BY IDOCK:   -6.27 KCAL/MOL
REMARK 922        TOTAL FREE ENERGY PREDICTED BY IDOCK:  -10.02 KCAL/MOL
REMARK 923 INTER-LIGAND FREE ENERGY PREDICTED BY IDOCK:   -8.96 KCAL/MOL
REMARK 924 INTRA-LIGAND FREE ENERGY PREDICTED BY IDOCK:   -1.06 KCAL/MOL
REMARK 927      BINDING AFFINITY PREDICTED BY RF-SCORE:    0.00 PKD
ROOT
HETATM    1  C   UNL     1      -8.964   9.818  65.938  1.00  0.00    -0.156 C  
HETATM    2  S   UNL     1     -10.516   9.462  66.788  1.00  0.00    -0.148 SA 
HETATM    3  C   UNL     1      -9.740   8.428  68.051  1.00  0.00    -0.158 C  
HETATM    4  C   UNL     1      -8.717   7.427  67.527  1.00  0.00    -0.124 C  
HETATM    5  O   UNL     1      -7.038   6.249  64.503  1.00  0.00    -0.052 OA 
HETATM    6  CA  UNL     1      -8.138   7.497  66.291  1.00  0.00    -0.113 C  
HETATM    7  N   UNL     1      -8.407   8.562  65.478  1.00  0.00    -0.147 N  
HETATM    8  O   UNL     1      -7.916   8.261  63.232  1.00  0.00    -0.150 OA 
HETATM    9  C   UNL     1      -7.196   6.406  65.828  1.00  0.00    -0.078 C  
HETATM   10  CA  UNL     1      -9.050  10.246  64.436  1.00  0.00    -0.239 C  
HETATM   11  OXT UNL     1      -6.583   5.689  66.601  1.00  0.00    -0.052 OA 
HETATM   12  C   UNL     1      -8.325   8.893  64.177  1.00  0.00    -0.163 C  
ENDROOT
BRANCH   4  13
HETATM   13  C   UNL     1      -8.538   6.268  68.507  1.00  0.00    -0.114 C  
BRANCH  13  14
HETATM   14  S   UNL     1     -10.109   5.370  68.772  1.00  0.00    -0.180 SA 
BRANCH  14  15
HETATM   15  C   UNL     1      -9.881   4.871  70.413  1.00  0.00    -0.232 A  
HETATM   16  N   UNL     1      -9.550   3.662  70.807  1.00  0.00    -0.172 NA 
HETATM   17  N   UNL     1      -9.999   5.672  71.518  1.00  0.00    -0.175 NA 
HETATM   18  N   UNL     1      -9.425   3.726  72.171  1.00  0.00    -0.125 NA 
HETATM   19  N   UNL     1      -9.661   4.951  72.612  1.00  0.00    -0.148 NA 
BRANCH  17  20
HETATM   20  C   UNL     1     -10.260   7.090  71.624  1.00  0.00    -0.194 C  
HETATM   21  O   UNL     1     -12.668   6.686  71.873  1.00  0.00    -0.345 OA 
HETATM   22  C   UNL     1     -11.698   7.522  71.449  1.00  0.00    -0.283 C  
HETATM   23  O   UNL     1     -11.982   8.635  71.020  1.00  0.00    -0.290 OA 
ENDBRANCH  17  20
ENDBRANCH  14  15
ENDBRANCH  13  14
ENDBRANCH   4  13
BRANCH  10  24
HETATM   24  N   UNL     1     -10.390  10.391  63.821  1.00  0.00    -0.450 N  
HETATM   25  C   UNL     1     -11.095  11.554  63.666  1.00  0.00    -0.385 C  
HETATM   26  O   UNL     1     -12.231  11.506  63.195  1.00  0.00    -0.273 OA 
HETATM   27  H   UNL     1     -10.832   9.538  63.478  1.00  0.00     0.000 HD 
BRANCH  25  28
HETATM   28  C   UNL     1     -10.451  12.862  64.099  1.00  0.00    -0.429 C  
BRANCH  28  29
HETATM   29  C   UNL     1     -10.960  13.407  65.416  1.00  0.00    -0.297 A  
HETATM   30  C   UNL     1     -10.983  14.788  65.713  1.00  0.00    -0.334 A  
HETATM   31  C   UNL     1     -11.486  15.195  66.966  1.00  0.00    -0.230 A  
HETATM   32  C   UNL     1     -11.463  12.493  66.367  1.00  0.00    -0.418 A  
HETATM   33  C   UNL     1     -11.982  14.277  67.890  1.00  0.00    -0.364 A  
HETATM   34  C   UNL     1     -11.965  12.923  67.593  1.00  0.00    -0.344 A  
BRANCH  30  35
HETATM   35  C   UNL     1     -10.428  15.836  64.766  1.00  0.00    -0.019 C  
HETATM   36  N   UNL     1     -11.476  16.583  64.070  1.00  0.00    -1.581 NA 
HETATM   37  H1  UNL     1     -11.103  17.288  63.433  1.00  0.00     0.000 HD 
HETATM   38  H2  UNL     1     -12.129  17.000  64.733  1.00  0.00     0.000 HD 
ENDBRANCH  30  35
ENDBRANCH  28  29
ENDBRANCH  25  28
ENDBRANCH  10  24
TORSDOF 8
ENDMDL
MODEL      120
REMARK 921   NORMALIZED FREE ENERGY PREDICTED BY IDOCK:   -6.26 KCAL/MOL
REMARK 922        TOTAL FREE ENERGY PREDICTED BY IDOCK:  -10.01 KCAL/MOL
REMARK 923 INTER-LIGAND FREE ENERGY PREDICTED BY IDOCK:   -8.64 KCAL/MOL
REMARK 924 INTRA-LIGAND FREE ENERGY PREDICTED BY IDOCK:   -1.37 KCAL/MOL
REMARK 927      BINDING AFFINITY PREDICTED BY RF-SCORE:    0.00 PKD
ROOT
HETATM    1  C   UNL     1     -10.845  12.664  66.826  1.00  0.00    -0.250 C  
HETATM    2  S   UNL     1     -12.225  13.799  67.078  1.00  0.00    -0.257 SA 
HETATM    3  C   UNL     1     -11.483  15.127  66.103  1.00  0.00    -0.157 C  
HETATM    4  C   UNL     1     -10.007  15.385  66.381  1.00  0.00    -0.295 C  
HETATM    5  O   UNL     1      -7.141  14.245  68.340  1.00  0.00    -0.089 OA 
HETATM    6  CA  UNL     1      -9.183  14.506  67.025  1.00  0.00    -0.240 C  
HETATM    7  N   UNL     1      -9.656  13.275  67.384  1.00  0.00    -0.217 N  
HETATM    8  O   UNL     1      -8.423  12.157  68.999  1.00  0.00     0.136 OA 
HETATM    9  C   UNL     1      -7.750  14.888  67.330  1.00  0.00    -0.204 C  
HETATM   10  CA  UNL     1     -10.659  11.517  67.873  1.00  0.00    -0.191 C  
HETATM   11  OXT UNL     1      -7.141  15.735  66.696  1.00  0.00    -0.177 OA 
HETATM   12  C   UNL     1      -9.346  12.274  68.228  1.00  0.00    -0.199 C  
ENDROOT
BRANCH   4  13
HETATM   13  C   UNL     1      -9.616  16.805  65.973  1.00  0.00    -0.234 C  
BRANCH  13  14
HETATM   14  S   UNL     1     -10.267  18.041  67.152  1.00  0.00    -0.375 SA 
BRANCH  14  15
HETATM   15  C   UNL     1      -8.797  18.469  67.960  1.00  0.00    -0.298 A  
HETATM   16  N   UNL     1      -8.310  17.877  69.027  1.00  0.00    -0.105 NA 
HETATM   17  N   UNL     1      -7.939  19.468  67.586  1.00  0.00    -0.278 NA 
HETATM   18  N   UNL     1      -7.116  18.495  69.294  1.00  0.00    -0.208 NA 
HETATM   19  N   UNL     1      -6.862  19.441  68.404  1.00  0.00    -0.271 NA 
BRANCH  17  20
HETATM   20  C   UNL     1      -7.970  20.352  66.442  1.00  0.00    -0.124 C  
HETATM   21  O   UNL     1      -6.684  18.751  65.098  1.00  0.00    -0.496 OA 
HETATM   22  C   UNL     1      -6.995  20.043  65.329  1.00  0.00    -0.267 C  
HETATM   23  O   UNL     1      -6.565  20.926  64.594  1.00  0.00    -0.264 OA 
ENDBRANCH  17  20
ENDBRANCH  14  15
ENDBRANCH  13  14
ENDBRANCH   4  13
BRANCH  10  24
HETATM   24  N   UNL     1     -11.651  11.393  68.966  1.00  0.00    -0.286 N  
HETATM   25  C   UNL     1     -11.560  10.576  70.061  1.00  0.00    -0.313 C  
HETATM   26  O   UNL     1     -12.500  10.533  70.854  1.00  0.00    -0.325 OA 
HETATM   27  H   UNL     1     -12.485  11.976  68.897  1.00  0.00     0.000 HD 
BRANCH  25  28
HETATM   28  C   UNL     1     -10.305   9.738  70.245  1.00  0.00    -0.348 C  
BRANCH  28  29
HETATM   29  C   UNL     1     -10.470   8.274  69.897  1.00  0.00    -0.223 A  
HETATM   30  C   UNL     1     -10.945   7.318  70.823  1.00  0.00    -0.273 A  
HETATM   31  C   UNL     1     -11.072   5.980  70.397  1.00  0.00    -0.399 A  
HETATM   32  C   UNL     1     -10.168   7.862  68.581  1.00  0.00    -0.223 A  
HETATM   33  C   UNL     1     -10.773   5.594  69.092  1.00  0.00    -0.325 A  
HETATM   34  C   UNL     1     -10.313   6.535  68.183  1.00  0.00    -0.223 A  
BRANCH  30  35
HETATM   35  C   UNL     1     -11.257   7.665  72.266  1.00  0.00    -0.293 C  
HETATM   36  N   UNL     1     -11.814   6.537  73.014  1.00  0.00    -0.349 NA 
HETATM   37  H1  UNL     1     -12.023   6.770  73.985  1.00  0.00     0.000 HD 
HETATM   38  H2  UNL     1     -11.200   5.723  72.958  1.00  0.00     0.000 HD 
ENDBRANCH  30  35
ENDBRANCH  28  29
ENDBRANCH  25  28
ENDBRANCH  10  24
TORSDOF 8
ENDMDL
MODEL      121
REMARK 921   NORMALIZED FREE ENERGY PREDICTED BY IDOCK:   -6.26 KCAL/MOL
REMARK 922        TOTAL FREE ENERGY PREDICTED BY IDOCK:  -10.01 KCAL/MOL
REMARK 923 INTER-LIGAND FREE ENERGY PREDICTED BY IDOCK:   -8.81 KCAL/MOL
REMARK 924 INTRA-LIGAND FREE ENERGY PREDICTED BY IDOCK:   -1.20 KCAL/MOL
REMARK 927      BINDING AFFINITY PREDICTED BY RF-SCORE:    0.00 PKD
ROOT
HETATM    1  C   UNL     1     -11.121  14.268  66.892  1.00  0.00    -0.312 C  
HETATM    2  S   UNL     1     -10.165  12.778  66.540  1.00  0.00    -0.258 SA 
HETATM    3  C   UNL     1     -11.287  11.685  67.441  1.00  0.00    -0.300 C  
HETATM    4  C   UNL     1     -11.736  12.200  68.803  1.00  0.00    -0.374 C  
HETATM    5  O   UNL     1     -11.470  15.018  71.114  1.00  0.00    -0.317 OA 
HETATM    6  CA  UNL     1     -11.625  13.501  69.206  1.00  0.00    -0.316 C  
HETATM    7  N   UNL     1     -11.163  14.443  68.330  1.00  0.00    -0.263 N  
HETATM    8  O   UNL     1     -10.415  16.421  69.282  1.00  0.00    -0.262 OA 
HETATM    9  C   UNL     1     -12.020  13.900  70.612  1.00  0.00    -0.292 C  
HETATM   10  CA  UNL     1     -10.370  15.638  66.820  1.00  0.00    -0.287 C  
HETATM   11  OXT UNL     1     -12.811  13.259  71.284  1.00  0.00    -0.353 OA 
HETATM   12  C   UNL     1     -10.640  15.682  68.353  1.00  0.00    -0.252 C  
ENDROOT
BRANCH   4  13
HETATM   13  C   UNL     1     -12.188  11.048  69.699  1.00  0.00    -0.300 C  
BRANCH  13  14
HETATM   14  S   UNL     1     -10.768  10.041  70.259  1.00  0.00    -0.302 SA 
BRANCH  14  15
HETATM   15  C   UNL     1     -11.619   8.745  71.026  1.00  0.00    -0.288 A  
HETATM   16  N   UNL     1     -12.920   8.679  71.198  1.00  0.00    -0.147 NA 
HETATM   17  N   UNL     1     -11.054   7.608  71.539  1.00  0.00    -0.234 NA 
HETATM   18  N   UNL     1     -13.166   7.469  71.793  1.00  0.00    -0.337 NA 
HETATM   19  N   UNL     1     -12.042   6.792  71.974  1.00  0.00    -0.319 NA 
BRANCH  17  20
HETATM   20  C   UNL     1      -9.681   7.156  71.527  1.00  0.00    -0.164 C  
HETATM   21  O   UNL     1      -9.340   7.950  73.825  1.00  0.00    -0.280 OA 
HETATM   22  C   UNL     1      -8.787   7.697  72.620  1.00  0.00    -0.149 C  
HETATM   23  O   UNL     1      -7.578   7.819  72.454  1.00  0.00    -0.078 OA 
ENDBRANCH  17  20
ENDBRANCH  14  15
ENDBRANCH  13  14
ENDBRANCH   4  13
BRANCH  10  24
HETATM   24  N   UNL     1      -8.945  15.639  66.413  1.00  0.00    -0.302 N  
HETATM   25  C   UNL     1      -8.143  16.737  66.256  1.00  0.00    -0.330 C  
HETATM   26  O   UNL     1      -6.993  16.583  65.846  1.00  0.00     0.268 OA 
HETATM   27  H   UNL     1      -8.519  14.730  66.233  1.00  0.00     0.000 HD 
BRANCH  25  28
HETATM   28  C   UNL     1      -8.712  18.110  66.579  1.00  0.00    -0.286 C  
BRANCH  28  29
HETATM   29  C   UNL     1      -7.684  19.125  67.031  1.00  0.00    -0.259 A  
HETATM   30  C   UNL     1      -7.092  19.093  68.314  1.00  0.00    -0.305 A  
HETATM   31  C   UNL     1      -6.137  20.078  68.636  1.00  0.00    -0.312 A  
HETATM   32  C   UNL     1      -7.280  20.120  66.115  1.00  0.00    -0.313 A  
HETATM   33  C   UNL     1      -5.748  21.051  67.716  1.00  0.00    -0.372 A  
HETATM   34  C   UNL     1      -6.326  21.076  66.455  1.00  0.00    -0.338 A  
BRANCH  30  35
HETATM   35  C   UNL     1      -7.494  18.082  69.373  1.00  0.00     0.150 C  
HETATM   36  N   UNL     1      -6.606  16.920  69.414  1.00  0.00    -0.232 NA 
HETATM   37  H1  UNL     1      -6.876  16.240  70.126  1.00  0.00     0.000 HD 
HETATM   38  H2  UNL     1      -5.634  17.207  69.533  1.00  0.00     0.000 HD 
ENDBRANCH  30  35
ENDBRANCH  28  29
ENDBRANCH  25  28
ENDBRANCH  10  24
TORSDOF 8
ENDMDL
MODEL      122
REMARK 921   NORMALIZED FREE ENERGY PREDICTED BY IDOCK:   -6.25 KCAL/MOL
REMARK 922        TOTAL FREE ENERGY PREDICTED BY IDOCK:  -10.00 KCAL/MOL
REMARK 923 INTER-LIGAND FREE ENERGY PREDICTED BY IDOCK:   -9.90 KCAL/MOL
REMARK 924 INTRA-LIGAND FREE ENERGY PREDICTED BY IDOCK:   -0.10 KCAL/MOL
REMARK 927      BINDING AFFINITY PREDICTED BY RF-SCORE:    0.00 PKD
ROOT
HETATM    1  C   UNL     1      -8.986  14.759  66.715  1.00  0.00    -0.266 C  
HETATM    2  S   UNL     1      -8.173  14.023  68.148  1.00  0.00    -0.166 SA 
HETATM    3  C   UNL     1      -7.852  12.448  67.323  1.00  0.00    -0.166 C  
HETATM    4  C   UNL     1      -9.024  11.884  66.529  1.00  0.00    -0.199 C  
HETATM    5  O   UNL     1     -12.469  12.542  65.504  1.00  0.00    -0.646 OA 
HETATM    6  CA  UNL     1     -10.113  12.614  66.145  1.00  0.00    -0.257 C  
HETATM    7  N   UNL     1     -10.150  13.957  66.400  1.00  0.00    -0.287 N  
HETATM    8  O   UNL     1     -12.249  14.939  66.306  1.00  0.00    -0.104 OA 
HETATM    9  C   UNL     1     -11.269  11.944  65.433  1.00  0.00    -0.295 C  
HETATM   10  CA  UNL     1      -9.967  15.949  66.978  1.00  0.00    -0.247 C  
HETATM   11  OXT UNL     1     -11.145  10.906  64.803  1.00  0.00    -0.095 OA 
HETATM   12  C   UNL     1     -11.053  14.951  66.479  1.00  0.00    -0.341 C  
ENDROOT
BRANCH   4  13
HETATM   13  C   UNL     1      -8.883  10.373  66.349  1.00  0.00    -0.147 C  
BRANCH  13  14
HETATM   14  S   UNL     1      -7.768   9.652  67.607  1.00  0.00    -0.094 SA 
BRANCH  14  15
HETATM   15  C   UNL     1      -8.940   9.167  68.785  1.00  0.00    -0.136 A  
HETATM   16  N   UNL     1      -9.046   9.648  70.002  1.00  0.00    -0.225 NA 
HETATM   17  N   UNL     1      -9.922   8.230  68.599  1.00  0.00    -0.185 NA 
HETATM   18  N   UNL     1     -10.132   9.027  70.564  1.00  0.00    -0.200 NA 
HETATM   19  N   UNL     1     -10.694   8.188  69.709  1.00  0.00    -0.245 NA 
BRANCH  17  20
HETATM   20  C   UNL     1     -10.287   7.476  67.421  1.00  0.00    -0.276 C  
HETATM   21  O   UNL     1      -8.598   5.766  67.923  1.00  0.00    -0.104 OA 
HETATM   22  C   UNL     1      -9.308   6.413  66.975  1.00  0.00    -0.131 C  
HETATM   23  O   UNL     1      -9.222   6.078  65.799  1.00  0.00    -0.120 OA 
ENDBRANCH  17  20
ENDBRANCH  14  15
ENDBRANCH  13  14
ENDBRANCH   4  13
BRANCH  10  24
HETATM   24  N   UNL     1     -10.125  16.436  68.368  1.00  0.00    -0.237 N  
HETATM   25  C   UNL     1     -11.050  16.007  69.282  1.00  0.00    -0.331 C  
HETATM   26  O   UNL     1     -11.102  16.558  70.382  1.00  0.00    -0.333 OA 
HETATM   27  H   UNL     1      -9.480  17.165  68.674  1.00  0.00     0.000 HD 
BRANCH  25  28
HETATM   28  C   UNL     1     -11.989  14.875  68.896  1.00  0.00    -0.295 C  
BRANCH  28  29
HETATM   29  C   UNL     1     -12.532  14.083  70.066  1.00  0.00    -0.339 A  
HETATM   30  C   UNL     1     -12.246  12.713  70.259  1.00  0.00    -0.347 A  
HETATM   31  C   UNL     1     -12.792  12.067  71.386  1.00  0.00    -0.391 A  
HETATM   32  C   UNL     1     -13.327  14.757  71.017  1.00  0.00    -0.427 A  
HETATM   33  C   UNL     1     -13.572  12.752  72.317  1.00  0.00    -0.563 A  
HETATM   34  C   UNL     1     -13.847  14.098  72.129  1.00  0.00    -0.613 A  
BRANCH  30  35
HETATM   35  C   UNL     1     -11.432  11.902  69.268  1.00  0.00    -0.306 C  
HETATM   36  N   UNL     1     -12.136  10.708  68.797  1.00  0.00    -0.790 NA 
HETATM   37  H1  UNL     1     -11.589  10.163  68.130  1.00  0.00     0.000 HD 
HETATM   38  H2  UNL     1     -13.048  10.952  68.409  1.00  0.00     0.000 HD 
ENDBRANCH  30  35
ENDBRANCH  28  29
ENDBRANCH  25  28
ENDBRANCH  10  24
TORSDOF 8
ENDMDL
MODEL      123
REMARK 921   NORMALIZED FREE ENERGY PREDICTED BY IDOCK:   -6.24 KCAL/MOL
REMARK 922        TOTAL FREE ENERGY PREDICTED BY IDOCK:   -9.99 KCAL/MOL
REMARK 923 INTER-LIGAND FREE ENERGY PREDICTED BY IDOCK:   -8.83 KCAL/MOL
REMARK 924 INTRA-LIGAND FREE ENERGY PREDICTED BY IDOCK:   -1.15 KCAL/MOL
REMARK 927      BINDING AFFINITY PREDICTED BY RF-SCORE:    0.00 PKD
ROOT
HETATM    1  C   UNL     1      -8.039  11.408  68.798  1.00  0.00    -0.112 C  
HETATM    2  S   UNL     1      -7.090  11.917  67.350  1.00  0.00    -0.140 SA 
HETATM    3  C   UNL     1      -7.733  13.605  67.357  1.00  0.00    -0.143 C  
HETATM    4  C   UNL     1      -9.238  13.722  67.568  1.00  0.00    -0.216 C  
HETATM    5  O   UNL     1     -12.280  11.793  68.181  1.00  0.00    -0.507 OA 
HETATM    6  CA  UNL     1     -10.023  12.720  68.064  1.00  0.00    -0.225 C  
HETATM    7  N   UNL     1      -9.446  11.555  68.485  1.00  0.00    -0.187 N  
HETATM    8  O   UNL     1     -10.876   9.740  68.681  1.00  0.00    -0.222 OA 
HETATM    9  C   UNL     1     -11.523  12.902  68.158  1.00  0.00    -0.315 C  
HETATM   10  CA  UNL     1      -8.313   9.879  68.977  1.00  0.00    -0.130 C  
HETATM   11  OXT UNL     1     -12.054  14.000  68.221  1.00  0.00    -0.355 OA 
HETATM   12  C   UNL     1      -9.798  10.282  68.741  1.00  0.00    -0.180 C  
ENDROOT
BRANCH   4  13
HETATM   13  C   UNL     1      -9.763  15.049  67.020  1.00  0.00    -0.236 C  
BRANCH  13  14
HETATM   14  S   UNL     1      -8.533  16.387  67.220  1.00  0.00    -0.184 SA 
BRANCH  14  15
HETATM   15  C   UNL     1      -9.476  17.728  66.666  1.00  0.00    -0.292 A  
HETATM   16  N   UNL     1     -10.202  17.753  65.572  1.00  0.00    -0.567 NA 
HETATM   17  N   UNL     1      -9.604  18.935  67.302  1.00  0.00    -0.302 NA 
HETATM   18  N   UNL     1     -10.817  18.978  65.550  1.00  0.00    -0.468 NA 
HETATM   19  N   UNL     1     -10.488  19.693  66.615  1.00  0.00    -0.465 NA 
BRANCH  17  20
HETATM   20  C   UNL     1      -9.082  19.384  68.572  1.00  0.00    -0.375 C  
HETATM   21  O   UNL     1      -7.263  20.601  67.459  1.00  0.00    -0.315 OA 
HETATM   22  C   UNL     1      -7.675  19.940  68.560  1.00  0.00    -0.229 C  
HETATM   23  O   UNL     1      -6.956  19.877  69.552  1.00  0.00    -0.325 OA 
ENDBRANCH  17  20
ENDBRANCH  14  15
ENDBRANCH  13  14
ENDBRANCH   4  13
BRANCH  10  24
HETATM   24  N   UNL     1      -7.732   8.940  67.990  1.00  0.00    -0.100 N  
HETATM   25  C   UNL     1      -7.302   7.663  68.234  1.00  0.00    -0.099 C  
HETATM   26  O   UNL     1      -6.777   7.024  67.322  1.00  0.00    -0.062 OA 
HETATM   27  H   UNL     1      -7.644   9.278  67.032  1.00  0.00     0.000 HD 
BRANCH  25  28
HETATM   28  C   UNL     1      -7.474   7.088  69.631  1.00  0.00    -0.098 C  
BRANCH  28  29
HETATM   29  C   UNL     1      -8.907   6.780  70.011  1.00  0.00    -0.142 A  
HETATM   30  C   UNL     1      -9.387   6.888  71.335  1.00  0.00    -0.156 A  
HETATM   31  C   UNL     1     -10.741   6.587  71.584  1.00  0.00    -0.267 A  
HETATM   32  C   UNL     1      -9.802   6.402  68.987  1.00  0.00    -0.155 A  
HETATM   33  C   UNL     1     -11.611   6.220  70.558  1.00  0.00    -0.357 A  
HETATM   34  C   UNL     1     -11.139   6.120  69.258  1.00  0.00    -0.463 A  
BRANCH  30  35
HETATM   35  C   UNL     1      -8.486   7.250  72.502  1.00  0.00    -0.108 C  
HETATM   36  N   UNL     1      -8.876   8.501  73.153  1.00  0.00    -0.337 NA 
HETATM   37  H1  UNL     1      -8.270   8.745  73.937  1.00  0.00     0.000 HD 
HETATM   38  H2  UNL     1      -9.854   8.474  73.441  1.00  0.00     0.000 HD 
ENDBRANCH  30  35
ENDBRANCH  28  29
ENDBRANCH  25  28
ENDBRANCH  10  24
TORSDOF 8
ENDMDL
MODEL      124
REMARK 921   NORMALIZED FREE ENERGY PREDICTED BY IDOCK:   -6.24 KCAL/MOL
REMARK 922        TOTAL FREE ENERGY PREDICTED BY IDOCK:   -9.97 KCAL/MOL
REMARK 923 INTER-LIGAND FREE ENERGY PREDICTED BY IDOCK:   -9.20 KCAL/MOL
REMARK 924 INTRA-LIGAND FREE ENERGY PREDICTED BY IDOCK:   -0.78 KCAL/MOL
REMARK 927      BINDING AFFINITY PREDICTED BY RF-SCORE:    0.00 PKD
ROOT
HETATM    1  C   UNL     1     -10.632  11.884  68.432  1.00  0.00    -0.218 C  
HETATM    2  S   UNL     1      -9.094  11.027  68.827  1.00  0.00    -0.122 SA 
HETATM    3  C   UNL     1      -9.918   9.497  69.320  1.00  0.00    -0.187 C  
HETATM    4  C   UNL     1     -11.136   9.679  70.218  1.00  0.00    -0.327 C  
HETATM    5  O   UNL     1     -13.247  12.184  71.836  1.00  0.00    -0.478 OA 
HETATM    6  CA  UNL     1     -11.801  10.861  70.378  1.00  0.00    -0.357 C  
HETATM    7  N   UNL     1     -11.430  11.951  69.640  1.00  0.00    -0.284 N  
HETATM    8  O   UNL     1     -12.160  14.001  70.439  1.00  0.00    -0.313 OA 
HETATM    9  C   UNL     1     -12.949  10.964  71.359  1.00  0.00    -0.424 C  
HETATM   10  CA  UNL     1     -10.608  13.448  68.448  1.00  0.00    -0.248 C  
HETATM   11  OXT UNL     1     -13.603   9.997  71.715  1.00  0.00    -0.325 OA 
HETATM   12  C   UNL     1     -11.570  13.289  69.662  1.00  0.00    -0.261 C  
ENDROOT
BRANCH   4  13
HETATM   13  C   UNL     1     -11.418   8.407  71.016  1.00  0.00    -0.268 C  
BRANCH  13  14
HETATM   14  S   UNL     1     -10.399   7.008  70.426  1.00  0.00    -0.205 SA 
BRANCH  14  15
HETATM   15  C   UNL     1      -9.468   6.709  71.855  1.00  0.00    -0.150 A  
HETATM   16  N   UNL     1      -9.031   7.625  72.689  1.00  0.00    -0.142 NA 
HETATM   17  N   UNL     1      -9.078   5.479  72.314  1.00  0.00    -0.142 NA 
HETATM   18  N   UNL     1      -8.395   6.949  73.698  1.00  0.00    -0.118 NA 
HETATM   19  N   UNL     1      -8.446   5.641  73.499  1.00  0.00    -0.115 NA 
BRANCH  17  20
HETATM   20  C   UNL     1      -9.370   4.156  71.812  1.00  0.00    -0.135 C  
HETATM   21  O   UNL     1     -11.258   3.922  73.363  1.00  0.00    -0.237 OA 
HETATM   22  C   UNL     1     -10.287   3.304  72.661  1.00  0.00    -0.139 C  
HETATM   23  O   UNL     1     -10.215   2.080  72.646  1.00  0.00    -0.125 OA 
ENDBRANCH  17  20
ENDBRANCH  14  15
ENDBRANCH  13  14
ENDBRANCH   4  13
BRANCH  10  24
HETATM   24  N   UNL     1      -9.323  14.129  68.725  1.00  0.00    -0.354 N  
HETATM   25  C   UNL     1      -8.822  15.222  68.071  1.00  0.00    -0.169 C  
HETATM   26  O   UNL     1      -7.702  15.637  68.371  1.00  0.00    -0.121 OA 
HETATM   27  H   UNL     1      -8.754  13.746  69.480  1.00  0.00     0.000 HD 
BRANCH  25  28
HETATM   28  C   UNL     1      -9.663  15.873  66.984  1.00  0.00    -0.235 C  
BRANCH  28  29
HETATM   29  C   UNL     1      -9.669  17.386  67.015  1.00  0.00    -0.276 A  
HETATM   30  C   UNL     1      -8.630  18.166  66.458  1.00  0.00    -0.282 A  
HETATM   31  C   UNL     1      -8.734  19.570  66.530  1.00  0.00    -0.388 A  
HETATM   32  C   UNL     1     -10.779  18.038  67.595  1.00  0.00    -0.360 A  
HETATM   33  C   UNL     1      -9.841  20.194  67.104  1.00  0.00    -0.586 A  
HETATM   34  C   UNL     1     -10.862  19.427  67.644  1.00  0.00    -0.470 A  
BRANCH  30  35
HETATM   35  C   UNL     1      -7.385  17.549  65.850  1.00  0.00    -0.145 C  
HETATM   36  N   UNL     1      -6.577  18.517  65.106  1.00  0.00    -0.491 NA 
HETATM   37  H1  UNL     1      -5.739  18.103  64.696  1.00  0.00     0.000 HD 
HETATM   38  H2  UNL     1      -6.340  19.320  65.690  1.00  0.00     0.000 HD 
ENDBRANCH  30  35
ENDBRANCH  28  29
ENDBRANCH  25  28
ENDBRANCH  10  24
TORSDOF 8
ENDMDL
MODEL      125
REMARK 921   NORMALIZED FREE ENERGY PREDICTED BY IDOCK:   -6.23 KCAL/MOL
REMARK 922        TOTAL FREE ENERGY PREDICTED BY IDOCK:   -9.97 KCAL/MOL
REMARK 923 INTER-LIGAND FREE ENERGY PREDICTED BY IDOCK:   -8.65 KCAL/MOL
REMARK 924 INTRA-LIGAND FREE ENERGY PREDICTED BY IDOCK:   -1.32 KCAL/MOL
REMARK 927      BINDING AFFINITY PREDICTED BY RF-SCORE:    0.00 PKD
ROOT
HETATM    1  C   UNL     1     -10.035   8.264  71.151  1.00  0.00    -0.185 C  
HETATM    2  S   UNL     1     -10.091   7.408  69.564  1.00  0.00    -0.192 SA 
HETATM    3  C   UNL     1     -10.059   8.930  68.591  1.00  0.00    -0.188 C  
HETATM    4  C   UNL     1     -10.988  10.032  69.085  1.00  0.00    -0.256 C  
HETATM    5  O   UNL     1     -13.391  10.900  71.698  1.00  0.00    -0.363 OA 
HETATM    6  CA  UNL     1     -11.548  10.062  70.332  1.00  0.00    -0.302 C  
HETATM    7  N   UNL     1     -11.210   9.105  71.247  1.00  0.00    -0.306 N  
HETATM    8  O   UNL     1     -12.664   8.873  73.039  1.00  0.00    -0.239 OA 
HETATM    9  C   UNL     1     -12.528  11.155  70.701  1.00  0.00    -0.356 C  
HETATM   10  CA  UNL     1     -10.574   7.494  72.402  1.00  0.00    -0.251 C  
HETATM   11  OXT UNL     1     -12.552  12.239  70.141  1.00  0.00    -0.054 OA 
HETATM   12  C   UNL     1     -11.682   8.587  72.396  1.00  0.00    -0.358 C  
ENDROOT
BRANCH   4  13
HETATM   13  C   UNL     1     -11.320  11.010  67.959  1.00  0.00    -0.306 C  
BRANCH  13  14
HETATM   14  S   UNL     1     -10.001  11.043  66.694  1.00  0.00    -0.216 SA 
BRANCH  14  15
HETATM   15  C   UNL     1      -9.860  12.753  66.469  1.00  0.00    -0.258 A  
HETATM   16  N   UNL     1      -9.254  13.585  67.284  1.00  0.00    -0.223 NA 
HETATM   17  N   UNL     1     -10.347  13.463  65.404  1.00  0.00    -0.305 NA 
HETATM   18  N   UNL     1      -9.335  14.821  66.697  1.00  0.00    -0.254 NA 
HETATM   19  N   UNL     1      -9.967  14.755  65.536  1.00  0.00    -0.362 NA 
BRANCH  17  20
HETATM   20  C   UNL     1     -11.013  13.013  64.202  1.00  0.00    -0.408 C  
HETATM   21  O   UNL     1     -13.210  13.577  65.140  1.00  0.00    -0.720 OA 
HETATM   22  C   UNL     1     -12.504  12.785  64.307  1.00  0.00    -0.382 C  
HETATM   23  O   UNL     1     -13.076  11.969  63.593  1.00  0.00    -0.756 OA 
ENDBRANCH  17  20
ENDBRANCH  14  15
ENDBRANCH  13  14
ENDBRANCH   4  13
BRANCH  10  24
HETATM   24  N   UNL     1     -11.039   6.099  72.223  1.00  0.00    -0.262 N  
HETATM   25  C   UNL     1     -10.398   4.965  72.646  1.00  0.00    -0.197 C  
HETATM   26  O   UNL     1     -10.877   3.867  72.364  1.00  0.00    -0.003 OA 
HETATM   27  H   UNL     1     -11.926   5.970  71.736  1.00  0.00     0.000 HD 
BRANCH  25  28
HETATM   28  C   UNL     1      -9.107   5.107  73.437  1.00  0.00    -0.124 C  
BRANCH  28  29
HETATM   29  C   UNL     1      -7.912   5.543  72.615  1.00  0.00    -0.103 A  
HETATM   30  C   UNL     1      -7.088   6.630  72.982  1.00  0.00    -0.077 A  
HETATM   31  C   UNL     1      -5.993   6.950  72.154  1.00  0.00    -0.038 A  
HETATM   32  C   UNL     1      -7.595   4.804  71.454  1.00  0.00    -0.079 A  
HETATM   33  C   UNL     1      -5.694   6.205  71.014  1.00  0.00    -0.022 A  
HETATM   34  C   UNL     1      -6.500   5.135  70.659  1.00  0.00    -0.030 A  
BRANCH  30  35
HETATM   35  C   UNL     1      -7.376   7.500  74.191  1.00  0.00    -0.118 C  
HETATM   36  N   UNL     1      -6.804   8.842  74.074  1.00  0.00    -0.362 NA 
HETATM   37  H1  UNL     1      -6.998   9.428  74.887  1.00  0.00     0.000 HD 
HETATM   38  H2  UNL     1      -7.113   9.297  73.214  1.00  0.00     0.000 HD 
ENDBRANCH  30  35
ENDBRANCH  28  29
ENDBRANCH  25  28
ENDBRANCH  10  24
TORSDOF 8
ENDMDL
MODEL      126
REMARK 921   NORMALIZED FREE ENERGY PREDICTED BY IDOCK:   -6.23 KCAL/MOL
REMARK 922        TOTAL FREE ENERGY PREDICTED BY IDOCK:   -9.96 KCAL/MOL
REMARK 923 INTER-LIGAND FREE ENERGY PREDICTED BY IDOCK:   -9.99 KCAL/MOL
REMARK 924 INTRA-LIGAND FREE ENERGY PREDICTED BY IDOCK:    0.03 KCAL/MOL
REMARK 927      BINDING AFFINITY PREDICTED BY RF-SCORE:    0.00 PKD
ROOT
HETATM    1  C   UNL     1     -10.202  14.895  65.718  1.00  0.00    -0.336 C  
HETATM    2  S   UNL     1     -11.148  15.932  64.583  1.00  0.00    -0.199 SA 
HETATM    3  C   UNL     1     -10.657  17.479  65.376  1.00  0.00     0.003 C  
HETATM    4  C   UNL     1     -10.719  17.472  66.899  1.00  0.00    -0.127 C  
HETATM    5  O   UNL     1     -11.463  15.382  69.802  1.00  0.00    -0.276 OA 
HETATM    6  CA  UNL     1     -10.786  16.339  67.659  1.00  0.00    -0.293 C  
HETATM    7  N   UNL     1     -10.713  15.115  67.055  1.00  0.00    -0.302 N  
HETATM    8  O   UNL     1     -11.475  13.325  68.317  1.00  0.00    -0.275 OA 
HETATM    9  C   UNL     1     -10.931  16.437  69.163  1.00  0.00    -0.324 C  
HETATM   10  CA  UNL     1     -10.649  13.404  65.870  1.00  0.00    -0.283 C  
HETATM   11  OXT UNL     1     -10.580  17.417  69.799  1.00  0.00    -0.071 OA 
HETATM   12  C   UNL     1     -11.011  13.830  67.323  1.00  0.00    -0.292 C  
ENDROOT
BRANCH   4  13
HETATM   13  C   UNL     1     -10.840  18.894  67.445  1.00  0.00    -0.374 C  
BRANCH  13  14
HETATM   14  S   UNL     1      -9.251  19.483  68.131  1.00  0.00    -0.355 SA 
BRANCH  14  15
HETATM   15  C   UNL     1      -8.164  18.780  66.983  1.00  0.00    -0.264 A  
HETATM   16  N   UNL     1      -7.882  19.268  65.797  1.00  0.00    -0.451 NA 
HETATM   17  N   UNL     1      -7.440  17.632  67.165  1.00  0.00    -0.188 NA 
HETATM   18  N   UNL     1      -6.943  18.431  65.252  1.00  0.00    -0.503 NA 
HETATM   19  N   UNL     1      -6.640  17.450  66.089  1.00  0.00    -0.240 NA 
BRANCH  17  20
HETATM   20  C   UNL     1      -7.326  16.768  68.318  1.00  0.00    -0.183 C  
HETATM   21  O   UNL     1      -6.242  18.548  69.615  1.00  0.00    -0.261 OA 
HETATM   22  C   UNL     1      -6.378  17.223  69.406  1.00  0.00    -0.244 C  
HETATM   23  O   UNL     1      -5.816  16.418  70.140  1.00  0.00    -0.202 OA 
ENDBRANCH  17  20
ENDBRANCH  14  15
ENDBRANCH  13  14
ENDBRANCH   4  13
BRANCH  10  24
HETATM   24  N   UNL     1     -11.774  12.918  65.039  1.00  0.00    -0.327 N  
HETATM   25  C   UNL     1     -11.682  12.140  63.916  1.00  0.00    -0.458 C  
HETATM   26  O   UNL     1     -12.707  11.871  63.289  1.00  0.00    -0.654 OA 
HETATM   27  H   UNL     1     -12.713  13.189  65.333  1.00  0.00     0.000 HD 
BRANCH  25  28
HETATM   28  C   UNL     1     -10.310  11.653  63.475  1.00  0.00    -0.488 C  
BRANCH  28  29
HETATM   29  C   UNL     1      -9.780  10.474  64.263  1.00  0.00    -0.391 A  
HETATM   30  C   UNL     1      -8.686   9.693  63.826  1.00  0.00    -0.241 A  
HETATM   31  C   UNL     1      -8.262   8.622  64.638  1.00  0.00    -0.167 A  
HETATM   32  C   UNL     1     -10.386  10.172  65.501  1.00  0.00    -0.196 A  
HETATM   33  C   UNL     1      -8.871   8.342  65.860  1.00  0.00    -0.197 A  
HETATM   34  C   UNL     1      -9.940   9.113  66.290  1.00  0.00    -0.352 A  
BRANCH  30  35
HETATM   35  C   UNL     1      -8.000   9.924  62.493  1.00  0.00    -0.125 C  
HETATM   36  N   UNL     1      -6.930  10.920  62.570  1.00  0.00    -0.359 NA 
HETATM   37  H1  UNL     1      -6.468  11.076  61.673  1.00  0.00     0.000 HD 
HETATM   38  H2  UNL     1      -6.253  10.673  63.291  1.00  0.00     0.000 HD 
ENDBRANCH  30  35
ENDBRANCH  28  29
ENDBRANCH  25  28
ENDBRANCH  10  24
TORSDOF 8
ENDMDL
MODEL      127
REMARK 921   NORMALIZED FREE ENERGY PREDICTED BY IDOCK:   -6.22 KCAL/MOL
REMARK 922        TOTAL FREE ENERGY PREDICTED BY IDOCK:   -9.95 KCAL/MOL
REMARK 923 INTER-LIGAND FREE ENERGY PREDICTED BY IDOCK:   -8.83 KCAL/MOL
REMARK 924 INTRA-LIGAND FREE ENERGY PREDICTED BY IDOCK:   -1.12 KCAL/MOL
REMARK 927      BINDING AFFINITY PREDICTED BY RF-SCORE:    0.00 PKD
ROOT
HETATM    1  C   UNL     1      -9.386  11.395  67.659  1.00  0.00    -0.159 C  
HETATM    2  S   UNL     1      -7.794  12.115  68.111  1.00  0.00    -0.156 SA 
HETATM    3  C   UNL     1      -8.376  13.820  67.976  1.00  0.00    -0.171 C  
HETATM    4  C   UNL     1      -9.214  14.121  66.739  1.00  0.00    -0.282 C  
HETATM    5  O   UNL     1     -10.675  12.625  63.743  1.00  0.00    -0.416 OA 
HETATM    6  CA  UNL     1      -9.800  13.165  65.959  1.00  0.00    -0.260 C  
HETATM    7  N   UNL     1      -9.720  11.851  66.325  1.00  0.00    -0.223 N  
HETATM    8  O   UNL     1     -10.160  10.311  64.648  1.00  0.00    -0.345 OA 
HETATM    9  C   UNL     1     -10.542  13.559  64.699  1.00  0.00    -0.427 C  
HETATM   10  CA  UNL     1      -9.380   9.941  67.083  1.00  0.00    -0.146 C  
HETATM   11  OXT UNL     1     -11.021  14.669  64.533  1.00  0.00    -0.339 OA 
HETATM   12  C   UNL     1      -9.863  10.631  65.774  1.00  0.00    -0.241 C  
ENDROOT
BRANCH   4  13
HETATM   13  C   UNL     1      -9.187  15.614  66.414  1.00  0.00    -0.311 C  
BRANCH  13  14
HETATM   14  S   UNL     1      -9.475  16.628  67.908  1.00  0.00    -0.228 SA 
BRANCH  14  15
HETATM   15  C   UNL     1      -9.690  18.177  67.167  1.00  0.00    -0.301 A  
HETATM   16  N   UNL     1     -10.339  18.406  66.048  1.00  0.00    -0.548 NA 
HETATM   17  N   UNL     1      -9.228  19.370  67.656  1.00  0.00    -0.302 NA 
HETATM   18  N   UNL     1     -10.310  19.764  65.862  1.00  0.00    -0.502 NA 
HETATM   19  N   UNL     1      -9.667  20.365  66.851  1.00  0.00    -0.439 NA 
BRANCH  17  20
HETATM   20  C   UNL     1      -8.534  19.672  68.887  1.00  0.00    -0.193 C  
HETATM   21  O   UNL     1      -6.357  19.520  67.764  1.00  0.00    -0.208 OA 
HETATM   22  C   UNL     1      -7.051  19.377  68.911  1.00  0.00    -0.358 C  
HETATM   23  O   UNL     1      -6.472  19.103  69.957  1.00  0.00    -0.194 OA 
ENDBRANCH  17  20
ENDBRANCH  14  15
ENDBRANCH  13  14
ENDBRANCH   4  13
BRANCH  10  24
HETATM   24  N   UNL     1      -8.087   9.224  66.997  1.00  0.00    -0.111 N  
HETATM   25  C   UNL     1      -7.911   7.884  66.773  1.00  0.00    -0.103 C  
HETATM   26  O   UNL     1      -6.771   7.420  66.796  1.00  0.00    -0.060 OA 
HETATM   27  H   UNL     1      -7.242   9.784  67.117  1.00  0.00     0.000 HD 
BRANCH  25  28
HETATM   28  C   UNL     1      -9.135   7.019  66.520  1.00  0.00    -0.183 C  
BRANCH  28  29
HETATM   29  C   UNL     1      -9.169   5.732  67.316  1.00  0.00    -0.110 A  
HETATM   30  C   UNL     1      -9.514   5.690  68.686  1.00  0.00    -0.152 A  
HETATM   31  C   UNL     1      -9.526   4.439  69.336  1.00  0.00    -0.251 A  
HETATM   32  C   UNL     1      -8.878   4.524  66.646  1.00  0.00    -0.112 A  
HETATM   33  C   UNL     1      -9.239   3.257  68.655  1.00  0.00    -0.232 A  
HETATM   34  C   UNL     1      -8.908   3.299  67.309  1.00  0.00    -0.153 A  
BRANCH  30  35
HETATM   35  C   UNL     1      -9.805   6.942  69.493  1.00  0.00    -0.159 C  
HETATM   36  N   UNL     1     -11.201   7.369  69.395  1.00  0.00    -0.456 NA 
HETATM   37  H1  UNL     1     -11.396   8.211  69.937  1.00  0.00     0.000 HD 
HETATM   38  H2  UNL     1     -11.833   6.612  69.655  1.00  0.00     0.000 HD 
ENDBRANCH  30  35
ENDBRANCH  28  29
ENDBRANCH  25  28
ENDBRANCH  10  24
TORSDOF 8
ENDMDL
MODEL      128
REMARK 921   NORMALIZED FREE ENERGY PREDICTED BY IDOCK:   -6.21 KCAL/MOL
REMARK 922        TOTAL FREE ENERGY PREDICTED BY IDOCK:   -9.94 KCAL/MOL
REMARK 923 INTER-LIGAND FREE ENERGY PREDICTED BY IDOCK:   -8.65 KCAL/MOL
REMARK 924 INTRA-LIGAND FREE ENERGY PREDICTED BY IDOCK:   -1.29 KCAL/MOL
REMARK 927      BINDING AFFINITY PREDICTED BY RF-SCORE:    0.00 PKD
ROOT
HETATM    1  C   UNL     1      -9.872  14.051  67.102  1.00  0.00    -0.240 C  
HETATM    2  S   UNL     1      -9.141  12.403  67.180  1.00  0.00    -0.205 SA 
HETATM    3  C   UNL     1     -10.668  11.607  67.724  1.00  0.00    -0.204 C  
HETATM    4  C   UNL     1     -11.423  12.341  68.826  1.00  0.00    -0.360 C  
HETATM    5  O   UNL     1     -11.393  15.339  70.914  1.00  0.00    -0.301 OA 
HETATM    6  CA  UNL     1     -11.210  13.648  69.161  1.00  0.00    -0.261 C  
HETATM    7  N   UNL     1     -10.333  14.399  68.430  1.00  0.00    -0.238 N  
HETATM    8  O   UNL     1      -9.578  16.340  69.451  1.00  0.00    -0.240 OA 
HETATM    9  C   UNL     1     -11.949  14.266  70.329  1.00  0.00    -0.329 C  
HETATM   10  CA  UNL     1      -8.901  15.273  67.197  1.00  0.00    -0.212 C  
HETATM   11  OXT UNL     1     -13.015  13.836  70.740  1.00  0.00    -0.266 OA 
HETATM   12  C   UNL     1      -9.628  15.539  68.548  1.00  0.00    -0.203 C  
ENDROOT
BRANCH   4  13
HETATM   13  C   UNL     1     -12.335  11.384  69.592  1.00  0.00    -0.170 C  
BRANCH  13  14
HETATM   14  S   UNL     1     -11.445   9.867  70.089  1.00  0.00    -0.226 SA 
BRANCH  14  15
HETATM   15  C   UNL     1     -12.594   9.212  71.206  1.00  0.00    -0.288 A  
HETATM   16  N   UNL     1     -13.407   9.911  71.964  1.00  0.00    -0.442 NA 
HETATM   17  N   UNL     1     -12.819   7.881  71.435  1.00  0.00    -0.308 NA 
HETATM   18  N   UNL     1     -14.172   8.999  72.644  1.00  0.00    -0.558 NA 
HETATM   19  N   UNL     1     -13.848   7.761  72.306  1.00  0.00    -0.071 NA 
BRANCH  17  20
HETATM   20  C   UNL     1     -12.252   6.712  70.803  1.00  0.00    -0.241 C  
HETATM   21  O   UNL     1     -10.882   6.234  72.782  1.00  0.00    -0.230 OA 
HETATM   22  C   UNL     1     -11.007   6.140  71.443  1.00  0.00    -0.277 C  
HETATM   23  O   UNL     1     -10.175   5.526  70.783  1.00  0.00    -0.208 OA 
ENDBRANCH  17  20
ENDBRANCH  14  15
ENDBRANCH  13  14
ENDBRANCH   4  13
BRANCH  10  24
HETATM   24  N   UNL     1      -7.446  15.011  67.285  1.00  0.00    -0.203 N  
HETATM   25  C   UNL     1      -6.439  15.881  66.963  1.00  0.00     0.059 C  
HETATM   26  O   UNL     1      -5.272  15.495  67.025  1.00  0.00    -0.258 OA 
HETATM   27  H   UNL     1      -7.165  14.089  67.620  1.00  0.00     0.000 HD 
BRANCH  25  28
HETATM   28  C   UNL     1      -6.804  17.291  66.525  1.00  0.00    -0.292 C  
BRANCH  28  29
HETATM   29  C   UNL     1      -6.888  18.298  67.653  1.00  0.00    -0.203 A  
HETATM   30  C   UNL     1      -8.071  19.007  67.957  1.00  0.00    -0.328 A  
HETATM   31  C   UNL     1      -8.048  19.916  69.034  1.00  0.00    -0.031 A  
HETATM   32  C   UNL     1      -5.741  18.504  68.450  1.00  0.00    -0.180 A  
HETATM   33  C   UNL     1      -6.907  20.103  69.812  1.00  0.00    -0.155 A  
HETATM   34  C   UNL     1      -5.749  19.401  69.516  1.00  0.00    -0.261 A  
BRANCH  30  35
HETATM   35  C   UNL     1      -9.337  18.875  67.131  1.00  0.00    -0.300 C  
HETATM   36  N   UNL     1     -10.345  19.879  67.473  1.00  0.00    -0.420 NA 
HETATM   37  H1  UNL     1     -11.197  19.790  66.917  1.00  0.00     0.000 HD 
HETATM   38  H2  UNL     1      -9.960  20.821  67.404  1.00  0.00     0.000 HD 
ENDBRANCH  30  35
ENDBRANCH  28  29
ENDBRANCH  25  28
ENDBRANCH  10  24
TORSDOF 8
ENDMDL
MODEL      129
REMARK 921   NORMALIZED FREE ENERGY PREDICTED BY IDOCK:   -6.21 KCAL/MOL
REMARK 922        TOTAL FREE ENERGY PREDICTED BY IDOCK:   -9.93 KCAL/MOL
REMARK 923 INTER-LIGAND FREE ENERGY PREDICTED BY IDOCK:   -8.01 KCAL/MOL
REMARK 924 INTRA-LIGAND FREE ENERGY PREDICTED BY IDOCK:   -1.92 KCAL/MOL
REMARK 927      BINDING AFFINITY PREDICTED BY RF-SCORE:    0.00 PKD
ROOT
HETATM    1  C   UNL     1      -9.069   8.600  72.178  1.00  0.00    -0.231 C  
HETATM    2  S   UNL     1      -9.179   7.625  73.693  1.00  0.00    -0.283 SA 
HETATM    3  C   UNL     1      -7.600   6.789  73.426  1.00  0.00    -0.085 C  
HETATM    4  C   UNL     1      -7.370   6.279  72.009  1.00  0.00    -0.093 C  
HETATM    5  O   UNL     1      -8.835   6.129  68.664  1.00  0.00    -0.115 OA 
HETATM    6  CA  UNL     1      -8.084   6.692  70.920  1.00  0.00    -0.119 C  
HETATM    7  N   UNL     1      -9.015   7.683  71.058  1.00  0.00    -0.145 N  
HETATM    8  O   UNL     1     -10.578   7.840  69.351  1.00  0.00    -0.224 OA 
HETATM    9  C   UNL     1      -7.839   6.064  69.564  1.00  0.00    -0.099 C  
HETATM   10  CA  UNL     1     -10.406   9.145  71.575  1.00  0.00    -0.344 C  
HETATM   11  OXT UNL     1      -6.787   5.522  69.266  1.00  0.00    -0.057 OA 
HETATM   12  C   UNL     1     -10.083   8.173  70.402  1.00  0.00    -0.194 C  
ENDROOT
BRANCH   4  13
HETATM   13  C   UNL     1      -6.340   5.150  71.996  1.00  0.00    -0.035 C  
BRANCH  13  14
HETATM   14  S   UNL     1      -6.941   3.689  72.917  1.00  0.00    -0.045 SA 
BRANCH  14  15
HETATM   15  C   UNL     1      -7.922   2.960  71.691  1.00  0.00    -0.056 A  
HETATM   16  N   UNL     1      -7.499   2.550  70.517  1.00  0.00    -0.036 NA 
HETATM   17  N   UNL     1      -9.263   2.699  71.787  1.00  0.00    -0.090 NA 
HETATM   18  N   UNL     1      -8.587   1.994  69.893  1.00  0.00    -0.048 NA 
HETATM   19  N   UNL     1      -9.657   2.047  70.670  1.00  0.00    -0.107 NA 
BRANCH  17  20
HETATM   20  C   UNL     1     -10.175   2.879  72.894  1.00  0.00    -0.152 C  
HETATM   21  O   UNL     1     -10.966   5.011  71.971  1.00  0.00    -0.141 OA 
HETATM   22  C   UNL     1     -10.746   4.267  73.074  1.00  0.00    -0.192 C  
HETATM   23  O   UNL     1     -11.088   4.678  74.178  1.00  0.00    -0.290 OA 
ENDBRANCH  17  20
ENDBRANCH  14  15
ENDBRANCH  13  14
ENDBRANCH   4  13
BRANCH  10  24
HETATM   24  N   UNL     1     -11.666   8.881  72.307  1.00  0.00    -0.333 N  
HETATM   25  C   UNL     1     -12.907   9.372  71.997  1.00  0.00    -0.414 C  
HETATM   26  O   UNL     1     -13.853   9.118  72.742  1.00  0.00    -0.430 OA 
HETATM   27  H   UNL     1     -11.605   8.272  73.122  1.00  0.00     0.000 HD 
BRANCH  25  28
HETATM   28  C   UNL     1     -13.063  10.230  70.751  1.00  0.00    -0.360 C  
BRANCH  28  29
HETATM   29  C   UNL     1     -12.853  11.712  70.978  1.00  0.00    -0.339 A  
HETATM   30  C   UNL     1     -12.112  12.523  70.090  1.00  0.00    -0.368 A  
HETATM   31  C   UNL     1     -11.983  13.895  70.386  1.00  0.00    -0.393 A  
HETATM   32  C   UNL     1     -13.457  12.306  72.107  1.00  0.00    -0.431 A  
HETATM   33  C   UNL     1     -12.590  14.464  71.504  1.00  0.00    -0.424 A  
HETATM   34  C   UNL     1     -13.322  13.667  72.371  1.00  0.00    -0.641 A  
BRANCH  30  35
HETATM   35  C   UNL     1     -11.399  11.961  68.874  1.00  0.00    -0.278 C  
HETATM   36  N   UNL     1     -10.034  12.469  68.731  1.00  0.00    -0.420 NA 
HETATM   37  H1  UNL     1      -9.554  12.091  67.913  1.00  0.00     0.000 HD 
HETATM   38  H2  UNL     1      -9.493  12.304  69.580  1.00  0.00     0.000 HD 
ENDBRANCH  30  35
ENDBRANCH  28  29
ENDBRANCH  25  28
ENDBRANCH  10  24
TORSDOF 8
ENDMDL
MODEL      130
REMARK 921   NORMALIZED FREE ENERGY PREDICTED BY IDOCK:   -6.18 KCAL/MOL
REMARK 922        TOTAL FREE ENERGY PREDICTED BY IDOCK:   -9.90 KCAL/MOL
REMARK 923 INTER-LIGAND FREE ENERGY PREDICTED BY IDOCK:   -8.59 KCAL/MOL
REMARK 924 INTRA-LIGAND FREE ENERGY PREDICTED BY IDOCK:   -1.31 KCAL/MOL
REMARK 927      BINDING AFFINITY PREDICTED BY RF-SCORE:    0.00 PKD
ROOT
HETATM    1  C   UNL     1     -10.039   7.972  70.622  1.00  0.00    -0.194 C  
HETATM    2  S   UNL     1      -9.804   8.383  68.881  1.00  0.00    -0.185 SA 
HETATM    3  C   UNL     1     -10.100  10.149  69.121  1.00  0.00    -0.213 C  
HETATM    4  C   UNL     1     -11.296  10.490  70.003  1.00  0.00    -0.392 C  
HETATM    5  O   UNL     1     -13.963   9.033  72.031  1.00  0.00    -0.414 OA 
HETATM    6  CA  UNL     1     -11.905   9.603  70.844  1.00  0.00    -0.323 C  
HETATM    7  N   UNL     1     -11.388   8.347  70.993  1.00  0.00    -0.262 N  
HETATM    8  O   UNL     1     -12.825   6.769  71.900  1.00  0.00    -0.338 OA 
HETATM    9  C   UNL     1     -13.142  10.011  71.617  1.00  0.00    -0.445 C  
HETATM   10  CA  UNL     1     -10.431   6.497  70.966  1.00  0.00    -0.222 C  
HETATM   11  OXT UNL     1     -13.405  11.174  71.878  1.00  0.00    -0.417 OA 
HETATM   12  C   UNL     1     -11.773   7.134  71.432  1.00  0.00    -0.296 C  
ENDROOT
BRANCH   4  13
HETATM   13  C   UNL     1     -11.802  11.902  69.711  1.00  0.00    -0.340 C  
BRANCH  13  14
HETATM   14  S   UNL     1     -11.633  12.319  67.939  1.00  0.00    -0.354 SA 
BRANCH  14  15
HETATM   15  C   UNL     1     -11.372  14.025  68.069  1.00  0.00    -0.293 A  
HETATM   16  N   UNL     1     -11.818  14.796  69.034  1.00  0.00    -0.307 NA 
HETATM   17  N   UNL     1     -10.651  14.794  67.194  1.00  0.00    -0.280 NA 
HETATM   18  N   UNL     1     -11.337  16.052  68.772  1.00  0.00    -0.365 NA 
HETATM   19  N   UNL     1     -10.596  16.057  67.674  1.00  0.00    -0.304 NA 
BRANCH  17  20
HETATM   20  C   UNL     1      -9.890  14.419  66.024  1.00  0.00    -0.319 C  
HETATM   21  O   UNL     1     -11.870  14.648  64.592  1.00  0.00    -0.419 OA 
HETATM   22  C   UNL     1     -10.688  14.031  64.800  1.00  0.00    -0.427 C  
HETATM   23  O   UNL     1     -10.242  13.249  63.968  1.00  0.00    -0.366 OA 
ENDBRANCH  17  20
ENDBRANCH  14  15
ENDBRANCH  13  14
ENDBRANCH   4  13
BRANCH  10  24
HETATM   24  N   UNL     1     -10.529   5.519  69.859  1.00  0.00    -0.296 N  
HETATM   25  C   UNL     1      -9.643   4.512  69.579  1.00  0.00    -0.195 C  
HETATM   26  O   UNL     1      -9.825   3.818  68.579  1.00  0.00    -0.081 OA 
HETATM   27  H   UNL     1     -11.337   5.603  69.242  1.00  0.00     0.000 HD 
BRANCH  25  28
HETATM   28  C   UNL     1      -8.458   4.303  70.509  1.00  0.00    -0.100 C  
BRANCH  28  29
HETATM   29  C   UNL     1      -7.368   5.345  70.381  1.00  0.00    -0.070 A  
HETATM   30  C   UNL     1      -6.685   5.877  71.498  1.00  0.00    -0.055 A  
HETATM   31  C   UNL     1      -5.678   6.837  71.273  1.00  0.00    -0.028 A  
HETATM   32  C   UNL     1      -7.001   5.772  69.087  1.00  0.00    -0.064 A  
HETATM   33  C   UNL     1      -5.327   7.243  69.986  1.00  0.00    -0.023 A  
HETATM   34  C   UNL     1      -5.994   6.715  68.891  1.00  0.00    -0.022 A  
BRANCH  30  35
HETATM   35  C   UNL     1      -7.041   5.503  72.925  1.00  0.00    -0.089 C  
HETATM   36  N   UNL     1      -7.803   6.546  73.613  1.00  0.00    -0.091 NA 
HETATM   37  H1  UNL     1      -8.042   6.295  74.573  1.00  0.00     0.000 HD 
HETATM   38  H2  UNL     1      -8.637   6.798  73.082  1.00  0.00     0.000 HD 
ENDBRANCH  30  35
ENDBRANCH  28  29
ENDBRANCH  25  28
ENDBRANCH  10  24
TORSDOF 8
ENDMDL
MODEL      131
REMARK 921   NORMALIZED FREE ENERGY PREDICTED BY IDOCK:   -6.13 KCAL/MOL
REMARK 922        TOTAL FREE ENERGY PREDICTED BY IDOCK:   -9.81 KCAL/MOL
REMARK 923 INTER-LIGAND FREE ENERGY PREDICTED BY IDOCK:   -8.51 KCAL/MOL
REMARK 924 INTRA-LIGAND FREE ENERGY PREDICTED BY IDOCK:   -1.30 KCAL/MOL
REMARK 927      BINDING AFFINITY PREDICTED BY RF-SCORE:    0.00 PKD
ROOT
HETATM    1  C   UNL     1      -9.169  14.273  66.854  1.00  0.00    -0.254 C  
HETATM    2  S   UNL     1      -9.839  15.038  65.363  1.00  0.00    -0.192 SA 
HETATM    3  C   UNL     1      -9.812  16.709  66.048  1.00  0.00    -0.309 C  
HETATM    4  C   UNL     1     -10.340  16.833  67.472  1.00  0.00    -0.301 C  
HETATM    5  O   UNL     1     -11.680  14.926  70.286  1.00  0.00    -0.269 OA 
HETATM    6  CA  UNL     1     -10.498  15.778  68.325  1.00  0.00    -0.259 C  
HETATM    7  N   UNL     1     -10.091  14.530  67.941  1.00  0.00    -0.225 N  
HETATM    8  O   UNL     1     -10.979  12.765  69.155  1.00  0.00    -0.216 OA 
HETATM    9  C   UNL     1     -11.112  15.988  69.693  1.00  0.00    -0.331 C  
HETATM   10  CA  UNL     1      -9.453  12.750  67.069  1.00  0.00    -0.233 C  
HETATM   11  OXT UNL     1     -11.098  17.066  70.266  1.00  0.00     0.041 OA 
HETATM   12  C   UNL     1     -10.296  13.245  68.281  1.00  0.00    -0.249 C  
ENDROOT
BRANCH   4  13
HETATM   13  C   UNL     1     -10.798  18.262  67.761  1.00  0.00    -0.230 C  
BRANCH  13  14
HETATM   14  S   UNL     1      -9.859  19.477  66.770  1.00  0.00    -0.418 SA 
BRANCH  14  15
HETATM   15  C   UNL     1      -8.436  19.606  67.747  1.00  0.00    -0.318 A  
HETATM   16  N   UNL     1      -8.314  19.176  68.982  1.00  0.00    -0.272 NA 
HETATM   17  N   UNL     1      -7.244  20.157  67.357  1.00  0.00    -0.261 NA 
HETATM   18  N   UNL     1      -7.018  19.432  69.349  1.00  0.00    -0.325 NA 
HETATM   19  N   UNL     1      -6.347  19.997  68.357  1.00  0.00    -0.266 NA 
BRANCH  17  20
HETATM   20  C   UNL     1      -6.832  20.692  66.079  1.00  0.00    -0.171 C  
HETATM   21  O   UNL     1      -6.710  18.439  65.112  1.00  0.00    -0.504 OA 
HETATM   22  C   UNL     1      -6.242  19.704  65.098  1.00  0.00    -0.258 C  
HETATM   23  O   UNL     1      -5.428  20.055  64.250  1.00  0.00    -0.175 OA 
ENDBRANCH  17  20
ENDBRANCH  14  15
ENDBRANCH  13  14
ENDBRANCH   4  13
BRANCH  10  24
HETATM   24  N   UNL     1     -10.198  12.017  66.019  1.00  0.00    -0.220 N  
HETATM   25  C   UNL     1      -9.995  10.720  65.631  1.00  0.00    -0.260 C  
HETATM   26  O   UNL     1     -10.651  10.268  64.693  1.00  0.00    -0.066 OA 
HETATM   27  H   UNL     1     -10.935  12.530  65.537  1.00  0.00     0.000 HD 
BRANCH  25  28
HETATM   28  C   UNL     1      -8.953   9.891  66.367  1.00  0.00    -0.169 C  
BRANCH  28  29
HETATM   29  C   UNL     1      -9.517   8.975  67.431  1.00  0.00    -0.179 A  
HETATM   30  C   UNL     1      -9.314   9.193  68.813  1.00  0.00    -0.139 A  
HETATM   31  C   UNL     1      -9.890   8.286  69.726  1.00  0.00    -0.187 A  
HETATM   32  C   UNL     1     -10.306   7.879  67.020  1.00  0.00    -0.411 A  
HETATM   33  C   UNL     1     -10.670   7.212  69.299  1.00  0.00    -0.231 A  
HETATM   34  C   UNL     1     -10.873   7.004  67.944  1.00  0.00    -0.252 A  
BRANCH  30  35
HETATM   35  C   UNL     1      -8.450  10.322  69.342  1.00  0.00    -0.160 C  
HETATM   36  N   UNL     1      -7.531   9.889  70.395  1.00  0.00    -0.241 NA 
HETATM   37  H1  UNL     1      -6.949  10.648  70.751  1.00  0.00     0.000 HD 
HETATM   38  H2  UNL     1      -6.957   9.106  70.079  1.00  0.00     0.000 HD 
ENDBRANCH  30  35
ENDBRANCH  28  29
ENDBRANCH  25  28
ENDBRANCH  10  24
TORSDOF 8
ENDMDL
MODEL      132
REMARK 921   NORMALIZED FREE ENERGY PREDICTED BY IDOCK:   -6.11 KCAL/MOL
REMARK 922        TOTAL FREE ENERGY PREDICTED BY IDOCK:   -9.78 KCAL/MOL
REMARK 923 INTER-LIGAND FREE ENERGY PREDICTED BY IDOCK:   -7.71 KCAL/MOL
REMARK 924 INTRA-LIGAND FREE ENERGY PREDICTED BY IDOCK:   -2.07 KCAL/MOL
REMARK 927      BINDING AFFINITY PREDICTED BY RF-SCORE:    0.00 PKD
ROOT
HETATM    1  C   UNL     1     -10.642   6.649  73.689  1.00  0.00    -0.300 C  
HETATM    2  S   UNL     1     -11.384   5.041  73.347  1.00  0.00    -0.155 SA 
HETATM    3  C   UNL     1      -9.925   4.109  73.862  1.00  0.00    -0.130 C  
HETATM    4  C   UNL     1      -8.598   4.648  73.343  1.00  0.00    -0.101 C  
HETATM    5  O   UNL     1      -7.081   7.324  71.370  1.00  0.00    -0.063 OA 
HETATM    6  CA  UNL     1      -8.427   5.904  72.833  1.00  0.00    -0.121 C  
HETATM    7  N   UNL     1      -9.469   6.788  72.850  1.00  0.00    -0.138 N  
HETATM    8  O   UNL     1      -9.274   8.598  71.413  1.00  0.00    -0.190 OA 
HETATM    9  C   UNL     1      -7.087   6.320  72.262  1.00  0.00    -0.083 C  
HETATM   10  CA  UNL     1     -11.235   7.888  72.940  1.00  0.00    -0.366 C  
HETATM   11  OXT UNL     1      -6.037   5.789  72.586  1.00  0.00    -0.038 OA 
HETATM   12  C   UNL     1      -9.843   7.930  72.245  1.00  0.00    -0.215 C  
ENDROOT
BRANCH   4  13
HETATM   13  C   UNL     1      -7.531   3.554  73.337  1.00  0.00    -0.061 C  
BRANCH  13  14
HETATM   14  S   UNL     1      -7.968   2.201  72.189  1.00  0.00    -0.053 SA 
BRANCH  14  15
HETATM   15  C   UNL     1      -7.387   2.882  70.708  1.00  0.00    -0.033 A  
HETATM   16  N   UNL     1      -6.151   2.816  70.268  1.00  0.00    -0.022 NA 
HETATM   17  N   UNL     1      -8.141   3.565  69.790  1.00  0.00    -0.052 NA 
HETATM   18  N   UNL     1      -6.149   3.434  69.044  1.00  0.00    -0.027 NA 
HETATM   19  N   UNL     1      -7.360   3.863  68.727  1.00  0.00    -0.054 NA 
BRANCH  17  20
HETATM   20  C   UNL     1      -9.560   3.836  69.758  1.00  0.00    -0.183 C  
HETATM   21  O   UNL     1      -9.167   6.092  68.874  1.00  0.00    -0.126 OA 
HETATM   22  C   UNL     1      -9.962   5.286  69.607  1.00  0.00    -0.232 C  
HETATM   23  O   UNL     1     -11.025   5.704  70.055  1.00  0.00    -0.328 OA 
ENDBRANCH  17  20
ENDBRANCH  14  15
ENDBRANCH  13  14
ENDBRANCH   4  13
BRANCH  10  24
HETATM   24  N   UNL     1     -12.398   7.680  72.047  1.00  0.00    -0.363 N  
HETATM   25  C   UNL     1     -13.329   8.619  71.689  1.00  0.00    -0.350 C  
HETATM   26  O   UNL     1     -14.282   8.278  70.989  1.00  0.00    -0.166 OA 
HETATM   27  H   UNL     1     -12.519   6.744  71.661  1.00  0.00     0.000 HD 
BRANCH  25  28
HETATM   28  C   UNL     1     -13.155  10.046  72.184  1.00  0.00    -0.482 C  
BRANCH  28  29
HETATM   29  C   UNL     1     -12.631  11.012  71.143  1.00  0.00    -0.522 A  
HETATM   30  C   UNL     1     -12.756  12.414  71.270  1.00  0.00    -0.347 A  
HETATM   31  C   UNL     1     -12.225  13.229  70.249  1.00  0.00    -0.391 A  
HETATM   32  C   UNL     1     -11.959  10.484  70.019  1.00  0.00    -0.367 A  
HETATM   33  C   UNL     1     -11.562  12.688  69.149  1.00  0.00    -0.374 A  
HETATM   34  C   UNL     1     -11.435  11.312  69.030  1.00  0.00    -0.369 A  
BRANCH  30  35
HETATM   35  C   UNL     1     -13.494  13.066  72.424  1.00  0.00    -0.515 C  
HETATM   36  N   UNL     1     -13.398  14.526  72.408  1.00  0.00    -0.396 NA 
HETATM   37  H1  UNL     1     -13.895  14.964  73.184  1.00  0.00     0.000 HD 
HETATM   38  H2  UNL     1     -13.713  14.902  71.513  1.00  0.00     0.000 HD 
ENDBRANCH  30  35
ENDBRANCH  28  29
ENDBRANCH  25  28
ENDBRANCH  10  24
TORSDOF 8
ENDMDL
MODEL      133
REMARK 921   NORMALIZED FREE ENERGY PREDICTED BY IDOCK:   -6.09 KCAL/MOL
REMARK 922        TOTAL FREE ENERGY PREDICTED BY IDOCK:   -9.75 KCAL/MOL
REMARK 923 INTER-LIGAND FREE ENERGY PREDICTED BY IDOCK:   -8.65 KCAL/MOL
REMARK 924 INTRA-LIGAND FREE ENERGY PREDICTED BY IDOCK:   -1.10 KCAL/MOL
REMARK 927      BINDING AFFINITY PREDICTED BY RF-SCORE:    0.00 PKD
ROOT
HETATM    1  C   UNL     1     -10.233   8.286  70.289  1.00  0.00    -0.196 C  
HETATM    2  S   UNL     1     -10.124   8.804  68.564  1.00  0.00    -0.193 SA 
HETATM    3  C   UNL     1     -10.262  10.565  68.946  1.00  0.00    -0.208 C  
HETATM    4  C   UNL     1     -11.345  10.923  69.957  1.00  0.00    -0.386 C  
HETATM    5  O   UNL     1     -13.925   9.512  72.126  1.00  0.00    -0.342 OA 
HETATM    6  CA  UNL     1     -11.944  10.022  70.792  1.00  0.00    -0.335 C  
HETATM    7  N   UNL     1     -11.512   8.726  70.808  1.00  0.00    -0.277 N  
HETATM    8  O   UNL     1     -12.979   7.190  71.740  1.00  0.00    -0.352 OA 
HETATM    9  C   UNL     1     -13.072  10.459  71.702  1.00  0.00    -0.448 C  
HETATM   10  CA  UNL     1     -10.705   6.821  70.570  1.00  0.00    -0.238 C  
HETATM   11  OXT UNL     1     -13.222  11.616  72.062  1.00  0.00    -0.501 OA 
HETATM   12  C   UNL     1     -11.948   7.515  71.201  1.00  0.00    -0.308 C  
ENDROOT
BRANCH   4  13
HETATM   13  C   UNL     1     -11.767  12.384  69.807  1.00  0.00    -0.291 C  
BRANCH  13  14
HETATM   14  S   UNL     1     -11.911  12.861  68.048  1.00  0.00    -0.297 SA 
BRANCH  14  15
HETATM   15  C   UNL     1     -11.307  14.480  68.139  1.00  0.00    -0.298 A  
HETATM   16  N   UNL     1     -11.596  15.354  69.076  1.00  0.00    -0.327 NA 
HETATM   17  N   UNL     1     -10.435  15.061  67.257  1.00  0.00    -0.261 NA 
HETATM   18  N   UNL     1     -10.864  16.477  68.790  1.00  0.00    -0.328 NA 
HETATM   19  N   UNL     1     -10.127  16.299  67.705  1.00  0.00    -0.247 NA 
BRANCH  17  20
HETATM   20  C   UNL     1      -9.754  14.505  66.109  1.00  0.00    -0.316 C  
HETATM   21  O   UNL     1     -11.729  14.856  64.695  1.00  0.00    -0.409 OA 
HETATM   22  C   UNL     1     -10.624  14.121  64.934  1.00  0.00    -0.430 C  
HETATM   23  O   UNL     1     -10.295  13.226  64.162  1.00  0.00    -0.407 OA 
ENDBRANCH  17  20
ENDBRANCH  14  15
ENDBRANCH  13  14
ENDBRANCH   4  13
BRANCH  10  24
HETATM   24  N   UNL     1     -10.974   5.934  69.415  1.00  0.00    -0.362 N  
HETATM   25  C   UNL     1     -10.065   5.146  68.762  1.00  0.00    -0.161 C  
HETATM   26  O   UNL     1     -10.426   4.512  67.771  1.00  0.00     0.093 OA 
HETATM   27  H   UNL     1     -11.934   5.908  69.071  1.00  0.00     0.000 HD 
BRANCH  25  28
HETATM   28  C   UNL     1      -8.636   5.098  69.280  1.00  0.00    -0.100 C  
BRANCH  28  29
HETATM   29  C   UNL     1      -8.317   3.887  70.131  1.00  0.00    -0.083 A  
HETATM   30  C   UNL     1      -8.032   2.618  69.579  1.00  0.00    -0.053 A  
HETATM   31  C   UNL     1      -7.738   1.556  70.457  1.00  0.00    -0.035 A  
HETATM   32  C   UNL     1      -8.269   4.051  71.532  1.00  0.00    -0.079 A  
HETATM   33  C   UNL     1      -7.691   1.739  71.839  1.00  0.00    -0.041 A  
HETATM   34  C   UNL     1      -7.964   2.986  72.378  1.00  0.00    -0.059 A  
BRANCH  30  35
HETATM   35  C   UNL     1      -8.098   2.344  68.088  1.00  0.00    -0.058 C  
HETATM   36  N   UNL     1      -9.399   1.826  67.662  1.00  0.00    -0.321 NA 
HETATM   37  H1  UNL     1      -9.443   1.642  66.659  1.00  0.00     0.000 HD 
HETATM   38  H2  UNL     1     -10.152   2.450  67.953  1.00  0.00     0.000 HD 
ENDBRANCH  30  35
ENDBRANCH  28  29
ENDBRANCH  25  28
ENDBRANCH  10  24
TORSDOF 8
ENDMDL
MODEL      134
REMARK 921   NORMALIZED FREE ENERGY PREDICTED BY IDOCK:   -6.09 KCAL/MOL
REMARK 922        TOTAL FREE ENERGY PREDICTED BY IDOCK:   -9.75 KCAL/MOL
REMARK 923 INTER-LIGAND FREE ENERGY PREDICTED BY IDOCK:   -8.49 KCAL/MOL
REMARK 924 INTRA-LIGAND FREE ENERGY PREDICTED BY IDOCK:   -1.27 KCAL/MOL
REMARK 927      BINDING AFFINITY PREDICTED BY RF-SCORE:    0.00 PKD
ROOT
HETATM    1  C   UNL     1     -11.040  11.750  68.345  1.00  0.00    -0.237 C  
HETATM    2  S   UNL     1     -11.947  12.614  69.644  1.00  0.00    -0.239 SA 
HETATM    3  C   UNL     1     -12.184  14.114  68.665  1.00  0.00    -0.181 C  
HETATM    4  C   UNL     1     -10.949  14.598  67.916  1.00  0.00    -0.283 C  
HETATM    5  O   UNL     1      -7.447  13.827  67.211  1.00  0.00    -0.150 OA 
HETATM    6  CA  UNL     1      -9.845  13.829  67.679  1.00  0.00    -0.234 C  
HETATM    7  N   UNL     1      -9.845  12.513  68.050  1.00  0.00    -0.208 N  
HETATM    8  O   UNL     1      -7.759  11.510  68.198  1.00  0.00    -0.106 OA 
HETATM    9  C   UNL     1      -8.630  14.426  67.000  1.00  0.00    -0.203 C  
HETATM   10  CA  UNL     1     -10.099  10.580  68.782  1.00  0.00    -0.191 C  
HETATM   11  OXT UNL     1      -8.693  15.406  66.275  1.00  0.00    -0.300 OA 
HETATM   12  C   UNL     1      -8.965  11.523  68.282  1.00  0.00    -0.177 C  
ENDROOT
BRANCH   4  13
HETATM   13  C   UNL     1     -11.055  16.089  67.597  1.00  0.00    -0.243 C  
BRANCH  13  14
HETATM   14  S   UNL     1     -10.453  17.113  68.985  1.00  0.00    -0.273 SA 
BRANCH  14  15
HETATM   15  C   UNL     1      -9.983  18.532  68.113  1.00  0.00    -0.361 A  
HETATM   16  N   UNL     1     -10.798  19.460  67.665  1.00  0.00    -0.423 NA 
HETATM   17  N   UNL     1      -8.700  18.885  67.788  1.00  0.00    -0.288 NA 
HETATM   18  N   UNL     1     -10.005  20.418  67.088  1.00  0.00    -0.452 NA 
HETATM   19  N   UNL     1      -8.725  20.097  67.187  1.00  0.00    -0.334 NA 
BRANCH  17  20
HETATM   20  C   UNL     1      -7.443  18.255  68.118  1.00  0.00    -0.263 C  
HETATM   21  O   UNL     1      -6.974  19.954  69.827  1.00  0.00    -0.308 OA 
HETATM   22  C   UNL     1      -6.471  19.081  68.930  1.00  0.00    -0.263 C  
HETATM   23  O   UNL     1      -5.260  18.906  68.848  1.00  0.00    -0.186 OA 
ENDBRANCH  17  20
ENDBRANCH  14  15
ENDBRANCH  13  14
ENDBRANCH   4  13
BRANCH  10  24
HETATM   24  N   UNL     1     -10.050  10.214  70.216  1.00  0.00    -0.413 N  
HETATM   25  C   UNL     1      -9.268   9.244  70.785  1.00  0.00    -0.253 C  
HETATM   26  O   UNL     1      -9.388   9.008  71.987  1.00  0.00    -0.358 OA 
HETATM   27  H   UNL     1     -10.661  10.737  70.844  1.00  0.00     0.000 HD 
BRANCH  25  28
HETATM   28  C   UNL     1      -8.291   8.484  69.902  1.00  0.00    -0.123 C  
BRANCH  28  29
HETATM   29  C   UNL     1      -8.871   7.254  69.237  1.00  0.00    -0.136 A  
HETATM   30  C   UNL     1      -8.772   7.018  67.848  1.00  0.00    -0.125 A  
HETATM   31  C   UNL     1      -9.337   5.837  67.327  1.00  0.00    -0.113 A  
HETATM   32  C   UNL     1      -9.504   6.291  70.052  1.00  0.00    -0.167 A  
HETATM   33  C   UNL     1      -9.955   4.896  68.149  1.00  0.00    -0.171 A  
HETATM   34  C   UNL     1     -10.046   5.126  69.513  1.00  0.00    -0.316 A  
BRANCH  30  35
HETATM   35  C   UNL     1      -8.142   8.016  66.894  1.00  0.00    -0.108 C  
HETATM   36  N   UNL     1      -8.677   7.919  65.535  1.00  0.00    -0.303 NA 
HETATM   37  H1  UNL     1      -8.253   8.590  64.894  1.00  0.00     0.000 HD 
HETATM   38  H2  UNL     1      -9.694   8.006  65.537  1.00  0.00     0.000 HD 
ENDBRANCH  30  35
ENDBRANCH  28  29
ENDBRANCH  25  28
ENDBRANCH  10  24
TORSDOF 8
ENDMDL
MODEL      135
REMARK 921   NORMALIZED FREE ENERGY PREDICTED BY IDOCK:   -6.05 KCAL/MOL
REMARK 922        TOTAL FREE ENERGY PREDICTED BY IDOCK:   -9.70 KCAL/MOL
REMARK 923 INTER-LIGAND FREE ENERGY PREDICTED BY IDOCK:   -8.55 KCAL/MOL
REMARK 924 INTRA-LIGAND FREE ENERGY PREDICTED BY IDOCK:   -1.16 KCAL/MOL
REMARK 927      BINDING AFFINITY PREDICTED BY RF-SCORE:    0.00 PKD
ROOT
HETATM    1  C   UNL     1     -10.931  13.330  67.778  1.00  0.00    -0.258 C  
HETATM    2  S   UNL     1     -11.520  12.237  66.468  1.00  0.00    -0.379 SA 
HETATM    3  C   UNL     1     -11.085  10.724  67.354  1.00  0.00    -0.296 C  
HETATM    4  C   UNL     1      -9.709  10.731  68.008  1.00  0.00    -0.174 C  
HETATM    5  O   UNL     1      -6.742  12.782  68.592  1.00  0.00    -0.076 OA 
HETATM    6  CA  UNL     1      -8.977  11.860  68.242  1.00  0.00    -0.178 C  
HETATM    7  N   UNL     1      -9.515  13.085  67.962  1.00  0.00    -0.211 N  
HETATM    8  O   UNL     1      -8.000  14.831  67.781  1.00  0.00    -0.132 OA 
HETATM    9  C   UNL     1      -7.581  11.758  68.820  1.00  0.00    -0.104 C  
HETATM   10  CA  UNL     1     -10.552  14.793  67.376  1.00  0.00    -0.268 C  
HETATM   11  OXT UNL     1      -7.206  10.802  69.478  1.00  0.00    -0.122 OA 
HETATM   12  C   UNL     1      -9.108  14.351  67.755  1.00  0.00    -0.192 C  
ENDROOT
BRANCH   4  13
HETATM   13  C   UNL     1      -9.204   9.305  68.230  1.00  0.00    -0.131 C  
BRANCH  13  14
HETATM   14  S   UNL     1     -10.262   8.400  69.416  1.00  0.00    -0.210 SA 
BRANCH  14  15
HETATM   15  C   UNL     1      -9.060   7.415  70.178  1.00  0.00    -0.148 A  
HETATM   16  N   UNL     1      -7.771   7.663  70.203  1.00  0.00    -0.090 NA 
HETATM   17  N   UNL     1      -9.295   6.256  70.869  1.00  0.00    -0.161 NA 
HETATM   18  N   UNL     1      -7.205   6.663  70.952  1.00  0.00    -0.072 NA 
HETATM   19  N   UNL     1      -8.126   5.821  71.392  1.00  0.00    -0.113 NA 
BRANCH  17  20
HETATM   20  C   UNL     1     -10.539   5.600  71.203  1.00  0.00    -0.245 C  
HETATM   21  O   UNL     1     -10.777   6.959  73.233  1.00  0.00    -0.284 OA 
HETATM   22  C   UNL     1     -11.037   5.787  72.619  1.00  0.00    -0.280 C  
HETATM   23  O   UNL     1     -11.735   4.941  73.167  1.00  0.00    -0.315 OA 
ENDBRANCH  17  20
ENDBRANCH  14  15
ENDBRANCH  13  14
ENDBRANCH   4  13
BRANCH  10  24
HETATM   24  N   UNL     1     -10.752  15.211  65.969  1.00  0.00    -0.319 N  
HETATM   25  C   UNL     1     -10.856  16.496  65.507  1.00  0.00    -0.188 C  
HETATM   26  O   UNL     1     -11.090  16.684  64.313  1.00  0.00    -1.029 OA 
HETATM   27  H   UNL     1     -10.818  14.467  65.274  1.00  0.00     0.000 HD 
BRANCH  25  28
HETATM   28  C   UNL     1     -10.695  17.642  66.493  1.00  0.00    -0.097 C  
BRANCH  28  29
HETATM   29  C   UNL     1      -9.317  18.268  66.508  1.00  0.00    -0.306 A  
HETATM   30  C   UNL     1      -9.035  19.478  67.182  1.00  0.00    -0.363 A  
HETATM   31  C   UNL     1      -7.716  19.974  67.144  1.00  0.00    -0.328 A  
HETATM   32  C   UNL     1      -8.269  17.591  65.848  1.00  0.00    -0.023 A  
HETATM   33  C   UNL     1      -6.693  19.288  66.491  1.00  0.00    -0.202 A  
HETATM   34  C   UNL     1      -6.971  18.098  65.835  1.00  0.00    -0.319 A  
BRANCH  30  35
HETATM   35  C   UNL     1     -10.107  20.290  67.884  1.00  0.00    -0.336 C  
HETATM   36  N   UNL     1     -10.390  19.809  69.236  1.00  0.00    -0.599 NA 
HETATM   37  H1  UNL     1     -11.112  20.355  69.709  1.00  0.00     0.000 HD 
HETATM   38  H2  UNL     1      -9.537  19.769  69.795  1.00  0.00     0.000 HD 
ENDBRANCH  30  35
ENDBRANCH  28  29
ENDBRANCH  25  28
ENDBRANCH  10  24
TORSDOF 8
ENDMDL
MODEL      136
REMARK 921   NORMALIZED FREE ENERGY PREDICTED BY IDOCK:   -6.05 KCAL/MOL
REMARK 922        TOTAL FREE ENERGY PREDICTED BY IDOCK:   -9.70 KCAL/MOL
REMARK 923 INTER-LIGAND FREE ENERGY PREDICTED BY IDOCK:   -7.88 KCAL/MOL
REMARK 924 INTRA-LIGAND FREE ENERGY PREDICTED BY IDOCK:   -1.82 KCAL/MOL
REMARK 927      BINDING AFFINITY PREDICTED BY RF-SCORE:    0.00 PKD
ROOT
HETATM    1  C   UNL     1     -10.468   9.752  70.566  1.00  0.00    -0.301 C  
HETATM    2  S   UNL     1     -11.591   8.406  70.135  1.00  0.00     0.221 SA 
HETATM    3  C   UNL     1     -11.774   7.836  71.839  1.00  0.00    -0.292 C  
HETATM    4  C   UNL     1     -10.476   7.744  72.633  1.00  0.00    -0.363 C  
HETATM    5  O   UNL     1      -6.874   8.331  72.455  1.00  0.00    -0.082 OA 
HETATM    6  CA  UNL     1      -9.309   8.354  72.268  1.00  0.00    -0.286 C  
HETATM    7  N   UNL     1      -9.288   9.172  71.173  1.00  0.00    -0.259 N  
HETATM    8  O   UNL     1      -7.190   9.612  70.288  1.00  0.00    -0.101 OA 
HETATM    9  C   UNL     1      -8.048   8.134  73.077  1.00  0.00    -0.173 C  
HETATM   10  CA  UNL     1      -9.532  10.296  69.437  1.00  0.00    -0.206 C  
HETATM   11  OXT UNL     1      -8.065   7.800  74.250  1.00  0.00    -0.185 OA 
HETATM   12  C   UNL     1      -8.394   9.705  70.320  1.00  0.00    -0.186 C  
ENDROOT
BRANCH   4  13
HETATM   13  C   UNL     1     -10.620   6.770  73.801  1.00  0.00    -0.295 C  
BRANCH  13  14
HETATM   14  S   UNL     1     -10.955   5.070  73.216  1.00  0.00    -0.338 SA 
BRANCH  14  15
HETATM   15  C   UNL     1      -9.336   4.557  72.883  1.00  0.00    -0.126 A  
HETATM   16  N   UNL     1      -8.363   4.474  73.762  1.00  0.00    -0.104 NA 
HETATM   17  N   UNL     1      -8.858   4.154  71.665  1.00  0.00    -0.111 NA 
HETATM   18  N   UNL     1      -7.279   3.977  73.086  1.00  0.00    -0.066 NA 
HETATM   19  N   UNL     1      -7.577   3.745  71.817  1.00  0.00    -0.056 NA 
BRANCH  17  20
HETATM   20  C   UNL     1      -9.538   3.982  70.401  1.00  0.00    -0.195 C  
HETATM   21  O   UNL     1      -8.734   6.160  69.606  1.00  0.00    -0.132 OA 
HETATM   22  C   UNL     1      -9.702   5.223  69.553  1.00  0.00    -0.178 C  
HETATM   23  O   UNL     1     -10.638   5.342  68.770  1.00  0.00    -0.160 OA 
ENDBRANCH  17  20
ENDBRANCH  14  15
ENDBRANCH  13  14
ENDBRANCH   4  13
BRANCH  10  24
HETATM   24  N   UNL     1      -9.660   9.721  68.078  1.00  0.00    -0.142 N  
HETATM   25  C   UNL     1     -10.488  10.163  67.081  1.00  0.00    -0.246 C  
HETATM   26  O   UNL     1     -10.534   9.538  66.021  1.00  0.00    -0.146 OA 
HETATM   27  H   UNL     1      -9.073   8.915  67.863  1.00  0.00     0.000 HD 
BRANCH  25  28
HETATM   28  C   UNL     1     -11.333  11.402  67.328  1.00  0.00    -0.347 C  
BRANCH  28  29
HETATM   29  C   UNL     1     -10.900  12.624  66.546  1.00  0.00    -0.285 A  
HETATM   30  C   UNL     1     -11.332  12.878  65.225  1.00  0.00    -0.333 A  
HETATM   31  C   UNL     1     -10.879  14.049  64.585  1.00  0.00    -0.416 A  
HETATM   32  C   UNL     1     -10.057  13.560  67.182  1.00  0.00    -0.245 A  
HETATM   33  C   UNL     1     -10.050  14.964  65.233  1.00  0.00    -0.380 A  
HETATM   34  C   UNL     1      -9.633  14.716  66.531  1.00  0.00    -0.308 A  
BRANCH  30  35
HETATM   35  C   UNL     1     -12.207  11.908  64.452  1.00  0.00    -0.183 C  
HETATM   36  N   UNL     1     -11.727  11.671  63.091  1.00  0.00    -0.881 NA 
HETATM   37  H1  UNL     1     -12.315  11.019  62.571  1.00  0.00     0.000 HD 
HETATM   38  H2  UNL     1     -10.754  11.362  63.095  1.00  0.00     0.000 HD 
ENDBRANCH  30  35
ENDBRANCH  28  29
ENDBRANCH  25  28
ENDBRANCH  10  24
TORSDOF 8
ENDMDL
MODEL      137
REMARK 921   NORMALIZED FREE ENERGY PREDICTED BY IDOCK:   -6.03 KCAL/MOL
REMARK 922        TOTAL FREE ENERGY PREDICTED BY IDOCK:   -9.68 KCAL/MOL
REMARK 923 INTER-LIGAND FREE ENERGY PREDICTED BY IDOCK:   -8.32 KCAL/MOL
REMARK 924 INTRA-LIGAND FREE ENERGY PREDICTED BY IDOCK:   -1.36 KCAL/MOL
REMARK 927      BINDING AFFINITY PREDICTED BY RF-SCORE:    0.00 PKD
ROOT
HETATM    1  C   UNL     1      -8.658  12.582  68.311  1.00  0.00    -0.173 C  
HETATM    2  S   UNL     1      -9.069  12.485  66.556  1.00  0.00    -0.126 SA 
HETATM    3  C   UNL     1      -9.660  10.780  66.653  1.00  0.00    -0.178 C  
HETATM    4  C   UNL     1      -8.773   9.833  67.452  1.00  0.00    -0.133 C  
HETATM    5  O   UNL     1      -5.725   9.651  69.459  1.00  0.00    -0.034 OA 
HETATM    6  CA  UNL     1      -7.808  10.243  68.328  1.00  0.00    -0.101 C  
HETATM    7  N   UNL     1      -7.655  11.575  68.591  1.00  0.00    -0.128 N  
HETATM    8  O   UNL     1      -5.631  12.185  69.545  1.00  0.00    -0.068 OA 
HETATM    9  C   UNL     1      -6.918   9.226  69.012  1.00  0.00    -0.059 C  
HETATM   10  CA  UNL     1      -7.602  13.651  68.743  1.00  0.00    -0.079 C  
HETATM   11  OXT UNL     1      -7.247   8.062  69.175  1.00  0.00    -0.073 OA 
HETATM   12  C   UNL     1      -6.731  12.411  69.100  1.00  0.00    -0.090 C  
ENDROOT
BRANCH   4  13
HETATM   13  C   UNL     1      -9.011   8.383  67.036  1.00  0.00    -0.142 C  
BRANCH  13  14
HETATM   14  S   UNL     1     -10.743   7.879  67.333  1.00  0.00    -0.124 SA 
BRANCH  14  15
HETATM   15  C   UNL     1     -10.601   7.307  68.960  1.00  0.00    -0.201 A  
HETATM   16  N   UNL     1     -10.494   6.049  69.323  1.00  0.00    -0.233 NA 
HETATM   17  N   UNL     1     -10.565   8.089  70.083  1.00  0.00    -0.233 NA 
HETATM   18  N   UNL     1     -10.352   6.056  70.686  1.00  0.00    -0.211 NA 
HETATM   19  N   UNL     1     -10.358   7.293  71.157  1.00  0.00    -0.199 NA 
BRANCH  17  20
HETATM   20  C   UNL     1     -10.562   9.528  70.224  1.00  0.00    -0.266 C  
HETATM   21  O   UNL     1     -12.928   9.525  70.879  1.00  0.00    -0.243 OA 
HETATM   22  C   UNL     1     -11.917  10.197  70.293  1.00  0.00    -0.233 C  
HETATM   23  O   UNL     1     -12.078  11.352  69.912  1.00  0.00    -0.310 OA 
ENDBRANCH  17  20
ENDBRANCH  14  15
ENDBRANCH  13  14
ENDBRANCH   4  13
BRANCH  10  24
HETATM   24  N   UNL     1      -7.049  14.554  67.707  1.00  0.00    -0.159 N  
HETATM   25  C   UNL     1      -7.615  15.714  67.250  1.00  0.00    -0.214 C  
HETATM   26  O   UNL     1      -7.067  16.325  66.332  1.00  0.00    -0.148 OA 
HETATM   27  H   UNL     1      -6.157  14.284  67.292  1.00  0.00     0.000 HD 
BRANCH  25  28
HETATM   28  C   UNL     1      -8.910  16.195  67.885  1.00  0.00    -0.182 C  
BRANCH  28  29
HETATM   29  C   UNL     1      -9.471  17.465  67.283  1.00  0.00    -0.251 A  
HETATM   30  C   UNL     1     -10.276  17.470  66.121  1.00  0.00    -0.339 A  
HETATM   31  C   UNL     1     -10.758  18.706  65.645  1.00  0.00    -0.129 A  
HETATM   32  C   UNL     1      -9.204  18.688  67.935  1.00  0.00    -0.316 A  
HETATM   33  C   UNL     1     -10.486  19.902  66.306  1.00  0.00    -0.590 A  
HETATM   34  C   UNL     1      -9.702  19.895  67.449  1.00  0.00    -0.519 A  
BRANCH  30  35
HETATM   35  C   UNL     1     -10.581  16.208  65.336  1.00  0.00    -0.380 C  
HETATM   36  N   UNL     1     -11.344  16.469  64.115  1.00  0.00    -1.452 NA 
HETATM   37  H1  UNL     1     -11.550  15.621  63.586  1.00  0.00     0.000 HD 
HETATM   38  H2  UNL     1     -10.870  17.158  63.529  1.00  0.00     0.000 HD 
ENDBRANCH  30  35
ENDBRANCH  28  29
ENDBRANCH  25  28
ENDBRANCH  10  24
TORSDOF 8
ENDMDL
MODEL      138
REMARK 921   NORMALIZED FREE ENERGY PREDICTED BY IDOCK:   -6.03 KCAL/MOL
REMARK 922        TOTAL FREE ENERGY PREDICTED BY IDOCK:   -9.67 KCAL/MOL
REMARK 923 INTER-LIGAND FREE ENERGY PREDICTED BY IDOCK:   -8.35 KCAL/MOL
REMARK 924 INTRA-LIGAND FREE ENERGY PREDICTED BY IDOCK:   -1.32 KCAL/MOL
REMARK 927      BINDING AFFINITY PREDICTED BY RF-SCORE:    0.00 PKD
ROOT
HETATM    1  C   UNL     1      -9.023  10.395  66.218  1.00  0.00    -0.155 C  
HETATM    2  S   UNL     1      -9.674  10.551  64.542  1.00  0.00    -0.336 SA 
HETATM    3  C   UNL     1     -10.242  12.250  64.779  1.00  0.00    -0.282 C  
HETATM    4  C   UNL     1     -10.977  12.509  66.088  1.00  0.00    -0.318 C  
HETATM    5  O   UNL     1     -12.070  10.946  69.205  1.00  0.00    -0.332 OA 
HETATM    6  CA  UNL     1     -10.932  11.676  67.171  1.00  0.00    -0.280 C  
HETATM    7  N   UNL     1     -10.123  10.575  67.144  1.00  0.00    -0.200 N  
HETATM    8  O   UNL     1     -10.606   8.934  68.709  1.00  0.00    -0.214 OA 
HETATM    9  C   UNL     1     -11.766  11.976  68.399  1.00  0.00    -0.332 C  
HETATM   10  CA  UNL     1      -8.868   8.950  66.797  1.00  0.00    -0.124 C  
HETATM   11  OXT UNL     1     -12.154  13.099  68.677  1.00  0.00    -0.315 OA 
HETATM   12  C   UNL     1      -9.981   9.402  67.787  1.00  0.00    -0.184 C  
ENDROOT
BRANCH   4  13
HETATM   13  C   UNL     1     -11.876  13.739  65.974  1.00  0.00    -0.390 C  
BRANCH  13  14
HETATM   14  S   UNL     1     -10.916  15.227  65.518  1.00  0.00    -0.353 SA 
BRANCH  14  15
HETATM   15  C   UNL     1     -10.582  15.849  67.098  1.00  0.00    -0.316 A  
HETATM   16  N   UNL     1     -11.428  15.879  68.104  1.00  0.00    -0.326 NA 
HETATM   17  N   UNL     1      -9.389  16.376  67.516  1.00  0.00    -0.213 NA 
HETATM   18  N   UNL     1     -10.736  16.397  69.168  1.00  0.00    -0.295 NA 
HETATM   19  N   UNL     1      -9.485  16.671  68.833  1.00  0.00    -0.253 NA 
BRANCH  17  20
HETATM   20  C   UNL     1      -8.124  16.493  66.827  1.00  0.00    -0.251 C  
HETATM   21  O   UNL     1      -8.095  18.923  67.176  1.00  0.00    -0.257 OA 
HETATM   22  C   UNL     1      -7.721  17.886  66.399  1.00  0.00    -0.276 C  
HETATM   23  O   UNL     1      -6.998  18.070  65.425  1.00  0.00    -0.481 OA 
ENDBRANCH  17  20
ENDBRANCH  14  15
ENDBRANCH  13  14
ENDBRANCH   4  13
BRANCH  10  24
HETATM   24  N   UNL     1      -9.205   7.802  65.923  1.00  0.00    -0.382 N  
HETATM   25  C   UNL     1      -8.768   6.512  66.067  1.00  0.00    -0.148 C  
HETATM   26  O   UNL     1      -9.082   5.677  65.218  1.00  0.00    -0.093 OA 
HETATM   27  H   UNL     1      -9.826   7.991  65.136  1.00  0.00     0.000 HD 
BRANCH  25  28
HETATM   28  C   UNL     1      -7.896   6.165  67.263  1.00  0.00    -0.102 C  
BRANCH  28  29
HETATM   29  C   UNL     1      -8.496   5.139  68.200  1.00  0.00    -0.099 A  
HETATM   30  C   UNL     1      -8.187   3.762  68.124  1.00  0.00    -0.089 A  
HETATM   31  C   UNL     1      -8.792   2.888  69.050  1.00  0.00    -0.151 A  
HETATM   32  C   UNL     1      -9.372   5.589  69.211  1.00  0.00    -0.153 A  
HETATM   33  C   UNL     1      -9.651   3.353  70.044  1.00  0.00    -0.202 A  
HETATM   34  C   UNL     1      -9.948   4.705  70.121  1.00  0.00    -0.304 A  
BRANCH  30  35
HETATM   35  C   UNL     1      -7.287   3.187  67.047  1.00  0.00    -0.062 C  
HETATM   36  N   UNL     1      -8.005   2.878  65.811  1.00  0.00    -0.085 NA 
HETATM   37  H1  UNL     1      -7.399   2.491  65.086  1.00  0.00     0.000 HD 
HETATM   38  H2  UNL     1      -8.508   3.697  65.467  1.00  0.00     0.000 HD 
ENDBRANCH  30  35
ENDBRANCH  28  29
ENDBRANCH  25  28
ENDBRANCH  10  24
TORSDOF 8
ENDMDL
MODEL      139
REMARK 921   NORMALIZED FREE ENERGY PREDICTED BY IDOCK:   -6.03 KCAL/MOL
REMARK 922        TOTAL FREE ENERGY PREDICTED BY IDOCK:   -9.67 KCAL/MOL
REMARK 923 INTER-LIGAND FREE ENERGY PREDICTED BY IDOCK:   -9.88 KCAL/MOL
REMARK 924 INTRA-LIGAND FREE ENERGY PREDICTED BY IDOCK:    0.21 KCAL/MOL
REMARK 927      BINDING AFFINITY PREDICTED BY RF-SCORE:    0.00 PKD
ROOT
HETATM    1  C   UNL     1      -8.987  14.627  67.261  1.00  0.00    -0.205 C  
HETATM    2  S   UNL     1      -8.043  13.660  68.458  1.00  0.00    -0.078 SA 
HETATM    3  C   UNL     1      -7.684  12.325  67.295  1.00  0.00    -0.161 C  
HETATM    4  C   UNL     1      -8.869  11.863  66.456  1.00  0.00    -0.178 C  
HETATM    5  O   UNL     1     -12.405  12.482  65.769  1.00  0.00    -0.627 OA 
HETATM    6  CA  UNL     1     -10.021  12.580  66.294  1.00  0.00    -0.252 C  
HETATM    7  N   UNL     1     -10.120  13.831  66.837  1.00  0.00    -0.256 N  
HETATM    8  O   UNL     1     -12.274  14.660  67.063  1.00  0.00    -0.307 OA 
HETATM    9  C   UNL     1     -11.179  11.998  65.511  1.00  0.00    -0.321 C  
HETATM   10  CA  UNL     1     -10.017  15.661  67.825  1.00  0.00    -0.223 C  
HETATM   11  OXT UNL     1     -11.035  11.130  64.664  1.00  0.00    -0.281 OA 
HETATM   12  C   UNL     1     -11.072  14.719  67.175  1.00  0.00    -0.333 C  
ENDROOT
BRANCH   4  13
HETATM   13  C   UNL     1      -8.652  10.439  65.944  1.00  0.00    -0.158 C  
BRANCH  13  14
HETATM   14  S   UNL     1      -7.722   9.431  67.152  1.00  0.00    -0.091 SA 
BRANCH  14  15
HETATM   15  C   UNL     1      -9.020   8.485  67.798  1.00  0.00    -0.136 A  
HETATM   16  N   UNL     1     -10.155   8.226  67.188  1.00  0.00    -0.235 NA 
HETATM   17  N   UNL     1      -9.031   7.868  69.020  1.00  0.00    -0.145 NA 
HETATM   18  N   UNL     1     -10.862   7.407  68.030  1.00  0.00    -0.116 NA 
HETATM   19  N   UNL     1     -10.174   7.154  69.133  1.00  0.00    -0.188 NA 
BRANCH  17  20
HETATM   20  C   UNL     1      -8.003   7.773  70.031  1.00  0.00    -0.113 C  
HETATM   21  O   UNL     1      -9.156   9.418  71.441  1.00  0.00    -0.285 OA 
HETATM   22  C   UNL     1      -7.980   8.870  71.071  1.00  0.00    -0.151 C  
HETATM   23  O   UNL     1      -6.939   9.196  71.632  1.00  0.00    -0.268 OA 
ENDBRANCH  17  20
ENDBRANCH  14  15
ENDBRANCH  13  14
ENDBRANCH   4  13
BRANCH  10  24
HETATM   24  N   UNL     1     -10.114  15.827  69.294  1.00  0.00    -0.237 N  
HETATM   25  C   UNL     1     -11.065  15.280  70.115  1.00  0.00    -0.293 C  
HETATM   26  O   UNL     1     -11.055  15.565  71.312  1.00  0.00    -0.355 OA 
HETATM   27  H   UNL     1      -9.402  16.406  69.739  1.00  0.00     0.000 HD 
BRANCH  25  28
HETATM   28  C   UNL     1     -12.108  14.354  69.510  1.00  0.00    -0.366 C  
BRANCH  28  29
HETATM   29  C   UNL     1     -12.259  13.028  70.224  1.00  0.00    -0.368 A  
HETATM   30  C   UNL     1     -13.114  12.852  71.335  1.00  0.00    -0.331 A  
HETATM   31  C   UNL     1     -13.192  11.574  71.925  1.00  0.00    -0.479 A  
HETATM   32  C   UNL     1     -11.540  11.918  69.731  1.00  0.00    -0.359 A  
HETATM   33  C   UNL     1     -12.477  10.489  71.420  1.00  0.00    -0.516 A  
HETATM   34  C   UNL     1     -11.643  10.662  70.326  1.00  0.00    -0.424 A  
BRANCH  30  35
HETATM   35  C   UNL     1     -13.895  13.997  71.953  1.00  0.00    -0.445 C  
HETATM   36  N   UNL     1     -13.270  14.519  73.169  1.00  0.00    -0.603 NA 
HETATM   37  H1  UNL     1     -13.795  15.290  73.584  1.00  0.00     0.000 HD 
HETATM   38  H2  UNL     1     -12.302  14.789  72.994  1.00  0.00     0.000 HD 
ENDBRANCH  30  35
ENDBRANCH  28  29
ENDBRANCH  25  28
ENDBRANCH  10  24
TORSDOF 8
ENDMDL
MODEL      140
REMARK 921   NORMALIZED FREE ENERGY PREDICTED BY IDOCK:   -6.03 KCAL/MOL
REMARK 922        TOTAL FREE ENERGY PREDICTED BY IDOCK:   -9.67 KCAL/MOL
REMARK 923 INTER-LIGAND FREE ENERGY PREDICTED BY IDOCK:   -8.26 KCAL/MOL
REMARK 924 INTRA-LIGAND FREE ENERGY PREDICTED BY IDOCK:   -1.41 KCAL/MOL
REMARK 927      BINDING AFFINITY PREDICTED BY RF-SCORE:    0.00 PKD
ROOT
HETATM    1  C   UNL     1     -11.938  11.377  68.275  1.00  0.00    -0.164 C  
HETATM    2  S   UNL     1     -11.449  12.282  69.758  1.00  0.00    -0.097 SA 
HETATM    3  C   UNL     1     -12.120  13.856  69.178  1.00  0.00    -0.338 C  
HETATM    4  C   UNL     1     -11.797  14.203  67.730  1.00  0.00    -0.414 C  
HETATM    5  O   UNL     1     -10.128  12.981  64.717  1.00  0.00    -0.286 OA 
HETATM    6  CA  UNL     1     -11.355  13.299  66.805  1.00  0.00    -0.327 C  
HETATM    7  N   UNL     1     -11.265  11.977  67.142  1.00  0.00    -0.296 N  
HETATM    8  O   UNL     1      -9.926  10.679  65.763  1.00  0.00    -0.232 OA 
HETATM    9  C   UNL     1     -10.977  13.756  65.412  1.00  0.00    -0.309 C  
HETATM   10  CA  UNL     1     -11.160  10.060  67.948  1.00  0.00    -0.195 C  
HETATM   11  OXT UNL     1     -11.418  14.776  64.908  1.00  0.00    -0.378 OA 
HETATM   12  C   UNL     1     -10.654  10.859  66.711  1.00  0.00    -0.259 C  
ENDROOT
BRANCH   4  13
HETATM   13  C   UNL     1     -11.894  15.710  67.496  1.00  0.00     0.222 C  
BRANCH  13  14
HETATM   14  S   UNL     1     -10.711  16.626  68.545  1.00  0.00    -0.359 SA 
BRANCH  14  15
HETATM   15  C   UNL     1     -10.269  17.888  67.446  1.00  0.00    -0.360 A  
HETATM   16  N   UNL     1     -10.862  19.056  67.343  1.00  0.00    -0.466 NA 
HETATM   17  N   UNL     1      -9.235  17.844  66.550  1.00  0.00    -0.288 NA 
HETATM   18  N   UNL     1     -10.161  19.757  66.397  1.00  0.00    -0.451 NA 
HETATM   19  N   UNL     1      -9.147  19.044  65.932  1.00  0.00    -0.405 NA 
BRANCH  17  20
HETATM   20  C   UNL     1      -8.232  16.827  66.325  1.00  0.00    -0.324 C  
HETATM   21  O   UNL     1      -6.855  17.699  68.161  1.00  0.00    -0.196 OA 
HETATM   22  C   UNL     1      -6.886  17.057  66.974  1.00  0.00    -0.196 C  
HETATM   23  O   UNL     1      -5.857  16.599  66.490  1.00  0.00    -0.324 OA 
ENDBRANCH  17  20
ENDBRANCH  14  15
ENDBRANCH  13  14
ENDBRANCH   4  13
BRANCH  10  24
HETATM   24  N   UNL     1     -10.116   9.606  68.896  1.00  0.00    -0.180 N  
HETATM   25  C   UNL     1      -9.802   8.308  69.202  1.00  0.00    -0.179 C  
HETATM   26  O   UNL     1      -8.951   8.087  70.064  1.00  0.00    -0.142 OA 
HETATM   27  H   UNL     1      -9.578  10.332  69.369  1.00  0.00     0.000 HD 
BRANCH  25  28
HETATM   28  C   UNL     1     -10.529   7.189  68.473  1.00  0.00    -0.229 C  
BRANCH  28  29
HETATM   29  C   UNL     1      -9.664   6.399  67.514  1.00  0.00    -0.137 A  
HETATM   30  C   UNL     1      -9.304   5.052  67.743  1.00  0.00    -0.146 A  
HETATM   31  C   UNL     1      -8.502   4.401  66.783  1.00  0.00    -0.105 A  
HETATM   32  C   UNL     1      -9.234   7.031  66.327  1.00  0.00    -0.166 A  
HETATM   33  C   UNL     1      -8.091   5.041  65.615  1.00  0.00    -0.113 A  
HETATM   34  C   UNL     1      -8.451   6.361  65.390  1.00  0.00    -0.126 A  
BRANCH  30  35
HETATM   35  C   UNL     1      -9.690   4.308  69.007  1.00  0.00    -0.139 C  
HETATM   36  N   UNL     1      -9.532   2.858  68.884  1.00  0.00    -0.155 NA 
HETATM   37  H1  UNL     1      -9.792   2.357  69.734  1.00  0.00     0.000 HD 
HETATM   38  H2  UNL     1      -8.583   2.618  68.594  1.00  0.00     0.000 HD 
ENDBRANCH  30  35
ENDBRANCH  28  29
ENDBRANCH  25  28
ENDBRANCH  10  24
TORSDOF 8
ENDMDL
MODEL      141
REMARK 921   NORMALIZED FREE ENERGY PREDICTED BY IDOCK:   -6.02 KCAL/MOL
REMARK 922        TOTAL FREE ENERGY PREDICTED BY IDOCK:   -9.65 KCAL/MOL
REMARK 923 INTER-LIGAND FREE ENERGY PREDICTED BY IDOCK:   -8.91 KCAL/MOL
REMARK 924 INTRA-LIGAND FREE ENERGY PREDICTED BY IDOCK:   -0.75 KCAL/MOL
REMARK 927      BINDING AFFINITY PREDICTED BY RF-SCORE:    0.00 PKD
ROOT
HETATM    1  C   UNL     1      -8.595   9.927  64.595  1.00  0.00    -0.182 C  
HETATM    2  S   UNL     1      -9.498  10.196  63.056  1.00  0.00    -0.160 SA 
HETATM    3  C   UNL     1     -10.272  11.727  63.623  1.00  0.00    -0.428 C  
HETATM    4  C   UNL     1     -10.839  11.680  65.036  1.00  0.00    -0.346 C  
HETATM    5  O   UNL     1     -11.223   9.549  67.980  1.00  0.00    -0.090 OA 
HETATM    6  CA  UNL     1     -10.515  10.728  65.961  1.00  0.00    -0.208 C  
HETATM    7  N   UNL     1      -9.563   9.793  65.664  1.00  0.00    -0.244 N  
HETATM    8  O   UNL     1      -9.565   7.898  67.001  1.00  0.00    -0.165 OA 
HETATM    9  C   UNL     1     -11.197  10.715  67.313  1.00  0.00    -0.161 C  
HETATM   10  CA  UNL     1      -8.145   8.464  64.917  1.00  0.00    -0.149 C  
HETATM   11  OXT UNL     1     -11.703  11.709  67.809  1.00  0.00    -0.489 OA 
HETATM   12  C   UNL     1      -9.157   8.584  66.094  1.00  0.00    -0.195 C  
ENDROOT
BRANCH   4  13
HETATM   13  C   UNL     1     -11.918  12.745  65.226  1.00  0.00    -0.429 C  
BRANCH  13  14
HETATM   14  S   UNL     1     -11.261  14.423  64.913  1.00  0.00    -0.400 SA 
BRANCH  14  15
HETATM   15  C   UNL     1     -11.282  15.045  66.528  1.00  0.00    -0.312 A  
HETATM   16  N   UNL     1     -11.722  14.407  67.588  1.00  0.00    -0.375 NA 
HETATM   17  N   UNL     1     -10.827  16.276  66.918  1.00  0.00    -0.219 NA 
HETATM   18  N   UNL     1     -11.502  15.241  68.654  1.00  0.00    -0.319 NA 
HETATM   19  N   UNL     1     -10.927  16.367  68.264  1.00  0.00    -0.350 NA 
BRANCH  17  20
HETATM   20  C   UNL     1     -10.176  17.319  66.157  1.00  0.00    -0.331 C  
HETATM   21  O   UNL     1      -8.017  16.162  66.311  1.00  0.00    -0.271 OA 
HETATM   22  C   UNL     1      -8.665  17.340  66.205  1.00  0.00    -0.224 C  
HETATM   23  O   UNL     1      -8.036  18.383  66.060  1.00  0.00    -0.466 OA 
ENDBRANCH  17  20
ENDBRANCH  14  15
ENDBRANCH  13  14
ENDBRANCH   4  13
BRANCH  10  24
HETATM   24  N   UNL     1      -8.431   7.404  63.923  1.00  0.00    -0.351 N  
HETATM   25  C   UNL     1      -8.075   6.085  64.011  1.00  0.00    -0.089 C  
HETATM   26  O   UNL     1      -8.325   5.334  63.069  1.00  0.00    -0.109 OA 
HETATM   27  H   UNL     1      -8.946   7.685  63.088  1.00  0.00     0.000 HD 
BRANCH  25  28
HETATM   28  C   UNL     1      -7.366   5.602  65.267  1.00  0.00    -0.072 C  
BRANCH  28  29
HETATM   29  C   UNL     1      -7.678   4.173  65.655  1.00  0.00    -0.090 A  
HETATM   30  C   UNL     1      -8.968   3.754  66.051  1.00  0.00    -0.136 A  
HETATM   31  C   UNL     1      -9.159   2.397  66.384  1.00  0.00    -0.088 A  
HETATM   32  C   UNL     1      -6.641   3.219  65.580  1.00  0.00    -0.036 A  
HETATM   33  C   UNL     1      -8.122   1.469  66.300  1.00  0.00    -0.076 A  
HETATM   34  C   UNL     1      -6.859   1.881  65.904  1.00  0.00    -0.038 A  
BRANCH  30  35
HETATM   35  C   UNL     1     -10.131   4.718  66.195  1.00  0.00    -0.262 C  
HETATM   36  N   UNL     1     -11.174   4.503  65.192  1.00  0.00    -1.047 NA 
HETATM   37  H1  UNL     1     -11.957   5.151  65.288  1.00  0.00     0.000 HD 
HETATM   38  H2  UNL     1     -11.498   3.535  65.203  1.00  0.00     0.000 HD 
ENDBRANCH  30  35
ENDBRANCH  28  29
ENDBRANCH  25  28
ENDBRANCH  10  24
TORSDOF 8
ENDMDL
MODEL      142
REMARK 921   NORMALIZED FREE ENERGY PREDICTED BY IDOCK:   -6.01 KCAL/MOL
REMARK 922        TOTAL FREE ENERGY PREDICTED BY IDOCK:   -9.64 KCAL/MOL
REMARK 923 INTER-LIGAND FREE ENERGY PREDICTED BY IDOCK:   -8.44 KCAL/MOL
REMARK 924 INTRA-LIGAND FREE ENERGY PREDICTED BY IDOCK:   -1.20 KCAL/MOL
REMARK 927      BINDING AFFINITY PREDICTED BY RF-SCORE:    0.00 PKD
ROOT
HETATM    1  C   UNL     1      -9.904  11.760  65.649  1.00  0.00    -0.237 C  
HETATM    2  S   UNL     1     -11.649  12.108  65.953  1.00  0.00    -0.308 SA 
HETATM    3  C   UNL     1     -11.425  13.901  65.967  1.00  0.00    -0.340 C  
HETATM    4  C   UNL     1     -10.227  14.397  66.766  1.00  0.00    -0.270 C  
HETATM    5  O   UNL     1      -7.370  13.302  68.765  1.00  0.00    -0.103 OA 
HETATM    6  CA  UNL     1      -9.185  13.604  67.158  1.00  0.00    -0.244 C  
HETATM    7  N   UNL     1      -9.141  12.298  66.756  1.00  0.00    -0.208 N  
HETATM    8  O   UNL     1      -7.733  10.918  67.977  1.00  0.00    -0.097 OA 
HETATM    9  C   UNL     1      -8.080  14.169  68.025  1.00  0.00    -0.149 C  
HETATM   10  CA  UNL     1      -9.371  10.349  66.061  1.00  0.00    -0.178 C  
HETATM   11  OXT UNL     1      -7.814  15.360  68.065  1.00  0.00    -0.120 OA 
HETATM   12  C   UNL     1      -8.535  11.148  67.103  1.00  0.00    -0.137 C  
ENDROOT
BRANCH   4  13
HETATM   13  C   UNL     1     -10.418  15.853  67.189  1.00  0.00    -0.313 C  
BRANCH  13  14
HETATM   14  S   UNL     1     -10.315  16.983  65.755  1.00  0.00    -0.176 SA 
BRANCH  14  15
HETATM   15  C   UNL     1      -9.879  18.445  66.572  1.00  0.00    -0.359 A  
HETATM   16  N   UNL     1     -10.701  19.224  67.237  1.00  0.00    -0.478 NA 
HETATM   17  N   UNL     1      -8.618  18.974  66.649  1.00  0.00    -0.301 NA 
HETATM   18  N   UNL     1      -9.931  20.229  67.764  1.00  0.00    -0.411 NA 
HETATM   19  N   UNL     1      -8.657  20.069  67.442  1.00  0.00    -0.331 NA 
BRANCH  17  20
HETATM   20  C   UNL     1      -7.356  18.463  66.164  1.00  0.00    -0.255 C  
HETATM   21  O   UNL     1      -6.803  20.631  65.152  1.00  0.00    -0.240 OA 
HETATM   22  C   UNL     1      -6.661  19.290  65.106  1.00  0.00    -0.214 C  
HETATM   23  O   UNL     1      -5.913  18.774  64.281  1.00  0.00    -0.393 OA 
ENDBRANCH  17  20
ENDBRANCH  14  15
ENDBRANCH  13  14
ENDBRANCH   4  13
BRANCH  10  24
HETATM   24  N   UNL     1     -10.332   9.368  66.617  1.00  0.00    -0.238 N  
HETATM   25  C   UNL     1     -10.169   8.010  66.675  1.00  0.00    -0.245 C  
HETATM   26  O   UNL     1     -11.089   7.316  67.106  1.00  0.00    -0.295 OA 
HETATM   27  H   UNL     1     -11.202   9.742  66.995  1.00  0.00     0.000 HD 
BRANCH  25  28
HETATM   28  C   UNL     1      -8.859   7.410  66.187  1.00  0.00    -0.185 C  
BRANCH  28  29
HETATM   29  C   UNL     1      -8.476   6.109  66.859  1.00  0.00    -0.105 A  
HETATM   30  C   UNL     1      -8.838   4.845  66.340  1.00  0.00    -0.113 A  
HETATM   31  C   UNL     1      -8.424   3.691  67.036  1.00  0.00    -0.105 A  
HETATM   32  C   UNL     1      -7.695   6.168  68.033  1.00  0.00    -0.102 A  
HETATM   33  C   UNL     1      -7.649   3.771  68.192  1.00  0.00    -0.065 A  
HETATM   34  C   UNL     1      -7.289   5.012  68.696  1.00  0.00    -0.062 A  
BRANCH  30  35
HETATM   35  C   UNL     1      -9.707   4.689  65.106  1.00  0.00    -0.106 C  
HETATM   36  N   UNL     1     -11.134   4.620  65.421  1.00  0.00    -0.958 NA 
HETATM   37  H1  UNL     1     -11.719   4.515  64.592  1.00  0.00     0.000 HD 
HETATM   38  H2  UNL     1     -11.425   5.427  65.973  1.00  0.00     0.000 HD 
ENDBRANCH  30  35
ENDBRANCH  28  29
ENDBRANCH  25  28
ENDBRANCH  10  24
TORSDOF 8
ENDMDL
MODEL      143
REMARK 921   NORMALIZED FREE ENERGY PREDICTED BY IDOCK:   -6.01 KCAL/MOL
REMARK 922        TOTAL FREE ENERGY PREDICTED BY IDOCK:   -9.64 KCAL/MOL
REMARK 923 INTER-LIGAND FREE ENERGY PREDICTED BY IDOCK:   -8.52 KCAL/MOL
REMARK 924 INTRA-LIGAND FREE ENERGY PREDICTED BY IDOCK:   -1.13 KCAL/MOL
REMARK 927      BINDING AFFINITY PREDICTED BY RF-SCORE:    0.00 PKD
ROOT
HETATM    1  C   UNL     1     -11.032   9.416  68.474  1.00  0.00    -0.030 C  
HETATM    2  S   UNL     1     -10.213  10.553  69.610  1.00  0.00    -0.109 SA 
HETATM    3  C   UNL     1     -10.517  12.008  68.583  1.00  0.00    -0.218 C  
HETATM    4  C   UNL     1     -10.240  11.819  67.097  1.00  0.00    -0.236 C  
HETATM    5  O   UNL     1      -9.183   9.380  64.590  1.00  0.00    -0.220 OA 
HETATM    6  CA  UNL     1     -10.115  10.602  66.488  1.00  0.00    -0.223 C  
HETATM    7  N   UNL     1     -10.328   9.461  67.210  1.00  0.00    -0.245 N  
HETATM    8  O   UNL     1      -9.473   7.514  66.285  1.00  0.00    -0.169 OA 
HETATM    9  C   UNL     1      -9.752  10.517  65.021  1.00  0.00    -0.292 C  
HETATM   10  CA  UNL     1     -10.635   7.905  68.559  1.00  0.00    -0.106 C  
HETATM   11  OXT UNL     1      -9.966  11.424  64.233  1.00  0.00    -0.247 OA 
HETATM   12  C   UNL     1     -10.051   8.146  67.136  1.00  0.00    -0.264 C  
ENDROOT
BRANCH   4  13
HETATM   13  C   UNL     1      -9.979  13.163  66.417  1.00  0.00    -0.282 C  
BRANCH  13  14
HETATM   14  S   UNL     1     -11.020  14.485  67.131  1.00  0.00    -0.312 SA 
BRANCH  14  15
HETATM   15  C   UNL     1     -11.159  15.519  65.750  1.00  0.00    -0.217 A  
HETATM   16  N   UNL     1     -11.683  15.184  64.593  1.00  0.00    -0.393 NA 
HETATM   17  N   UNL     1     -10.757  16.827  65.684  1.00  0.00    -0.362 NA 
HETATM   18  N   UNL     1     -11.639  16.311  63.814  1.00  0.00    -0.894 NA 
HETATM   19  N   UNL     1     -11.109  17.327  64.478  1.00  0.00    -0.872 NA 
BRANCH  17  20
HETATM   20  C   UNL     1     -10.202  17.689  66.703  1.00  0.00    -0.341 C  
HETATM   21  O   UNL     1      -7.956  17.487  65.732  1.00  0.00    -0.548 OA 
HETATM   22  C   UNL     1      -8.696  17.678  66.844  1.00  0.00    -0.246 C  
HETATM   23  O   UNL     1      -8.154  17.927  67.915  1.00  0.00    -0.234 OA 
ENDBRANCH  17  20
ENDBRANCH  14  15
ENDBRANCH  13  14
ENDBRANCH   4  13
BRANCH  10  24
HETATM   24  N   UNL     1      -9.662   7.491  69.596  1.00  0.00    -0.167 N  
HETATM   25  C   UNL     1      -9.302   6.207  69.910  1.00  0.00    -0.149 C  
HETATM   26  O   UNL     1      -8.527   6.016  70.847  1.00  0.00    -0.124 OA 
HETATM   27  H   UNL     1      -9.215   8.236  70.130  1.00  0.00     0.000 HD 
BRANCH  25  28
HETATM   28  C   UNL     1      -9.889   5.064  69.097  1.00  0.00    -0.262 C  
BRANCH  28  29
HETATM   29  C   UNL     1      -9.027   3.821  69.047  1.00  0.00    -0.179 A  
HETATM   30  C   UNL     1      -7.929   3.687  68.168  1.00  0.00    -0.071 A  
HETATM   31  C   UNL     1      -7.182   2.493  68.206  1.00  0.00    -0.048 A  
HETATM   32  C   UNL     1      -9.318   2.771  69.945  1.00  0.00    -0.202 A  
HETATM   33  C   UNL     1      -7.482   1.468  69.103  1.00  0.00    -0.042 A  
HETATM   34  C   UNL     1      -8.556   1.604  69.969  1.00  0.00    -0.091 A  
BRANCH  30  35
HETATM   35  C   UNL     1      -7.569   4.749  67.146  1.00  0.00    -0.087 C  
HETATM   36  N   UNL     1      -6.168   5.165  67.229  1.00  0.00    -0.034 NA 
HETATM   37  H1  UNL     1      -5.925   5.879  66.541  1.00  0.00     0.000 HD 
HETATM   38  H2  UNL     1      -5.544   4.361  67.156  1.00  0.00     0.000 HD 
ENDBRANCH  30  35
ENDBRANCH  28  29
ENDBRANCH  25  28
ENDBRANCH  10  24
TORSDOF 8
ENDMDL
MODEL      144
REMARK 921   NORMALIZED FREE ENERGY PREDICTED BY IDOCK:   -5.99 KCAL/MOL
REMARK 922        TOTAL FREE ENERGY PREDICTED BY IDOCK:   -9.62 KCAL/MOL
REMARK 923 INTER-LIGAND FREE ENERGY PREDICTED BY IDOCK:   -8.42 KCAL/MOL
REMARK 924 INTRA-LIGAND FREE ENERGY PREDICTED BY IDOCK:   -1.20 KCAL/MOL
REMARK 927      BINDING AFFINITY PREDICTED BY RF-SCORE:    0.00 PKD
ROOT
HETATM    1  C   UNL     1     -10.697  12.677  68.342  1.00  0.00    -0.242 C  
HETATM    2  S   UNL     1      -9.123  11.795  68.306  1.00  0.00    -0.178 SA 
HETATM    3  C   UNL     1      -9.888  10.159  68.292  1.00  0.00    -0.145 C  
HETATM    4  C   UNL     1     -11.034   9.973  69.279  1.00  0.00    -0.264 C  
HETATM    5  O   UNL     1     -13.040  11.683  71.810  1.00  0.00    -0.465 OA 
HETATM    6  CA  UNL     1     -11.698  11.001  69.886  1.00  0.00    -0.346 C  
HETATM    7  N   UNL     1     -11.398  12.292  69.549  1.00  0.00    -0.225 N  
HETATM    8  O   UNL     1     -12.086  13.911  71.060  1.00  0.00    -0.340 OA 
HETATM    9  C   UNL     1     -12.767  10.715  70.920  1.00  0.00    -0.404 C  
HETATM   10  CA  UNL     1     -10.689  14.138  68.898  1.00  0.00    -0.256 C  
HETATM   11  OXT UNL     1     -13.380   9.661  70.962  1.00  0.00    -0.325 OA 
HETATM   12  C   UNL     1     -11.551  13.533  70.045  1.00  0.00    -0.164 C  
ENDROOT
BRANCH   4  13
HETATM   13  C   UNL     1     -11.239   8.494  69.603  1.00  0.00     0.092 C  
BRANCH  13  14
HETATM   14  S   UNL     1      -9.768   7.503  69.160  1.00  0.00    -0.169 SA 
BRANCH  14  15
HETATM   15  C   UNL     1      -9.683   6.477  70.551  1.00  0.00    -0.172 A  
HETATM   16  N   UNL     1     -10.685   6.183  71.348  1.00  0.00    -0.246 NA 
HETATM   17  N   UNL     1      -8.565   5.822  70.996  1.00  0.00    -0.129 NA 
HETATM   18  N   UNL     1     -10.189   5.305  72.276  1.00  0.00    -0.193 NA 
HETATM   19  N   UNL     1      -8.909   5.051  72.053  1.00  0.00    -0.128 NA 
BRANCH  17  20
HETATM   20  C   UNL     1      -7.237   5.745  70.432  1.00  0.00    -0.071 C  
HETATM   21  O   UNL     1      -6.511   7.699  71.729  1.00  0.00    -0.042 OA 
HETATM   22  C   UNL     1      -6.362   6.967  70.606  1.00  0.00    -0.046 C  
HETATM   23  O   UNL     1      -5.480   7.239  69.799  1.00  0.00    -0.022 OA 
ENDBRANCH  17  20
ENDBRANCH  14  15
ENDBRANCH  13  14
ENDBRANCH   4  13
BRANCH  10  24
HETATM   24  N   UNL     1      -9.393  14.730  69.305  1.00  0.00    -0.393 N  
HETATM   25  C   UNL     1      -8.610  15.569  68.559  1.00  0.00    -0.176 C  
HETATM   26  O   UNL     1      -7.521  15.927  69.008  1.00  0.00    -0.166 OA 
HETATM   27  H   UNL     1      -9.050  14.487  70.235  1.00  0.00     0.000 HD 
BRANCH  25  28
HETATM   28  C   UNL     1      -9.111  16.014  67.194  1.00  0.00    -0.224 C  
BRANCH  28  29
HETATM   29  C   UNL     1      -9.295  17.510  67.050  1.00  0.00    -0.262 A  
HETATM   30  C   UNL     1      -8.333  18.343  66.437  1.00  0.00    -0.272 A  
HETATM   31  C   UNL     1      -8.604  19.723  66.343  1.00  0.00    -0.398 A  
HETATM   32  C   UNL     1     -10.497  18.083  67.519  1.00  0.00    -0.408 A  
HETATM   33  C   UNL     1      -9.799  20.269  66.809  1.00  0.00    -0.586 A  
HETATM   34  C   UNL     1     -10.745  19.449  67.405  1.00  0.00    -0.594 A  
BRANCH  30  35
HETATM   35  C   UNL     1      -6.999  17.819  65.938  1.00  0.00    -0.256 C  
HETATM   36  N   UNL     1      -6.038  18.886  65.658  1.00  0.00    -0.205 NA 
HETATM   37  H1  UNL     1      -5.141  18.533  65.323  1.00  0.00     0.000 HD 
HETATM   38  H2  UNL     1      -5.913  19.488  66.473  1.00  0.00     0.000 HD 
ENDBRANCH  30  35
ENDBRANCH  28  29
ENDBRANCH  25  28
ENDBRANCH  10  24
TORSDOF 8
ENDMDL
MODEL      145
REMARK 921   NORMALIZED FREE ENERGY PREDICTED BY IDOCK:   -5.99 KCAL/MOL
REMARK 922        TOTAL FREE ENERGY PREDICTED BY IDOCK:   -9.62 KCAL/MOL
REMARK 923 INTER-LIGAND FREE ENERGY PREDICTED BY IDOCK:   -8.29 KCAL/MOL
REMARK 924 INTRA-LIGAND FREE ENERGY PREDICTED BY IDOCK:   -1.33 KCAL/MOL
REMARK 927      BINDING AFFINITY PREDICTED BY RF-SCORE:    0.00 PKD
ROOT
HETATM    1  C   UNL     1      -7.659  13.148  67.628  1.00  0.00    -0.171 C  
HETATM    2  S   UNL     1      -6.843  12.485  69.095  1.00  0.00    -0.017 SA 
HETATM    3  C   UNL     1      -7.498  10.816  68.867  1.00  0.00    -0.116 C  
HETATM    4  C   UNL     1      -8.979  10.746  68.517  1.00  0.00    -0.160 C  
HETATM    5  O   UNL     1     -11.940  12.777  67.840  1.00  0.00    -0.346 OA 
HETATM    6  CA  UNL     1      -9.710  11.804  68.057  1.00  0.00    -0.185 C  
HETATM    7  N   UNL     1      -9.089  12.996  67.804  1.00  0.00    -0.190 N  
HETATM    8  O   UNL     1     -10.481  14.845  67.666  1.00  0.00    -0.245 OA 
HETATM    9  C   UNL     1     -11.198  11.658  67.818  1.00  0.00    -0.268 C  
HETATM   10  CA  UNL     1      -7.903  14.692  67.578  1.00  0.00    -0.193 C  
HETATM   11  OXT UNL     1     -11.730  10.581  67.602  1.00  0.00    -0.401 OA 
HETATM   12  C   UNL     1      -9.406  14.293  67.645  1.00  0.00    -0.201 C  
ENDROOT
BRANCH   4  13
HETATM   13  C   UNL     1      -9.561   9.381  68.886  1.00  0.00    -0.155 C  
BRANCH  13  14
HETATM   14  S   UNL     1     -10.214   9.373  70.593  1.00  0.00    -0.301 SA 
BRANCH  14  15
HETATM   15  C   UNL     1      -9.676   7.807  71.098  1.00  0.00    -0.158 A  
HETATM   16  N   UNL     1      -8.804   7.568  72.051  1.00  0.00    -0.116 NA 
HETATM   17  N   UNL     1     -10.101   6.611  70.585  1.00  0.00    -0.184 NA 
HETATM   18  N   UNL     1      -8.715   6.204  72.153  1.00  0.00    -0.131 NA 
HETATM   19  N   UNL     1      -9.525   5.610  71.291  1.00  0.00    -0.147 NA 
BRANCH  17  20
HETATM   20  C   UNL     1     -11.107   6.322  69.588  1.00  0.00    -0.412 C  
HETATM   21  O   UNL     1      -9.385   5.913  67.887  1.00  0.00    -0.109 OA 
HETATM   22  C   UNL     1     -10.644   6.322  68.149  1.00  0.00    -0.257 C  
HETATM   23  O   UNL     1     -11.411   6.596  67.232  1.00  0.00    -0.324 OA 
ENDBRANCH  17  20
ENDBRANCH  14  15
ENDBRANCH  13  14
ENDBRANCH   4  13
BRANCH  10  24
HETATM   24  N   UNL     1      -7.402  15.520  68.699  1.00  0.00    -0.120 N  
HETATM   25  C   UNL     1      -6.975  16.819  68.625  1.00  0.00    -0.180 C  
HETATM   26  O   UNL     1      -6.521  17.357  69.635  1.00  0.00    -0.242 OA 
HETATM   27  H   UNL     1      -7.372  15.079  69.618  1.00  0.00     0.000 HD 
BRANCH  25  28
HETATM   28  C   UNL     1      -7.064  17.544  67.291  1.00  0.00    -0.190 C  
BRANCH  28  29
HETATM   29  C   UNL     1      -8.232  18.499  67.172  1.00  0.00    -0.256 A  
HETATM   30  C   UNL     1      -8.093  19.898  67.311  1.00  0.00    -0.341 A  
HETATM   31  C   UNL     1      -9.242  20.703  67.172  1.00  0.00    -0.429 A  
HETATM   32  C   UNL     1      -9.504  17.964  66.874  1.00  0.00    -0.279 A  
HETATM   33  C   UNL     1     -10.488  20.155  66.874  1.00  0.00    -0.432 A  
HETATM   34  C   UNL     1     -10.622  18.783  66.731  1.00  0.00    -0.458 A  
BRANCH  30  35
HETATM   35  C   UNL     1      -6.772  20.554  67.668  1.00  0.00    -0.306 C  
HETATM   36  N   UNL     1      -6.437  20.422  69.086  1.00  0.00    -0.268 NA 
HETATM   37  H1  UNL     1      -5.549  20.863  69.327  1.00  0.00     0.000 HD 
HETATM   38  H2  UNL     1      -6.448  19.443  69.374  1.00  0.00     0.000 HD 
ENDBRANCH  30  35
ENDBRANCH  28  29
ENDBRANCH  25  28
ENDBRANCH  10  24
TORSDOF 8
ENDMDL
MODEL      146
REMARK 921   NORMALIZED FREE ENERGY PREDICTED BY IDOCK:   -5.99 KCAL/MOL
REMARK 922        TOTAL FREE ENERGY PREDICTED BY IDOCK:   -9.61 KCAL/MOL
REMARK 923 INTER-LIGAND FREE ENERGY PREDICTED BY IDOCK:   -8.81 KCAL/MOL
REMARK 924 INTRA-LIGAND FREE ENERGY PREDICTED BY IDOCK:   -0.80 KCAL/MOL
REMARK 927      BINDING AFFINITY PREDICTED BY RF-SCORE:    0.00 PKD
ROOT
HETATM    1  C   UNL     1      -8.089  10.561  69.310  1.00  0.00    -0.148 C  
HETATM    2  S   UNL     1      -7.295  10.258  67.718  1.00  0.00    -0.088 SA 
HETATM    3  C   UNL     1      -7.686  11.895  67.062  1.00  0.00    -0.146 C  
HETATM    4  C   UNL     1      -9.113  12.368  67.313  1.00  0.00    -0.187 C  
HETATM    5  O   UNL     1     -12.277  11.454  68.896  1.00  0.00    -0.458 OA 
HETATM    6  CA  UNL     1      -9.953  11.815  68.239  1.00  0.00    -0.200 C  
HETATM    7  N   UNL     1      -9.491  10.830  69.066  1.00  0.00    -0.188 N  
HETATM    8  O   UNL     1     -11.120   9.550  70.109  1.00  0.00    -0.239 OA 
HETATM    9  C   UNL     1     -11.383  12.298  68.355  1.00  0.00    -0.292 C  
HETATM   10  CA  UNL     1      -8.547   9.312  70.133  1.00  0.00    -0.198 C  
HETATM   11  OXT UNL     1     -11.739  13.407  67.991  1.00  0.00    -0.315 OA 
HETATM   12  C   UNL     1      -9.979   9.858  69.858  1.00  0.00    -0.252 C  
ENDROOT
BRANCH   4  13
HETATM   13  C   UNL     1      -9.519  13.436  66.298  1.00  0.00    -0.183 C  
BRANCH  13  14
HETATM   14  S   UNL     1      -9.370  15.117  67.003  1.00  0.00    -0.243 SA 
BRANCH  14  15
HETATM   15  C   UNL     1     -10.278  16.003  65.826  1.00  0.00    -0.377 A  
HETATM   16  N   UNL     1     -11.234  15.514  65.070  1.00  0.00    -0.376 NA 
HETATM   17  N   UNL     1     -10.134  17.334  65.539  1.00  0.00    -0.588 NA 
HETATM   18  N   UNL     1     -11.713  16.565  64.332  1.00  0.00    -0.669 NA 
HETATM   19  N   UNL     1     -11.075  17.685  64.633  1.00  0.00    -0.587 NA 
BRANCH  17  20
HETATM   20  C   UNL     1      -9.287  18.337  66.144  1.00  0.00    -0.133 C  
HETATM   21  O   UNL     1     -10.978  18.815  67.858  1.00  0.00    -0.282 OA 
HETATM   22  C   UNL     1      -9.956  19.285  67.113  1.00  0.00    -0.360 C  
HETATM   23  O   UNL     1      -9.532  20.422  67.290  1.00  0.00    -0.392 OA 
ENDBRANCH  17  20
ENDBRANCH  14  15
ENDBRANCH  13  14
ENDBRANCH   4  13
BRANCH  10  24
HETATM   24  N   UNL     1      -8.252   7.965  69.592  1.00  0.00    -0.121 N  
HETATM   25  C   UNL     1      -8.106   6.811  70.313  1.00  0.00    -0.120 C  
HETATM   26  O   UNL     1      -7.793   5.775  69.726  1.00  0.00    -0.091 OA 
HETATM   27  H   UNL     1      -8.147   7.890  68.580  1.00  0.00     0.000 HD 
BRANCH  25  28
HETATM   28  C   UNL     1      -8.319   6.857  71.818  1.00  0.00    -0.108 C  
BRANCH  28  29
HETATM   29  C   UNL     1      -8.820   5.562  72.421  1.00  0.00    -0.135 A  
HETATM   30  C   UNL     1     -10.187   5.205  72.439  1.00  0.00    -0.249 A  
HETATM   31  C   UNL     1     -10.550   3.971  73.016  1.00  0.00    -0.256 A  
HETATM   32  C   UNL     1      -7.870   4.663  72.955  1.00  0.00    -0.092 A  
HETATM   33  C   UNL     1      -9.596   3.096  73.534  1.00  0.00    -0.132 A  
HETATM   34  C   UNL     1      -8.255   3.445  73.510  1.00  0.00    -0.075 A  
BRANCH  30  35
HETATM   35  C   UNL     1     -11.277   6.125  71.922  1.00  0.00    -0.284 C  
HETATM   36  N   UNL     1     -12.599   5.794  72.453  1.00  0.00    -0.248 NA 
HETATM   37  H1  UNL     1     -13.332   6.413  72.106  1.00  0.00     0.000 HD 
HETATM   38  H2  UNL     1     -12.589   5.776  73.473  1.00  0.00     0.000 HD 
ENDBRANCH  30  35
ENDBRANCH  28  29
ENDBRANCH  25  28
ENDBRANCH  10  24
TORSDOF 8
ENDMDL
MODEL      147
REMARK 921   NORMALIZED FREE ENERGY PREDICTED BY IDOCK:   -5.97 KCAL/MOL
REMARK 922        TOTAL FREE ENERGY PREDICTED BY IDOCK:   -9.58 KCAL/MOL
REMARK 923 INTER-LIGAND FREE ENERGY PREDICTED BY IDOCK:   -8.41 KCAL/MOL
REMARK 924 INTRA-LIGAND FREE ENERGY PREDICTED BY IDOCK:   -1.17 KCAL/MOL
REMARK 927      BINDING AFFINITY PREDICTED BY RF-SCORE:    0.00 PKD
ROOT
HETATM    1  C   UNL     1      -9.569  15.381  67.393  1.00  0.00    -0.210 C  
HETATM    2  S   UNL     1     -10.167  15.261  69.091  1.00  0.00    -0.254 SA 
HETATM    3  C   UNL     1     -10.618  13.517  68.950  1.00  0.00    -0.165 C  
HETATM    4  C   UNL     1     -11.363  13.144  67.675  1.00  0.00    -0.335 C  
HETATM    5  O   UNL     1     -12.638  14.473  64.518  1.00  0.00    -0.644 OA 
HETATM    6  CA  UNL     1     -11.404  13.924  66.553  1.00  0.00    -0.331 C  
HETATM    7  N   UNL     1     -10.674  15.079  66.507  1.00  0.00    -0.306 N  
HETATM    8  O   UNL     1     -11.310  16.604  64.880  1.00  0.00    -0.290 OA 
HETATM    9  C   UNL     1     -12.243  13.507  65.364  1.00  0.00    -0.447 C  
HETATM   10  CA  UNL     1      -9.530  16.803  66.743  1.00  0.00    -0.246 C  
HETATM   11  OXT UNL     1     -12.557  12.347  65.150  1.00  0.00    -0.622 OA 
HETATM   12  C   UNL     1     -10.632  16.226  65.806  1.00  0.00    -0.324 C  
ENDROOT
BRANCH   4  13
HETATM   13  C   UNL     1     -12.169  11.861  67.871  1.00  0.00     0.366 C  
BRANCH  13  14
HETATM   14  S   UNL     1     -11.106  10.484  68.435  1.00  0.00    -0.280 SA 
BRANCH  14  15
HETATM   15  C   UNL     1      -9.839  10.602  67.262  1.00  0.00    -0.176 A  
HETATM   16  N   UNL     1      -9.998  10.577  65.959  1.00  0.00    -0.227 NA 
HETATM   17  N   UNL     1      -8.505  10.752  67.536  1.00  0.00    -0.119 NA 
HETATM   18  N   UNL     1      -8.750  10.753  65.419  1.00  0.00    -0.188 NA 
HETATM   19  N   UNL     1      -7.838  10.895  66.368  1.00  0.00    -0.151 NA 
BRANCH  17  20
HETATM   20  C   UNL     1      -7.821  10.917  68.798  1.00  0.00    -0.132 C  
HETATM   21  O   UNL     1      -7.342   8.513  68.919  1.00  0.00    -0.082 OA 
HETATM   22  C   UNL     1      -7.570   9.657  69.596  1.00  0.00    -0.114 C  
HETATM   23  O   UNL     1      -7.484   9.682  70.819  1.00  0.00    -0.254 OA 
ENDBRANCH  17  20
ENDBRANCH  14  15
ENDBRANCH  13  14
ENDBRANCH   4  13
BRANCH  10  24
HETATM   24  N   UNL     1      -9.928  17.966  67.570  1.00  0.00    -0.309 N  
HETATM   25  C   UNL     1      -9.127  18.664  68.433  1.00  0.00    -0.324 C  
HETATM   26  O   UNL     1      -9.619  19.570  69.106  1.00  0.00    -0.394 OA 
HETATM   27  H   UNL     1     -10.896  18.277  67.489  1.00  0.00     0.000 HD 
BRANCH  25  28
HETATM   28  C   UNL     1      -7.659  18.282  68.539  1.00  0.00    -0.313 C  
BRANCH  28  29
HETATM   29  C   UNL     1      -6.830  18.628  67.321  1.00  0.00    -0.208 A  
HETATM   30  C   UNL     1      -5.984  17.694  66.681  1.00  0.00    -0.217 A  
HETATM   31  C   UNL     1      -5.261  18.113  65.546  1.00  0.00    -0.215 A  
HETATM   32  C   UNL     1      -6.940  19.930  66.787  1.00  0.00    -0.238 A  
HETATM   33  C   UNL     1      -5.386  19.403  65.032  1.00  0.00    -0.200 A  
HETATM   34  C   UNL     1      -6.221  20.316  65.657  1.00  0.00    -0.250 A  
BRANCH  30  35
HETATM   35  C   UNL     1      -5.778  16.287  67.208  1.00  0.00    -0.107 C  
HETATM   36  N   UNL     1      -5.179  16.262  68.543  1.00  0.00    -0.100 NA 
HETATM   37  H1  UNL     1      -5.040  15.315  68.898  1.00  0.00     0.000 HD 
HETATM   38  H2  UNL     1      -5.726  16.821  69.199  1.00  0.00     0.000 HD 
ENDBRANCH  30  35
ENDBRANCH  28  29
ENDBRANCH  25  28
ENDBRANCH  10  24
TORSDOF 8
ENDMDL
MODEL      148
REMARK 921   NORMALIZED FREE ENERGY PREDICTED BY IDOCK:   -5.96 KCAL/MOL
REMARK 922        TOTAL FREE ENERGY PREDICTED BY IDOCK:   -9.56 KCAL/MOL
REMARK 923 INTER-LIGAND FREE ENERGY PREDICTED BY IDOCK:   -8.16 KCAL/MOL
REMARK 924 INTRA-LIGAND FREE ENERGY PREDICTED BY IDOCK:   -1.40 KCAL/MOL
REMARK 927      BINDING AFFINITY PREDICTED BY RF-SCORE:    0.00 PKD
ROOT
HETATM    1  C   UNL     1      -8.647   8.059  68.127  1.00  0.00    -0.126 C  
HETATM    2  S   UNL     1      -9.533   9.544  68.644  1.00  0.00    -0.144 SA 
HETATM    3  C   UNL     1     -10.302   9.807  67.030  1.00  0.00    -0.239 C  
HETATM    4  C   UNL     1      -9.368   9.652  65.836  1.00  0.00    -0.275 C  
HETATM    5  O   UNL     1      -5.940   8.830  64.872  1.00  0.00    -0.061 OA 
HETATM    6  CA  UNL     1      -8.152   9.030  65.889  1.00  0.00    -0.108 C  
HETATM    7  N   UNL     1      -7.752   8.425  67.048  1.00  0.00    -0.092 N  
HETATM    8  O   UNL     1      -5.481   7.993  67.222  1.00  0.00    -0.034 OA 
HETATM    9  C   UNL     1      -7.257   9.002  64.668  1.00  0.00    -0.097 C  
HETATM   10  CA  UNL     1      -7.376   7.659  68.947  1.00  0.00    -0.090 C  
HETATM   11  OXT UNL     1      -7.684   9.117  63.531  1.00  0.00    -0.112 OA 
HETATM   12  C   UNL     1      -6.619   7.989  67.627  1.00  0.00    -0.057 C  
ENDROOT
BRANCH   4  13
HETATM   13  C   UNL     1      -9.907  10.406  64.621  1.00  0.00    -0.338 C  
BRANCH  13  14
HETATM   14  S   UNL     1      -9.625  12.206  64.773  1.00  0.00     0.144 SA 
BRANCH  14  15
HETATM   15  C   UNL     1     -11.267  12.753  64.798  1.00  0.00    -0.305 A  
HETATM   16  N   UNL     1     -12.323  11.996  64.988  1.00  0.00    -0.367 NA 
HETATM   17  N   UNL     1     -11.682  14.049  64.640  1.00  0.00    -0.385 NA 
HETATM   18  N   UNL     1     -13.403  12.841  64.985  1.00  0.00    -0.515 NA 
HETATM   19  N   UNL     1     -13.023  14.096  64.808  1.00  0.00    -0.636 NA 
BRANCH  17  20
HETATM   20  C   UNL     1     -10.917  15.266  64.487  1.00  0.00    -0.192 C  
HETATM   21  O   UNL     1     -10.574  15.422  66.913  1.00  0.00    -0.297 OA 
HETATM   22  C   UNL     1     -10.695  16.081  65.741  1.00  0.00    -0.301 C  
HETATM   23  O   UNL     1     -10.538  17.296  65.694  1.00  0.00    -0.516 OA 
ENDBRANCH  17  20
ENDBRANCH  14  15
ENDBRANCH  13  14
ENDBRANCH   4  13
BRANCH  10  24
HETATM   24  N   UNL     1      -7.012   8.480  70.125  1.00  0.00    -0.042 N  
HETATM   25  C   UNL     1      -7.395   8.261  71.421  1.00  0.00    -0.083 C  
HETATM   26  O   UNL     1      -7.066   9.072  72.286  1.00  0.00    -0.323 OA 
HETATM   27  H   UNL     1      -6.414   9.289  69.953  1.00  0.00     0.000 HD 
BRANCH  25  28
HETATM   28  C   UNL     1      -8.229   7.030  71.739  1.00  0.00    -0.103 C  
BRANCH  28  29
HETATM   29  C   UNL     1      -9.722   7.228  71.593  1.00  0.00    -0.166 A  
HETATM   30  C   UNL     1     -10.545   6.333  70.873  1.00  0.00    -0.293 A  
HETATM   31  C   UNL     1     -11.927   6.601  70.804  1.00  0.00    -0.412 A  
HETATM   32  C   UNL     1     -10.314   8.336  72.235  1.00  0.00    -0.386 A  
HETATM   33  C   UNL     1     -12.494   7.699  71.449  1.00  0.00    -0.359 A  
HETATM   34  C   UNL     1     -11.685   8.573  72.161  1.00  0.00    -0.448 A  
BRANCH  30  35
HETATM   35  C   UNL     1      -9.988   5.138  70.121  1.00  0.00    -0.253 C  
HETATM   36  N   UNL     1      -9.474   4.096  71.011  1.00  0.00    -0.149 NA 
HETATM   37  H1  UNL     1      -9.099   3.293  70.506  1.00  0.00     0.000 HD 
HETATM   38  H2  UNL     1     -10.186   3.807  71.683  1.00  0.00     0.000 HD 
ENDBRANCH  30  35
ENDBRANCH  28  29
ENDBRANCH  25  28
ENDBRANCH  10  24
TORSDOF 8
ENDMDL
MODEL      149
REMARK 921   NORMALIZED FREE ENERGY PREDICTED BY IDOCK:   -5.94 KCAL/MOL
REMARK 922        TOTAL FREE ENERGY PREDICTED BY IDOCK:   -9.54 KCAL/MOL
REMARK 923 INTER-LIGAND FREE ENERGY PREDICTED BY IDOCK:   -7.99 KCAL/MOL
REMARK 924 INTRA-LIGAND FREE ENERGY PREDICTED BY IDOCK:   -1.55 KCAL/MOL
REMARK 927      BINDING AFFINITY PREDICTED BY RF-SCORE:    0.00 PKD
ROOT
HETATM    1  C   UNL     1      -9.606  12.157  67.550  1.00  0.00    -0.179 C  
HETATM    2  S   UNL     1     -10.647  11.583  66.192  1.00  0.00    -0.272 SA 
HETATM    3  C   UNL     1     -10.512   9.841  66.650  1.00  0.00    -0.163 C  
HETATM    4  C   UNL     1      -9.106   9.373  67.003  1.00  0.00    -0.155 C  
HETATM    5  O   UNL     1      -5.646  10.485  67.383  1.00  0.00    -0.044 OA 
HETATM    6  CA  UNL     1      -8.072  10.212  67.309  1.00  0.00    -0.114 C  
HETATM    7  N   UNL     1      -8.297  11.558  67.394  1.00  0.00    -0.142 N  
HETATM    8  O   UNL     1      -6.410  12.901  67.268  1.00  0.00    -0.217 OA 
HETATM    9  C   UNL     1      -6.687   9.656  67.563  1.00  0.00    -0.070 C  
HETATM   10  CA  UNL     1      -8.910  13.548  67.383  1.00  0.00    -0.221 C  
HETATM   11  OXT UNL     1      -6.492   8.507  67.927  1.00  0.00    -0.055 OA 
HETATM   12  C   UNL     1      -7.599  12.708  67.369  1.00  0.00    -0.150 C  
ENDROOT
BRANCH   4  13
HETATM   13  C   UNL     1      -8.976   7.860  66.829  1.00  0.00    -0.145 C  
BRANCH  13  14
HETATM   14  S   UNL     1     -10.590   7.025  67.020  1.00  0.00    -0.334 SA 
BRANCH  14  15
HETATM   15  C   UNL     1     -10.045   5.440  67.452  1.00  0.00    -0.185 A  
HETATM   16  N   UNL     1      -9.518   4.561  66.629  1.00  0.00    -0.159 NA 
HETATM   17  N   UNL     1     -10.073   4.897  68.709  1.00  0.00    -0.137 NA 
HETATM   18  N   UNL     1      -9.182   3.475  67.395  1.00  0.00    -0.179 NA 
HETATM   19  N   UNL     1      -9.483   3.681  68.668  1.00  0.00    -0.160 NA 
BRANCH  17  20
HETATM   20  C   UNL     1     -10.474   5.477  69.971  1.00  0.00    -0.303 C  
HETATM   21  O   UNL     1      -8.380   6.748  70.118  1.00  0.00    -0.131 OA 
HETATM   22  C   UNL     1      -9.383   6.139  70.782  1.00  0.00    -0.158 C  
HETATM   23  O   UNL     1      -9.447   6.203  72.005  1.00  0.00    -0.153 OA 
ENDBRANCH  17  20
ENDBRANCH  14  15
ENDBRANCH  13  14
ENDBRANCH   4  13
BRANCH  10  24
HETATM   24  N   UNL     1      -9.189  14.332  66.158  1.00  0.00    -0.510 N  
HETATM   25  C   UNL     1      -9.917  15.490  66.079  1.00  0.00    -0.330 C  
HETATM   26  O   UNL     1     -10.120  15.993  64.974  1.00  0.00    -0.463 OA 
HETATM   27  H   UNL     1      -8.801  13.974  65.285  1.00  0.00     0.000 HD 
BRANCH  25  28
HETATM   28  C   UNL     1     -10.459  16.100  67.361  1.00  0.00    -0.310 C  
BRANCH  28  29
HETATM   29  C   UNL     1      -9.949  17.494  67.657  1.00  0.00    -0.309 A  
HETATM   30  C   UNL     1      -8.672  17.739  68.210  1.00  0.00    -0.277 A  
HETATM   31  C   UNL     1      -8.286  19.075  68.440  1.00  0.00    -0.382 A  
HETATM   32  C   UNL     1     -10.776  18.591  67.333  1.00  0.00    -0.424 A  
HETATM   33  C   UNL     1      -9.116  20.145  68.108  1.00  0.00    -0.232 A  
HETATM   34  C   UNL     1     -10.366  19.903  67.560  1.00  0.00    -0.557 A  
BRANCH  30  35
HETATM   35  C   UNL     1      -7.734  16.620  68.623  1.00  0.00    -0.224 C  
HETATM   36  N   UNL     1      -6.803  16.238  67.561  1.00  0.00    -0.144 NA 
HETATM   37  H1  UNL     1      -6.172  15.485  67.838  1.00  0.00     0.000 HD 
HETATM   38  H2  UNL     1      -6.280  17.048  67.225  1.00  0.00     0.000 HD 
ENDBRANCH  30  35
ENDBRANCH  28  29
ENDBRANCH  25  28
ENDBRANCH  10  24
TORSDOF 8
ENDMDL
MODEL      150
REMARK 921   NORMALIZED FREE ENERGY PREDICTED BY IDOCK:   -5.91 KCAL/MOL
REMARK 922        TOTAL FREE ENERGY PREDICTED BY IDOCK:   -9.50 KCAL/MOL
REMARK 923 INTER-LIGAND FREE ENERGY PREDICTED BY IDOCK:   -8.41 KCAL/MOL
REMARK 924 INTRA-LIGAND FREE ENERGY PREDICTED BY IDOCK:   -1.09 KCAL/MOL
REMARK 927      BINDING AFFINITY PREDICTED BY RF-SCORE:    0.00 PKD
ROOT
HETATM    1  C   UNL     1      -9.991   9.903  67.876  1.00  0.00    -0.160 C  
HETATM    2  S   UNL     1     -11.297  11.135  68.058  1.00  0.00    -0.309 SA 
HETATM    3  C   UNL     1     -10.314  12.474  67.348  1.00  0.00    -0.216 C  
HETATM    4  C   UNL     1      -8.879  12.561  67.852  1.00  0.00    -0.185 C  
HETATM    5  O   UNL     1      -6.434  10.966  70.050  1.00  0.00    -0.128 OA 
HETATM    6  CA  UNL     1      -8.232  11.548  68.503  1.00  0.00    -0.148 C  
HETATM    7  N   UNL     1      -8.851  10.339  68.656  1.00  0.00    -0.130 N  
HETATM    8  O   UNL     1      -7.963   8.956  70.292  1.00  0.00    -0.092 OA 
HETATM    9  C   UNL     1      -6.833  11.759  69.043  1.00  0.00    -0.106 C  
HETATM   10  CA  UNL     1     -10.054   8.646  68.805  1.00  0.00    -0.196 C  
HETATM   11  OXT UNL     1      -6.072  12.602  68.595  1.00  0.00    -0.061 OA 
HETATM   12  C   UNL     1      -8.750   9.235  69.419  1.00  0.00    -0.148 C  
ENDROOT
BRANCH   4  13
HETATM   13  C   UNL     1      -8.319  13.970  67.661  1.00  0.00    -0.187 C  
BRANCH  13  14
HETATM   14  S   UNL     1      -8.494  14.970  69.181  1.00  0.00    -0.165 SA 
BRANCH  14  15
HETATM   15  C   UNL     1      -9.246  16.378  68.513  1.00  0.00    -0.226 A  
HETATM   16  N   UNL     1      -8.621  17.458  68.102  1.00  0.00    -0.241 NA 
HETATM   17  N   UNL     1     -10.590  16.548  68.309  1.00  0.00    -0.310 NA 
HETATM   18  N   UNL     1      -9.588  18.291  67.603  1.00  0.00    -0.278 NA 
HETATM   19  N   UNL     1     -10.786  17.735  67.691  1.00  0.00    -0.371 NA 
BRANCH  17  20
HETATM   20  C   UNL     1     -11.691  15.634  68.512  1.00  0.00    -0.327 C  
HETATM   21  O   UNL     1     -11.810  16.215  70.894  1.00  0.00    -0.384 OA 
HETATM   22  C   UNL     1     -12.011  15.277  69.946  1.00  0.00    -0.343 C  
HETATM   23  O   UNL     1     -12.525  14.202  70.236  1.00  0.00    -0.342 OA 
ENDBRANCH  17  20
ENDBRANCH  14  15
ENDBRANCH  13  14
ENDBRANCH   4  13
BRANCH  10  24
HETATM   24  N   UNL     1     -11.202   8.512  69.731  1.00  0.00    -0.445 N  
HETATM   25  C   UNL     1     -11.411   7.501  70.630  1.00  0.00    -0.269 C  
HETATM   26  O   UNL     1     -12.452   7.491  71.288  1.00  0.00    -0.328 OA 
HETATM   27  H   UNL     1     -11.908   9.248  69.696  1.00  0.00     0.000 HD 
BRANCH  25  28
HETATM   28  C   UNL     1     -10.354   6.416  70.769  1.00  0.00    -0.244 C  
BRANCH  28  29
HETATM   29  C   UNL     1     -10.354   5.707  72.106  1.00  0.00    -0.256 A  
HETATM   30  C   UNL     1     -10.004   6.351  73.313  1.00  0.00    -0.195 A  
HETATM   31  C   UNL     1     -10.045   5.605  74.508  1.00  0.00    -0.296 A  
HETATM   32  C   UNL     1     -10.756   4.354  72.143  1.00  0.00    -0.019 A  
HETATM   33  C   UNL     1     -10.449   4.270  74.525  1.00  0.00    -0.284 A  
HETATM   34  C   UNL     1     -10.799   3.641  73.340  1.00  0.00    -0.314 A  
BRANCH  30  35
HETATM   35  C   UNL     1      -9.524   7.790  73.360  1.00  0.00    -0.287 C  
HETATM   36  N   UNL     1      -8.539   8.026  74.415  1.00  0.00    -0.424 NA 
HETATM   37  H1  UNL     1      -8.216   8.994  74.447  1.00  0.00     0.000 HD 
HETATM   38  H2  UNL     1      -7.752   7.381  74.331  1.00  0.00     0.000 HD 
ENDBRANCH  30  35
ENDBRANCH  28  29
ENDBRANCH  25  28
ENDBRANCH  10  24
TORSDOF 8
ENDMDL
MODEL      151
REMARK 921   NORMALIZED FREE ENERGY PREDICTED BY IDOCK:   -5.91 KCAL/MOL
REMARK 922        TOTAL FREE ENERGY PREDICTED BY IDOCK:   -9.49 KCAL/MOL
REMARK 923 INTER-LIGAND FREE ENERGY PREDICTED BY IDOCK:   -8.68 KCAL/MOL
REMARK 924 INTRA-LIGAND FREE ENERGY PREDICTED BY IDOCK:   -0.81 KCAL/MOL
REMARK 927      BINDING AFFINITY PREDICTED BY RF-SCORE:    0.00 PKD
ROOT
HETATM    1  C   UNL     1      -9.033  12.805  66.755  1.00  0.00    -0.188 C  
HETATM    2  S   UNL     1      -7.694  11.621  67.002  1.00  0.00    -0.149 SA 
HETATM    3  C   UNL     1      -8.781  10.179  66.940  1.00  0.00    -0.129 C  
HETATM    4  C   UNL     1     -10.069  10.305  67.744  1.00  0.00    -0.213 C  
HETATM    5  O   UNL     1     -12.007  12.573  69.855  1.00  0.00    -0.326 OA 
HETATM    6  CA  UNL     1     -10.579  11.490  68.195  1.00  0.00    -0.196 C  
HETATM    7  N   UNL     1      -9.966  12.663  67.854  1.00  0.00    -0.221 N  
HETATM    8  O   UNL     1     -10.502  14.497  69.168  1.00  0.00    -0.242 OA 
HETATM    9  C   UNL     1     -11.821  11.506  69.061  1.00  0.00    -0.343 C  
HETATM   10  CA  UNL     1      -8.794  14.272  67.242  1.00  0.00    -0.214 C  
HETATM   11  OXT UNL     1     -12.645  10.605  69.052  1.00  0.00    -0.232 OA 
HETATM   12  C   UNL     1      -9.920  13.943  68.266  1.00  0.00    -0.238 C  
ENDROOT
BRANCH   4  13
HETATM   13  C   UNL     1     -10.629   8.927  68.095  1.00  0.00    -0.157 C  
BRANCH  13  14
HETATM   14  S   UNL     1      -9.441   7.957  69.089  1.00  0.00    -0.155 SA 
BRANCH  14  15
HETATM   15  C   UNL     1     -10.482   7.462  70.379  1.00  0.00    -0.221 A  
HETATM   16  N   UNL     1     -11.499   6.638  70.268  1.00  0.00    -0.371 NA 
HETATM   17  N   UNL     1     -10.375   7.847  71.689  1.00  0.00    -0.200 NA 
HETATM   18  N   UNL     1     -12.005   6.483  71.533  1.00  0.00    -0.337 NA 
HETATM   19  N   UNL     1     -11.308   7.187  72.412  1.00  0.00    -0.266 NA 
BRANCH  17  20
HETATM   20  C   UNL     1      -9.384   8.670  72.346  1.00  0.00    -0.214 C  
HETATM   21  O   UNL     1      -7.887   6.745  72.623  1.00  0.00    -0.099 OA 
HETATM   22  C   UNL     1      -8.298   7.938  73.101  1.00  0.00    -0.179 C  
HETATM   23  O   UNL     1      -7.738   8.446  74.066  1.00  0.00    -0.274 OA 
ENDBRANCH  17  20
ENDBRANCH  14  15
ENDBRANCH  13  14
ENDBRANCH   4  13
BRANCH  10  24
HETATM   24  N   UNL     1      -7.474  14.615  67.820  1.00  0.00    -0.149 N  
HETATM   25  C   UNL     1      -6.731  15.734  67.550  1.00  0.00    -0.190 C  
HETATM   26  O   UNL     1      -5.616  15.848  68.059  1.00  0.00    -0.105 OA 
HETATM   27  H   UNL     1      -7.079  13.952  68.487  1.00  0.00     0.000 HD 
BRANCH  25  28
HETATM   28  C   UNL     1      -7.308  16.785  66.615  1.00  0.00    -0.297 C  
BRANCH  28  29
HETATM   29  C   UNL     1      -8.327  17.704  67.256  1.00  0.00    -0.225 A  
HETATM   30  C   UNL     1      -7.988  18.639  68.259  1.00  0.00    -0.337 A  
HETATM   31  C   UNL     1      -9.009  19.456  68.786  1.00  0.00    -0.396 A  
HETATM   32  C   UNL     1      -9.662  17.641  66.801  1.00  0.00    -0.300 A  
HETATM   33  C   UNL     1     -10.321  19.382  68.320  1.00  0.00    -0.500 A  
HETATM   34  C   UNL     1     -10.650  18.468  67.331  1.00  0.00    -0.463 A  
BRANCH  30  35
HETATM   35  C   UNL     1      -6.588  18.748  68.833  1.00  0.00    -0.264 C  
HETATM   36  N   UNL     1      -6.524  19.605  70.017  1.00  0.00    -0.288 NA 
HETATM   37  H1  UNL     1      -5.582  19.679  70.403  1.00  0.00     0.000 HD 
HETATM   38  H2  UNL     1      -7.187  19.295  70.728  1.00  0.00     0.000 HD 
ENDBRANCH  30  35
ENDBRANCH  28  29
ENDBRANCH  25  28
ENDBRANCH  10  24
TORSDOF 8
ENDMDL
MODEL      152
REMARK 921   NORMALIZED FREE ENERGY PREDICTED BY IDOCK:   -5.90 KCAL/MOL
REMARK 922        TOTAL FREE ENERGY PREDICTED BY IDOCK:   -9.47 KCAL/MOL
REMARK 923 INTER-LIGAND FREE ENERGY PREDICTED BY IDOCK:   -8.41 KCAL/MOL
REMARK 924 INTRA-LIGAND FREE ENERGY PREDICTED BY IDOCK:   -1.06 KCAL/MOL
REMARK 927      BINDING AFFINITY PREDICTED BY RF-SCORE:    0.00 PKD
ROOT
HETATM    1  C   UNL     1      -9.535   8.312  70.182  1.00  0.00    -0.167 C  
HETATM    2  S   UNL     1      -9.909   7.664  68.540  1.00  0.00    -0.172 SA 
HETATM    3  C   UNL     1     -10.104   9.298  67.794  1.00  0.00    -0.204 C  
HETATM    4  C   UNL     1     -10.926  10.287  68.611  1.00  0.00    -0.289 C  
HETATM    5  O   UNL     1     -12.741  10.711  71.754  1.00  0.00    -0.420 OA 
HETATM    6  CA  UNL     1     -11.212  10.134  69.939  1.00  0.00    -0.287 C  
HETATM    7  N   UNL     1     -10.676   9.084  70.629  1.00  0.00    -0.223 N  
HETATM    8  O   UNL     1     -11.718   8.563  72.634  1.00  0.00    -0.363 OA 
HETATM    9  C   UNL     1     -12.110  11.128  70.645  1.00  0.00    -0.379 C  
HETATM   10  CA  UNL     1      -9.787   7.367  71.402  1.00  0.00    -0.185 C  
HETATM   11  OXT UNL     1     -12.267  12.273  70.252  1.00  0.00    -0.319 OA 
HETATM   12  C   UNL     1     -10.889   8.403  71.770  1.00  0.00    -0.284 C  
ENDROOT
BRANCH   4  13
HETATM   13  C   UNL     1     -11.501  11.386  67.718  1.00  0.00    -0.281 C  
BRANCH  13  14
HETATM   14  S   UNL     1     -10.222  12.086  66.614  1.00  0.00    -0.207 SA 
BRANCH  14  15
HETATM   15  C   UNL     1     -10.310  13.747  67.090  1.00  0.00    -0.261 A  
HETATM   16  N   UNL     1     -10.000  14.222  68.275  1.00  0.00    -0.232 NA 
HETATM   17  N   UNL     1     -10.697  14.790  66.291  1.00  0.00    -0.305 NA 
HETATM   18  N   UNL     1     -10.162  15.581  68.197  1.00  0.00    -0.225 NA 
HETATM   19  N   UNL     1     -10.552  15.942  66.985  1.00  0.00    -0.308 NA 
BRANCH  17  20
HETATM   20  C   UNL     1     -11.053  14.816  64.890  1.00  0.00    -0.407 C  
HETATM   21  O   UNL     1     -13.326  14.039  65.395  1.00  0.00    -0.721 OA 
HETATM   22  C   UNL     1     -12.313  14.075  64.505  1.00  0.00    -0.378 C  
HETATM   23  O   UNL     1     -12.454  13.595  63.385  1.00  0.00    -0.784 OA 
ENDBRANCH  17  20
ENDBRANCH  14  15
ENDBRANCH  13  14
ENDBRANCH   4  13
BRANCH  10  24
HETATM   24  N   UNL     1     -10.258   5.987  71.138  1.00  0.00    -0.200 N  
HETATM   25  C   UNL     1      -9.481   4.864  71.047  1.00  0.00    -0.164 C  
HETATM   26  O   UNL     1     -10.011   3.792  70.754  1.00  0.00    -0.161 OA 
HETATM   27  H   UNL     1     -11.262   5.862  71.011  1.00  0.00     0.000 HD 
BRANCH  25  28
HETATM   28  C   UNL     1      -7.986   4.988  71.295  1.00  0.00    -0.109 C  
BRANCH  28  29
HETATM   29  C   UNL     1      -7.184   5.434  70.092  1.00  0.00    -0.067 A  
HETATM   30  C   UNL     1      -6.997   4.619  68.953  1.00  0.00    -0.052 A  
HETATM   31  C   UNL     1      -6.241   5.132  67.879  1.00  0.00    -0.035 A  
HETATM   32  C   UNL     1      -6.633   6.734  70.102  1.00  0.00    -0.044 A  
HETATM   33  C   UNL     1      -5.709   6.420  67.906  1.00  0.00    -0.012 A  
HETATM   34  C   UNL     1      -5.898   7.220  69.022  1.00  0.00    -0.019 A  
BRANCH  30  35
HETATM   35  C   UNL     1      -7.521   3.198  68.872  1.00  0.00    -0.048 C  
HETATM   36  N   UNL     1      -8.694   3.073  68.007  1.00  0.00    -0.098 NA 
HETATM   37  H1  UNL     1      -9.047   2.117  67.952  1.00  0.00     0.000 HD 
HETATM   38  H2  UNL     1      -8.502   3.445  67.076  1.00  0.00     0.000 HD 
ENDBRANCH  30  35
ENDBRANCH  28  29
ENDBRANCH  25  28
ENDBRANCH  10  24
TORSDOF 8
ENDMDL
MODEL      153
REMARK 921   NORMALIZED FREE ENERGY PREDICTED BY IDOCK:   -5.89 KCAL/MOL
REMARK 922        TOTAL FREE ENERGY PREDICTED BY IDOCK:   -9.47 KCAL/MOL
REMARK 923 INTER-LIGAND FREE ENERGY PREDICTED BY IDOCK:   -8.62 KCAL/MOL
REMARK 924 INTRA-LIGAND FREE ENERGY PREDICTED BY IDOCK:   -0.85 KCAL/MOL
REMARK 927      BINDING AFFINITY PREDICTED BY RF-SCORE:    0.00 PKD
ROOT
HETATM    1  C   UNL     1      -9.331  12.970  68.151  1.00  0.00    -0.217 C  
HETATM    2  S   UNL     1      -9.410  13.599  66.462  1.00  0.00    -0.182 SA 
HETATM    3  C   UNL     1      -9.585  15.324  66.971  1.00  0.00    -0.224 C  
HETATM    4  C   UNL     1     -10.580  15.566  68.100  1.00  0.00    -0.266 C  
HETATM    5  O   UNL     1     -12.877  13.900  70.403  1.00  0.00    -0.269 OA 
HETATM    6  CA  UNL     1     -11.057  14.588  68.926  1.00  0.00    -0.256 C  
HETATM    7  N   UNL     1     -10.571  13.314  68.816  1.00  0.00    -0.232 N  
HETATM    8  O   UNL     1     -11.875  11.655  69.777  1.00  0.00    -0.308 OA 
HETATM    9  C   UNL     1     -12.109  14.912  69.965  1.00  0.00    -0.338 C  
HETATM   10  CA  UNL     1      -9.710  11.470  68.378  1.00  0.00    -0.202 C  
HETATM   11  OXT UNL     1     -12.272  16.035  70.413  1.00  0.00    -0.312 OA 
HETATM   12  C   UNL     1     -10.915  12.062  69.166  1.00  0.00    -0.178 C  
ENDROOT
BRANCH   4  13
HETATM   13  C   UNL     1     -11.075  17.012  68.088  1.00  0.00    -0.163 C  
BRANCH  13  14
HETATM   14  S   UNL     1      -9.942  18.113  69.007  1.00  0.00    -0.184 SA 
BRANCH  14  15
HETATM   15  C   UNL     1      -9.146  18.882  67.676  1.00  0.00    -0.283 A  
HETATM   16  N   UNL     1      -9.634  19.008  66.462  1.00  0.00    -0.338 NA 
HETATM   17  N   UNL     1      -7.913  19.475  67.714  1.00  0.00    -0.287 NA 
HETATM   18  N   UNL     1      -8.704  19.721  65.750  1.00  0.00    -0.350 NA 
HETATM   19  N   UNL     1      -7.668  20.041  66.510  1.00  0.00    -0.290 NA 
BRANCH  17  20
HETATM   20  C   UNL     1      -7.006  19.681  68.820  1.00  0.00    -0.339 C  
HETATM   21  O   UNL     1      -5.669  17.730  68.163  1.00  0.00    -0.153 OA 
HETATM   22  C   UNL     1      -6.096  18.524  69.167  1.00  0.00    -0.240 C  
HETATM   23  O   UNL     1      -5.680  18.359  70.309  1.00  0.00    -0.241 OA 
ENDBRANCH  17  20
ENDBRANCH  14  15
ENDBRANCH  13  14
ENDBRANCH   4  13
BRANCH  10  24
HETATM   24  N   UNL     1     -10.053  10.644  67.196  1.00  0.00    -0.198 N  
HETATM   25  C   UNL     1      -9.782   9.313  67.025  1.00  0.00    -0.185 C  
HETATM   26  O   UNL     1     -10.070   8.777  65.955  1.00  0.00    -0.228 OA 
HETATM   27  H   UNL     1     -10.540  11.115  66.433  1.00  0.00     0.000 HD 
BRANCH  25  28
HETATM   28  C   UNL     1      -9.119   8.550  68.162  1.00  0.00    -0.138 C  
BRANCH  28  29
HETATM   29  C   UNL     1     -10.085   7.922  69.143  1.00  0.00    -0.197 A  
HETATM   30  C   UNL     1     -10.734   6.692  68.895  1.00  0.00    -0.304 A  
HETATM   31  C   UNL     1     -11.609   6.185  69.877  1.00  0.00    -0.239 A  
HETATM   32  C   UNL     1     -10.313   8.581  70.371  1.00  0.00    -0.222 A  
HETATM   33  C   UNL     1     -11.818   6.849  71.085  1.00  0.00    -0.395 A  
HETATM   34  C   UNL     1     -11.175   8.053  71.330  1.00  0.00    -0.287 A  
BRANCH  30  35
HETATM   35  C   UNL     1     -10.576   5.935  67.589  1.00  0.00    -0.262 C  
HETATM   36  N   UNL     1      -9.177   5.781  67.188  1.00  0.00    -0.114 NA 
HETATM   37  H1  UNL     1      -9.070   5.272  66.310  1.00  0.00     0.000 HD 
HETATM   38  H2  UNL     1      -8.630   5.345  67.931  1.00  0.00     0.000 HD 
ENDBRANCH  30  35
ENDBRANCH  28  29
ENDBRANCH  25  28
ENDBRANCH  10  24
TORSDOF 8
ENDMDL
MODEL      154
REMARK 921   NORMALIZED FREE ENERGY PREDICTED BY IDOCK:   -5.88 KCAL/MOL
REMARK 922        TOTAL FREE ENERGY PREDICTED BY IDOCK:   -9.46 KCAL/MOL
REMARK 923 INTER-LIGAND FREE ENERGY PREDICTED BY IDOCK:   -7.94 KCAL/MOL
REMARK 924 INTRA-LIGAND FREE ENERGY PREDICTED BY IDOCK:   -1.52 KCAL/MOL
REMARK 927      BINDING AFFINITY PREDICTED BY RF-SCORE:    0.00 PKD
ROOT
HETATM    1  C   UNL     1      -9.261  10.881  68.710  1.00  0.00    -0.183 C  
HETATM    2  S   UNL     1      -7.642  11.520  68.233  1.00  0.00    -0.122 SA 
HETATM    3  C   UNL     1      -8.117  13.250  68.440  1.00  0.00    -0.134 C  
HETATM    4  C   UNL     1      -9.472  13.624  67.852  1.00  0.00    -0.213 C  
HETATM    5  O   UNL     1     -12.392  12.282  66.113  1.00  0.00    -0.588 OA 
HETATM    6  CA  UNL     1     -10.434  12.718  67.507  1.00  0.00    -0.218 C  
HETATM    7  N   UNL     1     -10.238  11.390  67.769  1.00  0.00    -0.178 N  
HETATM    8  O   UNL     1     -11.590   9.923  66.588  1.00  0.00     0.685 OA 
HETATM    9  C   UNL     1     -11.717  13.180  66.849  1.00  0.00    -0.387 C  
HETATM   10  CA  UNL     1      -9.641   9.446  68.216  1.00  0.00    -0.142 C  
HETATM   11  OXT UNL     1     -12.152  14.314  66.971  1.00  0.00    -0.425 OA 
HETATM   12  C   UNL     1     -10.717  10.196  67.377  1.00  0.00    -0.277 C  
ENDROOT
BRANCH   4  13
HETATM   13  C   UNL     1      -9.548  15.124  67.569  1.00  0.00    -0.207 C  
BRANCH  13  14
HETATM   14  S   UNL     1      -9.746  16.085  69.111  1.00  0.00    -0.259 SA 
BRANCH  14  15
HETATM   15  C   UNL     1      -8.582  17.333  68.824  1.00  0.00    -0.230 A  
HETATM   16  N   UNL     1      -7.292  17.246  69.060  1.00  0.00    -0.237 NA 
HETATM   17  N   UNL     1      -8.846  18.569  68.296  1.00  0.00    -0.302 NA 
HETATM   18  N   UNL     1      -6.747  18.431  68.638  1.00  0.00    -0.247 NA 
HETATM   19  N   UNL     1      -7.677  19.230  68.140  1.00  0.00    -0.286 NA 
BRANCH  17  20
HETATM   20  C   UNL     1     -10.080  19.129  67.794  1.00  0.00    -0.382 C  
HETATM   21  O   UNL     1      -9.866  17.867  65.699  1.00  0.00    -0.512 OA 
HETATM   22  C   UNL     1     -10.331  18.976  66.310  1.00  0.00    -0.459 C  
HETATM   23  O   UNL     1     -11.013  19.786  65.692  1.00  0.00    -0.382 OA 
ENDBRANCH  17  20
ENDBRANCH  14  15
ENDBRANCH  13  14
ENDBRANCH   4  13
BRANCH  10  24
HETATM   24  N   UNL     1      -8.637   8.679  67.444  1.00  0.00    -0.133 N  
HETATM   25  C   UNL     1      -8.749   7.380  67.026  1.00  0.00    -0.123 C  
HETATM   26  O   UNL     1      -7.798   6.854  66.448  1.00  0.00    -0.099 OA 
HETATM   27  H   UNL     1      -7.776   9.167  67.199  1.00  0.00     0.000 HD 
BRANCH  25  28
HETATM   28  C   UNL     1     -10.042   6.630  67.306  1.00  0.00    -0.222 C  
BRANCH  28  29
HETATM   29  C   UNL     1     -10.007   5.759  68.544  1.00  0.00    -0.197 A  
HETATM   30  C   UNL     1      -9.622   4.400  68.511  1.00  0.00    -0.208 A  
HETATM   31  C   UNL     1      -9.613   3.677  69.721  1.00  0.00    -0.228 A  
HETATM   32  C   UNL     1     -10.341   6.347  69.783  1.00  0.00    -0.246 A  
HETATM   33  C   UNL     1      -9.943   4.277  70.936  1.00  0.00    -0.225 A  
HETATM   34  C   UNL     1     -10.314   5.612  70.967  1.00  0.00    -0.297 A  
BRANCH  30  35
HETATM   35  C   UNL     1      -9.284   3.680  67.219  1.00  0.00    -0.189 C  
HETATM   36  N   UNL     1      -7.857   3.727  66.899  1.00  0.00    -0.084 NA 
HETATM   37  H1  UNL     1      -7.629   3.242  66.030  1.00  0.00     0.000 HD 
HETATM   38  H2  UNL     1      -7.297   3.370  67.674  1.00  0.00     0.000 HD 
ENDBRANCH  30  35
ENDBRANCH  28  29
ENDBRANCH  25  28
ENDBRANCH  10  24
TORSDOF 8
ENDMDL
MODEL      155
REMARK 921   NORMALIZED FREE ENERGY PREDICTED BY IDOCK:   -5.88 KCAL/MOL
REMARK 922        TOTAL FREE ENERGY PREDICTED BY IDOCK:   -9.45 KCAL/MOL
REMARK 923 INTER-LIGAND FREE ENERGY PREDICTED BY IDOCK:   -8.18 KCAL/MOL
REMARK 924 INTRA-LIGAND FREE ENERGY PREDICTED BY IDOCK:   -1.27 KCAL/MOL
REMARK 927      BINDING AFFINITY PREDICTED BY RF-SCORE:    0.00 PKD
ROOT
HETATM    1  C   UNL     1      -9.197   8.853  67.763  1.00  0.00    -0.141 C  
HETATM    2  S   UNL     1     -10.900   9.277  67.343  1.00  0.00     0.037 SA 
HETATM    3  C   UNL     1     -10.434  10.656  66.274  1.00  0.00    -0.203 C  
HETATM    4  C   UNL     1      -9.360  11.578  66.839  1.00  0.00    -0.189 C  
HETATM    5  O   UNL     1      -7.141  12.101  69.695  1.00  0.00     0.091 OA 
HETATM    6  CA  UNL     1      -8.540  11.251  67.882  1.00  0.00    -0.134 C  
HETATM    7  N   UNL     1      -8.601   9.997  68.422  1.00  0.00    -0.111 N  
HETATM    8  O   UNL     1      -7.673   9.767  70.535  1.00  0.00    -0.207 OA 
HETATM    9  C   UNL     1      -7.561  12.268  68.430  1.00  0.00    -0.128 C  
HETATM   10  CA  UNL     1      -8.960   8.057  69.088  1.00  0.00    -0.145 C  
HETATM   11  OXT UNL     1      -7.143  13.206  67.770  1.00  0.00    -0.115 OA 
HETATM   12  C   UNL     1      -8.244   9.359  69.552  1.00  0.00    -0.124 C  
ENDROOT
BRANCH   4  13
HETATM   13  C   UNL     1      -9.425  12.956  66.183  1.00  0.00    -0.154 C  
BRANCH  13  14
HETATM   14  S   UNL     1     -10.650  14.033  67.009  1.00  0.00    -0.280 SA 
BRANCH  14  15
HETATM   15  C   UNL     1     -11.085  15.049  65.678  1.00  0.00    -0.349 A  
HETATM   16  N   UNL     1     -12.026  14.796  64.797  1.00  0.00    -0.417 NA 
HETATM   17  N   UNL     1     -10.518  16.258  65.375  1.00  0.00    -0.551 NA 
HETATM   18  N   UNL     1     -12.067  15.881  63.960  1.00  0.00    -0.710 NA 
HETATM   19  N   UNL     1     -11.178  16.793  64.322  1.00  0.00    -1.110 NA 
BRANCH  17  20
HETATM   20  C   UNL     1      -9.508  17.022  66.073  1.00  0.00    -0.164 C  
HETATM   21  O   UNL     1     -11.153  17.796  67.723  1.00  0.00    -0.207 OA 
HETATM   22  C   UNL     1     -10.009  18.056  67.056  1.00  0.00    -0.329 C  
HETATM   23  O   UNL     1      -9.356  19.061  67.313  1.00  0.00    -0.297 OA 
ENDBRANCH  17  20
ENDBRANCH  14  15
ENDBRANCH  13  14
ENDBRANCH   4  13
BRANCH  10  24
HETATM   24  N   UNL     1     -10.140   7.649  69.884  1.00  0.00    -0.195 N  
HETATM   25  C   UNL     1     -10.185   6.656  70.826  1.00  0.00    -0.196 C  
HETATM   26  O   UNL     1     -11.261   6.386  71.360  1.00  0.00    -0.264 OA 
HETATM   27  H   UNL     1     -11.008   8.158  69.713  1.00  0.00     0.000 HD 
BRANCH  25  28
HETATM   28  C   UNL     1      -8.902   5.913  71.166  1.00  0.00    -0.138 C  
BRANCH  28  29
HETATM   29  C   UNL     1      -9.088   4.728  72.089  1.00  0.00    -0.148 A  
HETATM   30  C   UNL     1      -9.240   4.866  73.487  1.00  0.00    -0.119 A  
HETATM   31  C   UNL     1      -9.417   3.700  74.260  1.00  0.00    -0.118 A  
HETATM   32  C   UNL     1      -9.147   3.439  71.518  1.00  0.00    -0.172 A  
HETATM   33  C   UNL     1      -9.477   2.436  73.676  1.00  0.00    -0.105 A  
HETATM   34  C   UNL     1      -9.335   2.304  72.303  1.00  0.00    -0.151 A  
BRANCH  30  35
HETATM   35  C   UNL     1      -9.152   6.208  74.189  1.00  0.00    -0.134 C  
HETATM   36  N   UNL     1     -10.457   6.849  74.355  1.00  0.00    -0.506 NA 
HETATM   37  H1  UNL     1     -10.398   7.752  74.827  1.00  0.00     0.000 HD 
HETATM   38  H2  UNL     1     -11.110   6.228  74.834  1.00  0.00     0.000 HD 
ENDBRANCH  30  35
ENDBRANCH  28  29
ENDBRANCH  25  28
ENDBRANCH  10  24
TORSDOF 8
ENDMDL
MODEL      156
REMARK 921   NORMALIZED FREE ENERGY PREDICTED BY IDOCK:   -5.86 KCAL/MOL
REMARK 922        TOTAL FREE ENERGY PREDICTED BY IDOCK:   -9.42 KCAL/MOL
REMARK 923 INTER-LIGAND FREE ENERGY PREDICTED BY IDOCK:   -8.01 KCAL/MOL
REMARK 924 INTRA-LIGAND FREE ENERGY PREDICTED BY IDOCK:   -1.41 KCAL/MOL
REMARK 927      BINDING AFFINITY PREDICTED BY RF-SCORE:    0.00 PKD
ROOT
HETATM    1  C   UNL     1      -8.736   9.663  69.708  1.00  0.00    -0.208 C  
HETATM    2  S   UNL     1      -9.768   8.885  70.968  1.00  0.00    -0.277 SA 
HETATM    3  C   UNL     1      -8.901   7.303  70.890  1.00  0.00    -0.149 C  
HETATM    4  C   UNL     1      -8.610   6.793  69.483  1.00  0.00    -0.133 C  
HETATM    5  O   UNL     1      -8.942   7.605  65.936  1.00  0.00    -0.166 OA 
HETATM    6  CA  UNL     1      -8.654   7.572  68.361  1.00  0.00    -0.124 C  
HETATM    7  N   UNL     1      -8.889   8.913  68.478  1.00  0.00    -0.134 N  
HETATM    8  O   UNL     1      -9.577   9.986  66.540  1.00  0.00    -0.170 OA 
HETATM    9  C   UNL     1      -8.434   6.956  66.996  1.00  0.00    -0.121 C  
HETATM   10  CA  UNL     1      -9.334  10.893  68.948  1.00  0.00    -0.160 C  
HETATM   11  OXT UNL     1      -7.815   5.917  66.831  1.00  0.00    -0.100 OA 
HETATM   12  C   UNL     1      -9.290   9.945  67.713  1.00  0.00    -0.140 C  
ENDROOT
BRANCH   4  13
HETATM   13  C   UNL     1      -8.407   5.279  69.484  1.00  0.00    -0.095 C  
BRANCH  13  14
HETATM   14  S   UNL     1      -7.717   4.698  71.074  1.00  0.00    -0.082 SA 
BRANCH  14  15
HETATM   15  C   UNL     1      -8.937   3.554  71.516  1.00  0.00    -0.104 A  
HETATM   16  N   UNL     1      -9.264   2.481  70.832  1.00  0.00    -0.117 NA 
HETATM   17  N   UNL     1      -9.712   3.604  72.644  1.00  0.00    -0.134 NA 
HETATM   18  N   UNL     1     -10.228   1.839  71.566  1.00  0.00    -0.042 NA 
HETATM   19  N   UNL     1     -10.485   2.495  72.687  1.00  0.00    -0.151 NA 
BRANCH  17  20
HETATM   20  C   UNL     1      -9.690   4.527  73.756  1.00  0.00    -0.132 C  
HETATM   21  O   UNL     1     -11.652   5.716  72.884  1.00  0.00    -0.277 OA 
HETATM   22  C   UNL     1     -10.511   5.787  73.599  1.00  0.00    -0.265 C  
HETATM   23  O   UNL     1     -10.204   6.825  74.176  1.00  0.00    -0.344 OA 
ENDBRANCH  17  20
ENDBRANCH  14  15
ENDBRANCH  13  14
ENDBRANCH   4  13
BRANCH  10  24
HETATM   24  N   UNL     1     -10.677  11.379  69.343  1.00  0.00    -0.409 N  
HETATM   25  C   UNL     1     -11.251  12.569  68.983  1.00  0.00    -0.268 C  
HETATM   26  O   UNL     1     -12.352  12.865  69.446  1.00  0.00    -0.145 OA 
HETATM   27  H   UNL     1     -11.229  10.766  69.943  1.00  0.00     0.000 HD 
BRANCH  25  28
HETATM   28  C   UNL     1     -10.497  13.487  68.034  1.00  0.00    -0.245 C  
BRANCH  28  29
HETATM   29  C   UNL     1     -11.124  13.626  66.663  1.00  0.00    -0.312 A  
HETATM   30  C   UNL     1     -11.163  14.852  65.962  1.00  0.00    -0.327 A  
HETATM   31  C   UNL     1     -11.762  14.875  64.686  1.00  0.00    -0.406 A  
HETATM   32  C   UNL     1     -11.658  12.470  66.053  1.00  0.00    -0.456 A  
HETATM   33  C   UNL     1     -12.280  13.721  64.098  1.00  0.00    -0.443 A  
HETATM   34  C   UNL     1     -12.235  12.518  64.786  1.00  0.00    -0.532 A  
BRANCH  30  35
HETATM   35  C   UNL     1     -10.648  16.149  66.557  1.00  0.00    -0.268 C  
HETATM   36  N   UNL     1     -10.010  17.015  65.565  1.00  0.00    -0.572 NA 
HETATM   37  H1  UNL     1      -9.663  17.887  65.965  1.00  0.00     0.000 HD 
HETATM   38  H2  UNL     1     -10.638  17.196  64.781  1.00  0.00     0.000 HD 
ENDBRANCH  30  35
ENDBRANCH  28  29
ENDBRANCH  25  28
ENDBRANCH  10  24
TORSDOF 8
ENDMDL
MODEL      157
REMARK 921   NORMALIZED FREE ENERGY PREDICTED BY IDOCK:   -5.84 KCAL/MOL
REMARK 922        TOTAL FREE ENERGY PREDICTED BY IDOCK:   -9.40 KCAL/MOL
REMARK 923 INTER-LIGAND FREE ENERGY PREDICTED BY IDOCK:   -8.32 KCAL/MOL
REMARK 924 INTRA-LIGAND FREE ENERGY PREDICTED BY IDOCK:   -1.08 KCAL/MOL
REMARK 927      BINDING AFFINITY PREDICTED BY RF-SCORE:    0.00 PKD
ROOT
HETATM    1  C   UNL     1     -10.447   8.762  69.719  1.00  0.00    -0.219 C  
HETATM    2  S   UNL     1     -10.533   9.507  68.078  1.00  0.00    -0.230 SA 
HETATM    3  C   UNL     1     -10.597  11.200  68.705  1.00  0.00    -0.202 C  
HETATM    4  C   UNL     1     -11.548  11.420  69.876  1.00  0.00    -0.402 C  
HETATM    5  O   UNL     1     -13.877   9.731  72.128  1.00  0.00    -0.335 OA 
HETATM    6  CA  UNL     1     -12.058  10.415  70.648  1.00  0.00    -0.348 C  
HETATM    7  N   UNL     1     -11.649   9.128  70.440  1.00  0.00    -0.202 N  
HETATM    8  O   UNL     1     -13.021   7.482  71.326  1.00  0.00    -0.331 OA 
HETATM    9  C   UNL     1     -13.065  10.726  71.736  1.00  0.00    -0.468 C  
HETATM   10  CA  UNL     1     -10.906   7.272  69.856  1.00  0.00    -0.247 C  
HETATM   11  OXT UNL     1     -13.152  11.824  72.262  1.00  0.00    -0.378 OA 
HETATM   12  C   UNL     1     -12.055   7.875  70.716  1.00  0.00    -0.084 C  
ENDROOT
BRANCH   4  13
HETATM   13  C   UNL     1     -11.960  12.888  69.974  1.00  0.00    -0.309 C  
BRANCH  13  14
HETATM   14  S   UNL     1     -12.129  13.646  68.319  1.00  0.00    -0.153 SA 
BRANCH  14  15
HETATM   15  C   UNL     1     -10.920  14.878  68.442  1.00  0.00    -0.261 A  
HETATM   16  N   UNL     1     -10.834  15.773  69.400  1.00  0.00    -0.246 NA 
HETATM   17  N   UNL     1      -9.884  15.074  67.568  1.00  0.00    -0.217 NA 
HETATM   18  N   UNL     1      -9.708  16.508  69.135  1.00  0.00    -0.259 NA 
HETATM   19  N   UNL     1      -9.102  16.071  68.042  1.00  0.00    -0.188 NA 
BRANCH  17  20
HETATM   20  C   UNL     1      -9.483  14.316  66.404  1.00  0.00    -0.275 C  
HETATM   21  O   UNL     1     -10.626  15.894  64.911  1.00  0.00    -0.546 OA 
HETATM   22  C   UNL     1     -10.213  14.627  65.117  1.00  0.00    -0.382 C  
HETATM   23  O   UNL     1     -10.350  13.779  64.241  1.00  0.00    -0.331 OA 
ENDBRANCH  17  20
ENDBRANCH  14  15
ENDBRANCH  13  14
ENDBRANCH   4  13
BRANCH  10  24
HETATM   24  N   UNL     1     -11.324   6.549  68.633  1.00  0.00    -0.582 N  
HETATM   25  C   UNL     1     -10.499   5.974  67.704  1.00  0.00    -0.235 C  
HETATM   26  O   UNL     1     -10.994   5.464  66.699  1.00  0.00    -0.220 OA 
HETATM   27  H   UNL     1     -12.327   6.472  68.466  1.00  0.00     0.000 HD 
BRANCH  25  28
HETATM   28  C   UNL     1      -8.997   6.002  67.943  1.00  0.00    -0.118 C  
BRANCH  28  29
HETATM   29  C   UNL     1      -8.312   4.662  67.789  1.00  0.00    -0.103 A  
HETATM   30  C   UNL     1      -7.742   4.230  66.571  1.00  0.00    -0.094 A  
HETATM   31  C   UNL     1      -7.117   2.967  66.534  1.00  0.00    -0.054 A  
HETATM   32  C   UNL     1      -8.210   3.830  68.925  1.00  0.00    -0.084 A  
HETATM   33  C   UNL     1      -7.024   2.162  67.668  1.00  0.00    -0.040 A  
HETATM   34  C   UNL     1      -7.577   2.590  68.865  1.00  0.00    -0.046 A  
BRANCH  30  35
HETATM   35  C   UNL     1      -7.837   5.042  65.293  1.00  0.00    -0.089 C  
HETATM   36  N   UNL     1      -6.654   5.869  65.056  1.00  0.00    -0.042 NA 
HETATM   37  H1  UNL     1      -6.718   6.416  64.196  1.00  0.00     0.000 HD 
HETATM   38  H2  UNL     1      -5.805   5.303  65.067  1.00  0.00     0.000 HD 
ENDBRANCH  30  35
ENDBRANCH  28  29
ENDBRANCH  25  28
ENDBRANCH  10  24
TORSDOF 8
ENDMDL
MODEL      158
REMARK 921   NORMALIZED FREE ENERGY PREDICTED BY IDOCK:   -5.82 KCAL/MOL
REMARK 922        TOTAL FREE ENERGY PREDICTED BY IDOCK:   -9.37 KCAL/MOL
REMARK 923 INTER-LIGAND FREE ENERGY PREDICTED BY IDOCK:   -8.55 KCAL/MOL
REMARK 924 INTRA-LIGAND FREE ENERGY PREDICTED BY IDOCK:   -0.82 KCAL/MOL
REMARK 927      BINDING AFFINITY PREDICTED BY RF-SCORE:    0.00 PKD
ROOT
HETATM    1  C   UNL     1     -12.018   8.739  70.332  1.00  0.00     0.142 C  
HETATM    2  S   UNL     1     -11.594  10.286  71.157  1.00  0.00    -0.214 SA 
HETATM    3  C   UNL     1     -11.789  11.289  69.667  1.00  0.00    -0.360 C  
HETATM    4  C   UNL     1     -11.158  10.704  68.408  1.00  0.00    -0.328 C  
HETATM    5  O   UNL     1      -9.326   7.825  67.102  1.00  0.00    -0.139 OA 
HETATM    6  CA  UNL     1     -10.782   9.398  68.274  1.00  0.00    -0.171 C  
HETATM    7  N   UNL     1     -11.048   8.511  69.281  1.00  0.00     0.047 N  
HETATM    8  O   UNL     1      -9.823   6.543  69.234  1.00  0.00    -0.146 OA 
HETATM    9  C   UNL     1     -10.084   8.930  67.015  1.00  0.00    -0.261 C  
HETATM   10  CA  UNL     1     -11.511   7.412  70.987  1.00  0.00    -0.282 C  
HETATM   11  OXT UNL     1     -10.195   9.507  65.944  1.00  0.00    -0.266 OA 
HETATM   12  C   UNL     1     -10.640   7.301  69.702  1.00  0.00    -0.235 C  
ENDROOT
BRANCH   4  13
HETATM   13  C   UNL     1     -10.875  11.801  67.382  1.00  0.00    -0.251 C  
BRANCH  13  14
HETATM   14  S   UNL     1     -11.797  13.331  67.769  1.00  0.00    -0.329 SA 
BRANCH  14  15
HETATM   15  C   UNL     1     -11.936  13.994  66.176  1.00  0.00    -0.420 A  
HETATM   16  N   UNL     1     -12.985  13.889  65.392  1.00  0.00    -0.748 NA 
HETATM   17  N   UNL     1     -10.979  14.729  65.528  1.00  0.00    -0.329 NA 
HETATM   18  N   UNL     1     -12.686  14.600  64.259  1.00  0.00    -0.678 NA 
HETATM   19  N   UNL     1     -11.483  15.145  64.344  1.00  0.00    -0.287 NA 
BRANCH  17  20
HETATM   20  C   UNL     1      -9.689  15.196  65.982  1.00  0.00    -0.330 C  
HETATM   21  O   UNL     1     -10.579  17.450  66.375  1.00  0.00    -0.294 OA 
HETATM   22  C   UNL     1      -9.506  16.695  66.058  1.00  0.00    -0.251 C  
HETATM   23  O   UNL     1      -8.402  17.211  65.926  1.00  0.00    -0.527 OA 
ENDBRANCH  17  20
ENDBRANCH  14  15
ENDBRANCH  13  14
ENDBRANCH   4  13
BRANCH  10  24
HETATM   24  N   UNL     1     -10.770   7.498  72.266  1.00  0.00    -0.235 N  
HETATM   25  C   UNL     1     -10.416   6.451  73.076  1.00  0.00    -0.230 C  
HETATM   26  O   UNL     1      -9.857   6.687  74.147  1.00  0.00    -0.246 OA 
HETATM   27  H   UNL     1     -10.495   8.430  72.576  1.00  0.00     0.000 HD 
BRANCH  25  28
HETATM   28  C   UNL     1     -10.743   5.036  72.625  1.00  0.00    -0.279 C  
BRANCH  28  29
HETATM   29  C   UNL     1      -9.554   4.248  72.118  1.00  0.00    -0.203 A  
HETATM   30  C   UNL     1      -9.422   2.855  72.313  1.00  0.00    -0.184 A  
HETATM   31  C   UNL     1      -8.280   2.211  71.793  1.00  0.00    -0.055 A  
HETATM   32  C   UNL     1      -8.558   4.936  71.391  1.00  0.00    -0.132 A  
HETATM   33  C   UNL     1      -7.310   2.907  71.074  1.00  0.00    -0.033 A  
HETATM   34  C   UNL     1      -7.445   4.273  70.878  1.00  0.00    -0.051 A  
BRANCH  30  35
HETATM   35  C   UNL     1     -10.424   2.045  73.114  1.00  0.00    -0.132 C  
HETATM   36  N   UNL     1     -10.158   2.074  74.552  1.00  0.00    -0.109 NA 
HETATM   37  H1  UNL     1     -10.832   1.529  75.091  1.00  0.00     0.000 HD 
HETATM   38  H2  UNL     1     -10.108   3.034  74.894  1.00  0.00     0.000 HD 
ENDBRANCH  30  35
ENDBRANCH  28  29
ENDBRANCH  25  28
ENDBRANCH  10  24
TORSDOF 8
ENDMDL
MODEL      159
REMARK 921   NORMALIZED FREE ENERGY PREDICTED BY IDOCK:   -5.82 KCAL/MOL
REMARK 922        TOTAL FREE ENERGY PREDICTED BY IDOCK:   -9.36 KCAL/MOL
REMARK 923 INTER-LIGAND FREE ENERGY PREDICTED BY IDOCK:   -7.90 KCAL/MOL
REMARK 924 INTRA-LIGAND FREE ENERGY PREDICTED BY IDOCK:   -1.46 KCAL/MOL
REMARK 927      BINDING AFFINITY PREDICTED BY RF-SCORE:    0.00 PKD
ROOT
HETATM    1  C   UNL     1      -9.108  10.431  65.161  1.00  0.00    -0.198 C  
HETATM    2  S   UNL     1     -10.762  10.878  64.595  1.00  0.00    -0.059 SA 
HETATM    3  C   UNL     1     -10.391  12.642  64.483  1.00  0.00    -0.344 C  
HETATM    4  C   UNL     1      -9.629  13.219  65.670  1.00  0.00    -0.014 C  
HETATM    5  O   UNL     1      -8.078  12.361  68.866  1.00  0.00     0.014 OA 
HETATM    6  CA  UNL     1      -8.953  12.465  66.588  1.00  0.00    -0.184 C  
HETATM    7  N   UNL     1      -8.865  11.111  66.417  1.00  0.00    -0.173 N  
HETATM    8  O   UNL     1      -8.289   9.896  68.306  1.00  0.00    -0.108 OA 
HETATM    9  C   UNL     1      -8.297  13.124  67.782  1.00  0.00    -0.171 C  
HETATM   10  CA  UNL     1      -8.955   9.085  65.944  1.00  0.00    -0.190 C  
HETATM   11  OXT UNL     1      -7.959  14.297  67.788  1.00  0.00    -0.139 OA 
HETATM   12  C   UNL     1      -8.593  10.011  67.142  1.00  0.00    -0.128 C  
ENDROOT
BRANCH   4  13
HETATM   13  C   UNL     1      -9.842  14.729  65.773  1.00  0.00    -0.342 C  
BRANCH  13  14
HETATM   14  S   UNL     1     -11.514  15.125  66.397  1.00  0.00    -0.075 SA 
BRANCH  14  15
HETATM   15  C   UNL     1     -11.103  15.693  67.979  1.00  0.00    -0.335 A  
HETATM   16  N   UNL     1     -10.712  16.911  68.277  1.00  0.00    -0.368 NA 
HETATM   17  N   UNL     1     -11.146  14.955  69.132  1.00  0.00    -0.256 NA 
HETATM   18  N   UNL     1     -10.547  16.937  69.638  1.00  0.00    -0.261 NA 
HETATM   19  N   UNL     1     -10.841  15.762  70.173  1.00  0.00    -0.326 NA 
BRANCH  17  20
HETATM   20  C   UNL     1     -11.587  13.597  69.359  1.00  0.00    -0.312 C  
HETATM   21  O   UNL     1     -13.304  14.358  70.939  1.00  0.00    -0.351 OA 
HETATM   22  C   UNL     1     -12.463  13.370  70.570  1.00  0.00    -0.279 C  
HETATM   23  O   UNL     1     -12.482  12.290  71.151  1.00  0.00    -0.343 OA 
ENDBRANCH  17  20
ENDBRANCH  14  15
ENDBRANCH  13  14
ENDBRANCH   4  13
BRANCH  10  24
HETATM   24  N   UNL     1     -10.155   8.235  66.123  1.00  0.00    -0.445 N  
HETATM   25  C   UNL     1     -10.213   7.034  66.779  1.00  0.00    -0.211 C  
HETATM   26  O   UNL     1     -11.273   6.409  66.787  1.00  0.00    -0.327 OA 
HETATM   27  H   UNL     1     -11.025   8.579  65.717  1.00  0.00     0.000 HD 
BRANCH  25  28
HETATM   28  C   UNL     1      -8.958   6.512  67.460  1.00  0.00    -0.110 C  
BRANCH  28  29
HETATM   29  C   UNL     1      -9.216   5.570  68.616  1.00  0.00    -0.140 A  
HETATM   30  C   UNL     1      -9.714   6.009  69.863  1.00  0.00    -0.200 A  
HETATM   31  C   UNL     1      -9.931   5.050  70.873  1.00  0.00    -0.286 A  
HETATM   32  C   UNL     1      -8.980   4.192  68.419  1.00  0.00    -0.157 A  
HETATM   33  C   UNL     1      -9.695   3.693  70.658  1.00  0.00    -0.215 A  
HETATM   34  C   UNL     1      -9.213   3.263  69.431  1.00  0.00    -0.222 A  
BRANCH  30  35
HETATM   35  C   UNL     1      -9.960   7.474  70.173  1.00  0.00    -0.192 C  
HETATM   36  N   UNL     1     -11.312   7.910  69.822  1.00  0.00    -0.454 NA 
HETATM   37  H1  UNL     1     -11.477   8.895  70.030  1.00  0.00     0.000 HD 
HETATM   38  H2  UNL     1     -12.013   7.319  70.269  1.00  0.00     0.000 HD 
ENDBRANCH  30  35
ENDBRANCH  28  29
ENDBRANCH  25  28
ENDBRANCH  10  24
TORSDOF 8
ENDMDL
MODEL      160
REMARK 921   NORMALIZED FREE ENERGY PREDICTED BY IDOCK:   -5.81 KCAL/MOL
REMARK 922        TOTAL FREE ENERGY PREDICTED BY IDOCK:   -9.35 KCAL/MOL
REMARK 923 INTER-LIGAND FREE ENERGY PREDICTED BY IDOCK:   -7.90 KCAL/MOL
REMARK 924 INTRA-LIGAND FREE ENERGY PREDICTED BY IDOCK:   -1.44 KCAL/MOL
REMARK 927      BINDING AFFINITY PREDICTED BY RF-SCORE:    0.00 PKD
ROOT
HETATM    1  C   UNL     1     -10.841  12.336  67.611  1.00  0.00    -0.225 C  
HETATM    2  S   UNL     1     -11.176  11.638  65.981  1.00  0.00    -0.176 SA 
HETATM    3  C   UNL     1     -10.937   9.930  66.517  1.00  0.00     0.218 C  
HETATM    4  C   UNL     1      -9.714   9.693  67.395  1.00  0.00    -0.198 C  
HETATM    5  O   UNL     1      -6.896  11.356  69.021  1.00  0.00    -0.084 OA 
HETATM    6  CA  UNL     1      -9.030  10.684  68.041  1.00  0.00    -0.140 C  
HETATM    7  N   UNL     1      -9.490  11.969  67.986  1.00  0.00    -0.193 N  
HETATM    8  O   UNL     1      -7.950  13.613  68.539  1.00  0.00    -0.142 OA 
HETATM    9  C   UNL     1      -7.774  10.359  68.821  1.00  0.00    -0.104 C  
HETATM   10  CA  UNL     1     -10.375  13.828  67.672  1.00  0.00    -0.239 C  
HETATM   11  OXT UNL     1      -7.544   9.249  69.273  1.00  0.00    -0.075 OA 
HETATM   12  C   UNL     1      -9.037  13.220  68.187  1.00  0.00    -0.207 C  
ENDROOT
BRANCH   4  13
HETATM   13  C   UNL     1      -9.278   8.229  67.337  1.00  0.00    -0.141 C  
BRANCH  13  14
HETATM   14  S   UNL     1     -10.714   7.111  67.169  1.00  0.00    -0.325 SA 
BRANCH  14  15
HETATM   15  C   UNL     1     -10.591   6.259  68.671  1.00  0.00    -0.264 A  
HETATM   16  N   UNL     1     -11.001   6.701  69.838  1.00  0.00    -0.291 NA 
HETATM   17  N   UNL     1     -10.067   5.005  68.840  1.00  0.00    -0.169 NA 
HETATM   18  N   UNL     1     -10.761   5.692  70.734  1.00  0.00    -0.264 NA 
HETATM   19  N   UNL     1     -10.225   4.641  70.133  1.00  0.00    -0.209 NA 
BRANCH  17  20
HETATM   20  C   UNL     1      -9.562   4.061  67.868  1.00  0.00    -0.143 C  
HETATM   21  O   UNL     1      -7.324   5.065  67.972  1.00  0.00    -0.072 OA 
HETATM   22  C   UNL     1      -8.235   4.402  67.229  1.00  0.00    -0.100 C  
HETATM   23  O   UNL     1      -7.951   4.012  66.101  1.00  0.00    -0.093 OA 
ENDBRANCH  17  20
ENDBRANCH  14  15
ENDBRANCH  13  14
ENDBRANCH   4  13
BRANCH  10  24
HETATM   24  N   UNL     1     -10.293  14.592  66.405  1.00  0.00    -0.282 N  
HETATM   25  C   UNL     1     -10.407  15.949  66.263  1.00  0.00    -0.314 C  
HETATM   26  O   UNL     1     -10.385  16.435  65.132  1.00  0.00    -0.610 OA 
HETATM   27  H   UNL     1     -10.137  14.053  65.554  1.00  0.00     0.000 HD 
BRANCH  25  28
HETATM   28  C   UNL     1     -10.573  16.803  67.510  1.00  0.00    -0.309 C  
BRANCH  28  29
HETATM   29  C   UNL     1      -9.782  18.094  67.498  1.00  0.00    -0.304 A  
HETATM   30  C   UNL     1      -8.375  18.128  67.623  1.00  0.00    -0.244 A  
HETATM   31  C   UNL     1      -7.729  19.381  67.590  1.00  0.00    -0.299 A  
HETATM   32  C   UNL     1     -10.483  19.305  67.317  1.00  0.00    -0.566 A  
HETATM   33  C   UNL     1      -8.440  20.567  67.407  1.00  0.00    -0.354 A  
HETATM   34  C   UNL     1      -9.820  20.530  67.277  1.00  0.00    -0.581 A  
BRANCH  30  35
HETATM   35  C   UNL     1      -7.546  16.879  67.858  1.00  0.00    -0.171 C  
HETATM   36  N   UNL     1      -7.390  16.559  69.277  1.00  0.00    -0.232 NA 
HETATM   37  H1  UNL     1      -6.833  15.719  69.435  1.00  0.00     0.000 HD 
HETATM   38  H2  UNL     1      -8.298  16.487  69.737  1.00  0.00     0.000 HD 
ENDBRANCH  30  35
ENDBRANCH  28  29
ENDBRANCH  25  28
ENDBRANCH  10  24
TORSDOF 8
ENDMDL
MODEL      161
REMARK 921   NORMALIZED FREE ENERGY PREDICTED BY IDOCK:   -5.76 KCAL/MOL
REMARK 922        TOTAL FREE ENERGY PREDICTED BY IDOCK:   -9.28 KCAL/MOL
REMARK 923 INTER-LIGAND FREE ENERGY PREDICTED BY IDOCK:   -7.47 KCAL/MOL
REMARK 924 INTRA-LIGAND FREE ENERGY PREDICTED BY IDOCK:   -1.81 KCAL/MOL
REMARK 927      BINDING AFFINITY PREDICTED BY RF-SCORE:    0.00 PKD
ROOT
HETATM    1  C   UNL     1     -11.010   7.544  69.586  1.00  0.00    -0.153 C  
HETATM    2  S   UNL     1      -9.519   6.997  68.730  1.00  0.00    -0.135 SA 
HETATM    3  C   UNL     1      -9.743   5.259  69.171  1.00  0.00    -0.168 C  
HETATM    4  C   UNL     1     -10.126   5.005  70.624  1.00  0.00    -0.313 C  
HETATM    5  O   UNL     1     -10.891   6.654  73.794  1.00  0.00    -0.247 OA 
HETATM    6  CA  UNL     1     -10.613   5.963  71.467  1.00  0.00    -0.245 C  
HETATM    7  N   UNL     1     -10.865   7.219  70.990  1.00  0.00    -0.236 N  
HETATM    8  O   UNL     1     -11.054   8.884  72.594  1.00  0.00    -0.068 OA 
HETATM    9  C   UNL     1     -10.884   5.634  72.920  1.00  0.00    -0.264 C  
HETATM   10  CA  UNL     1     -11.082   9.046  70.015  1.00  0.00    -0.182 C  
HETATM   11  OXT UNL     1     -11.101   4.499  73.312  1.00  0.00    -0.263 OA 
HETATM   12  C   UNL     1     -11.045   8.467  71.460  1.00  0.00    -0.275 C  
ENDROOT
BRANCH   4  13
HETATM   13  C   UNL     1      -9.757   3.583  71.044  1.00  0.00    -0.155 C  
BRANCH  13  14
HETATM   14  S   UNL     1      -7.956   3.294  70.910  1.00  0.00    -0.054 SA 
BRANCH  14  15
HETATM   15  C   UNL     1      -7.458   3.864  72.467  1.00  0.00    -0.063 A  
HETATM   16  N   UNL     1      -7.551   3.194  73.593  1.00  0.00    -0.055 NA 
HETATM   17  N   UNL     1      -6.885   5.080  72.729  1.00  0.00    -0.069 NA 
HETATM   18  N   UNL     1      -6.995   3.993  74.559  1.00  0.00    -0.062 NA 
HETATM   19  N   UNL     1      -6.554   5.128  74.040  1.00  0.00    -0.071 NA 
BRANCH  17  20
HETATM   20  C   UNL     1      -6.491   6.143  71.832  1.00  0.00    -0.050 C  
HETATM   21  O   UNL     1      -7.772   7.788  73.127  1.00  0.00    -0.101 OA 
HETATM   22  C   UNL     1      -7.286   7.426  71.922  1.00  0.00    -0.067 C  
HETATM   23  O   UNL     1      -7.412   8.168  70.954  1.00  0.00    -0.056 OA 
ENDBRANCH  17  20
ENDBRANCH  14  15
ENDBRANCH  13  14
ENDBRANCH   4  13
BRANCH  10  24
HETATM   24  N   UNL     1      -9.959   9.938  69.646  1.00  0.00    -0.218 N  
HETATM   25  C   UNL     1      -9.957  10.877  68.649  1.00  0.00    -0.189 C  
HETATM   26  O   UNL     1      -8.921  11.499  68.416  1.00  0.00    -0.167 OA 
HETATM   27  H   UNL     1      -9.101   9.844  70.189  1.00  0.00     0.000 HD 
BRANCH  25  28
HETATM   28  C   UNL     1     -11.235  11.104  67.857  1.00  0.00    -0.365 C  
BRANCH  28  29
HETATM   29  C   UNL     1     -11.018  11.446  66.398  1.00  0.00    -0.315 A  
HETATM   30  C   UNL     1     -11.525  12.624  65.806  1.00  0.00    -0.399 A  
HETATM   31  C   UNL     1     -11.259  12.856  64.441  1.00  0.00    -0.389 A  
HETATM   32  C   UNL     1     -10.244  10.563  65.614  1.00  0.00    -0.315 A  
HETATM   33  C   UNL     1     -10.489  11.973  63.684  1.00  0.00    -0.494 A  
HETATM   34  C   UNL     1      -9.987  10.821  64.269  1.00  0.00    -0.403 A  
BRANCH  30  35
HETATM   35  C   UNL     1     -12.396  13.608  66.564  1.00  0.00    -0.361 C  
HETATM   36  N   UNL     1     -13.193  14.459  65.680  1.00  0.00    -0.503 NA 
HETATM   37  H1  UNL     1     -13.779  15.121  66.189  1.00  0.00     0.000 HD 
HETATM   38  H2  UNL     1     -13.751  13.896  65.037  1.00  0.00     0.000 HD 
ENDBRANCH  30  35
ENDBRANCH  28  29
ENDBRANCH  25  28
ENDBRANCH  10  24
TORSDOF 8
ENDMDL
MODEL      162
REMARK 921   NORMALIZED FREE ENERGY PREDICTED BY IDOCK:   -5.75 KCAL/MOL
REMARK 922        TOTAL FREE ENERGY PREDICTED BY IDOCK:   -9.27 KCAL/MOL
REMARK 923 INTER-LIGAND FREE ENERGY PREDICTED BY IDOCK:   -8.01 KCAL/MOL
REMARK 924 INTRA-LIGAND FREE ENERGY PREDICTED BY IDOCK:   -1.26 KCAL/MOL
REMARK 927      BINDING AFFINITY PREDICTED BY RF-SCORE:    0.00 PKD
ROOT
HETATM    1  C   UNL     1     -11.039   8.937  68.045  1.00  0.00     0.268 C  
HETATM    2  S   UNL     1      -9.652   7.958  68.658  1.00  0.00    -0.157 SA 
HETATM    3  C   UNL     1     -10.586   7.251  70.033  1.00  0.00    -0.233 C  
HETATM    4  C   UNL     1     -11.438   8.245  70.814  1.00  0.00    -0.268 C  
HETATM    5  O   UNL     1     -12.468  11.747  70.972  1.00  0.00    -0.372 OA 
HETATM    6  CA  UNL     1     -11.784   9.485  70.356  1.00  0.00    -0.170 C  
HETATM    7  N   UNL     1     -11.431   9.860  69.090  1.00  0.00    -0.043 N  
HETATM    8  O   UNL     1     -11.486  12.140  68.666  1.00  0.00    -0.246 OA 
HETATM    9  C   UNL     1     -12.563  10.435  71.240  1.00  0.00    -0.419 C  
HETATM   10  CA  UNL     1     -10.704  10.186  67.166  1.00  0.00    -0.221 C  
HETATM   11  OXT UNL     1     -13.267  10.054  72.162  1.00  0.00    -0.442 OA 
HETATM   12  C   UNL     1     -11.293  10.986  68.365  1.00  0.00    -0.295 C  
ENDROOT
BRANCH   4  13
HETATM   13  C   UNL     1     -11.728   7.725  72.221  1.00  0.00    -0.340 C  
BRANCH  13  14
HETATM   14  S   UNL     1     -10.183   7.379  73.136  1.00  0.00    -0.347 SA 
BRANCH  14  15
HETATM   15  C   UNL     1     -10.337   5.665  73.320  1.00  0.00    -0.211 A  
HETATM   16  N   UNL     1     -11.467   4.997  73.349  1.00  0.00    -0.281 NA 
HETATM   17  N   UNL     1      -9.302   4.777  73.444  1.00  0.00    -0.122 NA 
HETATM   18  N   UNL     1     -11.125   3.673  73.454  1.00  0.00    -0.215 NA 
HETATM   19  N   UNL     1      -9.810   3.524  73.478  1.00  0.00    -0.107 NA 
BRANCH  17  20
HETATM   20  C   UNL     1      -7.873   4.989  73.389  1.00  0.00    -0.100 C  
HETATM   21  O   UNL     1      -7.915   5.019  70.935  1.00  0.00    -0.087 OA 
HETATM   22  C   UNL     1      -7.210   4.745  72.052  1.00  0.00    -0.071 C  
HETATM   23  O   UNL     1      -6.037   4.397  71.976  1.00  0.00    -0.018 OA 
ENDBRANCH  17  20
ENDBRANCH  14  15
ENDBRANCH  13  14
ENDBRANCH   4  13
BRANCH  10  24
HETATM   24  N   UNL     1      -9.284  10.458  66.841  1.00  0.00    -0.150 N  
HETATM   25  C   UNL     1      -8.807  11.482  66.067  1.00  0.00    -0.143 C  
HETATM   26  O   UNL     1      -7.600  11.539  65.831  1.00  0.00     0.164 OA 
HETATM   27  H   UNL     1      -8.593   9.819  67.234  1.00  0.00     0.000 HD 
BRANCH  25  28
HETATM   28  C   UNL     1      -9.791  12.501  65.515  1.00  0.00    -0.197 C  
BRANCH  28  29
HETATM   29  C   UNL     1      -9.818  13.817  66.264  1.00  0.00    -0.314 A  
HETATM   30  C   UNL     1     -10.722  14.856  65.949  1.00  0.00    -0.329 A  
HETATM   31  C   UNL     1     -10.674  16.040  66.713  1.00  0.00    -0.259 A  
HETATM   32  C   UNL     1      -8.925  13.989  67.343  1.00  0.00    -0.208 A  
HETATM   33  C   UNL     1      -9.787  16.190  67.777  1.00  0.00    -0.232 A  
HETATM   34  C   UNL     1      -8.906  15.166  68.089  1.00  0.00    -0.169 A  
BRANCH  30  35
HETATM   35  C   UNL     1     -11.689  14.771  64.783  1.00  0.00    -0.422 C  
HETATM   36  N   UNL     1     -11.716  15.991  63.976  1.00  0.00    -1.249 NA 
HETATM   37  H1  UNL     1     -12.366  15.934  63.192  1.00  0.00     0.000 HD 
HETATM   38  H2  UNL     1     -10.778  16.238  63.656  1.00  0.00     0.000 HD 
ENDBRANCH  30  35
ENDBRANCH  28  29
ENDBRANCH  25  28
ENDBRANCH  10  24
TORSDOF 8
ENDMDL
MODEL      163
REMARK 921   NORMALIZED FREE ENERGY PREDICTED BY IDOCK:   -5.75 KCAL/MOL
REMARK 922        TOTAL FREE ENERGY PREDICTED BY IDOCK:   -9.26 KCAL/MOL
REMARK 923 INTER-LIGAND FREE ENERGY PREDICTED BY IDOCK:   -7.84 KCAL/MOL
REMARK 924 INTRA-LIGAND FREE ENERGY PREDICTED BY IDOCK:   -1.41 KCAL/MOL
REMARK 927      BINDING AFFINITY PREDICTED BY RF-SCORE:    0.00 PKD
ROOT
HETATM    1  C   UNL     1      -8.957  10.360  65.198  1.00  0.00    -0.191 C  
HETATM    2  S   UNL     1     -10.613  10.746  64.596  1.00  0.00    -0.066 SA 
HETATM    3  C   UNL     1     -10.320  12.527  64.534  1.00  0.00    -0.336 C  
HETATM    4  C   UNL     1      -9.616  13.109  65.755  1.00  0.00    -0.075 C  
HETATM    5  O   UNL     1      -8.116  12.245  68.973  1.00  0.00     0.084 OA 
HETATM    6  CA  UNL     1      -8.933  12.364  66.674  1.00  0.00    -0.184 C  
HETATM    7  N   UNL     1      -8.779  11.020  66.475  1.00  0.00    -0.163 N  
HETATM    8  O   UNL     1      -8.200   9.787  68.352  1.00  0.00    -0.104 OA 
HETATM    9  C   UNL     1      -8.339  13.023  67.901  1.00  0.00    -0.170 C  
HETATM   10  CA  UNL     1      -8.765   9.004  65.955  1.00  0.00    -0.166 C  
HETATM   11  OXT UNL     1      -8.055  14.209  67.942  1.00  0.00    -0.129 OA 
HETATM   12  C   UNL     1      -8.477   9.917  67.183  1.00  0.00    -0.121 C  
ENDROOT
BRANCH   4  13
HETATM   13  C   UNL     1      -9.900  14.605  65.885  1.00  0.00    -0.330 C  
BRANCH  13  14
HETATM   14  S   UNL     1     -11.616  14.913  66.435  1.00  0.00    -0.168 SA 
BRANCH  14  15
HETATM   15  C   UNL     1     -11.314  15.378  68.075  1.00  0.00    -0.341 A  
HETATM   16  N   UNL     1     -11.397  14.589  69.122  1.00  0.00    -0.262 NA 
HETATM   17  N   UNL     1     -10.931  16.623  68.497  1.00  0.00    -0.350 NA 
HETATM   18  N   UNL     1     -11.025  15.347  70.201  1.00  0.00    -0.287 NA 
HETATM   19  N   UNL     1     -10.705  16.577  69.830  1.00  0.00    -0.326 NA 
BRANCH  17  20
HETATM   20  C   UNL     1     -10.619  17.814  67.740  1.00  0.00    -0.386 C  
HETATM   21  O   UNL     1      -8.212  17.462  68.067  1.00  0.00    -0.216 OA 
HETATM   22  C   UNL     1      -9.212  18.349  67.879  1.00  0.00    -0.283 C  
HETATM   23  O   UNL     1      -8.964  19.541  67.735  1.00  0.00    -0.303 OA 
ENDBRANCH  17  20
ENDBRANCH  14  15
ENDBRANCH  13  14
ENDBRANCH   4  13
BRANCH  10  24
HETATM   24  N   UNL     1      -9.929   8.098  66.081  1.00  0.00    -0.467 N  
HETATM   25  C   UNL     1      -9.993   6.950  66.825  1.00  0.00    -0.182 C  
HETATM   26  O   UNL     1     -11.012   6.262  66.777  1.00  0.00    -0.347 OA 
HETATM   27  H   UNL     1     -10.768   8.354  65.560  1.00  0.00     0.000 HD 
BRANCH  25  28
HETATM   28  C   UNL     1      -8.791   6.562  67.673  1.00  0.00    -0.112 C  
BRANCH  28  29
HETATM   29  C   UNL     1      -9.100   5.590  68.791  1.00  0.00    -0.131 A  
HETATM   30  C   UNL     1      -9.701   5.989  70.006  1.00  0.00    -0.202 A  
HETATM   31  C   UNL     1      -9.957   5.004  70.982  1.00  0.00    -0.281 A  
HETATM   32  C   UNL     1      -8.803   4.224  68.590  1.00  0.00    -0.136 A  
HETATM   33  C   UNL     1      -9.659   3.660  70.763  1.00  0.00    -0.249 A  
HETATM   34  C   UNL     1      -9.075   3.270  69.568  1.00  0.00    -0.200 A  
BRANCH  30  35
HETATM   35  C   UNL     1     -10.019   7.438  70.321  1.00  0.00    -0.188 C  
HETATM   36  N   UNL     1     -11.428   7.770  70.107  1.00  0.00    -0.473 NA 
HETATM   37  H1  UNL     1     -11.643   8.745  70.319  1.00  0.00     0.000 HD 
HETATM   38  H2  UNL     1     -12.035   7.140  70.633  1.00  0.00     0.000 HD 
ENDBRANCH  30  35
ENDBRANCH  28  29
ENDBRANCH  25  28
ENDBRANCH  10  24
TORSDOF 8
ENDMDL
MODEL      164
REMARK 921   NORMALIZED FREE ENERGY PREDICTED BY IDOCK:   -5.74 KCAL/MOL
REMARK 922        TOTAL FREE ENERGY PREDICTED BY IDOCK:   -9.25 KCAL/MOL
REMARK 923 INTER-LIGAND FREE ENERGY PREDICTED BY IDOCK:   -8.30 KCAL/MOL
REMARK 924 INTRA-LIGAND FREE ENERGY PREDICTED BY IDOCK:   -0.95 KCAL/MOL
REMARK 927      BINDING AFFINITY PREDICTED BY RF-SCORE:    0.00 PKD
ROOT
HETATM    1  C   UNL     1     -11.095  12.405  68.578  1.00  0.00    -0.258 C  
HETATM    2  S   UNL     1      -9.344  11.982  68.469  1.00  0.00    -0.065 SA 
HETATM    3  C   UNL     1      -9.647  10.210  68.294  1.00  0.00    -0.141 C  
HETATM    4  C   UNL     1     -10.683   9.633  69.250  1.00  0.00    -0.246 C  
HETATM    5  O   UNL     1     -13.026  10.501  71.918  1.00  0.00    -0.450 OA 
HETATM    6  CA  UNL     1     -11.586  10.386  69.948  1.00  0.00    -0.284 C  
HETATM    7  N   UNL     1     -11.646  11.735  69.738  1.00  0.00    -0.306 N  
HETATM    8  O   UNL     1     -12.713  12.963  71.391  1.00  0.00    -0.356 OA 
HETATM    9  C   UNL     1     -12.521   9.729  70.941  1.00  0.00    -0.277 C  
HETATM   10  CA  UNL     1     -11.467  13.757  69.271  1.00  0.00    -0.293 C  
HETATM   11  OXT UNL     1     -12.831   8.550  70.878  1.00  0.00    -0.051 OA 
HETATM   12  C   UNL     1     -12.115  12.839  70.349  1.00  0.00    -0.302 C  
ENDROOT
BRANCH   4  13
HETATM   13  C   UNL     1     -10.482   8.129  69.430  1.00  0.00    -0.220 C  
BRANCH  13  14
HETATM   14  S   UNL     1     -10.999   7.204  67.941  1.00  0.00    -0.021 SA 
BRANCH  14  15
HETATM   15  C   UNL     1      -9.444   6.803  67.297  1.00  0.00    -0.135 A  
HETATM   16  N   UNL     1      -8.948   7.242  66.163  1.00  0.00    -0.166 NA 
HETATM   17  N   UNL     1      -8.517   5.988  67.891  1.00  0.00    -0.115 NA 
HETATM   18  N   UNL     1      -7.683   6.722  66.072  1.00  0.00    -0.089 NA 
HETATM   19  N   UNL     1      -7.396   5.986  67.134  1.00  0.00    -0.075 NA 
BRANCH  17  20
HETATM   20  C   UNL     1      -8.536   5.327  69.176  1.00  0.00    -0.101 C  
HETATM   21  O   UNL     1      -9.500   3.299  68.183  1.00  0.00    -0.192 OA 
HETATM   22  C   UNL     1      -9.387   4.081  69.277  1.00  0.00    -0.168 C  
HETATM   23  O   UNL     1      -9.888   3.735  70.341  1.00  0.00    -0.185 OA 
ENDBRANCH  17  20
ENDBRANCH  14  15
ENDBRANCH  13  14
ENDBRANCH   4  13
BRANCH  10  24
HETATM   24  N   UNL     1     -10.368  14.631  69.742  1.00  0.00    -0.441 N  
HETATM   25  C   UNL     1      -9.826  15.694  69.070  1.00  0.00    -0.236 C  
HETATM   26  O   UNL     1      -8.867  16.287  69.563  1.00  0.00    -0.138 OA 
HETATM   27  H   UNL     1      -9.975  14.421  70.660  1.00  0.00     0.000 HD 
BRANCH  25  28
HETATM   28  C   UNL     1     -10.423  16.090  67.728  1.00  0.00    -0.298 C  
BRANCH  28  29
HETATM   29  C   UNL     1     -10.016  17.465  67.242  1.00  0.00    -0.302 A  
HETATM   30  C   UNL     1      -8.808  17.703  66.549  1.00  0.00    -0.287 A  
HETATM   31  C   UNL     1      -8.525  19.019  66.129  1.00  0.00    -0.216 A  
HETATM   32  C   UNL     1     -10.903  18.540  67.462  1.00  0.00    -0.337 A  
HETATM   33  C   UNL     1      -9.416  20.067  66.353  1.00  0.00    -0.512 A  
HETATM   34  C   UNL     1     -10.604  19.830  67.027  1.00  0.00    -0.586 A  
BRANCH  30  35
HETATM   35  C   UNL     1      -7.780  16.614  66.302  1.00  0.00    -0.238 C  
HETATM   36  N   UNL     1      -6.404  17.102  66.389  1.00  0.00    -0.215 NA 
HETATM   37  H1  UNL     1      -5.712  16.369  66.223  1.00  0.00     0.000 HD 
HETATM   38  H2  UNL     1      -6.237  17.565  67.283  1.00  0.00     0.000 HD 
ENDBRANCH  30  35
ENDBRANCH  28  29
ENDBRANCH  25  28
ENDBRANCH  10  24
TORSDOF 8
ENDMDL
MODEL      165
REMARK 921   NORMALIZED FREE ENERGY PREDICTED BY IDOCK:   -5.72 KCAL/MOL
REMARK 922        TOTAL FREE ENERGY PREDICTED BY IDOCK:   -9.22 KCAL/MOL
REMARK 923 INTER-LIGAND FREE ENERGY PREDICTED BY IDOCK:   -8.01 KCAL/MOL
REMARK 924 INTRA-LIGAND FREE ENERGY PREDICTED BY IDOCK:   -1.21 KCAL/MOL
REMARK 927      BINDING AFFINITY PREDICTED BY RF-SCORE:    0.00 PKD
ROOT
HETATM    1  C   UNL     1     -10.029   9.027  70.499  1.00  0.00    -0.215 C  
HETATM    2  S   UNL     1     -10.165   8.333  68.839  1.00  0.00    -0.210 SA 
HETATM    3  C   UNL     1     -10.087   9.940  68.017  1.00  0.00    -0.171 C  
HETATM    4  C   UNL     1     -10.951  11.028  68.642  1.00  0.00    -0.271 C  
HETATM    5  O   UNL     1     -13.243  11.742  71.397  1.00  0.00    -0.299 OA 
HETATM    6  CA  UNL     1     -11.476  10.962  69.902  1.00  0.00    -0.323 C  
HETATM    7  N   UNL     1     -11.160   9.906  70.711  1.00  0.00    -0.327 N  
HETATM    8  O   UNL     1     -12.576   9.565  72.515  1.00  0.00    -0.250 OA 
HETATM    9  C   UNL     1     -12.395  12.056  70.404  1.00  0.00    -0.233 C  
HETATM   10  CA  UNL     1     -10.570   8.164  71.686  1.00  0.00    -0.232 C  
HETATM   11  OXT UNL     1     -12.382  13.189  69.952  1.00  0.00    -0.241 OA 
HETATM   12  C   UNL     1     -11.626   9.300  71.818  1.00  0.00    -0.388 C  
ENDROOT
BRANCH   4  13
HETATM   13  C   UNL     1     -11.265  12.125  67.625  1.00  0.00    -0.286 C  
BRANCH  13  14
HETATM   14  S   UNL     1      -9.751  12.706  66.781  1.00  0.00    -0.246 SA 
BRANCH  14  15
HETATM   15  C   UNL     1     -10.036  14.413  66.824  1.00  0.00    -0.263 A  
HETATM   16  N   UNL     1      -9.756  15.210  67.829  1.00  0.00    -0.211 NA 
HETATM   17  N   UNL     1     -10.573  15.161  65.811  1.00  0.00    -0.330 NA 
HETATM   18  N   UNL     1     -10.091  16.475  67.418  1.00  0.00    -0.272 NA 
HETATM   19  N   UNL     1     -10.557  16.462  66.179  1.00  0.00    -0.291 NA 
BRANCH  17  20
HETATM   20  C   UNL     1     -10.968  14.781  64.473  1.00  0.00    -0.210 C  
HETATM   21  O   UNL     1     -13.242  14.251  65.233  1.00  0.00    -0.704 OA 
HETATM   22  C   UNL     1     -12.254  13.994  64.351  1.00  0.00    -0.426 C  
HETATM   23  O   UNL     1     -12.436  13.210  63.426  1.00  0.00    -0.730 OA 
ENDBRANCH  17  20
ENDBRANCH  14  15
ENDBRANCH  13  14
ENDBRANCH   4  13
BRANCH  10  24
HETATM   24  N   UNL     1     -11.104   6.815  71.388  1.00  0.00    -0.246 N  
HETATM   25  C   UNL     1     -10.935   5.686  72.144  1.00  0.00    -0.250 C  
HETATM   26  O   UNL     1     -11.384   4.617  71.731  1.00  0.00     0.426 OA 
HETATM   27  H   UNL     1     -11.653   6.717  70.534  1.00  0.00     0.000 HD 
BRANCH  25  28
HETATM   28  C   UNL     1     -10.183   5.794  73.462  1.00  0.00    -0.225 C  
BRANCH  28  29
HETATM   29  C   UNL     1      -8.711   5.453  73.374  1.00  0.00    -0.115 A  
HETATM   30  C   UNL     1      -8.226   4.129  73.473  1.00  0.00    -0.090 A  
HETATM   31  C   UNL     1      -6.837   3.915  73.368  1.00  0.00    -0.049 A  
HETATM   32  C   UNL     1      -7.794   6.503  73.149  1.00  0.00    -0.100 A  
HETATM   33  C   UNL     1      -5.948   4.965  73.142  1.00  0.00    -0.025 A  
HETATM   34  C   UNL     1      -6.426   6.262  73.039  1.00  0.00    -0.068 A  
BRANCH  30  35
HETATM   35  C   UNL     1      -9.135   2.947  73.751  1.00  0.00    -0.081 C  
HETATM   36  N   UNL     1      -8.616   1.691  73.208  1.00  0.00    -0.060 NA 
HETATM   37  H1  UNL     1      -9.227   0.896  73.396  1.00  0.00     0.000 HD 
HETATM   38  H2  UNL     1      -7.669   1.512  73.544  1.00  0.00     0.000 HD 
ENDBRANCH  30  35
ENDBRANCH  28  29
ENDBRANCH  25  28
ENDBRANCH  10  24
TORSDOF 8
ENDMDL
MODEL      166
REMARK 921   NORMALIZED FREE ENERGY PREDICTED BY IDOCK:   -5.72 KCAL/MOL
REMARK 922        TOTAL FREE ENERGY PREDICTED BY IDOCK:   -9.22 KCAL/MOL
REMARK 923 INTER-LIGAND FREE ENERGY PREDICTED BY IDOCK:   -8.38 KCAL/MOL
REMARK 924 INTRA-LIGAND FREE ENERGY PREDICTED BY IDOCK:   -0.84 KCAL/MOL
REMARK 927      BINDING AFFINITY PREDICTED BY RF-SCORE:    0.00 PKD
ROOT
HETATM    1  C   UNL     1     -10.188   8.097  70.438  1.00  0.00    -0.201 C  
HETATM    2  S   UNL     1      -9.971   8.826  68.801  1.00  0.00    -0.190 SA 
HETATM    3  C   UNL     1     -10.214  10.521  69.378  1.00  0.00    -0.221 C  
HETATM    4  C   UNL     1     -11.385  10.716  70.334  1.00  0.00    -0.389 C  
HETATM    5  O   UNL     1     -14.059   8.964  72.104  1.00  0.00    -0.434 OA 
HETATM    6  CA  UNL     1     -12.006   9.700  71.004  1.00  0.00    -0.343 C  
HETATM    7  N   UNL     1     -11.521   8.427  70.901  1.00  0.00    -0.269 N  
HETATM    8  O   UNL     1     -12.986   6.740  71.522  1.00  0.00    -0.331 OA 
HETATM    9  C   UNL     1     -13.218   9.984  71.866  1.00  0.00    -0.452 C  
HETATM   10  CA  UNL     1     -10.615   6.594  70.504  1.00  0.00    -0.229 C  
HETATM   11  OXT UNL     1     -13.444  11.082  72.349  1.00  0.00    -0.216 OA 
HETATM   12  C   UNL     1     -11.932   7.163  71.110  1.00  0.00    -0.342 C  
ENDROOT
BRANCH   4  13
HETATM   13  C   UNL     1     -11.858  12.170  70.326  1.00  0.00    -0.254 C  
BRANCH  13  14
HETATM   14  S   UNL     1     -11.770  12.891  68.648  1.00  0.00    -0.325 SA 
BRANCH  14  15
HETATM   15  C   UNL     1     -11.171  14.465  69.043  1.00  0.00    -0.264 A  
HETATM   16  N   UNL     1     -10.118  15.040  68.507  1.00  0.00    -0.219 NA 
HETATM   17  N   UNL     1     -11.722  15.328  69.953  1.00  0.00    -0.299 NA 
HETATM   18  N   UNL     1     -10.039  16.289  69.066  1.00  0.00    -0.245 NA 
HETATM   19  N   UNL     1     -11.030  16.489  69.921  1.00  0.00    -0.336 NA 
BRANCH  17  20
HETATM   20  C   UNL     1     -12.927  15.212  70.743  1.00  0.00    -0.414 C  
HETATM   21  O   UNL     1     -11.656  15.490  72.825  1.00  0.00    -0.460 OA 
HETATM   22  C   UNL     1     -12.737  14.955  72.221  1.00  0.00    -0.332 C  
HETATM   23  O   UNL     1     -13.581  14.356  72.879  1.00  0.00    -0.586 OA 
ENDBRANCH  17  20
ENDBRANCH  14  15
ENDBRANCH  13  14
ENDBRANCH   4  13
BRANCH  10  24
HETATM   24  N   UNL     1     -10.758   5.847  69.233  1.00  0.00    -0.306 N  
HETATM   25  C   UNL     1      -9.812   5.050  68.645  1.00  0.00    -0.161 C  
HETATM   26  O   UNL     1     -10.054   4.545  67.549  1.00  0.00    -0.134 OA 
HETATM   27  H   UNL     1     -11.650   5.934  68.747  1.00  0.00     0.000 HD 
BRANCH  25  28
HETATM   28  C   UNL     1      -8.490   4.833  69.364  1.00  0.00    -0.091 C  
BRANCH  28  29
HETATM   29  C   UNL     1      -7.334   5.636  68.809  1.00  0.00    -0.083 A  
HETATM   30  C   UNL     1      -6.572   5.210  67.697  1.00  0.00    -0.053 A  
HETATM   31  C   UNL     1      -5.520   6.035  67.250  1.00  0.00    -0.005 A  
HETATM   32  C   UNL     1      -7.032   6.877  69.410  1.00  0.00    -0.066 A  
HETATM   33  C   UNL     1      -5.241   7.260  67.855  1.00  0.00    -0.024 A  
HETATM   34  C   UNL     1      -5.994   7.678  68.942  1.00  0.00    -0.031 A  
BRANCH  30  35
HETATM   35  C   UNL     1      -6.802   3.874  67.014  1.00  0.00    -0.051 C  
HETATM   36  N   UNL     1      -5.941   2.813  67.537  1.00  0.00    -0.023 NA 
HETATM   37  H1  UNL     1      -6.095   1.915  67.078  1.00  0.00     0.000 HD 
HETATM   38  H2  UNL     1      -6.040   2.728  68.549  1.00  0.00     0.000 HD 
ENDBRANCH  30  35
ENDBRANCH  28  29
ENDBRANCH  25  28
ENDBRANCH  10  24
TORSDOF 8
ENDMDL
MODEL      167
REMARK 921   NORMALIZED FREE ENERGY PREDICTED BY IDOCK:   -5.70 KCAL/MOL
REMARK 922        TOTAL FREE ENERGY PREDICTED BY IDOCK:   -9.19 KCAL/MOL
REMARK 923 INTER-LIGAND FREE ENERGY PREDICTED BY IDOCK:   -8.50 KCAL/MOL
REMARK 924 INTRA-LIGAND FREE ENERGY PREDICTED BY IDOCK:   -0.69 KCAL/MOL
REMARK 927      BINDING AFFINITY PREDICTED BY RF-SCORE:    0.00 PKD
ROOT
HETATM    1  C   UNL     1      -8.680   8.967  68.811  1.00  0.00    -0.137 C  
HETATM    2  S   UNL     1     -10.155   9.823  68.222  1.00  0.00    -0.171 SA 
HETATM    3  C   UNL     1      -9.228  11.022  67.240  1.00  0.00    -0.148 C  
HETATM    4  C   UNL     1      -8.017  11.631  67.937  1.00  0.00    -0.132 C  
HETATM    5  O   UNL     1      -6.063  11.568  71.024  1.00  0.00    -0.342 OA 
HETATM    6  CA  UNL     1      -7.431  11.106  69.054  1.00  0.00    -0.124 C  
HETATM    7  N   UNL     1      -7.879   9.916  69.556  1.00  0.00    -0.123 N  
HETATM    8  O   UNL     1      -7.279   9.463  71.750  1.00  0.00    -0.318 OA 
HETATM    9  C   UNL     1      -6.284  11.830  69.726  1.00  0.00    -0.138 C  
HETATM   10  CA  UNL     1      -8.807   8.145  70.136  1.00  0.00    -0.145 C  
HETATM   11  OXT UNL     1      -5.564  12.620  69.136  1.00  0.00    -0.068 OA 
HETATM   12  C   UNL     1      -7.828   9.214  70.703  1.00  0.00    -0.146 C  
ENDROOT
BRANCH   4  13
HETATM   13  C   UNL     1      -7.644  12.973  67.308  1.00  0.00    -0.089 C  
BRANCH  13  14
HETATM   14  S   UNL     1      -8.273  14.373  68.301  1.00  0.00    -0.157 SA 
BRANCH  14  15
HETATM   15  C   UNL     1      -9.973  14.069  68.183  1.00  0.00    -0.242 A  
HETATM   16  N   UNL     1     -10.733  13.588  69.141  1.00  0.00    -0.146 NA 
HETATM   17  N   UNL     1     -10.754  14.303  67.083  1.00  0.00    -0.279 NA 
HETATM   18  N   UNL     1     -12.008  13.560  68.639  1.00  0.00    -0.358 NA 
HETATM   19  N   UNL     1     -12.040  14.025  67.400  1.00  0.00    -0.393 NA 
BRANCH  17  20
HETATM   20  C   UNL     1     -10.424  14.899  65.809  1.00  0.00    -0.330 C  
HETATM   21  O   UNL     1     -10.709  17.158  66.727  1.00  0.00    -0.231 OA 
HETATM   22  C   UNL     1     -10.775  16.360  65.641  1.00  0.00    -0.270 C  
HETATM   23  O   UNL     1     -11.024  16.834  64.538  1.00  0.00    -0.921 OA 
ENDBRANCH  17  20
ENDBRANCH  14  15
ENDBRANCH  13  14
ENDBRANCH   4  13
BRANCH  10  24
HETATM   24  N   UNL     1     -10.133   8.069  70.793  1.00  0.00    -0.192 N  
HETATM   25  C   UNL     1     -10.878   6.938  70.997  1.00  0.00    -0.241 C  
HETATM   26  O   UNL     1     -11.997   7.043  71.500  1.00  0.00    -0.294 OA 
HETATM   27  H   UNL     1     -10.531   8.947  71.126  1.00  0.00     0.000 HD 
BRANCH  25  28
HETATM   28  C   UNL     1     -10.298   5.596  70.580  1.00  0.00    -0.320 C  
BRANCH  28  29
HETATM   29  C   UNL     1     -10.249   5.371  69.084  1.00  0.00    -0.302 A  
HETATM   30  C   UNL     1      -9.539   4.300  68.496  1.00  0.00    -0.202 A  
HETATM   31  C   UNL     1      -9.564   4.171  67.092  1.00  0.00    -0.229 A  
HETATM   32  C   UNL     1     -10.974   6.251  68.252  1.00  0.00    -0.408 A  
HETATM   33  C   UNL     1     -10.290   5.049  66.288  1.00  0.00    -0.332 A  
HETATM   34  C   UNL     1     -10.991   6.095  66.868  1.00  0.00    -0.384 A  
BRANCH  30  35
HETATM   35  C   UNL     1      -8.704   3.330  69.310  1.00  0.00    -0.083 C  
HETATM   36  N   UNL     1      -9.144   1.942  69.167  1.00  0.00    -0.104 NA 
HETATM   37  H1  UNL     1      -8.583   1.289  69.715  1.00  0.00     0.000 HD 
HETATM   38  H2  UNL     1      -9.171   1.667  68.185  1.00  0.00     0.000 HD 
ENDBRANCH  30  35
ENDBRANCH  28  29
ENDBRANCH  25  28
ENDBRANCH  10  24
TORSDOF 8
ENDMDL
MODEL      168
REMARK 921   NORMALIZED FREE ENERGY PREDICTED BY IDOCK:   -5.69 KCAL/MOL
REMARK 922        TOTAL FREE ENERGY PREDICTED BY IDOCK:   -9.17 KCAL/MOL
REMARK 923 INTER-LIGAND FREE ENERGY PREDICTED BY IDOCK:   -8.48 KCAL/MOL
REMARK 924 INTRA-LIGAND FREE ENERGY PREDICTED BY IDOCK:   -0.70 KCAL/MOL
REMARK 927      BINDING AFFINITY PREDICTED BY RF-SCORE:    0.00 PKD
ROOT
HETATM    1  C   UNL     1     -10.310   9.479  66.498  1.00  0.00    -0.193 C  
HETATM    2  S   UNL     1     -10.271  10.524  67.968  1.00  0.00    -0.176 SA 
HETATM    3  C   UNL     1     -11.577  11.626  67.381  1.00  0.00    -0.254 C  
HETATM    4  C   UNL     1     -11.448  12.064  65.927  1.00  0.00    -0.392 C  
HETATM    5  O   UNL     1      -9.422  11.681  62.910  1.00  0.00    -0.377 OA 
HETATM    6  CA  UNL     1     -10.653  11.441  65.006  1.00  0.00    -0.299 C  
HETATM    7  N   UNL     1      -9.980  10.303  65.353  1.00  0.00    -0.294 N  
HETATM    8  O   UNL     1      -8.208   9.723  63.974  1.00  0.00    -0.137 OA 
HETATM    9  C   UNL     1     -10.525  12.002  63.606  1.00  0.00    -0.454 C  
HETATM   10  CA  UNL     1      -9.027   8.645  66.175  1.00  0.00    -0.180 C  
HETATM   11  OXT UNL     1     -11.377  12.713  63.097  1.00  0.00    -0.397 OA 
HETATM   12  C   UNL     1      -8.935   9.570  64.927  1.00  0.00    -0.219 C  
ENDROOT
BRANCH   4  13
HETATM   13  C   UNL     1     -12.209  13.366  65.680  1.00  0.00    -0.463 C  
BRANCH  13  14
HETATM   14  S   UNL     1     -11.072  14.793  65.568  1.00  0.00    -0.360 SA 
BRANCH  14  15
HETATM   15  C   UNL     1     -10.052  14.455  66.925  1.00  0.00    -0.259 A  
HETATM   16  N   UNL     1      -8.777  14.144  66.865  1.00  0.00    -0.200 NA 
HETATM   17  N   UNL     1     -10.433  14.484  68.240  1.00  0.00    -0.237 NA 
HETATM   18  N   UNL     1      -8.355  14.015  68.163  1.00  0.00    -0.154 NA 
HETATM   19  N   UNL     1      -9.345  14.254  69.010  1.00  0.00    -0.048 NA 
BRANCH  17  20
HETATM   20  C   UNL     1     -11.695  14.850  68.842  1.00  0.00    -0.315 C  
HETATM   21  O   UNL     1     -10.703  16.865  69.834  1.00  0.00    -0.257 OA 
HETATM   22  C   UNL     1     -11.640  15.899  69.930  1.00  0.00    -0.336 C  
HETATM   23  O   UNL     1     -12.475  15.932  70.828  1.00  0.00    -0.409 OA 
ENDBRANCH  17  20
ENDBRANCH  14  15
ENDBRANCH  13  14
ENDBRANCH   4  13
BRANCH  10  24
HETATM   24  N   UNL     1      -7.886   8.715  67.118  1.00  0.00    -0.096 N  
HETATM   25  C   UNL     1      -7.508   7.751  68.014  1.00  0.00    -0.108 C  
HETATM   26  O   UNL     1      -6.575   7.982  68.782  1.00  0.00    -0.047 OA 
HETATM   27  H   UNL     1      -7.326   9.567  67.097  1.00  0.00     0.000 HD 
BRANCH  25  28
HETATM   28  C   UNL     1      -8.270   6.435  68.036  1.00  0.00    -0.116 C  
BRANCH  28  29
HETATM   29  C   UNL     1      -9.228   6.283  69.198  1.00  0.00    -0.128 A  
HETATM   30  C   UNL     1      -8.827   5.784  70.457  1.00  0.00    -0.144 A  
HETATM   31  C   UNL     1      -9.794   5.690  71.479  1.00  0.00    -0.213 A  
HETATM   32  C   UNL     1     -10.567   6.691  69.017  1.00  0.00    -0.273 A  
HETATM   33  C   UNL     1     -11.111   6.103  71.282  1.00  0.00    -0.351 A  
HETATM   34  C   UNL     1     -11.500   6.598  70.047  1.00  0.00    -0.434 A  
BRANCH  30  35
HETATM   35  C   UNL     1      -7.419   5.287  70.728  1.00  0.00    -0.075 C  
HETATM   36  N   UNL     1      -7.042   5.391  72.138  1.00  0.00    -0.083 NA 
HETATM   37  H1  UNL     1      -6.095   5.057  72.320  1.00  0.00     0.000 HD 
HETATM   38  H2  UNL     1      -7.719   4.913  72.733  1.00  0.00     0.000 HD 
ENDBRANCH  30  35
ENDBRANCH  28  29
ENDBRANCH  25  28
ENDBRANCH  10  24
TORSDOF 8
ENDMDL
MODEL      169
REMARK 921   NORMALIZED FREE ENERGY PREDICTED BY IDOCK:   -5.69 KCAL/MOL
REMARK 922        TOTAL FREE ENERGY PREDICTED BY IDOCK:   -9.17 KCAL/MOL
REMARK 923 INTER-LIGAND FREE ENERGY PREDICTED BY IDOCK:   -8.01 KCAL/MOL
REMARK 924 INTRA-LIGAND FREE ENERGY PREDICTED BY IDOCK:   -1.15 KCAL/MOL
REMARK 927      BINDING AFFINITY PREDICTED BY RF-SCORE:    0.00 PKD
ROOT
HETATM    1  C   UNL     1      -8.844  10.131  68.175  1.00  0.00    -0.126 C  
HETATM    2  S   UNL     1      -9.257   9.785  66.453  1.00  0.00    -0.169 SA 
HETATM    3  C   UNL     1      -9.597  11.512  66.049  1.00  0.00    -0.228 C  
HETATM    4  C   UNL     1     -10.440  12.262  67.073  1.00  0.00    -0.237 C  
HETATM    5  O   UNL     1     -12.118  11.936  70.303  1.00  0.00    -0.337 OA 
HETATM    6  CA  UNL     1     -10.648  11.835  68.355  1.00  0.00    -0.216 C  
HETATM    7  N   UNL     1     -10.010  10.715  68.806  1.00  0.00    -0.185 N  
HETATM    8  O   UNL     1     -10.912   9.741  70.708  1.00  0.00    -0.291 OA 
HETATM    9  C   UNL     1     -11.573  12.605  69.274  1.00  0.00    -0.318 C  
HETATM   10  CA  UNL     1      -8.971   8.952  69.196  1.00  0.00    -0.140 C  
HETATM   11  OXT UNL     1     -11.825  13.789  69.119  1.00  0.00    -0.310 OA 
HETATM   12  C   UNL     1     -10.119   9.813  69.799  1.00  0.00    -0.239 C  
ENDROOT
BRANCH   4  13
HETATM   13  C   UNL     1     -11.131  13.466  66.434  1.00  0.00    -0.299 C  
BRANCH  13  14
HETATM   14  S   UNL     1      -9.915  14.651  65.758  1.00  0.00    -0.337 SA 
BRANCH  14  15
HETATM   15  C   UNL     1      -9.321  15.328  67.235  1.00  0.00    -0.205 A  
HETATM   16  N   UNL     1      -8.488  14.741  68.065  1.00  0.00    -0.145 NA 
HETATM   17  N   UNL     1      -9.625  16.569  67.728  1.00  0.00    -0.230 NA 
HETATM   18  N   UNL     1      -8.245  15.647  69.065  1.00  0.00    -0.214 NA 
HETATM   19  N   UNL     1      -8.904  16.776  68.853  1.00  0.00    -0.253 NA 
BRANCH  17  20
HETATM   20  C   UNL     1     -10.421  17.633  67.160  1.00  0.00    -0.319 C  
HETATM   21  O   UNL     1      -8.469  18.545  65.985  1.00  0.00    -0.489 OA 
HETATM   22  C   UNL     1      -9.660  18.796  66.565  1.00  0.00    -0.348 C  
HETATM   23  O   UNL     1     -10.145  19.922  66.525  1.00  0.00    -0.417 OA 
ENDBRANCH  17  20
ENDBRANCH  14  15
ENDBRANCH  13  14
ENDBRANCH   4  13
BRANCH  10  24
HETATM   24  N   UNL     1      -9.362   7.618  68.685  1.00  0.00    -0.147 N  
HETATM   25  C   UNL     1      -9.054   6.408  69.245  1.00  0.00    -0.136 C  
HETATM   26  O   UNL     1      -9.395   5.376  68.666  1.00  0.00    -0.111 OA 
HETATM   27  H   UNL     1      -9.918   7.599  67.829  1.00  0.00     0.000 HD 
BRANCH  25  28
HETATM   28  C   UNL     1      -8.287   6.385  70.558  1.00  0.00    -0.129 C  
BRANCH  28  29
HETATM   29  C   UNL     1      -8.649   5.237  71.477  1.00  0.00    -0.132 A  
HETATM   30  C   UNL     1      -9.935   5.087  72.041  1.00  0.00    -0.239 A  
HETATM   31  C   UNL     1     -10.175   3.978  72.877  1.00  0.00    -0.228 A  
HETATM   32  C   UNL     1      -7.664   4.263  71.749  1.00  0.00    -0.075 A  
HETATM   33  C   UNL     1      -9.190   3.024  73.130  1.00  0.00    -0.109 A  
HETATM   34  C   UNL     1      -7.930   3.170  72.571  1.00  0.00    -0.063 A  
BRANCH  30  35
HETATM   35  C   UNL     1     -11.041   6.105  71.833  1.00  0.00    -0.274 C  
HETATM   36  N   UNL     1     -11.935   6.217  72.986  1.00  0.00    -0.320 NA 
HETATM   37  H1  UNL     1     -12.679   6.901  72.846  1.00  0.00     0.000 HD 
HETATM   38  H2  UNL     1     -11.409   6.417  73.837  1.00  0.00     0.000 HD 
ENDBRANCH  30  35
ENDBRANCH  28  29
ENDBRANCH  25  28
ENDBRANCH  10  24
TORSDOF 8
ENDMDL
MODEL      170
REMARK 921   NORMALIZED FREE ENERGY PREDICTED BY IDOCK:   -5.69 KCAL/MOL
REMARK 922        TOTAL FREE ENERGY PREDICTED BY IDOCK:   -9.17 KCAL/MOL
REMARK 923 INTER-LIGAND FREE ENERGY PREDICTED BY IDOCK:   -7.71 KCAL/MOL
REMARK 924 INTRA-LIGAND FREE ENERGY PREDICTED BY IDOCK:   -1.45 KCAL/MOL
REMARK 927      BINDING AFFINITY PREDICTED BY RF-SCORE:    0.00 PKD
ROOT
HETATM    1  C   UNL     1      -8.673   9.061  70.571  1.00  0.00    -0.207 C  
HETATM    2  S   UNL     1      -9.253   7.465  71.182  1.00  0.00    -0.154 SA 
HETATM    3  C   UNL     1      -7.764   6.578  70.669  1.00  0.00    -0.105 C  
HETATM    4  C   UNL     1      -7.265   6.910  69.268  1.00  0.00    -0.090 C  
HETATM    5  O   UNL     1      -7.902   8.999  66.339  1.00  0.00    -0.098 OA 
HETATM    6  CA  UNL     1      -7.647   8.014  68.559  1.00  0.00    -0.104 C  
HETATM    7  N   UNL     1      -8.463   8.943  69.143  1.00  0.00    -0.130 N  
HETATM    8  O   UNL     1      -9.546  10.385  67.685  1.00  0.00    -0.147 OA 
HETATM    9  C   UNL     1      -7.163   8.213  67.138  1.00  0.00    -0.084 C  
HETATM   10  CA  UNL     1      -9.756  10.143  70.249  1.00  0.00     0.080 C  
HETATM   11  OXT UNL     1      -6.141   7.702  66.710  1.00  0.00    -0.045 OA 
HETATM   12  C   UNL     1      -9.280   9.948  68.780  1.00  0.00    -0.147 C  
ENDROOT
BRANCH   4  13
HETATM   13  C   UNL     1      -6.401   5.777  68.715  1.00  0.00    -0.037 C  
BRANCH  13  14
HETATM   14  S   UNL     1      -7.375   4.247  68.486  1.00  0.00    -0.060 SA 
BRANCH  14  15
HETATM   15  C   UNL     1      -7.915   4.491  66.860  1.00  0.00    -0.102 A  
HETATM   16  N   UNL     1      -7.165   4.413  65.784  1.00  0.00    -0.071 NA 
HETATM   17  N   UNL     1      -9.197   4.782  66.477  1.00  0.00    -0.127 NA 
HETATM   18  N   UNL     1      -8.003   4.621  64.719  1.00  0.00    -0.093 NA 
HETATM   19  N   UNL     1      -9.248   4.813  65.126  1.00  0.00    -0.155 NA 
BRANCH  17  20
HETATM   20  C   UNL     1     -10.407   4.892  67.260  1.00  0.00    -0.094 C  
HETATM   21  O   UNL     1     -10.575   7.292  66.771  1.00  0.00    -0.298 OA 
HETATM   22  C   UNL     1     -10.838   6.292  67.637  1.00  0.00    -0.346 C  
HETATM   23  O   UNL     1     -11.488   6.507  68.655  1.00  0.00    -0.210 OA 
ENDBRANCH  17  20
ENDBRANCH  14  15
ENDBRANCH  13  14
ENDBRANCH   4  13
BRANCH  10  24
HETATM   24  N   UNL     1     -11.176   9.819  70.518  1.00  0.00    -0.290 N  
HETATM   25  C   UNL     1     -12.249  10.651  70.341  1.00  0.00    -0.345 C  
HETATM   26  O   UNL     1     -13.368  10.261  70.674  1.00  0.00    -0.311 OA 
HETATM   27  H   UNL     1     -11.374   8.883  70.870  1.00  0.00     0.000 HD 
BRANCH  25  28
HETATM   28  C   UNL     1     -12.013  12.034  69.754  1.00  0.00    -0.370 C  
BRANCH  28  29
HETATM   29  C   UNL     1     -12.395  13.178  70.669  1.00  0.00    -0.405 A  
HETATM   30  C   UNL     1     -11.999  14.513  70.429  1.00  0.00    -0.386 A  
HETATM   31  C   UNL     1     -12.415  15.509  71.336  1.00  0.00    -0.480 A  
HETATM   32  C   UNL     1     -13.209  12.896  71.787  1.00  0.00    -0.479 A  
HETATM   33  C   UNL     1     -13.223  15.210  72.432  1.00  0.00    -0.491 A  
HETATM   34  C   UNL     1     -13.616  13.900  72.663  1.00  0.00    -0.626 A  
BRANCH  30  35
HETATM   35  C   UNL     1     -11.094  14.900  69.274  1.00  0.00    -0.271 C  
HETATM   36  N   UNL     1      -9.683  14.968  69.657  1.00  0.00    -0.437 NA 
HETATM   37  H1  UNL     1      -9.074  15.229  68.880  1.00  0.00     0.000 HD 
HETATM   38  H2  UNL     1      -9.378  14.092  70.083  1.00  0.00     0.000 HD 
ENDBRANCH  30  35
ENDBRANCH  28  29
ENDBRANCH  25  28
ENDBRANCH  10  24
TORSDOF 8
ENDMDL
MODEL      171
REMARK 921   NORMALIZED FREE ENERGY PREDICTED BY IDOCK:   -5.68 KCAL/MOL
REMARK 922        TOTAL FREE ENERGY PREDICTED BY IDOCK:   -9.16 KCAL/MOL
REMARK 923 INTER-LIGAND FREE ENERGY PREDICTED BY IDOCK:   -7.58 KCAL/MOL
REMARK 924 INTRA-LIGAND FREE ENERGY PREDICTED BY IDOCK:   -1.59 KCAL/MOL
REMARK 927      BINDING AFFINITY PREDICTED BY RF-SCORE:    0.00 PKD
ROOT
HETATM    1  C   UNL     1      -7.768   9.787  68.302  1.00  0.00    -0.085 C  
HETATM    2  S   UNL     1      -7.221  10.250  69.958  1.00  0.00    -0.124 SA 
HETATM    3  C   UNL     1      -6.674   8.583  70.387  1.00  0.00    -0.037 C  
HETATM    4  C   UNL     1      -7.640   7.467  70.006  1.00  0.00    -0.088 C  
HETATM    5  O   UNL     1     -10.841   6.777  68.385  1.00  0.00    -0.232 OA 
HETATM    6  CA  UNL     1      -8.664   7.611  69.113  1.00  0.00    -0.139 C  
HETATM    7  N   UNL     1      -8.810   8.790  68.437  1.00  0.00    -0.138 N  
HETATM    8  O   UNL     1     -10.891   9.146  67.476  1.00  0.00    -0.242 OA 
HETATM    9  C   UNL     1      -9.625   6.468  68.864  1.00  0.00    -0.127 C  
HETATM   10  CA  UNL     1      -8.834  10.703  67.615  1.00  0.00    -0.131 C  
HETATM   11  OXT UNL     1      -9.333   5.301  69.070  1.00  0.00    -0.119 OA 
HETATM   12  C   UNL     1      -9.755   9.455  67.747  1.00  0.00    -0.151 C  
ENDROOT
BRANCH   4  13
HETATM   13  C   UNL     1      -7.399   6.223  70.859  1.00  0.00    -0.080 C  
BRANCH  13  14
HETATM   14  S   UNL     1      -7.663   6.569  72.635  1.00  0.00    -0.102 SA 
BRANCH  14  15
HETATM   15  C   UNL     1      -9.340   6.997  72.597  1.00  0.00    -0.138 A  
HETATM   16  N   UNL     1      -9.822   8.215  72.696  1.00  0.00    -0.277 NA 
HETATM   17  N   UNL     1     -10.386   6.126  72.443  1.00  0.00    -0.189 NA 
HETATM   18  N   UNL     1     -11.182   8.099  72.563  1.00  0.00    -0.378 NA 
HETATM   19  N   UNL     1     -11.534   6.837  72.374  1.00  0.00    -0.273 NA 
BRANCH  17  20
HETATM   20  C   UNL     1     -10.390   4.699  72.210  1.00  0.00    -0.185 C  
HETATM   21  O   UNL     1     -11.339   4.281  74.435  1.00  0.00    -0.001 OA 
HETATM   22  C   UNL     1     -10.568   3.821  73.428  1.00  0.00    -0.193 C  
HETATM   23  O   UNL     1     -10.105   2.686  73.470  1.00  0.00    -0.100 OA 
ENDBRANCH  17  20
ENDBRANCH  14  15
ENDBRANCH  13  14
ENDBRANCH   4  13
BRANCH  10  24
HETATM   24  N   UNL     1      -9.284  11.919  68.332  1.00  0.00    -0.242 N  
HETATM   25  C   UNL     1      -9.356  13.187  67.822  1.00  0.00    -0.206 C  
HETATM   26  O   UNL     1      -9.687  14.112  68.564  1.00  0.00    -0.219 OA 
HETATM   27  H   UNL     1      -9.570  11.798  69.304  1.00  0.00     0.000 HD 
BRANCH  25  28
HETATM   28  C   UNL     1      -9.005  13.407  66.358  1.00  0.00     0.015 C  
BRANCH  28  29
HETATM   29  C   UNL     1     -10.201  13.509  65.435  1.00  0.00    -0.316 A  
HETATM   30  C   UNL     1     -10.851  14.732  65.159  1.00  0.00    -0.417 A  
HETATM   31  C   UNL     1     -11.950  14.723  64.277  1.00  0.00    -0.387 A  
HETATM   32  C   UNL     1     -10.656  12.333  64.801  1.00  0.00    -0.332 A  
HETATM   33  C   UNL     1     -12.382  13.552  63.657  1.00  0.00    -0.377 A  
HETATM   34  C   UNL     1     -11.739  12.353  63.924  1.00  0.00    -0.529 A  
BRANCH  30  35
HETATM   35  C   UNL     1     -10.452  16.036  65.825  1.00  0.00    -0.374 C  
HETATM   36  N   UNL     1     -10.791  17.211  65.022  1.00  0.00    -0.665 NA 
HETATM   37  H1  UNL     1     -10.523  18.088  65.470  1.00  0.00     0.000 HD 
HETATM   38  H2  UNL     1     -11.782  17.213  64.779  1.00  0.00     0.000 HD 
ENDBRANCH  30  35
ENDBRANCH  28  29
ENDBRANCH  25  28
ENDBRANCH  10  24
TORSDOF 8
ENDMDL
MODEL      172
REMARK 921   NORMALIZED FREE ENERGY PREDICTED BY IDOCK:   -5.67 KCAL/MOL
REMARK 922        TOTAL FREE ENERGY PREDICTED BY IDOCK:   -9.14 KCAL/MOL
REMARK 923 INTER-LIGAND FREE ENERGY PREDICTED BY IDOCK:   -8.29 KCAL/MOL
REMARK 924 INTRA-LIGAND FREE ENERGY PREDICTED BY IDOCK:   -0.85 KCAL/MOL
REMARK 927      BINDING AFFINITY PREDICTED BY RF-SCORE:    0.00 PKD
ROOT
HETATM    1  C   UNL     1     -11.631  11.487  68.801  1.00  0.00    -0.316 C  
HETATM    2  S   UNL     1      -9.901  11.655  68.316  1.00  0.00    -0.202 SA 
HETATM    3  C   UNL     1      -9.718   9.912  67.875  1.00  0.00    -0.140 C  
HETATM    4  C   UNL     1     -10.310   8.927  68.875  1.00  0.00    -0.229 C  
HETATM    5  O   UNL     1     -12.153   8.682  72.021  1.00  0.00    -0.325 OA 
HETATM    6  CA  UNL     1     -11.212   9.266  69.844  1.00  0.00    -0.126 C  
HETATM    7  N   UNL     1     -11.699  10.542  69.897  1.00  0.00    -0.280 N  
HETATM    8  O   UNL     1     -12.678  11.161  71.906  1.00  0.00    -0.346 OA 
HETATM    9  C   UNL     1     -11.678   8.233  70.848  1.00  0.00    -0.239 C  
HETATM   10  CA  UNL     1     -12.209  12.558  69.783  1.00  0.00    -0.132 C  
HETATM   11  OXT UNL     1     -11.646   7.033  70.625  1.00  0.00    -0.307 OA 
HETATM   12  C   UNL     1     -12.315  11.359  70.771  1.00  0.00    -0.386 C  
ENDROOT
BRANCH   4  13
HETATM   13  C   UNL     1      -9.654   7.553  68.740  1.00  0.00    -0.149 C  
BRANCH  13  14
HETATM   14  S   UNL     1      -7.850   7.698  68.482  1.00  0.00    -0.123 SA 
BRANCH  14  15
HETATM   15  C   UNL     1      -7.770   7.322  66.795  1.00  0.00    -0.109 A  
HETATM   16  N   UNL     1      -7.676   8.196  65.819  1.00  0.00    -0.088 NA 
HETATM   17  N   UNL     1      -7.776   6.064  66.253  1.00  0.00    -0.100 NA 
HETATM   18  N   UNL     1      -7.586   7.468  64.661  1.00  0.00    -0.103 NA 
HETATM   19  N   UNL     1      -7.611   6.169  64.915  1.00  0.00    -0.084 NA 
BRANCH  17  20
HETATM   20  C   UNL     1      -7.780   4.768  66.893  1.00  0.00    -0.091 C  
HETATM   21  O   UNL     1     -10.183   4.501  66.468  1.00  0.00    -0.243 OA 
HETATM   22  C   UNL     1      -9.134   4.206  67.264  1.00  0.00    -0.144 C  
HETATM   23  O   UNL     1      -9.267   3.432  68.205  1.00  0.00    -0.147 OA 
ENDBRANCH  17  20
ENDBRANCH  14  15
ENDBRANCH  13  14
ENDBRANCH   4  13
BRANCH  10  24
HETATM   24  N   UNL     1     -11.329  13.671  70.208  1.00  0.00    -0.489 N  
HETATM   25  C   UNL     1     -11.285  14.928  69.667  1.00  0.00    -0.275 C  
HETATM   26  O   UNL     1     -10.449  15.729  70.084  1.00  0.00    -0.306 OA 
HETATM   27  H   UNL     1     -10.692  13.482  70.982  1.00  0.00     0.000 HD 
BRANCH  25  28
HETATM   28  C   UNL     1     -12.262  15.280  68.556  1.00  0.00     0.026 C  
BRANCH  28  29
HETATM   29  C   UNL     1     -11.777  14.944  67.162  1.00  0.00    -0.292 A  
HETATM   30  C   UNL     1     -10.709  15.628  66.540  1.00  0.00    -0.293 A  
HETATM   31  C   UNL     1     -10.325  15.233  65.242  1.00  0.00    -0.430 A  
HETATM   32  C   UNL     1     -12.400  13.879  66.477  1.00  0.00    -0.447 A  
HETATM   33  C   UNL     1     -10.951  14.176  64.583  1.00  0.00    -0.393 A  
HETATM   34  C   UNL     1     -11.995  13.502  65.198  1.00  0.00    -0.391 A  
BRANCH  30  35
HETATM   35  C   UNL     1     -10.008  16.808  67.188  1.00  0.00    -0.274 C  
HETATM   36  N   UNL     1     -10.784  18.046  67.103  1.00  0.00    -0.319 NA 
HETATM   37  H1  UNL     1     -10.312  18.839  67.539  1.00  0.00     0.000 HD 
HETATM   38  H2  UNL     1     -11.719  17.918  67.491  1.00  0.00     0.000 HD 
ENDBRANCH  30  35
ENDBRANCH  28  29
ENDBRANCH  25  28
ENDBRANCH  10  24
TORSDOF 8
ENDMDL
MODEL      173
REMARK 921   NORMALIZED FREE ENERGY PREDICTED BY IDOCK:   -5.66 KCAL/MOL
REMARK 922        TOTAL FREE ENERGY PREDICTED BY IDOCK:   -9.14 KCAL/MOL
REMARK 923 INTER-LIGAND FREE ENERGY PREDICTED BY IDOCK:   -8.39 KCAL/MOL
REMARK 924 INTRA-LIGAND FREE ENERGY PREDICTED BY IDOCK:   -0.75 KCAL/MOL
REMARK 927      BINDING AFFINITY PREDICTED BY RF-SCORE:    0.00 PKD
ROOT
HETATM    1  C   UNL     1      -9.485   7.667  69.133  1.00  0.00    -0.154 C  
HETATM    2  S   UNL     1     -10.191   7.837  67.481  1.00  0.00    -0.259 SA 
HETATM    3  C   UNL     1     -10.508   9.607  67.654  1.00  0.00    -0.261 C  
HETATM    4  C   UNL     1     -11.134  10.025  68.980  1.00  0.00    -0.221 C  
HETATM    5  O   UNL     1     -12.274   8.771  72.217  1.00  0.00    -0.364 OA 
HETATM    6  CA  UNL     1     -11.150   9.243  70.100  1.00  0.00    -0.230 C  
HETATM    7  N   UNL     1     -10.502   8.040  70.095  1.00  0.00    -0.220 N  
HETATM    8  O   UNL     1     -11.127   6.554  71.762  1.00  0.00    -0.238 OA 
HETATM    9  C   UNL     1     -11.873   9.711  71.346  1.00  0.00    -0.406 C  
HETATM   10  CA  UNL     1      -9.501   6.242  69.778  1.00  0.00    -0.151 C  
HETATM   11  OXT UNL     1     -12.089  10.889  71.583  1.00  0.00    -0.158 OA 
HETATM   12  C   UNL     1     -10.491   6.888  70.790  1.00  0.00    -0.216 C  
ENDROOT
BRANCH   4  13
HETATM   13  C   UNL     1     -11.860  11.362  68.841  1.00  0.00    -0.347 C  
BRANCH  13  14
HETATM   14  S   UNL     1     -10.779  12.635  68.097  1.00  0.00    -0.233 SA 
BRANCH  14  15
HETATM   15  C   UNL     1     -11.693  12.991  66.672  1.00  0.00    -0.381 A  
HETATM   16  N   UNL     1     -12.271  12.106  65.891  1.00  0.00    -0.536 NA 
HETATM   17  N   UNL     1     -11.951  14.242  66.177  1.00  0.00    -0.406 NA 
HETATM   18  N   UNL     1     -12.926  12.821  64.922  1.00  0.00    -0.853 NA 
HETATM   19  N   UNL     1     -12.767  14.123  65.105  1.00  0.00    -0.672 NA 
BRANCH  17  20
HETATM   20  C   UNL     1     -11.617  15.546  66.705  1.00  0.00     0.163 C  
HETATM   21  O   UNL     1      -9.681  15.720  65.206  1.00  0.00    -0.358 OA 
HETATM   22  C   UNL     1     -10.232  16.063  66.389  1.00  0.00    -0.305 C  
HETATM   23  O   UNL     1      -9.656  16.844  67.138  1.00  0.00    -0.235 OA 
ENDBRANCH  17  20
ENDBRANCH  14  15
ENDBRANCH  13  14
ENDBRANCH   4  13
BRANCH  10  24
HETATM   24  N   UNL     1     -10.036   5.114  68.980  1.00  0.00    -0.195 N  
HETATM   25  C   UNL     1      -9.314   4.255  68.196  1.00  0.00    -0.152 C  
HETATM   26  O   UNL     1      -9.910   3.404  67.536  1.00  0.00    -0.078 OA 
HETATM   27  H   UNL     1     -11.044   4.962  69.018  1.00  0.00     0.000 HD 
BRANCH  25  28
HETATM   28  C   UNL     1      -7.800   4.397  68.159  1.00  0.00    -0.079 C  
BRANCH  28  29
HETATM   29  C   UNL     1      -7.294   5.482  67.233  1.00  0.00    -0.080 A  
HETATM   30  C   UNL     1      -7.564   5.490  65.846  1.00  0.00    -0.083 A  
HETATM   31  C   UNL     1      -7.055   6.551  65.070  1.00  0.00    -0.057 A  
HETATM   32  C   UNL     1      -6.551   6.544  67.792  1.00  0.00    -0.061 A  
HETATM   33  C   UNL     1      -6.326   7.593  65.642  1.00  0.00    -0.042 A  
HETATM   34  C   UNL     1      -6.067   7.586  67.004  1.00  0.00    -0.047 A  
BRANCH  30  35
HETATM   35  C   UNL     1      -8.322   4.371  65.156  1.00  0.00    -0.116 C  
HETATM   36  N   UNL     1      -9.363   4.862  64.253  1.00  0.00    -0.354 NA 
HETATM   37  H1  UNL     1      -9.872   4.110  63.788  1.00  0.00     0.000 HD 
HETATM   38  H2  UNL     1      -8.976   5.516  63.571  1.00  0.00     0.000 HD 
ENDBRANCH  30  35
ENDBRANCH  28  29
ENDBRANCH  25  28
ENDBRANCH  10  24
TORSDOF 8
ENDMDL
MODEL      174
REMARK 921   NORMALIZED FREE ENERGY PREDICTED BY IDOCK:   -5.65 KCAL/MOL
REMARK 922        TOTAL FREE ENERGY PREDICTED BY IDOCK:   -9.12 KCAL/MOL
REMARK 923 INTER-LIGAND FREE ENERGY PREDICTED BY IDOCK:   -7.31 KCAL/MOL
REMARK 924 INTRA-LIGAND FREE ENERGY PREDICTED BY IDOCK:   -1.80 KCAL/MOL
REMARK 927      BINDING AFFINITY PREDICTED BY RF-SCORE:    0.00 PKD
ROOT
HETATM    1  C   UNL     1      -8.478  14.327  68.307  1.00  0.00    -0.167 C  
HETATM    2  S   UNL     1      -9.235  14.281  66.670  1.00  0.00    -0.226 SA 
HETATM    3  C   UNL     1     -10.240  12.824  67.029  1.00  0.00    -0.241 C  
HETATM    4  C   UNL     1      -9.508  11.695  67.745  1.00  0.00    -0.178 C  
HETATM    5  O   UNL     1      -6.295  10.727  69.192  1.00  0.00    -0.048 OA 
HETATM    6  CA  UNL     1      -8.316  11.845  68.395  1.00  0.00    -0.157 C  
HETATM    7  N   UNL     1      -7.755  13.087  68.500  1.00  0.00    -0.128 N  
HETATM    8  O   UNL     1      -5.495  13.128  69.022  1.00  0.00    -0.068 OA 
HETATM    9  C   UNL     1      -7.623  10.644  69.004  1.00  0.00    -0.122 C  
HETATM   10  CA  UNL     1      -7.106  15.065  68.444  1.00  0.00    -0.108 C  
HETATM   11  OXT UNL     1      -8.220   9.632  69.332  1.00  0.00    -0.109 OA 
HETATM   12  C   UNL     1      -6.557  13.642  68.757  1.00  0.00    -0.101 C  
ENDROOT
BRANCH   4  13
HETATM   13  C   UNL     1     -10.212  10.358  67.516  1.00  0.00    -0.210 C  
BRANCH  13  14
HETATM   14  S   UNL     1     -10.029   9.797  65.785  1.00  0.00    -0.235 SA 
BRANCH  14  15
HETATM   15  C   UNL     1      -8.488   9.017  65.897  1.00  0.00    -0.140 A  
HETATM   16  N   UNL     1      -7.344   9.522  65.497  1.00  0.00    -0.092 NA 
HETATM   17  N   UNL     1      -8.255   7.778  66.432  1.00  0.00    -0.111 NA 
HETATM   18  N   UNL     1      -6.384   8.599  65.823  1.00  0.00    -0.055 NA 
HETATM   19  N   UNL     1      -6.922   7.549  66.423  1.00  0.00    -0.068 NA 
BRANCH  17  20
HETATM   20  C   UNL     1      -9.155   6.852  67.081  1.00  0.00    -0.131 C  
HETATM   21  O   UNL     1      -8.896   5.231  65.255  1.00  0.00    -0.153 OA 
HETATM   22  C   UNL     1      -9.692   5.727  66.225  1.00  0.00    -0.117 C  
HETATM   23  O   UNL     1     -10.782   5.213  66.456  1.00  0.00    -0.300 OA 
ENDBRANCH  17  20
ENDBRANCH  14  15
ENDBRANCH  13  14
ENDBRANCH   4  13
BRANCH  10  24
HETATM   24  N   UNL     1      -6.541  15.728  67.247  1.00  0.00    -0.175 N  
HETATM   25  C   UNL     1      -6.456  17.077  67.025  1.00  0.00    -0.197 C  
HETATM   26  O   UNL     1      -6.020  17.479  65.946  1.00  0.00    -0.175 OA 
HETATM   27  H   UNL     1      -6.178  15.119  66.513  1.00  0.00     0.000 HD 
BRANCH  25  28
HETATM   28  C   UNL     1      -6.920  18.027  68.117  1.00  0.00    -0.224 C  
BRANCH  28  29
HETATM   29  C   UNL     1      -8.240  18.712  67.834  1.00  0.00    -0.285 A  
HETATM   30  C   UNL     1      -8.325  20.027  67.322  1.00  0.00    -0.381 A  
HETATM   31  C   UNL     1      -9.602  20.572  67.084  1.00  0.00    -0.570 A  
HETATM   32  C   UNL     1      -9.430  17.988  68.062  1.00  0.00    -0.284 A  
HETATM   33  C   UNL     1     -10.766  19.839  67.311  1.00  0.00    -0.532 A  
HETATM   34  C   UNL     1     -10.681  18.547  67.807  1.00  0.00    -0.378 A  
BRANCH  30  35
HETATM   35  C   UNL     1      -7.099  20.889  67.085  1.00  0.00    -0.351 C  
HETATM   36  N   UNL     1      -6.739  20.986  65.670  1.00  0.00    -0.497 NA 
HETATM   37  H1  UNL     1      -5.915  21.567  65.509  1.00  0.00     0.000 HD 
HETATM   38  H2  UNL     1      -7.529  21.313  65.113  1.00  0.00     0.000 HD 
ENDBRANCH  30  35
ENDBRANCH  28  29
ENDBRANCH  25  28
ENDBRANCH  10  24
TORSDOF 8
ENDMDL
MODEL      175
REMARK 921   NORMALIZED FREE ENERGY PREDICTED BY IDOCK:   -5.63 KCAL/MOL
REMARK 922        TOTAL FREE ENERGY PREDICTED BY IDOCK:   -9.08 KCAL/MOL
REMARK 923 INTER-LIGAND FREE ENERGY PREDICTED BY IDOCK:   -7.58 KCAL/MOL
REMARK 924 INTRA-LIGAND FREE ENERGY PREDICTED BY IDOCK:   -1.50 KCAL/MOL
REMARK 927      BINDING AFFINITY PREDICTED BY RF-SCORE:    0.00 PKD
ROOT
HETATM    1  C   UNL     1      -8.502  13.309  66.996  1.00  0.00    -0.128 C  
HETATM    2  S   UNL     1      -7.002  12.595  67.701  1.00  0.00    -0.153 SA 
HETATM    3  C   UNL     1      -7.312  10.947  67.028  1.00  0.00    -0.118 C  
HETATM    4  C   UNL     1      -8.742  10.444  67.184  1.00  0.00    -0.130 C  
HETATM    5  O   UNL     1     -12.060  11.353  68.417  1.00  0.00    -0.575 OA 
HETATM    6  CA  UNL     1      -9.810  11.246  67.471  1.00  0.00    -0.178 C  
HETATM    7  N   UNL     1      -9.637  12.600  67.548  1.00  0.00    -0.180 N  
HETATM    8  O   UNL     1     -11.311  13.765  68.652  1.00  0.00    -0.252 OA 
HETATM    9  C   UNL     1     -11.181  10.642  67.692  1.00  0.00    -0.290 C  
HETATM   10  CA  UNL     1      -9.070  14.600  67.673  1.00  0.00    -0.193 C  
HETATM   11  OXT UNL     1     -11.508   9.558  67.235  1.00  0.00     0.365 OA 
HETATM   12  C   UNL     1     -10.264  13.677  68.055  1.00  0.00    -0.248 C  
ENDROOT
BRANCH   4  13
HETATM   13  C   UNL     1      -8.793   8.918  67.121  1.00  0.00    -0.123 C  
BRANCH  13  14
HETATM   14  S   UNL     1      -8.123   8.163  68.645  1.00  0.00    -0.125 SA 
BRANCH  14  15
HETATM   15  C   UNL     1      -9.455   7.143  69.070  1.00  0.00    -0.143 A  
HETATM   16  N   UNL     1     -10.348   6.663  68.235  1.00  0.00    -0.174 NA 
HETATM   17  N   UNL     1      -9.745   6.687  70.328  1.00  0.00    -0.171 NA 
HETATM   18  N   UNL     1     -11.180   5.869  68.981  1.00  0.00    -0.240 NA 
HETATM   19  N   UNL     1     -10.803   5.848  70.250  1.00  0.00    -0.309 NA 
BRANCH  17  20
HETATM   20  C   UNL     1      -9.031   6.855  71.574  1.00  0.00    -0.140 C  
HETATM   21  O   UNL     1     -10.271   8.914  72.074  1.00  0.00    -0.334 OA 
HETATM   22  C   UNL     1      -9.125   8.217  72.223  1.00  0.00    -0.221 C  
HETATM   23  O   UNL     1      -8.228   8.646  72.941  1.00  0.00    -0.393 OA 
ENDBRANCH  17  20
ENDBRANCH  14  15
ENDBRANCH  13  14
ENDBRANCH   4  13
BRANCH  10  24
HETATM   24  N   UNL     1      -8.319  15.188  68.806  1.00  0.00    -0.163 N  
HETATM   25  C   UNL     1      -7.359  16.162  68.730  1.00  0.00    -0.184 C  
HETATM   26  O   UNL     1      -6.772  16.504  69.757  1.00  0.00    -0.191 OA 
HETATM   27  H   UNL     1      -8.539  14.833  69.737  1.00  0.00     0.000 HD 
BRANCH  25  28
HETATM   28  C   UNL     1      -7.043  16.772  67.374  1.00  0.00    -0.185 C  
BRANCH  28  29
HETATM   29  C   UNL     1      -7.217  18.274  67.305  1.00  0.00    -0.211 A  
HETATM   30  C   UNL     1      -8.461  18.888  67.034  1.00  0.00    -0.292 A  
HETATM   31  C   UNL     1      -8.521  20.296  67.001  1.00  0.00    -0.388 A  
HETATM   32  C   UNL     1      -6.093  19.089  67.559  1.00  0.00    -0.189 A  
HETATM   33  C   UNL     1      -7.399  21.083  67.259  1.00  0.00    -0.320 A  
HETATM   34  C   UNL     1      -6.181  20.479  67.531  1.00  0.00    -0.283 A  
BRANCH  30  35
HETATM   35  C   UNL     1      -9.711  18.090  66.713  1.00  0.00    -0.323 C  
HETATM   36  N   UNL     1     -10.615  17.967  67.857  1.00  0.00    -0.394 NA 
HETATM   37  H1  UNL     1     -11.456  17.430  67.642  1.00  0.00     0.000 HD 
HETATM   38  H2  UNL     1     -10.854  18.885  68.234  1.00  0.00     0.000 HD 
ENDBRANCH  30  35
ENDBRANCH  28  29
ENDBRANCH  25  28
ENDBRANCH  10  24
TORSDOF 8
ENDMDL
MODEL      176
REMARK 921   NORMALIZED FREE ENERGY PREDICTED BY IDOCK:   -5.61 KCAL/MOL
REMARK 922        TOTAL FREE ENERGY PREDICTED BY IDOCK:   -9.06 KCAL/MOL
REMARK 923 INTER-LIGAND FREE ENERGY PREDICTED BY IDOCK:   -7.98 KCAL/MOL
REMARK 924 INTRA-LIGAND FREE ENERGY PREDICTED BY IDOCK:   -1.07 KCAL/MOL
REMARK 927      BINDING AFFINITY PREDICTED BY RF-SCORE:    0.00 PKD
ROOT
HETATM    1  C   UNL     1     -11.900   8.910  70.038  1.00  0.00     0.346 C  
HETATM    2  S   UNL     1     -12.051  10.430  71.001  1.00  0.00    -0.396 SA 
HETATM    3  C   UNL     1     -11.928  11.512  69.559  1.00  0.00    -0.335 C  
HETATM    4  C   UNL     1     -10.830  11.146  68.568  1.00  0.00    -0.243 C  
HETATM    5  O   UNL     1      -8.188   8.719  67.872  1.00  0.00    -0.110 OA 
HETATM    6  CA  UNL     1     -10.203   9.932  68.532  1.00  0.00    -0.177 C  
HETATM    7  N   UNL     1     -10.617   8.932  69.366  1.00  0.00    -0.229 N  
HETATM    8  O   UNL     1      -9.112   7.196  69.678  1.00  0.00    -0.141 OA 
HETATM    9  C   UNL     1      -9.062   9.692  67.566  1.00  0.00    -0.130 C  
HETATM   10  CA  UNL     1     -11.404   7.631  70.789  1.00  0.00    -0.281 C  
HETATM   11  OXT UNL     1      -8.921  10.333  66.537  1.00  0.00    -0.142 OA 
HETATM   12  C   UNL     1     -10.158   7.771  69.866  1.00  0.00    -0.203 C  
ENDROOT
BRANCH   4  13
HETATM   13  C   UNL     1     -10.430  12.357  67.726  1.00  0.00    -0.218 C  
BRANCH  13  14
HETATM   14  S   UNL     1     -11.584  13.753  67.976  1.00  0.00    -0.353 SA 
BRANCH  14  15
HETATM   15  C   UNL     1     -10.900  14.893  66.868  1.00  0.00    -0.319 A  
HETATM   16  N   UNL     1      -9.841  15.637  67.093  1.00  0.00    -0.227 NA 
HETATM   17  N   UNL     1     -11.359  15.158  65.605  1.00  0.00    -0.302 NA 
HETATM   18  N   UNL     1      -9.621  16.345  65.939  1.00  0.00    -0.455 NA 
HETATM   19  N   UNL     1     -10.517  16.037  65.015  1.00  0.00    -0.587 NA 
BRANCH  17  20
HETATM   20  C   UNL     1     -12.435  14.553  64.853  1.00  0.00    -0.311 C  
HETATM   21  O   UNL     1     -11.082  12.550  64.421  1.00  0.00    -0.304 OA 
HETATM   22  C   UNL     1     -12.065  13.367  63.990  1.00  0.00    -0.449 C  
HETATM   23  O   UNL     1     -12.696  13.097  62.973  1.00  0.00    -0.523 OA 
ENDBRANCH  17  20
ENDBRANCH  14  15
ENDBRANCH  13  14
ENDBRANCH   4  13
BRANCH  10  24
HETATM   24  N   UNL     1     -11.146   7.724  72.244  1.00  0.00    -0.277 N  
HETATM   25  C   UNL     1     -10.710   6.716  73.062  1.00  0.00    -0.270 C  
HETATM   26  O   UNL     1     -10.606   6.929  74.270  1.00  0.00    -0.232 OA 
HETATM   27  H   UNL     1     -11.309   8.631  72.682  1.00  0.00     0.000 HD 
BRANCH  25  28
HETATM   28  C   UNL     1     -10.388   5.364  72.445  1.00  0.00    -0.257 C  
BRANCH  28  29
HETATM   29  C   UNL     1      -9.282   4.603  73.145  1.00  0.00    -0.128 A  
HETATM   30  C   UNL     1      -9.471   3.316  73.697  1.00  0.00    -0.127 A  
HETATM   31  C   UNL     1      -8.374   2.687  74.320  1.00  0.00    -0.068 A  
HETATM   32  C   UNL     1      -8.003   5.195  73.212  1.00  0.00    -0.107 A  
HETATM   33  C   UNL     1      -7.118   3.287  74.373  1.00  0.00    -0.047 A  
HETATM   34  C   UNL     1      -6.932   4.547  73.824  1.00  0.00    -0.067 A  
BRANCH  30  35
HETATM   35  C   UNL     1     -10.820   2.621  73.703  1.00  0.00    -0.195 C  
HETATM   36  N   UNL     1     -10.986   1.695  72.582  1.00  0.00    -0.120 NA 
HETATM   37  H1  UNL     1     -11.893   1.227  72.586  1.00  0.00     0.000 HD 
HETATM   38  H2  UNL     1     -10.225   1.016  72.555  1.00  0.00     0.000 HD 
ENDBRANCH  30  35
ENDBRANCH  28  29
ENDBRANCH  25  28
ENDBRANCH  10  24
TORSDOF 8
ENDMDL
MODEL      177
REMARK 921   NORMALIZED FREE ENERGY PREDICTED BY IDOCK:   -5.58 KCAL/MOL
REMARK 922        TOTAL FREE ENERGY PREDICTED BY IDOCK:   -9.01 KCAL/MOL
REMARK 923 INTER-LIGAND FREE ENERGY PREDICTED BY IDOCK:   -8.86 KCAL/MOL
REMARK 924 INTRA-LIGAND FREE ENERGY PREDICTED BY IDOCK:   -0.15 KCAL/MOL
REMARK 927      BINDING AFFINITY PREDICTED BY RF-SCORE:    0.00 PKD
ROOT
HETATM    1  C   UNL     1      -9.263  14.638  66.951  1.00  0.00    -0.249 C  
HETATM    2  S   UNL     1     -10.204  14.836  65.424  1.00  0.00    -0.389 SA 
HETATM    3  C   UNL     1      -9.941  16.622  65.338  1.00  0.00     0.083 C  
HETATM    4  C   UNL     1     -10.136  17.368  66.652  1.00  0.00    -0.317 C  
HETATM    5  O   UNL     1     -10.921  16.928  70.194  1.00  0.00    -0.163 OA 
HETATM    6  CA  UNL     1     -10.157  16.767  67.879  1.00  0.00    -0.284 C  
HETATM    7  N   UNL     1      -9.909  15.427  67.980  1.00  0.00    -0.215 N  
HETATM    8  O   UNL     1     -10.597  14.424  69.954  1.00  0.00    -0.022 OA 
HETATM    9  C   UNL     1     -10.443  17.583  69.123  1.00  0.00    -0.190 C  
HETATM   10  CA  UNL     1      -9.570  13.378  67.826  1.00  0.00    -0.213 C  
HETATM   11  OXT UNL     1     -10.248  18.786  69.184  1.00  0.00    -0.314 OA 
HETATM   12  C   UNL     1     -10.100  14.421  68.853  1.00  0.00    -0.200 C  
ENDROOT
BRANCH   4  13
HETATM   13  C   UNL     1     -10.446  18.843  66.400  1.00  0.00    -0.439 C  
BRANCH  13  14
HETATM   14  S   UNL     1      -9.169  19.928  67.131  1.00  0.00    -0.378 SA 
BRANCH  14  15
HETATM   15  C   UNL     1      -7.748  19.139  66.537  1.00  0.00    -0.264 A  
HETATM   16  N   UNL     1      -7.357  19.109  65.283  1.00  0.00    -0.359 NA 
HETATM   17  N   UNL     1      -6.833  18.458  67.295  1.00  0.00    -0.196 NA 
HETATM   18  N   UNL     1      -6.165  18.431  65.271  1.00  0.00    -0.305 NA 
HETATM   19  N   UNL     1      -5.819  18.060  66.494  1.00  0.00    -0.150 NA 
BRANCH  17  20
HETATM   20  C   UNL     1      -6.756  18.271  68.726  1.00  0.00    -0.249 C  
HETATM   21  O   UNL     1      -6.062  20.603  69.051  1.00  0.00    -0.339 OA 
HETATM   22  C   UNL     1      -6.009  19.333  69.502  1.00  0.00    -0.259 C  
HETATM   23  O   UNL     1      -5.447  19.073  70.560  1.00  0.00    -0.212 OA 
ENDBRANCH  17  20
ENDBRANCH  14  15
ENDBRANCH  13  14
ENDBRANCH   4  13
BRANCH  10  24
HETATM   24  N   UNL     1     -10.564  12.400  67.326  1.00  0.00    -0.221 N  
HETATM   25  C   UNL     1     -10.947  11.239  67.943  1.00  0.00    -0.248 C  
HETATM   26  O   UNL     1     -11.738  10.490  67.370  1.00  0.00    -0.291 OA 
HETATM   27  H   UNL     1     -11.008  12.612  66.433  1.00  0.00     0.000 HD 
BRANCH  25  28
HETATM   28  C   UNL     1     -10.364  10.911  69.309  1.00  0.00    -0.211 C  
BRANCH  28  29
HETATM   29  C   UNL     1     -10.594   9.486  69.764  1.00  0.00    -0.257 A  
HETATM   30  C   UNL     1     -11.666   9.116  70.607  1.00  0.00    -0.256 A  
HETATM   31  C   UNL     1     -11.799   7.760  70.966  1.00  0.00    -0.290 A  
HETATM   32  C   UNL     1      -9.716   8.485  69.295  1.00  0.00    -0.173 A  
HETATM   33  C   UNL     1     -10.924   6.786  70.488  1.00  0.00    -0.327 A  
HETATM   34  C   UNL     1      -9.876   7.149  69.657  1.00  0.00    -0.162 A  
BRANCH  30  35
HETATM   35  C   UNL     1     -12.634  10.130  71.188  1.00  0.00    -0.386 C  
HETATM   36  N   UNL     1     -13.627   9.524  72.075  1.00  0.00    -0.420 NA 
HETATM   37  H1  UNL     1     -14.278  10.206  72.466  1.00  0.00     0.000 HD 
HETATM   38  H2  UNL     1     -13.176   8.985  72.814  1.00  0.00     0.000 HD 
ENDBRANCH  30  35
ENDBRANCH  28  29
ENDBRANCH  25  28
ENDBRANCH  10  24
TORSDOF 8
ENDMDL
MODEL      178
REMARK 921   NORMALIZED FREE ENERGY PREDICTED BY IDOCK:   -5.56 KCAL/MOL
REMARK 922        TOTAL FREE ENERGY PREDICTED BY IDOCK:   -8.99 KCAL/MOL
REMARK 923 INTER-LIGAND FREE ENERGY PREDICTED BY IDOCK:   -7.86 KCAL/MOL
REMARK 924 INTRA-LIGAND FREE ENERGY PREDICTED BY IDOCK:   -1.13 KCAL/MOL
REMARK 927      BINDING AFFINITY PREDICTED BY RF-SCORE:    0.00 PKD
ROOT
HETATM    1  C   UNL     1      -9.263  12.213  67.570  1.00  0.00    -0.182 C  
HETATM    2  S   UNL     1      -9.213  11.919  65.790  1.00  0.00    -0.030 SA 
HETATM    3  C   UNL     1      -9.658  10.174  65.932  1.00  0.00    -0.218 C  
HETATM    4  C   UNL     1      -8.919   9.406  67.021  1.00  0.00    -0.146 C  
HETATM    5  O   UNL     1      -6.463   9.742  69.706  1.00  0.00    -0.044 OA 
HETATM    6  CA  UNL     1      -8.242   9.995  68.051  1.00  0.00    -0.116 C  
HETATM    7  N   UNL     1      -8.277  11.354  68.193  1.00  0.00    -0.136 N  
HETATM    8  O   UNL     1      -6.616  12.268  69.529  1.00  0.00    -0.108 OA 
HETATM    9  C   UNL     1      -7.465   9.148  69.037  1.00  0.00    -0.074 C  
HETATM   10  CA  UNL     1      -8.446  13.428  68.120  1.00  0.00    -0.172 C  
HETATM   11  OXT UNL     1      -7.721   7.973  69.245  1.00  0.00    -0.098 OA 
HETATM   12  C   UNL     1      -7.586  12.329  68.811  1.00  0.00    -0.044 C  
ENDROOT
BRANCH   4  13
HETATM   13  C   UNL     1      -8.917   7.907  66.724  1.00  0.00    -0.145 C  
BRANCH  13  14
HETATM   14  S   UNL     1     -10.597   7.198  66.859  1.00  0.00    -0.246 SA 
BRANCH  14  15
HETATM   15  C   UNL     1     -10.618   6.829  68.550  1.00  0.00    -0.225 A  
HETATM   16  N   UNL     1     -10.986   7.648  69.508  1.00  0.00    -0.158 NA 
HETATM   17  N   UNL     1     -10.269   5.630  69.113  1.00  0.00    -0.213 NA 
HETATM   18  N   UNL     1     -10.900   6.935  70.675  1.00  0.00    -0.236 NA 
HETATM   19  N   UNL     1     -10.498   5.695  70.444  1.00  0.00    -0.264 NA 
BRANCH  17  20
HETATM   20  C   UNL     1      -9.877   4.383  68.495  1.00  0.00    -0.069 C  
HETATM   21  O   UNL     1      -7.561   4.668  69.258  1.00  0.00    -0.055 OA 
HETATM   22  C   UNL     1      -8.391   4.157  68.326  1.00  0.00    -0.092 C  
HETATM   23  O   UNL     1      -7.952   3.454  67.422  1.00  0.00    -0.080 OA 
ENDBRANCH  17  20
ENDBRANCH  14  15
ENDBRANCH  13  14
ENDBRANCH   4  13
BRANCH  10  24
HETATM   24  N   UNL     1      -7.733  14.294  67.152  1.00  0.00    -0.351 N  
HETATM   25  C   UNL     1      -7.892  15.645  66.996  1.00  0.00    -0.231 C  
HETATM   26  O   UNL     1      -7.275  16.219  66.098  1.00  0.00     0.027 OA 
HETATM   27  H   UNL     1      -7.057  13.838  66.540  1.00  0.00     0.000 HD 
BRANCH  25  28
HETATM   28  C   UNL     1      -8.839  16.382  67.930  1.00  0.00    -0.184 C  
BRANCH  28  29
HETATM   29  C   UNL     1      -9.391  17.676  67.371  1.00  0.00    -0.247 A  
HETATM   30  C   UNL     1     -10.320  17.714  66.307  1.00  0.00    -0.342 A  
HETATM   31  C   UNL     1     -10.782  18.970  65.865  1.00  0.00    -0.404 A  
HETATM   32  C   UNL     1      -8.982  18.889  67.967  1.00  0.00    -0.338 A  
HETATM   33  C   UNL     1     -10.369  20.157  66.470  1.00  0.00    -0.508 A  
HETATM   34  C   UNL     1      -9.462  20.117  67.518  1.00  0.00    -0.523 A  
BRANCH  30  35
HETATM   35  C   UNL     1     -10.784  16.463  65.585  1.00  0.00    -0.270 C  
HETATM   36  N   UNL     1     -11.360  16.747  64.270  1.00  0.00    -1.338 NA 
HETATM   37  H1  UNL     1     -11.673  15.905  63.784  1.00  0.00     0.000 HD 
HETATM   38  H2  UNL     1     -10.710  17.281  63.694  1.00  0.00     0.000 HD 
ENDBRANCH  30  35
ENDBRANCH  28  29
ENDBRANCH  25  28
ENDBRANCH  10  24
TORSDOF 8
ENDMDL
MODEL      179
REMARK 921   NORMALIZED FREE ENERGY PREDICTED BY IDOCK:   -5.54 KCAL/MOL
REMARK 922        TOTAL FREE ENERGY PREDICTED BY IDOCK:   -8.95 KCAL/MOL
REMARK 923 INTER-LIGAND FREE ENERGY PREDICTED BY IDOCK:   -7.14 KCAL/MOL
REMARK 924 INTRA-LIGAND FREE ENERGY PREDICTED BY IDOCK:   -1.81 KCAL/MOL
REMARK 927      BINDING AFFINITY PREDICTED BY RF-SCORE:    0.00 PKD
ROOT
HETATM    1  C   UNL     1      -8.573   8.932  70.228  1.00  0.00    -0.167 C  
HETATM    2  S   UNL     1      -9.359   7.377  70.696  1.00  0.00    -0.160 SA 
HETATM    3  C   UNL     1      -7.888   6.381  70.366  1.00  0.00    -0.107 C  
HETATM    4  C   UNL     1      -7.170   6.702  69.061  1.00  0.00    -0.091 C  
HETATM    5  O   UNL     1      -7.215   8.905  66.146  1.00  0.00    -0.087 OA 
HETATM    6  CA  UNL     1      -7.358   7.850  68.344  1.00  0.00    -0.101 C  
HETATM    7  N   UNL     1      -8.172   8.830  68.840  1.00  0.00    -0.117 N  
HETATM    8  O   UNL     1      -8.918  10.392  67.296  1.00  0.00    -0.135 OA 
HETATM    9  C   UNL     1      -6.662   8.041  67.013  1.00  0.00    -0.065 C  
HETATM   10  CA  UNL     1      -9.509  10.108  69.796  1.00  0.00    -0.167 C  
HETATM   11  OXT UNL     1      -5.634   7.456  66.715  1.00  0.00    -0.022 OA 
HETATM   12  C   UNL     1      -8.846   9.909  68.401  1.00  0.00    -0.120 C  
ENDROOT
BRANCH   4  13
HETATM   13  C   UNL     1      -6.329   5.514  68.595  1.00  0.00    -0.041 C  
BRANCH  13  14
HETATM   14  S   UNL     1      -7.380   4.082  68.162  1.00  0.00    -0.059 SA 
BRANCH  14  15
HETATM   15  C   UNL     1      -7.790   4.509  66.536  1.00  0.00    -0.099 A  
HETATM   16  N   UNL     1      -6.960   4.532  65.518  1.00  0.00    -0.061 NA 
HETATM   17  N   UNL     1      -9.036   4.862  66.090  1.00  0.00    -0.129 NA 
HETATM   18  N   UNL     1      -7.711   4.868  64.421  1.00  0.00    -0.080 NA 
HETATM   19  N   UNL     1      -8.982   5.038  64.750  1.00  0.00    -0.132 NA 
BRANCH  17  20
HETATM   20  C   UNL     1     -10.302   4.910  66.787  1.00  0.00    -0.217 C  
HETATM   21  O   UNL     1     -10.387   7.355  66.583  1.00  0.00    -0.252 OA 
HETATM   22  C   UNL     1     -10.736   6.266  67.298  1.00  0.00    -0.349 C  
HETATM   23  O   UNL     1     -11.460   6.375  68.282  1.00  0.00    -0.186 OA 
ENDBRANCH  17  20
ENDBRANCH  14  15
ENDBRANCH  13  14
ENDBRANCH   4  13
BRANCH  10  24
HETATM   24  N   UNL     1     -10.974   9.899  69.852  1.00  0.00    -0.264 N  
HETATM   25  C   UNL     1     -11.937  10.872  69.885  1.00  0.00    -0.353 C  
HETATM   26  O   UNL     1     -13.117  10.542  69.999  1.00  0.00    -0.093 OA 
HETATM   27  H   UNL     1     -11.300   8.932  69.867  1.00  0.00     0.000 HD 
BRANCH  25  28
HETATM   28  C   UNL     1     -11.507  12.328  69.795  1.00  0.00    -0.237 C  
BRANCH  28  29
HETATM   29  C   UNL     1     -11.698  12.957  68.431  1.00  0.00    -0.382 A  
HETATM   30  C   UNL     1     -11.777  14.354  68.238  1.00  0.00    -0.376 A  
HETATM   31  C   UNL     1     -11.946  14.841  66.926  1.00  0.00    -0.212 A  
HETATM   32  C   UNL     1     -11.764  12.105  67.307  1.00  0.00    -0.369 A  
HETATM   33  C   UNL     1     -12.005  13.983  65.828  1.00  0.00    -0.417 A  
HETATM   34  C   UNL     1     -11.921  12.613  66.019  1.00  0.00    -0.478 A  
BRANCH  30  35
HETATM   35  C   UNL     1     -11.753  15.339  69.392  1.00  0.00    -0.341 C  
HETATM   36  N   UNL     1     -12.942  15.250  70.240  1.00  0.00    -0.670 NA 
HETATM   37  H1  UNL     1     -12.926  15.913  71.016  1.00  0.00     0.000 HD 
HETATM   38  H2  UNL     1     -13.080  14.297  70.576  1.00  0.00     0.000 HD 
ENDBRANCH  30  35
ENDBRANCH  28  29
ENDBRANCH  25  28
ENDBRANCH  10  24
TORSDOF 8
ENDMDL
MODEL      180
REMARK 921   NORMALIZED FREE ENERGY PREDICTED BY IDOCK:   -5.54 KCAL/MOL
REMARK 922        TOTAL FREE ENERGY PREDICTED BY IDOCK:   -8.95 KCAL/MOL
REMARK 923 INTER-LIGAND FREE ENERGY PREDICTED BY IDOCK:   -7.78 KCAL/MOL
REMARK 924 INTRA-LIGAND FREE ENERGY PREDICTED BY IDOCK:   -1.16 KCAL/MOL
REMARK 927      BINDING AFFINITY PREDICTED BY RF-SCORE:    0.00 PKD
ROOT
HETATM    1  C   UNL     1      -9.693   9.758  67.601  1.00  0.00    -0.156 C  
HETATM    2  S   UNL     1      -8.791  10.907  68.661  1.00  0.00    -0.154 SA 
HETATM    3  C   UNL     1      -9.690  12.360  68.075  1.00  0.00    -0.210 C  
HETATM    4  C   UNL     1      -9.875  12.440  66.565  1.00  0.00    -0.244 C  
HETATM    5  O   UNL     1      -9.226  10.685  63.426  1.00  0.00    -0.217 OA 
HETATM    6  CA  UNL     1      -9.717  11.381  65.715  1.00  0.00    -0.233 C  
HETATM    7  N   UNL     1      -9.457  10.140  66.224  1.00  0.00    -0.172 N  
HETATM    8  O   UNL     1      -8.581   8.602  64.725  1.00  0.00    -0.172 OA 
HETATM    9  C   UNL     1      -9.838  11.579  64.219  1.00  0.00    -0.244 C  
HETATM   10  CA  UNL     1      -9.001   8.395  67.266  1.00  0.00    -0.130 C  
HETATM   11  OXT UNL     1     -10.468  12.499  63.722  1.00  0.00    -0.416 OA 
HETATM   12  C   UNL     1      -8.967   8.956  65.814  1.00  0.00    -0.203 C  
ENDROOT
BRANCH   4  13
HETATM   13  C   UNL     1     -10.117  13.882  66.121  1.00  0.00    -0.308 C  
BRANCH  13  14
HETATM   14  S   UNL     1     -11.792  14.451  66.584  1.00  0.00    -0.374 SA 
BRANCH  14  15
HETATM   15  C   UNL     1     -11.379  15.565  67.842  1.00  0.00    -0.308 A  
HETATM   16  N   UNL     1     -11.635  15.405  69.121  1.00  0.00    -0.318 NA 
HETATM   17  N   UNL     1     -10.717  16.752  67.676  1.00  0.00    -0.331 NA 
HETATM   18  N   UNL     1     -11.091  16.490  69.758  1.00  0.00    -0.309 NA 
HETATM   19  N   UNL     1     -10.499  17.300  68.894  1.00  0.00    -0.342 NA 
BRANCH  17  20
HETATM   20  C   UNL     1     -10.144  17.348  66.490  1.00  0.00    -0.320 C  
HETATM   21  O   UNL     1      -7.981  16.274  66.925  1.00  0.00    -0.191 OA 
HETATM   22  C   UNL     1      -8.636  17.323  66.388  1.00  0.00    -0.259 C  
HETATM   23  O   UNL     1      -8.025  18.180  65.759  1.00  0.00    -0.521 OA 
ENDBRANCH  17  20
ENDBRANCH  14  15
ENDBRANCH  13  14
ENDBRANCH   4  13
BRANCH  10  24
HETATM   24  N   UNL     1      -7.685   8.105  67.879  1.00  0.00    -0.111 N  
HETATM   25  C   UNL     1      -7.463   7.501  69.088  1.00  0.00    -0.098 C  
HETATM   26  O   UNL     1      -6.308   7.388  69.497  1.00  0.00    -0.034 OA 
HETATM   27  H   UNL     1      -6.860   8.383  67.348  1.00  0.00     0.000 HD 
BRANCH  25  28
HETATM   28  C   UNL     1      -8.659   7.007  69.888  1.00  0.00    -0.141 C  
BRANCH  28  29
HETATM   29  C   UNL     1      -8.872   5.509  69.838  1.00  0.00    -0.137 A  
HETATM   30  C   UNL     1      -8.823   4.691  70.989  1.00  0.00    -0.149 A  
HETATM   31  C   UNL     1      -9.045   3.307  70.838  1.00  0.00    -0.182 A  
HETATM   32  C   UNL     1      -9.165   4.917  68.590  1.00  0.00    -0.159 A  
HETATM   33  C   UNL     1      -9.337   2.743  69.598  1.00  0.00    -0.198 A  
HETATM   34  C   UNL     1      -9.391   3.548  68.470  1.00  0.00    -0.229 A  
BRANCH  30  35
HETATM   35  C   UNL     1      -8.478   5.237  72.362  1.00  0.00    -0.122 C  
HETATM   36  N   UNL     1      -8.286   4.183  73.360  1.00  0.00    -0.090 NA 
HETATM   37  H1  UNL     1      -8.054   4.550  74.284  1.00  0.00     0.000 HD 
HETATM   38  H2  UNL     1      -7.588   3.508  73.048  1.00  0.00     0.000 HD 
ENDBRANCH  30  35
ENDBRANCH  28  29
ENDBRANCH  25  28
ENDBRANCH  10  24
TORSDOF 8
ENDMDL
MODEL      181
REMARK 921   NORMALIZED FREE ENERGY PREDICTED BY IDOCK:   -5.53 KCAL/MOL
REMARK 922        TOTAL FREE ENERGY PREDICTED BY IDOCK:   -8.94 KCAL/MOL
REMARK 923 INTER-LIGAND FREE ENERGY PREDICTED BY IDOCK:   -7.74 KCAL/MOL
REMARK 924 INTRA-LIGAND FREE ENERGY PREDICTED BY IDOCK:   -1.20 KCAL/MOL
REMARK 927      BINDING AFFINITY PREDICTED BY RF-SCORE:    0.00 PKD
ROOT
HETATM    1  C   UNL     1      -9.813   7.785  68.272  1.00  0.00    -0.167 C  
HETATM    2  S   UNL     1     -10.515   8.530  66.787  1.00  0.00    -0.138 SA 
HETATM    3  C   UNL     1     -10.571  10.194  67.487  1.00  0.00    -0.273 C  
HETATM    4  C   UNL     1     -11.107  10.279  68.911  1.00  0.00    -0.278 C  
HETATM    5  O   UNL     1     -12.359   8.283  71.704  1.00  0.00    -0.293 OA 
HETATM    6  CA  UNL     1     -11.216   9.210  69.754  1.00  0.00    -0.056 C  
HETATM    7  N   UNL     1     -10.748   7.987  69.360  1.00  0.00    -0.201 N  
HETATM    8  O   UNL     1     -11.552   6.170  70.555  1.00  0.00    -0.333 OA 
HETATM    9  C   UNL     1     -11.842   9.378  71.122  1.00  0.00    -0.338 C  
HETATM   10  CA  UNL     1     -10.023   6.248  68.474  1.00  0.00    -0.144 C  
HETATM   11  OXT UNL     1     -11.882  10.450  71.704  1.00  0.00    -0.249 OA 
HETATM   12  C   UNL     1     -10.891   6.690  69.688  1.00  0.00    -0.286 C  
ENDROOT
BRANCH   4  13
HETATM   13  C   UNL     1     -11.635  11.681  69.211  1.00  0.00    -0.320 C  
BRANCH  13  14
HETATM   14  S   UNL     1     -11.510  12.769  67.747  1.00  0.00    -0.347 SA 
BRANCH  14  15
HETATM   15  C   UNL     1     -10.247  13.825  68.281  1.00  0.00    -0.245 A  
HETATM   16  N   UNL     1      -8.960  13.622  68.116  1.00  0.00    -0.186 NA 
HETATM   17  N   UNL     1     -10.421  15.018  68.930  1.00  0.00    -0.234 NA 
HETATM   18  N   UNL     1      -8.330  14.723  68.637  1.00  0.00    -0.159 NA 
HETATM   19  N   UNL     1      -9.210  15.595  69.104  1.00  0.00    -0.237 NA 
BRANCH  17  20
HETATM   20  C   UNL     1     -11.630  15.731  69.273  1.00  0.00    -0.373 C  
HETATM   21  O   UNL     1     -11.297  15.266  71.660  1.00  0.00    -0.390 OA 
HETATM   22  C   UNL     1     -12.176  15.497  70.663  1.00  0.00    -0.402 C  
HETATM   23  O   UNL     1     -13.374  15.602  70.905  1.00  0.00    -0.556 OA 
ENDBRANCH  17  20
ENDBRANCH  14  15
ENDBRANCH  13  14
ENDBRANCH   4  13
BRANCH  10  24
HETATM   24  N   UNL     1     -10.728   5.490  67.415  1.00  0.00    -0.245 N  
HETATM   25  C   UNL     1     -10.161   4.907  66.314  1.00  0.00    -0.257 C  
HETATM   26  O   UNL     1     -10.889   4.365  65.482  1.00  0.00    -0.239 OA 
HETATM   27  H   UNL     1     -11.738   5.391  67.517  1.00  0.00     0.000 HD 
BRANCH  25  28
HETATM   28  C   UNL     1      -8.650   4.966  66.152  1.00  0.00    -0.116 C  
BRANCH  28  29
HETATM   29  C   UNL     1      -8.180   5.628  64.874  1.00  0.00    -0.134 A  
HETATM   30  C   UNL     1      -7.337   6.761  64.866  1.00  0.00    -0.087 A  
HETATM   31  C   UNL     1      -6.948   7.298  63.621  1.00  0.00    -0.062 A  
HETATM   32  C   UNL     1      -8.578   5.061  63.644  1.00  0.00    -0.105 A  
HETATM   33  C   UNL     1      -7.348   6.720  62.417  1.00  0.00    -0.060 A  
HETATM   34  C   UNL     1      -8.170   5.604  62.428  1.00  0.00    -0.106 A  
BRANCH  30  35
HETATM   35  C   UNL     1      -6.893   7.457  66.139  1.00  0.00    -0.057 C  
HETATM   36  N   UNL     1      -6.765   8.906  65.979  1.00  0.00    -0.068 NA 
HETATM   37  H1  UNL     1      -6.467   9.374  66.836  1.00  0.00     0.000 HD 
HETATM   38  H2  UNL     1      -7.632   9.312  65.624  1.00  0.00     0.000 HD 
ENDBRANCH  30  35
ENDBRANCH  28  29
ENDBRANCH  25  28
ENDBRANCH  10  24
TORSDOF 8
ENDMDL
MODEL      182
REMARK 921   NORMALIZED FREE ENERGY PREDICTED BY IDOCK:   -5.52 KCAL/MOL
REMARK 922        TOTAL FREE ENERGY PREDICTED BY IDOCK:   -8.92 KCAL/MOL
REMARK 923 INTER-LIGAND FREE ENERGY PREDICTED BY IDOCK:   -7.56 KCAL/MOL
REMARK 924 INTRA-LIGAND FREE ENERGY PREDICTED BY IDOCK:   -1.36 KCAL/MOL
REMARK 927      BINDING AFFINITY PREDICTED BY RF-SCORE:    0.00 PKD
ROOT
HETATM    1  C   UNL     1      -9.437   7.270  67.774  1.00  0.00    -0.131 C  
HETATM    2  S   UNL     1      -9.757   8.188  66.254  1.00  0.00    -0.088 SA 
HETATM    3  C   UNL     1      -9.433   9.800  67.002  1.00  0.00    -0.157 C  
HETATM    4  C   UNL     1     -10.070  10.018  68.370  1.00  0.00    -0.186 C  
HETATM    5  O   UNL     1     -12.093   8.418  70.958  1.00  0.00    -0.279 OA 
HETATM    6  CA  UNL     1     -10.549   9.012  69.161  1.00  0.00    -0.203 C  
HETATM    7  N   UNL     1     -10.389   7.711  68.772  1.00  0.00    -0.204 N  
HETATM    8  O   UNL     1     -11.771   6.173  69.822  1.00  0.00    -0.340 OA 
HETATM    9  C   UNL     1     -11.243   9.335  70.468  1.00  0.00    -0.265 C  
HETATM   10  CA  UNL     1     -10.073   5.847  67.902  1.00  0.00    -0.162 C  
HETATM   11  OXT UNL     1     -11.052  10.373  71.079  1.00  0.00    -0.204 OA 
HETATM   12  C   UNL     1     -10.910   6.500  69.040  1.00  0.00    -0.306 C  
ENDROOT
BRANCH   4  13
HETATM   13  C   UNL     1     -10.229  11.508  68.665  1.00  0.00    -0.208 C  
BRANCH  13  14
HETATM   14  S   UNL     1      -9.005  12.506  67.744  1.00  0.00    -0.194 SA 
BRANCH  14  15
HETATM   15  C   UNL     1      -9.709  14.075  67.936  1.00  0.00    -0.229 A  
HETATM   16  N   UNL     1      -9.171  15.081  68.587  1.00  0.00    -0.191 NA 
HETATM   17  N   UNL     1     -10.912  14.482  67.422  1.00  0.00    -0.295 NA 
HETATM   18  N   UNL     1     -10.035  16.135  68.442  1.00  0.00    -0.226 NA 
HETATM   19  N   UNL     1     -11.081  15.793  67.706  1.00  0.00    -0.331 NA 
BRANCH  17  20
HETATM   20  C   UNL     1     -11.848  13.788  66.567  1.00  0.00    -0.407 C  
HETATM   21  O   UNL     1     -10.334  13.995  64.646  1.00  0.00    -0.440 OA 
HETATM   22  C   UNL     1     -11.608  13.903  65.078  1.00  0.00    -0.345 C  
HETATM   23  O   UNL     1     -12.531  13.824  64.275  1.00  0.00    -0.629 OA 
ENDBRANCH  17  20
ENDBRANCH  14  15
ENDBRANCH  13  14
ENDBRANCH   4  13
BRANCH  10  24
HETATM   24  N   UNL     1     -10.844   5.315  66.754  1.00  0.00    -0.421 N  
HETATM   25  C   UNL     1     -10.368   4.508  65.756  1.00  0.00    -0.258 C  
HETATM   26  O   UNL     1     -11.117   4.201  64.828  1.00  0.00    -0.278 OA 
HETATM   27  H   UNL     1     -11.829   5.577  66.703  1.00  0.00     0.000 HD 
BRANCH  25  28
HETATM   28  C   UNL     1      -8.925   4.035  65.824  1.00  0.00    -0.131 C  
BRANCH  28  29
HETATM   29  C   UNL     1      -7.912   5.030  65.298  1.00  0.00    -0.102 A  
HETATM   30  C   UNL     1      -6.745   5.382  66.013  1.00  0.00    -0.056 A  
HETATM   31  C   UNL     1      -5.859   6.312  65.432  1.00  0.00    -0.025 A  
HETATM   32  C   UNL     1      -8.134   5.599  64.026  1.00  0.00    -0.123 A  
HETATM   33  C   UNL     1      -6.094   6.860  64.172  1.00  0.00    -0.036 A  
HETATM   34  C   UNL     1      -7.236   6.509  63.470  1.00  0.00    -0.064 A  
BRANCH  30  35
HETATM   35  C   UNL     1      -6.447   4.847  67.401  1.00  0.00    -0.045 C  
HETATM   36  N   UNL     1      -5.193   5.364  67.951  1.00  0.00    -0.004 NA 
HETATM   37  H1  UNL     1      -4.992   5.005  68.885  1.00  0.00     0.000 HD 
HETATM   38  H2  UNL     1      -5.184   6.384  67.942  1.00  0.00     0.000 HD 
ENDBRANCH  30  35
ENDBRANCH  28  29
ENDBRANCH  25  28
ENDBRANCH  10  24
TORSDOF 8
ENDMDL
MODEL      183
REMARK 921   NORMALIZED FREE ENERGY PREDICTED BY IDOCK:   -5.52 KCAL/MOL
REMARK 922        TOTAL FREE ENERGY PREDICTED BY IDOCK:   -8.92 KCAL/MOL
REMARK 923 INTER-LIGAND FREE ENERGY PREDICTED BY IDOCK:   -8.40 KCAL/MOL
REMARK 924 INTRA-LIGAND FREE ENERGY PREDICTED BY IDOCK:   -0.52 KCAL/MOL
REMARK 927      BINDING AFFINITY PREDICTED BY RF-SCORE:    0.00 PKD
ROOT
HETATM    1  C   UNL     1     -10.796   5.927  71.151  1.00  0.00    -0.269 C  
HETATM    2  S   UNL     1     -11.283   6.294  69.452  1.00  0.00    -0.365 SA 
HETATM    3  C   UNL     1      -9.599   6.188  68.806  1.00  0.00    -0.125 C  
HETATM    4  C   UNL     1      -8.540   6.897  69.643  1.00  0.00    -0.134 C  
HETATM    5  O   UNL     1      -8.014   8.816  72.707  1.00  0.00    -0.385 OA 
HETATM    6  CA  UNL     1      -8.721   7.285  70.940  1.00  0.00    -0.148 C  
HETATM    7  N   UNL     1      -9.880   6.961  71.587  1.00  0.00    -0.169 N  
HETATM    8  O   UNL     1     -10.343   8.193  73.497  1.00  0.00     0.005 OA 
HETATM    9  C   UNL     1      -7.639   8.060  71.662  1.00  0.00    -0.083 C  
HETATM   10  CA  UNL     1     -11.757   6.397  72.291  1.00  0.00    -0.290 C  
HETATM   11  OXT UNL     1      -6.463   8.014  71.338  1.00  0.00    -0.037 OA 
HETATM   12  C   UNL     1     -10.582   7.346  72.668  1.00  0.00    -0.275 C  
ENDROOT
BRANCH   4  13
HETATM   13  C   UNL     1      -7.315   7.238  68.795  1.00  0.00    -0.096 C  
BRANCH  13  14
HETATM   14  S   UNL     1      -7.798   7.942  67.178  1.00  0.00    -0.110 SA 
BRANCH  14  15
HETATM   15  C   UNL     1      -7.529   9.621  67.504  1.00  0.00    -0.091 A  
HETATM   16  N   UNL     1      -7.077  10.119  68.633  1.00  0.00    -0.073 NA 
HETATM   17  N   UNL     1      -7.734  10.650  66.625  1.00  0.00    -0.125 NA 
HETATM   18  N   UNL     1      -6.966  11.471  68.436  1.00  0.00    -0.072 NA 
HETATM   19  N   UNL     1      -7.330  11.803  67.207  1.00  0.00    -0.132 NA 
BRANCH  17  20
HETATM   20  C   UNL     1      -8.141  10.632  65.238  1.00  0.00    -0.086 C  
HETATM   21  O   UNL     1     -10.138  11.966  65.745  1.00  0.00    -0.226 OA 
HETATM   22  C   UNL     1      -9.570  11.034  64.952  1.00  0.00    -0.245 C  
HETATM   23  O   UNL     1     -10.172  10.600  63.976  1.00  0.00    -0.341 OA 
ENDBRANCH  17  20
ENDBRANCH  14  15
ENDBRANCH  13  14
ENDBRANCH   4  13
BRANCH  10  24
HETATM   24  N   UNL     1     -13.028   7.058  71.913  1.00  0.00    -0.520 N  
HETATM   25  C   UNL     1     -13.184   8.361  71.521  1.00  0.00    -0.290 C  
HETATM   26  O   UNL     1     -14.318   8.787  71.301  1.00  0.00    -0.310 OA 
HETATM   27  H   UNL     1     -13.871   6.486  71.948  1.00  0.00     0.000 HD 
BRANCH  25  28
HETATM   28  C   UNL     1     -11.948   9.237  71.387  1.00  0.00    -0.424 C  
BRANCH  28  29
HETATM   29  C   UNL     1     -12.238  10.716  71.249  1.00  0.00    -0.447 A  
HETATM   30  C   UNL     1     -11.690  11.509  70.216  1.00  0.00    -0.379 A  
HETATM   31  C   UNL     1     -12.030  12.876  70.169  1.00  0.00    -0.373 A  
HETATM   32  C   UNL     1     -13.123  11.312  72.174  1.00  0.00    -0.272 A  
HETATM   33  C   UNL     1     -12.909  13.445  71.090  1.00  0.00    -0.372 A  
HETATM   34  C   UNL     1     -13.451  12.663  72.099  1.00  0.00    -0.561 A  
BRANCH  30  35
HETATM   35  C   UNL     1     -10.703  10.960  69.203  1.00  0.00    -0.226 C  
HETATM   36  N   UNL     1      -9.823  11.991  68.652  1.00  0.00    -0.358 NA 
HETATM   37  H1  UNL     1      -9.158  11.622  67.970  1.00  0.00     0.000 HD 
HETATM   38  H2  UNL     1      -9.340  12.495  69.396  1.00  0.00     0.000 HD 
ENDBRANCH  30  35
ENDBRANCH  28  29
ENDBRANCH  25  28
ENDBRANCH  10  24
TORSDOF 8
ENDMDL
MODEL      184
REMARK 921   NORMALIZED FREE ENERGY PREDICTED BY IDOCK:   -5.51 KCAL/MOL
REMARK 922        TOTAL FREE ENERGY PREDICTED BY IDOCK:   -8.91 KCAL/MOL
REMARK 923 INTER-LIGAND FREE ENERGY PREDICTED BY IDOCK:   -7.08 KCAL/MOL
REMARK 924 INTRA-LIGAND FREE ENERGY PREDICTED BY IDOCK:   -1.83 KCAL/MOL
REMARK 927      BINDING AFFINITY PREDICTED BY RF-SCORE:    0.00 PKD
ROOT
HETATM    1  C   UNL     1     -11.108   8.029  69.470  1.00  0.00     0.037 C  
HETATM    2  S   UNL     1      -9.916   7.674  68.162  1.00  0.00    -0.182 SA 
HETATM    3  C   UNL     1     -10.114   5.883  68.286  1.00  0.00    -0.166 C  
HETATM    4  C   UNL     1     -10.126   5.331  69.706  1.00  0.00    -0.334 C  
HETATM    5  O   UNL     1      -9.967   6.280  73.231  1.00  0.00    -0.165 OA 
HETATM    6  CA  UNL     1     -10.330   6.091  70.823  1.00  0.00    -0.224 C  
HETATM    7  N   UNL     1     -10.627   7.419  70.692  1.00  0.00    -0.220 N  
HETATM    8  O   UNL     1     -10.311   8.711  72.591  1.00  0.00    -0.253 OA 
HETATM    9  C   UNL     1     -10.238   5.465  72.199  1.00  0.00    -0.203 C  
HETATM   10  CA  UNL     1     -10.988   9.409  70.197  1.00  0.00    -0.246 C  
HETATM   11  OXT UNL     1     -10.409   4.273  72.396  1.00  0.00    -0.180 OA 
HETATM   12  C   UNL     1     -10.614   8.541  71.434  1.00  0.00    -0.245 C  
ENDROOT
BRANCH   4  13
HETATM   13  C   UNL     1      -9.739   3.852  69.719  1.00  0.00    -0.156 C  
BRANCH  13  14
HETATM   14  S   UNL     1      -8.009   3.611  69.182  1.00  0.00    -0.053 SA 
BRANCH  14  15
HETATM   15  C   UNL     1      -7.201   3.877  70.690  1.00  0.00    -0.037 A  
HETATM   16  N   UNL     1      -7.364   3.166  71.782  1.00  0.00    -0.043 NA 
HETATM   17  N   UNL     1      -6.273   4.853  70.939  1.00  0.00    -0.018 NA 
HETATM   18  N   UNL     1      -6.497   3.686  72.708  1.00  0.00    -0.020 NA 
HETATM   19  N   UNL     1      -5.803   4.691  72.197  1.00  0.00    -0.015 NA 
BRANCH  17  20
HETATM   20  C   UNL     1      -5.684   5.835  70.057  1.00  0.00    -0.016 C  
HETATM   21  O   UNL     1      -7.241   7.561  70.844  1.00  0.00    -0.065 OA 
HETATM   22  C   UNL     1      -6.484   7.098  69.829  1.00  0.00    -0.039 C  
HETATM   23  O   UNL     1      -6.383   7.738  68.787  1.00  0.00    -0.041 OA 
ENDBRANCH  17  20
ENDBRANCH  14  15
ENDBRANCH  13  14
ENDBRANCH   4  13
BRANCH  10  24
HETATM   24  N   UNL     1      -9.949  10.359  69.735  1.00  0.00    -0.405 N  
HETATM   25  C   UNL     1     -10.054  11.236  68.689  1.00  0.00    -0.208 C  
HETATM   26  O   UNL     1      -9.077  11.919  68.382  1.00  0.00    -0.187 OA 
HETATM   27  H   UNL     1      -9.068  10.360  70.248  1.00  0.00     0.000 HD 
BRANCH  25  28
HETATM   28  C   UNL     1     -11.373  11.321  67.936  1.00  0.00    -0.367 C  
BRANCH  28  29
HETATM   29  C   UNL     1     -11.321  12.152  66.672  1.00  0.00    -0.405 A  
HETATM   30  C   UNL     1     -10.800  11.660  65.455  1.00  0.00    -0.336 A  
HETATM   31  C   UNL     1     -10.806  12.511  64.330  1.00  0.00    -0.375 A  
HETATM   32  C   UNL     1     -11.851  13.460  66.711  1.00  0.00    -0.452 A  
HETATM   33  C   UNL     1     -11.337  13.798  64.389  1.00  0.00    -0.375 A  
HETATM   34  C   UNL     1     -11.854  14.277  65.583  1.00  0.00    -0.373 A  
BRANCH  30  35
HETATM   35  C   UNL     1     -10.178  10.282  65.332  1.00  0.00    -0.242 C  
HETATM   36  N   UNL     1      -9.862   9.922  63.949  1.00  0.00    -0.471 NA 
HETATM   37  H1  UNL     1      -9.443   8.995  63.866  1.00  0.00     0.000 HD 
HETATM   38  H2  UNL     1      -9.269  10.631  63.514  1.00  0.00     0.000 HD 
ENDBRANCH  30  35
ENDBRANCH  28  29
ENDBRANCH  25  28
ENDBRANCH  10  24
TORSDOF 8
ENDMDL
MODEL      185
REMARK 921   NORMALIZED FREE ENERGY PREDICTED BY IDOCK:   -5.50 KCAL/MOL
REMARK 922        TOTAL FREE ENERGY PREDICTED BY IDOCK:   -8.90 KCAL/MOL
REMARK 923 INTER-LIGAND FREE ENERGY PREDICTED BY IDOCK:   -7.87 KCAL/MOL
REMARK 924 INTRA-LIGAND FREE ENERGY PREDICTED BY IDOCK:   -1.02 KCAL/MOL
REMARK 927      BINDING AFFINITY PREDICTED BY RF-SCORE:    0.00 PKD
ROOT
HETATM    1  C   UNL     1      -7.647  13.902  68.994  1.00  0.00    -0.002 C  
HETATM    2  S   UNL     1      -8.602  14.513  67.590  1.00  0.00    -0.192 SA 
HETATM    3  C   UNL     1      -9.961  13.349  67.838  1.00  0.00    -0.236 C  
HETATM    4  C   UNL     1      -9.538  11.912  68.118  1.00  0.00    -0.195 C  
HETATM    5  O   UNL     1      -6.638   9.740  68.589  1.00  0.00    -0.050 OA 
HETATM    6  CA  UNL     1      -8.282  11.545  68.510  1.00  0.00    -0.148 C  
HETATM    7  N   UNL     1      -7.342  12.507  68.755  1.00  0.00    -0.098 N  
HETATM    8  O   UNL     1      -5.140  11.779  68.768  1.00  0.00    -0.047 OA 
HETATM    9  C   UNL     1      -7.934  10.081  68.681  1.00  0.00    -0.097 C  
HETATM   10  CA  UNL     1      -6.105  14.166  68.984  1.00  0.00    -0.093 C  
HETATM   11  OXT UNL     1      -8.773   9.224  68.906  1.00  0.00    -0.128 OA 
HETATM   12  C   UNL     1      -6.005  12.618  68.858  1.00  0.00    -0.074 C  
ENDROOT
BRANCH   4  13
HETATM   13  C   UNL     1     -10.660  10.936  67.766  1.00  0.00    -0.217 C  
BRANCH  13  14
HETATM   14  S   UNL     1     -11.749  11.613  66.462  1.00  0.00     0.238 SA 
BRANCH  14  15
HETATM   15  C   UNL     1     -10.801  11.226  65.067  1.00  0.00    -0.216 A  
HETATM   16  N   UNL     1      -9.876  10.296  65.003  1.00  0.00    -0.310 NA 
HETATM   17  N   UNL     1     -10.900  11.826  63.840  1.00  0.00    -0.367 NA 
HETATM   18  N   UNL     1      -9.424  10.295  63.709  1.00  0.00    -0.290 NA 
HETATM   19  N   UNL     1     -10.063  11.198  62.983  1.00  0.00    -0.306 NA 
BRANCH  17  20
HETATM   20  C   UNL     1     -11.813  12.841  63.364  1.00  0.00    -0.518 C  
HETATM   21  O   UNL     1     -10.591  14.591  64.575  1.00  0.00    -0.350 OA 
HETATM   22  C   UNL     1     -11.774  14.170  64.084  1.00  0.00    -0.282 C  
HETATM   23  O   UNL     1     -12.764  14.892  64.145  1.00  0.00    -0.750 OA 
ENDBRANCH  17  20
ENDBRANCH  14  15
ENDBRANCH  13  14
ENDBRANCH   4  13
BRANCH  10  24
HETATM   24  N   UNL     1      -5.532  14.946  67.863  1.00  0.00    -0.126 N  
HETATM   25  C   UNL     1      -5.621  16.301  67.683  1.00  0.00    -0.145 C  
HETATM   26  O   UNL     1      -5.149  16.799  66.661  1.00  0.00    -0.316 OA 
HETATM   27  H   UNL     1      -5.019  14.422  67.155  1.00  0.00     0.000 HD 
BRANCH  25  28
HETATM   28  C   UNL     1      -6.316  17.135  68.747  1.00  0.00    -0.175 C  
BRANCH  28  29
HETATM   29  C   UNL     1      -6.584  18.570  68.344  1.00  0.00    -0.235 A  
HETATM   30  C   UNL     1      -7.811  18.990  67.784  1.00  0.00    -0.279 A  
HETATM   31  C   UNL     1      -7.965  20.351  67.451  1.00  0.00    -0.361 A  
HETATM   32  C   UNL     1      -5.572  19.527  68.572  1.00  0.00    -0.224 A  
HETATM   33  C   UNL     1      -6.955  21.282  67.689  1.00  0.00    -0.143 A  
HETATM   34  C   UNL     1      -5.753  20.869  68.244  1.00  0.00    -0.385 A  
BRANCH  30  35
HETATM   35  C   UNL     1      -8.938  18.023  67.470  1.00  0.00    -0.249 C  
HETATM   36  N   UNL     1      -9.394  18.114  66.083  1.00  0.00    -0.505 NA 
HETATM   37  H1  UNL     1     -10.152  17.464  65.871  1.00  0.00     0.000 HD 
HETATM   38  H2  UNL     1      -8.616  17.992  65.434  1.00  0.00     0.000 HD 
ENDBRANCH  30  35
ENDBRANCH  28  29
ENDBRANCH  25  28
ENDBRANCH  10  24
TORSDOF 8
ENDMDL
MODEL      186
REMARK 921   NORMALIZED FREE ENERGY PREDICTED BY IDOCK:   -5.48 KCAL/MOL
REMARK 922        TOTAL FREE ENERGY PREDICTED BY IDOCK:   -8.87 KCAL/MOL
REMARK 923 INTER-LIGAND FREE ENERGY PREDICTED BY IDOCK:   -7.58 KCAL/MOL
REMARK 924 INTRA-LIGAND FREE ENERGY PREDICTED BY IDOCK:   -1.29 KCAL/MOL
REMARK 927      BINDING AFFINITY PREDICTED BY RF-SCORE:    0.00 PKD
ROOT
HETATM    1  C   UNL     1      -9.214  12.890  67.003  1.00  0.00    -0.226 C  
HETATM    2  S   UNL     1      -7.810  11.848  67.452  1.00  0.00    -0.167 SA 
HETATM    3  C   UNL     1      -8.830  10.402  67.814  1.00  0.00    -0.128 C  
HETATM    4  C   UNL     1     -10.079  10.683  68.640  1.00  0.00    -0.194 C  
HETATM    5  O   UNL     1     -12.008  13.340  70.243  1.00  0.00    -0.333 OA 
HETATM    6  CA  UNL     1     -10.619  11.925  68.816  1.00  0.00    -0.206 C  
HETATM    7  N   UNL     1     -10.080  12.996  68.159  1.00  0.00    -0.232 N  
HETATM    8  O   UNL     1     -10.633  15.080  69.012  1.00  0.00    -0.229 OA 
HETATM    9  C   UNL     1     -11.814  12.116  69.726  1.00  0.00    -0.327 C  
HETATM   10  CA  UNL     1      -9.018  14.439  67.099  1.00  0.00    -0.232 C  
HETATM   11  OXT UNL     1     -12.595  11.215  69.991  1.00  0.00    -0.244 OA 
HETATM   12  C   UNL     1     -10.073  14.339  68.239  1.00  0.00    -0.238 C  
ENDROOT
BRANCH   4  13
HETATM   13  C   UNL     1     -10.556   9.418  69.354  1.00  0.00    -0.221 C  
BRANCH  13  14
HETATM   14  S   UNL     1      -9.166   8.540  70.154  1.00  0.00    -0.160 SA 
BRANCH  14  15
HETATM   15  C   UNL     1      -9.379   6.970  69.458  1.00  0.00    -0.148 A  
HETATM   16  N   UNL     1     -10.495   6.276  69.462  1.00  0.00    -0.213 NA 
HETATM   17  N   UNL     1      -8.420   6.249  68.798  1.00  0.00    -0.119 NA 
HETATM   18  N   UNL     1     -10.232   5.128  68.761  1.00  0.00    -0.161 NA 
HETATM   19  N   UNL     1      -8.984   5.115  68.322  1.00  0.00    -0.108 NA 
BRANCH  17  20
HETATM   20  C   UNL     1      -7.061   6.596  68.450  1.00  0.00    -0.083 C  
HETATM   21  O   UNL     1      -7.779   7.458  66.266  1.00  0.00    -0.089 OA 
HETATM   22  C   UNL     1      -6.795   6.885  66.989  1.00  0.00    -0.065 C  
HETATM   23  O   UNL     1      -5.691   6.691  66.491  1.00  0.00    -0.014 OA 
ENDBRANCH  17  20
ENDBRANCH  14  15
ENDBRANCH  13  14
ENDBRANCH   4  13
BRANCH  10  24
HETATM   24  N   UNL     1      -7.687  14.958  67.491  1.00  0.00    -0.176 N  
HETATM   25  C   UNL     1      -7.066  16.071  66.991  1.00  0.00    -0.198 C  
HETATM   26  O   UNL     1      -5.926  16.339  67.369  1.00  0.00    -0.146 OA 
HETATM   27  H   UNL     1      -7.183  14.433  68.206  1.00  0.00     0.000 HD 
BRANCH  25  28
HETATM   28  C   UNL     1      -7.805  16.925  65.973  1.00  0.00    -0.126 C  
BRANCH  28  29
HETATM   29  C   UNL     1      -8.580  18.081  66.567  1.00  0.00    -0.280 A  
HETATM   30  C   UNL     1      -7.994  19.341  66.826  1.00  0.00    -0.285 A  
HETATM   31  C   UNL     1      -8.804  20.357  67.373  1.00  0.00    -0.430 A  
HETATM   32  C   UNL     1      -9.953  17.896  66.839  1.00  0.00    -0.335 A  
HETATM   33  C   UNL     1     -10.159  20.155  67.630  1.00  0.00    -0.542 A  
HETATM   34  C   UNL     1     -10.733  18.920  67.369  1.00  0.00    -0.519 A  
BRANCH  30  35
HETATM   35  C   UNL     1      -6.519  19.616  66.600  1.00  0.00    -0.188 C  
HETATM   36  N   UNL     1      -6.036  20.775  67.352  1.00  0.00    -0.219 NA 
HETATM   37  H1  UNL     1      -5.044  20.960  67.200  1.00  0.00     0.000 HD 
HETATM   38  H2  UNL     1      -6.241  20.676  68.347  1.00  0.00     0.000 HD 
ENDBRANCH  30  35
ENDBRANCH  28  29
ENDBRANCH  25  28
ENDBRANCH  10  24
TORSDOF 8
ENDMDL
MODEL      187
REMARK 921   NORMALIZED FREE ENERGY PREDICTED BY IDOCK:   -5.46 KCAL/MOL
REMARK 922        TOTAL FREE ENERGY PREDICTED BY IDOCK:   -8.84 KCAL/MOL
REMARK 923 INTER-LIGAND FREE ENERGY PREDICTED BY IDOCK:   -8.06 KCAL/MOL
REMARK 924 INTRA-LIGAND FREE ENERGY PREDICTED BY IDOCK:   -0.78 KCAL/MOL
REMARK 927      BINDING AFFINITY PREDICTED BY RF-SCORE:    0.00 PKD
ROOT
HETATM    1  C   UNL     1      -8.872   8.633  68.092  1.00  0.00    -0.142 C  
HETATM    2  S   UNL     1      -8.801   9.138  69.823  1.00  0.00    -0.174 SA 
HETATM    3  C   UNL     1      -7.500   7.960  70.252  1.00  0.00    -0.077 C  
HETATM    4  C   UNL     1      -7.697   6.552  69.703  1.00  0.00    -0.103 C  
HETATM    5  O   UNL     1      -9.895   4.478  67.650  1.00  0.00    -0.168 OA 
HETATM    6  CA  UNL     1      -8.558   6.237  68.690  1.00  0.00    -0.121 C  
HETATM    7  N   UNL     1      -9.241   7.233  68.049  1.00  0.00    -0.132 N  
HETATM    8  O   UNL     1     -11.101   6.557  66.840  1.00  0.00    -0.399 OA 
HETATM    9  C   UNL     1      -8.747   4.795  68.271  1.00  0.00    -0.102 C  
HETATM   10  CA  UNL     1     -10.193   8.931  67.310  1.00  0.00    -0.258 C  
HETATM   11  OXT UNL     1      -7.905   3.933  68.466  1.00  0.00    -0.067 OA 
HETATM   12  C   UNL     1     -10.327   7.380  67.269  1.00  0.00    -0.286 C  
ENDROOT
BRANCH   4  13
HETATM   13  C   UNL     1      -6.915   5.532  70.529  1.00  0.00    -0.057 C  
BRANCH  13  14
HETATM   14  S   UNL     1      -6.086   6.322  71.954  1.00  0.00    -0.042 SA 
BRANCH  14  15
HETATM   15  C   UNL     1      -7.424   6.418  73.048  1.00  0.00    -0.094 A  
HETATM   16  N   UNL     1      -7.815   7.497  73.686  1.00  0.00    -0.112 NA 
HETATM   17  N   UNL     1      -8.263   5.387  73.380  1.00  0.00    -0.114 NA 
HETATM   18  N   UNL     1      -8.934   7.138  74.393  1.00  0.00    -0.207 NA 
HETATM   19  N   UNL     1      -9.236   5.866  74.188  1.00  0.00    -0.127 NA 
BRANCH  17  20
HETATM   20  C   UNL     1      -8.316   4.028  72.892  1.00  0.00    -0.096 C  
HETATM   21  O   UNL     1     -10.243   4.553  71.466  1.00  0.00    -0.184 OA 
HETATM   22  C   UNL     1      -9.587   3.618  72.183  1.00  0.00    -0.146 C  
HETATM   23  O   UNL     1      -9.969   2.453  72.180  1.00  0.00    -0.145 OA 
ENDBRANCH  17  20
ENDBRANCH  14  15
ENDBRANCH  13  14
ENDBRANCH   4  13
BRANCH  10  24
HETATM   24  N   UNL     1     -11.278   9.656  68.011  1.00  0.00    -0.513 N  
HETATM   25  C   UNL     1     -11.469  11.012  68.034  1.00  0.00    -0.290 C  
HETATM   26  O   UNL     1     -12.381  11.474  68.720  1.00  0.00    -0.425 OA 
HETATM   27  H   UNL     1     -11.949   9.089  68.528  1.00  0.00     0.000 HD 
BRANCH  25  28
HETATM   28  C   UNL     1     -10.535  11.896  67.223  1.00  0.00    -0.248 C  
BRANCH  28  29
HETATM   29  C   UNL     1     -11.146  12.461  65.959  1.00  0.00    -0.344 A  
HETATM   30  C   UNL     1     -10.906  11.908  64.681  1.00  0.00    -0.363 A  
HETATM   31  C   UNL     1     -11.530  12.502  63.565  1.00  0.00    -0.570 A  
HETATM   32  C   UNL     1     -12.018  13.565  66.074  1.00  0.00    -0.449 A  
HETATM   33  C   UNL     1     -12.392  13.589  63.701  1.00  0.00    -0.377 A  
HETATM   34  C   UNL     1     -12.631  14.127  64.956  1.00  0.00    -0.399 A  
BRANCH  30  35
HETATM   35  C   UNL     1      -9.954  10.747  64.461  1.00  0.00    -0.333 C  
HETATM   36  N   UNL     1      -8.801  11.106  63.634  1.00  0.00    -0.398 NA 
HETATM   37  H1  UNL     1      -8.161  10.325  63.486  1.00  0.00     0.000 HD 
HETATM   38  H2  UNL     1      -8.311  11.912  64.022  1.00  0.00     0.000 HD 
ENDBRANCH  30  35
ENDBRANCH  28  29
ENDBRANCH  25  28
ENDBRANCH  10  24
TORSDOF 8
ENDMDL
MODEL      188
REMARK 921   NORMALIZED FREE ENERGY PREDICTED BY IDOCK:   -5.46 KCAL/MOL
REMARK 922        TOTAL FREE ENERGY PREDICTED BY IDOCK:   -8.84 KCAL/MOL
REMARK 923 INTER-LIGAND FREE ENERGY PREDICTED BY IDOCK:   -9.74 KCAL/MOL
REMARK 924 INTRA-LIGAND FREE ENERGY PREDICTED BY IDOCK:    0.90 KCAL/MOL
REMARK 927      BINDING AFFINITY PREDICTED BY RF-SCORE:    0.00 PKD
ROOT
HETATM    1  C   UNL     1      -9.986  14.156  68.873  1.00  0.00    -0.127 C  
HETATM    2  S   UNL     1      -8.387  13.378  68.569  1.00  0.00    -0.027 SA 
HETATM    3  C   UNL     1      -7.635  14.878  67.900  1.00  0.00    -0.136 C  
HETATM    4  C   UNL     1      -8.498  15.646  66.907  1.00  0.00    -0.286 C  
HETATM    5  O   UNL     1     -11.764  15.689  65.268  1.00  0.00     0.000 OA 
HETATM    6  CA  UNL     1      -9.845  15.470  66.764  1.00  0.00    -0.241 C  
HETATM    7  N   UNL     1     -10.508  14.619  67.604  1.00  0.00    -0.242 N  
HETATM    8  O   UNL     1     -12.594  13.913  66.877  1.00  0.00    -0.267 OA 
HETATM    9  C   UNL     1     -10.603  16.219  65.688  1.00  0.00    -0.346 C  
HETATM   10  CA  UNL     1     -11.236  13.220  68.964  1.00  0.00    -0.270 C  
HETATM   11  OXT UNL     1     -10.207  17.269  65.209  1.00  0.00    -0.563 OA 
HETATM   12  C   UNL     1     -11.672  13.946  67.657  1.00  0.00    -0.368 C  
ENDROOT
BRANCH   4  13
HETATM   13  C   UNL     1      -7.636  16.527  66.003  1.00  0.00     0.272 C  
BRANCH  13  14
HETATM   14  S   UNL     1      -6.219  17.234  66.916  1.00  0.00    -0.203 SA 
BRANCH  14  15
HETATM   15  C   UNL     1      -6.298  18.867  66.348  1.00  0.00    -0.190 A  
HETATM   16  N   UNL     1      -6.863  19.262  65.230  1.00  0.00    -0.445 NA 
HETATM   17  N   UNL     1      -5.798  19.966  66.996  1.00  0.00    -0.173 NA 
HETATM   18  N   UNL     1      -6.744  20.628  65.204  1.00  0.00    -0.229 NA 
HETATM   19  N   UNL     1      -6.129  21.071  66.290  1.00  0.00    -0.254 NA 
BRANCH  17  20
HETATM   20  C   UNL     1      -5.165  20.083  68.290  1.00  0.00    -0.195 C  
HETATM   21  O   UNL     1      -7.279  19.591  69.434  1.00  0.00    -0.344 OA 
HETATM   22  C   UNL     1      -6.088  20.222  69.479  1.00  0.00    -0.338 C  
HETATM   23  O   UNL     1      -5.736  20.812  70.495  1.00  0.00    -0.538 OA 
ENDBRANCH  17  20
ENDBRANCH  14  15
ENDBRANCH  13  14
ENDBRANCH   4  13
BRANCH  10  24
HETATM   24  N   UNL     1     -11.029  11.757  68.854  1.00  0.00    -0.229 N  
HETATM   25  C   UNL     1     -11.160  10.998  67.722  1.00  0.00    -0.295 C  
HETATM   26  O   UNL     1     -11.020   9.778  67.801  1.00  0.00    -0.274 OA 
HETATM   27  H   UNL     1     -10.761  11.267  69.707  1.00  0.00     0.000 HD 
BRANCH  25  28
HETATM   28  C   UNL     1     -11.491  11.693  66.410  1.00  0.00    -0.238 C  
BRANCH  28  29
HETATM   29  C   UNL     1     -10.597  11.305  65.251  1.00  0.00    -0.323 A  
HETATM   30  C   UNL     1     -10.956  11.527  63.903  1.00  0.00    -0.474 A  
HETATM   31  C   UNL     1     -10.049  11.138  62.896  1.00  0.00    -0.235 A  
HETATM   32  C   UNL     1      -9.340  10.732  65.541  1.00  0.00    -0.242 A  
HETATM   33  C   UNL     1      -8.810  10.577  63.202  1.00  0.00    -0.216 A  
HETATM   34  C   UNL     1      -8.458  10.367  64.527  1.00  0.00    -0.172 A  
BRANCH  30  35
HETATM   35  C   UNL     1     -12.301  12.102  63.501  1.00  0.00    -0.574 C  
HETATM   36  N   UNL     1     -12.203  13.467  62.982  1.00  0.00    -0.956 NA 
HETATM   37  H1  UNL     1     -13.107  13.855  62.711  1.00  0.00     0.000 HD 
HETATM   38  H2  UNL     1     -11.538  13.517  62.209  1.00  0.00     0.000 HD 
ENDBRANCH  30  35
ENDBRANCH  28  29
ENDBRANCH  25  28
ENDBRANCH  10  24
TORSDOF 8
ENDMDL
MODEL      189
REMARK 921   NORMALIZED FREE ENERGY PREDICTED BY IDOCK:   -5.44 KCAL/MOL
REMARK 922        TOTAL FREE ENERGY PREDICTED BY IDOCK:   -8.81 KCAL/MOL
REMARK 923 INTER-LIGAND FREE ENERGY PREDICTED BY IDOCK:   -7.43 KCAL/MOL
REMARK 924 INTRA-LIGAND FREE ENERGY PREDICTED BY IDOCK:   -1.38 KCAL/MOL
REMARK 927      BINDING AFFINITY PREDICTED BY RF-SCORE:    0.00 PKD
ROOT
HETATM    1  C   UNL     1      -8.961   9.900  68.904  1.00  0.00    -0.153 C  
HETATM    2  S   UNL     1      -7.185   9.937  69.221  1.00  0.00    -0.082 SA 
HETATM    3  C   UNL     1      -7.090  11.742  69.226  1.00  0.00    -0.032 C  
HETATM    4  C   UNL     1      -7.846  12.432  68.097  1.00  0.00    -0.146 C  
HETATM    5  O   UNL     1      -9.993  11.834  65.202  1.00  0.00    -0.244 OA 
HETATM    6  CA  UNL     1      -8.808  11.829  67.338  1.00  0.00    -0.164 C  
HETATM    7  N   UNL     1      -9.202  10.554  67.634  1.00  0.00    -0.145 N  
HETATM    8  O   UNL     1     -10.320   9.429  65.941  1.00  0.00    -0.191 OA 
HETATM    9  C   UNL     1      -9.443  12.571  66.181  1.00  0.00    -0.184 C  
HETATM   10  CA  UNL     1      -9.549   8.600  68.264  1.00  0.00    -0.147 C  
HETATM   11  OXT UNL     1      -9.478  13.789  66.116  1.00  0.00    -0.249 OA 
HETATM   12  C   UNL     1      -9.837   9.524  67.044  1.00  0.00    -0.190 C  
ENDROOT
BRANCH   4  13
HETATM   13  C   UNL     1      -7.283  13.829  67.840  1.00  0.00    -0.154 C  
BRANCH  13  14
HETATM   14  S   UNL     1      -7.381  14.874  69.337  1.00  0.00    -0.169 SA 
BRANCH  14  15
HETATM   15  C   UNL     1      -8.594  15.997  68.825  1.00  0.00    -0.223 A  
HETATM   16  N   UNL     1      -8.444  16.916  67.898  1.00  0.00    -0.200 NA 
HETATM   17  N   UNL     1      -9.875  16.066  69.304  1.00  0.00    -0.243 NA 
HETATM   18  N   UNL     1      -9.660  17.537  67.777  1.00  0.00    -0.264 NA 
HETATM   19  N   UNL     1     -10.548  17.006  68.602  1.00  0.00    -0.357 NA 
BRANCH  17  20
HETATM   20  C   UNL     1     -10.564  15.232  70.262  1.00  0.00    -0.232 C  
HETATM   21  O   UNL     1     -11.759  14.059  68.468  1.00  0.00    -0.310 OA 
HETATM   22  C   UNL     1     -11.770  14.477  69.750  1.00  0.00    -0.303 C  
HETATM   23  O   UNL     1     -12.694  14.170  70.495  1.00  0.00    -0.340 OA 
ENDBRANCH  17  20
ENDBRANCH  14  15
ENDBRANCH  13  14
ENDBRANCH   4  13
BRANCH  10  24
HETATM   24  N   UNL     1      -8.634   7.463  68.013  1.00  0.00    -0.122 N  
HETATM   25  C   UNL     1      -8.941   6.132  68.109  1.00  0.00    -0.114 C  
HETATM   26  O   UNL     1      -8.051   5.299  67.934  1.00  0.00    -0.099 OA 
HETATM   27  H   UNL     1      -7.678   7.694  67.740  1.00  0.00     0.000 HD 
BRANCH  25  28
HETATM   28  C   UNL     1     -10.369   5.734  68.446  1.00  0.00    -0.269 C  
BRANCH  28  29
HETATM   29  C   UNL     1     -10.673   5.679  69.927  1.00  0.00    -0.399 A  
HETATM   30  C   UNL     1     -10.222   4.631  70.761  1.00  0.00    -0.214 A  
HETATM   31  C   UNL     1     -10.550   4.677  72.132  1.00  0.00    -0.175 A  
HETATM   32  C   UNL     1     -11.409   6.739  70.498  1.00  0.00    -0.394 A  
HETATM   33  C   UNL     1     -11.275   5.736  72.677  1.00  0.00    -0.348 A  
HETATM   34  C   UNL     1     -11.711   6.766  71.858  1.00  0.00    -0.349 A  
BRANCH  30  35
HETATM   35  C   UNL     1      -9.458   3.434  70.226  1.00  0.00    -0.177 C  
HETATM   36  N   UNL     1      -8.023   3.507  70.502  1.00  0.00    -0.053 NA 
HETATM   37  H1  UNL     1      -7.509   2.702  70.142  1.00  0.00     0.000 HD 
HETATM   38  H2  UNL     1      -7.849   3.636  71.499  1.00  0.00     0.000 HD 
ENDBRANCH  30  35
ENDBRANCH  28  29
ENDBRANCH  25  28
ENDBRANCH  10  24
TORSDOF 8
ENDMDL
MODEL      190
REMARK 921   NORMALIZED FREE ENERGY PREDICTED BY IDOCK:   -5.44 KCAL/MOL
REMARK 922        TOTAL FREE ENERGY PREDICTED BY IDOCK:   -8.80 KCAL/MOL
REMARK 923 INTER-LIGAND FREE ENERGY PREDICTED BY IDOCK:   -9.72 KCAL/MOL
REMARK 924 INTRA-LIGAND FREE ENERGY PREDICTED BY IDOCK:    0.91 KCAL/MOL
REMARK 927      BINDING AFFINITY PREDICTED BY RF-SCORE:    0.00 PKD
ROOT
HETATM    1  C   UNL     1      -8.880  10.721  65.680  1.00  0.00    -0.190 C  
HETATM    2  S   UNL     1     -10.599  11.236  65.484  1.00  0.00    -0.217 SA 
HETATM    3  C   UNL     1     -10.265  12.964  65.892  1.00  0.00    -0.290 C  
HETATM    4  C   UNL     1      -9.363  13.181  67.100  1.00  0.00    -0.235 C  
HETATM    5  O   UNL     1      -7.404  11.450  69.654  1.00  0.00    -0.011 OA 
HETATM    6  CA  UNL     1      -8.567  12.214  67.646  1.00  0.00    -0.166 C  
HETATM    7  N   UNL     1      -8.486  10.987  67.048  1.00  0.00    -0.137 N  
HETATM    8  O   UNL     1      -7.658   9.275  68.374  1.00  0.00    -0.084 OA 
HETATM    9  C   UNL     1      -7.769  12.501  68.901  1.00  0.00     0.085 C  
HETATM   10  CA  UNL     1      -8.613   9.208  65.974  1.00  0.00    -0.146 C  
HETATM   11  OXT UNL     1      -7.447  13.629  69.236  1.00  0.00     0.025 OA 
HETATM   12  C   UNL     1      -8.110   9.732  67.351  1.00  0.00    -0.114 C  
ENDROOT
BRANCH   4  13
HETATM   13  C   UNL     1      -9.578  14.570  67.699  1.00  0.00    -0.214 C  
BRANCH  13  14
HETATM   14  S   UNL     1      -8.440  15.798  66.963  1.00  0.00    -0.243 SA 
BRANCH  14  15
HETATM   15  C   UNL     1      -9.563  16.682  65.987  1.00  0.00    -0.266 A  
HETATM   16  N   UNL     1     -10.290  16.182  65.014  1.00  0.00    -0.568 NA 
HETATM   17  N   UNL     1      -9.856  18.014  66.110  1.00  0.00    -0.504 NA 
HETATM   18  N   UNL     1     -11.071  17.211  64.554  1.00  0.00    -0.979 NA 
HETATM   19  N   UNL     1     -10.841  18.322  65.236  1.00  0.00    -0.513 NA 
BRANCH  17  20
HETATM   20  C   UNL     1      -9.397  18.989  67.073  1.00  0.00    -0.309 C  
HETATM   21  O   UNL     1      -7.566  19.676  65.589  1.00  0.00    -0.382 OA 
HETATM   22  C   UNL     1      -8.006  19.541  66.857  1.00  0.00    -0.277 C  
HETATM   23  O   UNL     1      -7.325  19.942  67.796  1.00  0.00    -0.271 OA 
ENDBRANCH  17  20
ENDBRANCH  14  15
ENDBRANCH  13  14
ENDBRANCH   4  13
BRANCH  10  24
HETATM   24  N   UNL     1      -9.770   8.284  66.016  1.00  0.00    -0.462 N  
HETATM   25  C   UNL     1     -10.112   7.452  67.049  1.00  0.00    -0.258 C  
HETATM   26  O   UNL     1     -11.068   6.689  66.910  1.00  0.00    -0.400 OA 
HETATM   27  H   UNL     1     -10.373   8.266  65.194  1.00  0.00     0.000 HD 
BRANCH  25  28
HETATM   28  C   UNL     1      -9.284   7.492  68.324  1.00  0.00    -0.138 C  
BRANCH  28  29
HETATM   29  C   UNL     1     -10.089   7.369  69.599  1.00  0.00    -0.186 A  
HETATM   30  C   UNL     1     -10.785   8.457  70.172  1.00  0.00    -0.238 A  
HETATM   31  C   UNL     1     -11.515   8.237  71.358  1.00  0.00    -0.314 A  
HETATM   32  C   UNL     1     -10.172   6.102  70.217  1.00  0.00    -0.254 A  
HETATM   33  C   UNL     1     -11.588   6.977  71.950  1.00  0.00    -0.320 A  
HETATM   34  C   UNL     1     -10.910   5.909  71.383  1.00  0.00    -0.332 A  
BRANCH  30  35
HETATM   35  C   UNL     1     -10.721   9.860  69.596  1.00  0.00    -0.252 C  
HETATM   36  N   UNL     1     -12.018  10.337  69.116  1.00  0.00    -0.556 NA 
HETATM   37  H1  UNL     1     -11.975  11.280  68.729  1.00  0.00     0.000 HD 
HETATM   38  H2  UNL     1     -12.724  10.275  69.850  1.00  0.00     0.000 HD 
ENDBRANCH  30  35
ENDBRANCH  28  29
ENDBRANCH  25  28
ENDBRANCH  10  24
TORSDOF 8
ENDMDL
MODEL      191
REMARK 921   NORMALIZED FREE ENERGY PREDICTED BY IDOCK:   -5.43 KCAL/MOL
REMARK 922        TOTAL FREE ENERGY PREDICTED BY IDOCK:   -8.78 KCAL/MOL
REMARK 923 INTER-LIGAND FREE ENERGY PREDICTED BY IDOCK:   -7.83 KCAL/MOL
REMARK 924 INTRA-LIGAND FREE ENERGY PREDICTED BY IDOCK:   -0.96 KCAL/MOL
REMARK 927      BINDING AFFINITY PREDICTED BY RF-SCORE:    0.00 PKD
ROOT
HETATM    1  C   UNL     1      -8.818   8.577  68.167  1.00  0.00    -0.142 C  
HETATM    2  S   UNL     1      -8.762   9.120  69.888  1.00  0.00    -0.180 SA 
HETATM    3  C   UNL     1      -7.591   7.840  70.392  1.00  0.00    -0.087 C  
HETATM    4  C   UNL     1      -7.896   6.442  69.869  1.00  0.00    -0.114 C  
HETATM    5  O   UNL     1     -10.203   4.522  67.784  1.00  0.00    -0.051 OA 
HETATM    6  CA  UNL     1      -8.746   6.179  68.832  1.00  0.00    -0.123 C  
HETATM    7  N   UNL     1      -9.313   7.216  68.144  1.00  0.00    -0.130 N  
HETATM    8  O   UNL     1     -11.183   6.680  66.882  1.00  0.00    -0.391 OA 
HETATM    9  C   UNL     1      -9.053   4.749  68.440  1.00  0.00    -0.117 C  
HETATM   10  CA  UNL     1     -10.078   8.973  67.330  1.00  0.00    -0.234 C  
HETATM   11  OXT UNL     1      -8.301   3.820  68.687  1.00  0.00    -0.073 OA 
HETATM   12  C   UNL     1     -10.352   7.440  67.320  1.00  0.00    -0.286 C  
ENDROOT
BRANCH   4  13
HETATM   13  C   UNL     1      -7.241   5.377  70.747  1.00  0.00    -0.070 C  
BRANCH  13  14
HETATM   14  S   UNL     1      -8.443   4.636  71.908  1.00  0.00    -0.119 SA 
BRANCH  14  15
HETATM   15  C   UNL     1      -8.967   6.066  72.730  1.00  0.00    -0.123 A  
HETATM   16  N   UNL     1      -8.200   6.871  73.430  1.00  0.00    -0.108 NA 
HETATM   17  N   UNL     1     -10.245   6.558  72.747  1.00  0.00    -0.181 NA 
HETATM   18  N   UNL     1      -9.008   7.894  73.854  1.00  0.00    -0.269 NA 
HETATM   19  N   UNL     1     -10.246   7.734  73.416  1.00  0.00    -0.315 NA 
BRANCH  17  20
HETATM   20  C   UNL     1     -11.436   6.097  72.070  1.00  0.00    -0.313 C  
HETATM   21  O   UNL     1     -11.557   8.165  70.753  1.00  0.00    -0.283 OA 
HETATM   22  C   UNL     1     -12.230   7.144  71.322  1.00  0.00    -0.365 C  
HETATM   23  O   UNL     1     -13.440   7.028  71.155  1.00  0.00    -0.287 OA 
ENDBRANCH  17  20
ENDBRANCH  14  15
ENDBRANCH  13  14
ENDBRANCH   4  13
BRANCH  10  24
HETATM   24  N   UNL     1     -11.115   9.812  67.973  1.00  0.00    -0.506 N  
HETATM   25  C   UNL     1     -11.444  11.099  67.641  1.00  0.00    -0.250 C  
HETATM   26  O   UNL     1     -12.286  11.694  68.314  1.00  0.00    -0.525 OA 
HETATM   27  H   UNL     1     -11.638   9.389  68.740  1.00  0.00     0.000 HD 
BRANCH  25  28
HETATM   28  C   UNL     1     -10.741  11.751  66.460  1.00  0.00    -0.304 C  
BRANCH  28  29
HETATM   29  C   UNL     1     -10.015  13.037  66.793  1.00  0.00    -0.245 A  
HETATM   30  C   UNL     1      -8.644  13.073  67.132  1.00  0.00    -0.195 A  
HETATM   31  C   UNL     1      -8.057  14.323  67.417  1.00  0.00    -0.213 A  
HETATM   32  C   UNL     1     -10.736  14.248  66.726  1.00  0.00    -0.287 A  
HETATM   33  C   UNL     1      -8.786  15.509  67.341  1.00  0.00    -0.194 A  
HETATM   34  C   UNL     1     -10.129  15.472  67.002  1.00  0.00    -0.254 A  
BRANCH  30  35
HETATM   35  C   UNL     1      -7.802  11.817  67.265  1.00  0.00    -0.161 C  
HETATM   36  N   UNL     1      -6.837  11.663  66.176  1.00  0.00    -0.337 NA 
HETATM   37  H1  UNL     1      -6.271  10.818  66.264  1.00  0.00     0.000 HD 
HETATM   38  H2  UNL     1      -6.247  12.491  66.091  1.00  0.00     0.000 HD 
ENDBRANCH  30  35
ENDBRANCH  28  29
ENDBRANCH  25  28
ENDBRANCH  10  24
TORSDOF 8
ENDMDL
MODEL      192
REMARK 921   NORMALIZED FREE ENERGY PREDICTED BY IDOCK:   -5.42 KCAL/MOL
REMARK 922        TOTAL FREE ENERGY PREDICTED BY IDOCK:   -8.78 KCAL/MOL
REMARK 923 INTER-LIGAND FREE ENERGY PREDICTED BY IDOCK:   -7.54 KCAL/MOL
REMARK 924 INTRA-LIGAND FREE ENERGY PREDICTED BY IDOCK:   -1.24 KCAL/MOL
REMARK 927      BINDING AFFINITY PREDICTED BY RF-SCORE:    0.00 PKD
ROOT
HETATM    1  C   UNL     1     -11.755  11.759  67.823  1.00  0.00    -0.267 C  
HETATM    2  S   UNL     1     -11.215  12.361  69.436  1.00  0.00    -0.101 SA 
HETATM    3  C   UNL     1     -11.903  14.014  69.198  1.00  0.00    -0.350 C  
HETATM    4  C   UNL     1     -11.629  14.638  67.834  1.00  0.00    -0.373 C  
HETATM    5  O   UNL     1     -10.067  14.036  64.587  1.00  0.00    -0.358 OA 
HETATM    6  CA  UNL     1     -11.221  13.934  66.737  1.00  0.00    -0.318 C  
HETATM    7  N   UNL     1     -11.120  12.572  66.806  1.00  0.00    -0.266 N  
HETATM    8  O   UNL     1      -9.832  11.575  65.156  1.00  0.00    -0.244 OA 
HETATM    9  C   UNL     1     -10.891  14.655  65.447  1.00  0.00    -0.356 C  
HETATM   10  CA  UNL     1     -10.990  10.536  67.219  1.00  0.00    -0.260 C  
HETATM   11  OXT UNL     1     -11.347  15.752  65.167  1.00  0.00    -0.259 OA 
HETATM   12  C   UNL     1     -10.526  11.562  66.145  1.00  0.00    -0.251 C  
ENDROOT
BRANCH   4  13
HETATM   13  C   UNL     1     -11.733  16.161  67.902  1.00  0.00     0.132 C  
BRANCH  13  14
HETATM   14  S   UNL     1     -10.242  16.899  68.659  1.00  0.00    -0.321 SA 
BRANCH  14  15
HETATM   15  C   UNL     1      -9.744  17.933  67.365  1.00  0.00    -0.288 A  
HETATM   16  N   UNL     1     -10.377  19.011  66.959  1.00  0.00    -0.382 NA 
HETATM   17  N   UNL     1      -8.617  17.777  66.602  1.00  0.00    -0.249 NA 
HETATM   18  N   UNL     1      -9.611  19.549  65.957  1.00  0.00    -0.414 NA 
HETATM   19  N   UNL     1      -8.520  18.827  65.755  1.00  0.00    -0.367 NA 
BRANCH  17  20
HETATM   20  C   UNL     1      -7.548  16.809  66.697  1.00  0.00    -0.276 C  
HETATM   21  O   UNL     1      -6.407  18.149  68.408  1.00  0.00    -0.189 OA 
HETATM   22  C   UNL     1      -6.287  17.267  67.394  1.00  0.00    -0.147 C  
HETATM   23  O   UNL     1      -5.193  16.787  67.115  1.00  0.00    -0.129 OA 
ENDBRANCH  17  20
ENDBRANCH  14  15
ENDBRANCH  13  14
ENDBRANCH   4  13
BRANCH  10  24
HETATM   24  N   UNL     1      -9.915   9.911  68.025  1.00  0.00    -0.147 N  
HETATM   25  C   UNL     1      -9.287   8.723  67.764  1.00  0.00    -0.141 C  
HETATM   26  O   UNL     1      -8.455   8.298  68.565  1.00  0.00    -0.124 OA 
HETATM   27  H   UNL     1      -9.613  10.416  68.857  1.00  0.00     0.000 HD 
BRANCH  25  28
HETATM   28  C   UNL     1      -9.654   7.964  66.497  1.00  0.00    -0.281 C  
BRANCH  28  29
HETATM   29  C   UNL     1      -8.685   6.864  66.121  1.00  0.00    -0.153 A  
HETATM   30  C   UNL     1      -7.749   6.996  65.071  1.00  0.00    -0.115 A  
HETATM   31  C   UNL     1      -6.883   5.916  64.806  1.00  0.00    -0.047 A  
HETATM   32  C   UNL     1      -8.701   5.673  66.879  1.00  0.00    -0.113 A  
HETATM   33  C   UNL     1      -6.911   4.749  65.569  1.00  0.00    -0.062 A  
HETATM   34  C   UNL     1      -7.826   4.624  66.602  1.00  0.00    -0.099 A  
BRANCH  30  35
HETATM   35  C   UNL     1      -7.688   8.225  64.183  1.00  0.00    -0.138 C  
HETATM   36  N   UNL     1      -6.513   8.237  63.310  1.00  0.00    -0.081 NA 
HETATM   37  H1  UNL     1      -6.472   9.063  62.713  1.00  0.00     0.000 HD 
HETATM   38  H2  UNL     1      -6.462   7.382  62.756  1.00  0.00     0.000 HD 
ENDBRANCH  30  35
ENDBRANCH  28  29
ENDBRANCH  25  28
ENDBRANCH  10  24
TORSDOF 8
ENDMDL
MODEL      193
REMARK 921   NORMALIZED FREE ENERGY PREDICTED BY IDOCK:   -5.40 KCAL/MOL
REMARK 922        TOTAL FREE ENERGY PREDICTED BY IDOCK:   -8.74 KCAL/MOL
REMARK 923 INTER-LIGAND FREE ENERGY PREDICTED BY IDOCK:   -7.36 KCAL/MOL
REMARK 924 INTRA-LIGAND FREE ENERGY PREDICTED BY IDOCK:   -1.38 KCAL/MOL
REMARK 927      BINDING AFFINITY PREDICTED BY RF-SCORE:    0.00 PKD
ROOT
HETATM    1  C   UNL     1      -8.334  13.259  68.342  1.00  0.00    -0.131 C  
HETATM    2  S   UNL     1      -8.604  12.802  66.617  1.00  0.00     0.085 SA 
HETATM    3  C   UNL     1      -9.152  11.126  67.009  1.00  0.00    -0.153 C  
HETATM    4  C   UNL     1      -8.304  10.393  68.041  1.00  0.00    -0.118 C  
HETATM    5  O   UNL     1      -5.417  10.740  70.255  1.00  0.00    -0.057 OA 
HETATM    6  CA  UNL     1      -7.421  11.007  68.884  1.00  0.00    -0.123 C  
HETATM    7  N   UNL     1      -7.327  12.371  68.887  1.00  0.00    -0.074 N  
HETATM    8  O   UNL     1      -5.402  13.243  69.842  1.00  0.00    -0.084 OA 
HETATM    9  C   UNL     1      -6.559  10.184  69.818  1.00  0.00    -0.080 C  
HETATM   10  CA  UNL     1      -7.345  14.437  68.627  1.00  0.00    -0.123 C  
HETATM   11  OXT UNL     1      -6.867   9.062  70.186  1.00  0.00    -0.039 OA 
HETATM   12  C   UNL     1      -6.470  13.330  69.284  1.00  0.00    -0.107 C  
ENDROOT
BRANCH   4  13
HETATM   13  C   UNL     1      -8.467   8.880  67.905  1.00  0.00    -0.125 C  
BRANCH  13  14
HETATM   14  S   UNL     1     -10.229   8.392  67.957  1.00  0.00    -0.212 SA 
BRANCH  14  15
HETATM   15  C   UNL     1     -10.632   8.941  69.548  1.00  0.00    -0.228 A  
HETATM   16  N   UNL     1     -11.325  10.020  69.832  1.00  0.00    -0.254 NA 
HETATM   17  N   UNL     1     -10.298   8.316  70.720  1.00  0.00    -0.192 NA 
HETATM   18  N   UNL     1     -11.454  10.042  71.197  1.00  0.00    -0.368 NA 
HETATM   19  N   UNL     1     -10.863   8.993  71.746  1.00  0.00    -0.357 NA 
BRANCH  17  20
HETATM   20  C   UNL     1      -9.618   7.062  70.953  1.00  0.00    -0.167 C  
HETATM   21  O   UNL     1     -11.527   5.797  70.068  1.00  0.00    -0.188 OA 
HETATM   22  C   UNL     1     -10.475   5.817  70.912  1.00  0.00    -0.252 C  
HETATM   23  O   UNL     1     -10.177   4.816  71.556  1.00  0.00    -0.200 OA 
ENDBRANCH  17  20
ENDBRANCH  14  15
ENDBRANCH  13  14
ENDBRANCH   4  13
BRANCH  10  24
HETATM   24  N   UNL     1      -6.739  15.142  67.474  1.00  0.00    -0.177 N  
HETATM   25  C   UNL     1      -6.621  16.497  67.317  1.00  0.00    -0.180 C  
HETATM   26  O   UNL     1      -6.152  16.938  66.267  1.00  0.00    -0.278 OA 
HETATM   27  H   UNL     1      -6.373  14.559  66.721  1.00  0.00     0.000 HD 
BRANCH  25  28
HETATM   28  C   UNL     1      -7.090  17.406  68.441  1.00  0.00    -0.212 C  
BRANCH  28  29
HETATM   29  C   UNL     1      -8.256  18.301  68.080  1.00  0.00    -0.295 A  
HETATM   30  C   UNL     1      -8.090  19.634  67.644  1.00  0.00    -0.325 A  
HETATM   31  C   UNL     1      -9.241  20.382  67.322  1.00  0.00    -0.525 A  
HETATM   32  C   UNL     1      -9.559  17.761  68.152  1.00  0.00    -0.303 A  
HETATM   33  C   UNL     1     -10.519  19.829  67.396  1.00  0.00    -0.577 A  
HETATM   34  C   UNL     1     -10.679  18.519  67.818  1.00  0.00    -0.378 A  
BRANCH  30  35
HETATM   35  C   UNL     1      -6.732  20.306  67.573  1.00  0.00    -0.248 C  
HETATM   36  N   UNL     1      -6.190  20.632  68.893  1.00  0.00    -0.316 NA 
HETATM   37  H1  UNL     1      -5.276  21.084  68.846  1.00  0.00     0.000 HD 
HETATM   38  H2  UNL     1      -6.158  19.804  69.489  1.00  0.00     0.000 HD 
ENDBRANCH  30  35
ENDBRANCH  28  29
ENDBRANCH  25  28
ENDBRANCH  10  24
TORSDOF 8
ENDMDL
MODEL      194
REMARK 921   NORMALIZED FREE ENERGY PREDICTED BY IDOCK:   -5.39 KCAL/MOL
REMARK 922        TOTAL FREE ENERGY PREDICTED BY IDOCK:   -8.74 KCAL/MOL
REMARK 923 INTER-LIGAND FREE ENERGY PREDICTED BY IDOCK:   -7.84 KCAL/MOL
REMARK 924 INTRA-LIGAND FREE ENERGY PREDICTED BY IDOCK:   -0.89 KCAL/MOL
REMARK 927      BINDING AFFINITY PREDICTED BY RF-SCORE:    0.00 PKD
ROOT
HETATM    1  C   UNL     1      -9.933  12.445  68.119  1.00  0.00    -0.215 C  
HETATM    2  S   UNL     1     -10.725  11.463  66.829  1.00  0.00    -0.281 SA 
HETATM    3  C   UNL     1     -10.129   9.886  67.479  1.00  0.00    -0.197 C  
HETATM    4  C   UNL     1      -8.661   9.870  67.889  1.00  0.00    -0.125 C  
HETATM    5  O   UNL     1      -5.661  11.939  68.158  1.00  0.00    -0.046 OA 
HETATM    6  CA  UNL     1      -7.912  10.993  68.104  1.00  0.00    -0.119 C  
HETATM    7  N   UNL     1      -8.504  12.223  68.037  1.00  0.00    -0.163 N  
HETATM    8  O   UNL     1      -7.061  14.019  67.771  1.00  0.00    -0.140 OA 
HETATM    9  C   UNL     1      -6.437  10.876  68.425  1.00  0.00    -0.057 C  
HETATM   10  CA  UNL     1      -9.644  13.949  67.800  1.00  0.00    -0.222 C  
HETATM   11  OXT UNL     1      -5.944   9.873  68.916  1.00  0.00    -0.038 OA 
HETATM   12  C   UNL     1      -8.152  13.513  67.886  1.00  0.00    -0.165 C  
ENDROOT
BRANCH   4  13
HETATM   13  C   UNL     1      -8.110   8.445  67.886  1.00  0.00    -0.123 C  
BRANCH  13  14
HETATM   14  S   UNL     1      -8.246   7.673  69.537  1.00  0.00    -0.130 SA 
BRANCH  14  15
HETATM   15  C   UNL     1      -8.193   6.004  69.080  1.00  0.00    -0.108 A  
HETATM   16  N   UNL     1      -7.233   5.429  68.392  1.00  0.00    -0.069 NA 
HETATM   17  N   UNL     1      -9.135   5.059  69.387  1.00  0.00    -0.099 NA 
HETATM   18  N   UNL     1      -7.568   4.103  68.305  1.00  0.00    -0.067 NA 
HETATM   19  N   UNL     1      -8.706   3.858  68.936  1.00  0.00    -0.088 NA 
BRANCH  17  20
HETATM   20  C   UNL     1     -10.333   5.156  70.191  1.00  0.00    -0.270 C  
HETATM   21  O   UNL     1     -11.445   6.512  68.473  1.00  0.00    -0.193 OA 
HETATM   22  C   UNL     1     -11.329   6.219  69.785  1.00  0.00    -0.436 C  
HETATM   23  O   UNL     1     -12.078   6.738  70.605  1.00  0.00    -0.392 OA 
ENDBRANCH  17  20
ENDBRANCH  14  15
ENDBRANCH  13  14
ENDBRANCH   4  13
BRANCH  10  24
HETATM   24  N   UNL     1     -10.086  14.490  66.494  1.00  0.00    -0.266 N  
HETATM   25  C   UNL     1     -10.110  15.807  66.123  1.00  0.00    -0.318 C  
HETATM   26  O   UNL     1     -10.570  16.110  65.021  1.00  0.00    -0.588 OA 
HETATM   27  H   UNL     1     -10.405  13.812  65.801  1.00  0.00     0.000 HD 
BRANCH  25  28
HETATM   28  C   UNL     1      -9.581  16.850  67.095  1.00  0.00    -0.245 C  
BRANCH  28  29
HETATM   29  C   UNL     1      -8.398  17.644  66.582  1.00  0.00    -0.288 A  
HETATM   30  C   UNL     1      -8.490  19.008  66.226  1.00  0.00    -0.289 A  
HETATM   31  C   UNL     1      -7.328  19.661  65.768  1.00  0.00    -0.320 A  
HETATM   32  C   UNL     1      -7.148  16.996  66.492  1.00  0.00    -0.307 A  
HETATM   33  C   UNL     1      -6.101  19.004  65.690  1.00  0.00    -0.251 A  
HETATM   34  C   UNL     1      -6.011  17.667  66.046  1.00  0.00    -0.223 A  
BRANCH  30  35
HETATM   35  C   UNL     1      -9.801  19.772  66.256  1.00  0.00    -0.455 C  
HETATM   36  N   UNL     1      -9.854  20.766  67.328  1.00  0.00    -0.552 NA 
HETATM   37  H1  UNL     1     -10.736  21.281  67.349  1.00  0.00     0.000 HD 
HETATM   38  H2  UNL     1      -9.060  21.405  67.274  1.00  0.00     0.000 HD 
ENDBRANCH  30  35
ENDBRANCH  28  29
ENDBRANCH  25  28
ENDBRANCH  10  24
TORSDOF 8
ENDMDL
MODEL      195
REMARK 921   NORMALIZED FREE ENERGY PREDICTED BY IDOCK:   -5.39 KCAL/MOL
REMARK 922        TOTAL FREE ENERGY PREDICTED BY IDOCK:   -8.73 KCAL/MOL
REMARK 923 INTER-LIGAND FREE ENERGY PREDICTED BY IDOCK:   -7.41 KCAL/MOL
REMARK 924 INTRA-LIGAND FREE ENERGY PREDICTED BY IDOCK:   -1.33 KCAL/MOL
REMARK 927      BINDING AFFINITY PREDICTED BY RF-SCORE:    0.00 PKD
ROOT
HETATM    1  C   UNL     1     -10.533   7.304  68.278  1.00  0.00    -0.199 C  
HETATM    2  S   UNL     1      -9.382   6.022  68.815  1.00  0.00    -0.122 SA 
HETATM    3  C   UNL     1     -10.486   5.379  70.091  1.00  0.00    -0.290 C  
HETATM    4  C   UNL     1     -11.165   6.437  70.952  1.00  0.00    -0.384 C  
HETATM    5  O   UNL     1     -11.516  10.041  71.448  1.00  0.00    -0.360 OA 
HETATM    6  CA  UNL     1     -11.251   7.759  70.617  1.00  0.00    -0.268 C  
HETATM    7  N   UNL     1     -10.784   8.180  69.403  1.00  0.00    -0.199 N  
HETATM    8  O   UNL     1     -10.388  10.457  69.214  1.00  0.00    -0.204 OA 
HETATM    9  C   UNL     1     -11.869   8.752  71.579  1.00  0.00    -0.311 C  
HETATM   10  CA  UNL     1      -9.933   8.544  67.538  1.00  0.00    -0.200 C  
HETATM   11  OXT UNL     1     -12.667   8.426  72.443  1.00  0.00    -0.344 OA 
HETATM   12  C   UNL     1     -10.406   9.322  68.800  1.00  0.00    -0.211 C  
ENDROOT
BRANCH   4  13
HETATM   13  C   UNL     1     -11.602   5.850  72.294  1.00  0.00    -0.282 C  
BRANCH  13  14
HETATM   14  S   UNL     1     -10.367   6.180  73.601  1.00  0.00    -0.286 SA 
BRANCH  14  15
HETATM   15  C   UNL     1      -9.485   4.693  73.545  1.00  0.00    -0.121 A  
HETATM   16  N   UNL     1      -9.993   3.510  73.283  1.00  0.00    -0.120 NA 
HETATM   17  N   UNL     1      -8.138   4.552  73.749  1.00  0.00    -0.100 NA 
HETATM   18  N   UNL     1      -8.940   2.632  73.288  1.00  0.00    -0.078 NA 
HETATM   19  N   UNL     1      -7.801   3.259  73.536  1.00  0.00    -0.068 NA 
BRANCH  17  20
HETATM   20  C   UNL     1      -7.117   5.548  73.985  1.00  0.00    -0.082 C  
HETATM   21  O   UNL     1      -7.064   6.141  71.603  1.00  0.00    -0.077 OA 
HETATM   22  C   UNL     1      -6.383   6.058  72.765  1.00  0.00    -0.062 C  
HETATM   23  O   UNL     1      -5.232   6.473  72.840  1.00  0.00    -0.034 OA 
ENDBRANCH  17  20
ENDBRANCH  14  15
ENDBRANCH  13  14
ENDBRANCH   4  13
BRANCH  10  24
HETATM   24  N   UNL     1      -8.476   8.568  67.271  1.00  0.00    -0.122 N  
HETATM   25  C   UNL     1      -7.740   9.647  66.860  1.00  0.00    -0.098 C  
HETATM   26  O   UNL     1      -6.544   9.494  66.613  1.00  0.00    -0.066 OA 
HETATM   27  H   UNL     1      -7.971   7.692  67.406  1.00  0.00     0.000 HD 
BRANCH  25  28
HETATM   28  C   UNL     1      -8.435  10.991  66.710  1.00  0.00    -0.148 C  
BRANCH  28  29
HETATM   29  C   UNL     1      -9.255  11.136  65.446  1.00  0.00    -0.225 A  
HETATM   30  C   UNL     1     -10.395  11.966  65.366  1.00  0.00    -0.306 A  
HETATM   31  C   UNL     1     -11.086  12.040  64.139  1.00  0.00    -0.431 A  
HETATM   32  C   UNL     1      -8.836  10.436  64.294  1.00  0.00    -0.224 A  
HETATM   33  C   UNL     1     -10.653  11.344  63.012  1.00  0.00    -0.164 A  
HETATM   34  C   UNL     1      -9.530  10.534  63.090  1.00  0.00    -0.367 A  
BRANCH  30  35
HETATM   35  C   UNL     1     -10.938  12.724  66.563  1.00  0.00    -0.262 C  
HETATM   36  N   UNL     1     -12.029  12.017  67.236  1.00  0.00    -0.590 NA 
HETATM   37  H1  UNL     1     -12.394  12.527  68.041  1.00  0.00     0.000 HD 
HETATM   38  H2  UNL     1     -11.745  11.073  67.499  1.00  0.00     0.000 HD 
ENDBRANCH  30  35
ENDBRANCH  28  29
ENDBRANCH  25  28
ENDBRANCH  10  24
TORSDOF 8
ENDMDL
MODEL      196
REMARK 921   NORMALIZED FREE ENERGY PREDICTED BY IDOCK:   -5.38 KCAL/MOL
REMARK 922        TOTAL FREE ENERGY PREDICTED BY IDOCK:   -8.72 KCAL/MOL
REMARK 923 INTER-LIGAND FREE ENERGY PREDICTED BY IDOCK:   -8.86 KCAL/MOL
REMARK 924 INTRA-LIGAND FREE ENERGY PREDICTED BY IDOCK:    0.14 KCAL/MOL
REMARK 927      BINDING AFFINITY PREDICTED BY RF-SCORE:    0.00 PKD
ROOT
HETATM    1  C   UNL     1     -11.496  14.265  66.239  1.00  0.00    -0.357 C  
HETATM    2  S   UNL     1     -10.371  12.942  65.750  1.00  0.00    -0.286 SA 
HETATM    3  C   UNL     1     -11.295  11.655  66.618  1.00  0.00    -0.270 C  
HETATM    4  C   UNL     1     -11.741  12.020  68.029  1.00  0.00    -0.398 C  
HETATM    5  O   UNL     1     -11.737  14.700  70.512  1.00  0.00    -0.271 OA 
HETATM    6  CA  UNL     1     -11.783  13.297  68.514  1.00  0.00    -0.352 C  
HETATM    7  N   UNL     1     -11.492  14.344  67.685  1.00  0.00    -0.328 N  
HETATM    8  O   UNL     1     -10.965  16.342  68.739  1.00  0.00    -0.313 OA 
HETATM    9  C   UNL     1     -12.158  13.552  69.958  1.00  0.00    -0.341 C  
HETATM   10  CA  UNL     1     -10.936  15.725  66.229  1.00  0.00    -0.163 C  
HETATM   11  OXT UNL     1     -12.826  12.770  70.616  1.00  0.00    -0.112 OA 
HETATM   12  C   UNL     1     -11.135  15.639  67.771  1.00  0.00    -0.311 C  
ENDROOT
BRANCH   4  13
HETATM   13  C   UNL     1     -11.994  10.764  68.862  1.00  0.00    -0.139 C  
BRANCH  13  14
HETATM   14  S   UNL     1     -10.509  10.285  69.814  1.00  0.00    -0.244 SA 
BRANCH  14  15
HETATM   15  C   UNL     1     -10.395   8.622  69.351  1.00  0.00    -0.218 A  
HETATM   16  N   UNL     1     -10.897   8.096  68.257  1.00  0.00     0.001 NA 
HETATM   17  N   UNL     1      -9.752   7.637  70.053  1.00  0.00    -0.172 NA 
HETATM   18  N   UNL     1     -10.528   6.775  68.264  1.00  0.00    -0.190 NA 
HETATM   19  N   UNL     1      -9.801   6.492  69.334  1.00  0.00    -0.145 NA 
BRANCH  17  20
HETATM   20  C   UNL     1      -8.972   7.708  71.268  1.00  0.00    -0.133 C  
HETATM   21  O   UNL     1     -11.008   7.791  72.637  1.00  0.00    -0.303 OA 
HETATM   22  C   UNL     1      -9.711   8.141  72.514  1.00  0.00    -0.287 C  
HETATM   23  O   UNL     1      -9.134   8.713  73.432  1.00  0.00    -0.209 OA 
ENDBRANCH  17  20
ENDBRANCH  14  15
ENDBRANCH  13  14
ENDBRANCH   4  13
BRANCH  10  24
HETATM   24  N   UNL     1      -9.545  15.942  65.767  1.00  0.00    -0.330 N  
HETATM   25  C   UNL     1      -8.650  16.848  66.272  1.00  0.00    -0.284 C  
HETATM   26  O   UNL     1      -7.547  16.959  65.737  1.00  0.00    -0.206 OA 
HETATM   27  H   UNL     1      -9.222  15.359  64.996  1.00  0.00     0.000 HD 
BRANCH  25  28
HETATM   28  C   UNL     1      -9.062  17.693  67.467  1.00  0.00    -0.239 C  
BRANCH  28  29
HETATM   29  C   UNL     1      -7.921  18.427  68.139  1.00  0.00    -0.303 A  
HETATM   30  C   UNL     1      -7.607  19.775  67.856  1.00  0.00    -0.331 A  
HETATM   31  C   UNL     1      -6.531  20.372  68.543  1.00  0.00    -0.330 A  
HETATM   32  C   UNL     1      -7.167  17.739  69.115  1.00  0.00    -0.147 A  
HETATM   33  C   UNL     1      -5.801  19.676  69.506  1.00  0.00    -0.294 A  
HETATM   34  C   UNL     1      -6.115  18.356  69.788  1.00  0.00    -0.225 A  
BRANCH  30  35
HETATM   35  C   UNL     1      -8.340  20.578  66.797  1.00  0.00    -0.137 C  
HETATM   36  N   UNL     1      -7.709  20.490  65.479  1.00  0.00    -0.489 NA 
HETATM   37  H1  UNL     1      -8.201  21.030  64.767  1.00  0.00     0.000 HD 
HETATM   38  H2  UNL     1      -7.600  19.517  65.191  1.00  0.00     0.000 HD 
ENDBRANCH  30  35
ENDBRANCH  28  29
ENDBRANCH  25  28
ENDBRANCH  10  24
TORSDOF 8
ENDMDL
MODEL      197
REMARK 921   NORMALIZED FREE ENERGY PREDICTED BY IDOCK:   -5.37 KCAL/MOL
REMARK 922        TOTAL FREE ENERGY PREDICTED BY IDOCK:   -8.70 KCAL/MOL
REMARK 923 INTER-LIGAND FREE ENERGY PREDICTED BY IDOCK:   -9.11 KCAL/MOL
REMARK 924 INTRA-LIGAND FREE ENERGY PREDICTED BY IDOCK:    0.41 KCAL/MOL
REMARK 927      BINDING AFFINITY PREDICTED BY RF-SCORE:    0.00 PKD
ROOT
HETATM    1  C   UNL     1      -8.615   8.617  67.009  1.00  0.00    -0.117 C  
HETATM    2  S   UNL     1     -10.227   9.258  66.511  1.00  0.00    -0.208 SA 
HETATM    3  C   UNL     1      -9.609  10.921  66.172  1.00  0.00    -0.202 C  
HETATM    4  C   UNL     1      -8.670  11.490  67.229  1.00  0.00    -0.151 C  
HETATM    5  O   UNL     1      -6.996  10.733  70.387  1.00  0.00    -0.252 OA 
HETATM    6  CA  UNL     1      -8.038  10.738  68.178  1.00  0.00    -0.117 C  
HETATM    7  N   UNL     1      -8.167   9.377  68.158  1.00  0.00    -0.117 N  
HETATM    8  O   UNL     1      -7.618   8.287  70.130  1.00  0.00    -0.072 OA 
HETATM    9  C   UNL     1      -7.191  11.405  69.241  1.00  0.00    -0.075 C  
HETATM   10  CA  UNL     1      -8.597   7.353  67.929  1.00  0.00    -0.125 C  
HETATM   11  OXT UNL     1      -6.683  12.505  69.088  1.00  0.00    -0.103 OA 
HETATM   12  C   UNL     1      -8.000   8.328  68.985  1.00  0.00    -0.112 C  
ENDROOT
BRANCH   4  13
HETATM   13  C   UNL     1      -8.648  13.017  67.172  1.00  0.00    -0.195 C  
BRANCH  13  14
HETATM   14  S   UNL     1     -10.259  13.727  67.663  1.00  0.00    -0.245 SA 
BRANCH  14  15
HETATM   15  C   UNL     1     -10.629  14.620  66.228  1.00  0.00    -0.306 A  
HETATM   16  N   UNL     1     -11.010  14.103  65.082  1.00  0.00    -0.336 NA 
HETATM   17  N   UNL     1     -10.591  15.983  66.100  1.00  0.00    -0.313 NA 
HETATM   18  N   UNL     1     -11.246  15.163  64.245  1.00  0.00    -0.127 NA 
HETATM   19  N   UNL     1     -11.029  16.313  64.863  1.00  0.00    -0.608 NA 
BRANCH  17  20
HETATM   20  C   UNL     1     -10.319  17.009  67.080  1.00  0.00    -0.305 C  
HETATM   21  O   UNL     1      -8.255  17.653  65.917  1.00  0.00    -0.534 OA 
HETATM   22  C   UNL     1      -8.915  17.571  67.091  1.00  0.00    -0.238 C  
HETATM   23  O   UNL     1      -8.417  18.026  68.116  1.00  0.00    -0.254 OA 
ENDBRANCH  17  20
ENDBRANCH  14  15
ENDBRANCH  13  14
ENDBRANCH   4  13
BRANCH  10  24
HETATM   24  N   UNL     1      -9.890   6.724  68.287  1.00  0.00    -0.140 N  
HETATM   25  C   UNL     1     -10.637   6.977  69.406  1.00  0.00    -0.230 C  
HETATM   26  O   UNL     1     -11.662   6.324  69.600  1.00  0.00    -0.382 OA 
HETATM   27  H   UNL     1     -10.261   6.034  67.634  1.00  0.00     0.000 HD 
BRANCH  25  28
HETATM   28  C   UNL     1     -10.161   8.047  70.376  1.00  0.00    -0.201 C  
BRANCH  28  29
HETATM   29  C   UNL     1     -11.195   9.103  70.704  1.00  0.00    -0.322 A  
HETATM   30  C   UNL     1     -12.104   8.975  71.778  1.00  0.00    -0.438 A  
HETATM   31  C   UNL     1     -13.023  10.020  72.006  1.00  0.00    -0.514 A  
HETATM   32  C   UNL     1     -11.222  10.277  69.920  1.00  0.00    -0.360 A  
HETATM   33  C   UNL     1     -13.031  11.173  71.223  1.00  0.00    -0.457 A  
HETATM   34  C   UNL     1     -12.134  11.299  70.173  1.00  0.00    -0.448 A  
BRANCH  30  35
HETATM   35  C   UNL     1     -12.170   7.734  72.647  1.00  0.00    -0.070 C  
HETATM   36  N   UNL     1     -11.140   7.713  73.687  1.00  0.00    -0.442 NA 
HETATM   37  H1  UNL     1     -11.184   6.878  74.272  1.00  0.00     0.000 HD 
HETATM   38  H2  UNL     1     -11.179   8.559  74.255  1.00  0.00     0.000 HD 
ENDBRANCH  30  35
ENDBRANCH  28  29
ENDBRANCH  25  28
ENDBRANCH  10  24
TORSDOF 8
ENDMDL
MODEL      198
REMARK 921   NORMALIZED FREE ENERGY PREDICTED BY IDOCK:   -5.37 KCAL/MOL
REMARK 922        TOTAL FREE ENERGY PREDICTED BY IDOCK:   -8.70 KCAL/MOL
REMARK 923 INTER-LIGAND FREE ENERGY PREDICTED BY IDOCK:   -7.41 KCAL/MOL
REMARK 924 INTRA-LIGAND FREE ENERGY PREDICTED BY IDOCK:   -1.29 KCAL/MOL
REMARK 927      BINDING AFFINITY PREDICTED BY RF-SCORE:    0.00 PKD
ROOT
HETATM    1  C   UNL     1      -8.984  11.262  65.970  1.00  0.00    -0.200 C  
HETATM    2  S   UNL     1     -10.648  11.953  66.074  1.00  0.00    -0.276 SA 
HETATM    3  C   UNL     1     -10.072  13.640  66.371  1.00  0.00    -0.295 C  
HETATM    4  C   UNL     1      -8.948  13.769  67.392  1.00  0.00    -0.224 C  
HETATM    5  O   UNL     1      -6.744  11.860  69.594  1.00  0.00    -0.098 OA 
HETATM    6  CA  UNL     1      -8.168  12.727  67.809  1.00  0.00    -0.176 C  
HETATM    7  N   UNL     1      -8.323  11.495  67.238  1.00  0.00    -0.147 N  
HETATM    8  O   UNL     1      -7.446   9.714  68.437  1.00  0.00    -0.079 OA 
HETATM    9  C   UNL     1      -7.131  12.937  68.893  1.00  0.00    -0.063 C  
HETATM   10  CA  UNL     1      -8.823   9.732  66.250  1.00  0.00    -0.147 C  
HETATM   11  OXT UNL     1      -6.640  14.028  69.136  1.00  0.00    -0.102 OA 
HETATM   12  C   UNL     1      -8.028  10.209  67.500  1.00  0.00    -0.106 C  
ENDROOT
BRANCH   4  13
HETATM   13  C   UNL     1      -8.908  15.177  67.984  1.00  0.00    -0.170 C  
BRANCH  13  14
HETATM   14  S   UNL     1      -8.286  16.394  66.770  1.00  0.00    -0.282 SA 
BRANCH  14  15
HETATM   15  C   UNL     1      -7.661  17.588  67.855  1.00  0.00    -0.204 A  
HETATM   16  N   UNL     1      -6.920  17.349  68.913  1.00  0.00    -0.235 NA 
HETATM   17  N   UNL     1      -7.840  18.942  67.746  1.00  0.00    -0.240 NA 
HETATM   18  N   UNL     1      -6.607  18.573  69.444  1.00  0.00    -0.247 NA 
HETATM   19  N   UNL     1      -7.132  19.551  68.724  1.00  0.00    -0.335 NA 
BRANCH  17  20
HETATM   20  C   UNL     1      -8.500  19.721  66.723  1.00  0.00    -0.321 C  
HETATM   21  O   UNL     1     -10.590  19.748  68.009  1.00  0.00    -0.418 OA 
HETATM   22  C   UNL     1     -10.009  19.779  66.792  1.00  0.00    -0.427 C  
HETATM   23  O   UNL     1     -10.689  19.942  65.785  1.00  0.00    -0.479 OA 
ENDBRANCH  17  20
ENDBRANCH  14  15
ENDBRANCH  13  14
ENDBRANCH   4  13
BRANCH  10  24
HETATM   24  N   UNL     1     -10.041   8.934  66.523  1.00  0.00    -0.292 N  
HETATM   25  C   UNL     1     -10.098   7.586  66.754  1.00  0.00    -0.243 C  
HETATM   26  O   UNL     1     -11.197   7.050  66.900  1.00  0.00    -0.302 OA 
HETATM   27  H   UNL     1     -10.926   9.441  66.543  1.00  0.00     0.000 HD 
BRANCH  25  28
HETATM   28  C   UNL     1      -8.799   6.797  66.803  1.00  0.00    -0.127 C  
BRANCH  28  29
HETATM   29  C   UNL     1      -8.725   5.779  67.921  1.00  0.00    -0.103 A  
HETATM   30  C   UNL     1      -8.717   4.386  67.686  1.00  0.00    -0.113 A  
HETATM   31  C   UNL     1      -8.636   3.520  68.795  1.00  0.00    -0.120 A  
HETATM   32  C   UNL     1      -8.623   6.250  69.248  1.00  0.00    -0.124 A  
HETATM   33  C   UNL     1      -8.532   4.005  70.098  1.00  0.00    -0.093 A  
HETATM   34  C   UNL     1      -8.533   5.373  70.326  1.00  0.00    -0.119 A  
BRANCH  30  35
HETATM   35  C   UNL     1      -8.860   3.792  66.297  1.00  0.00    -0.128 C  
HETATM   36  N   UNL     1     -10.256   3.630  65.889  1.00  0.00    -0.373 NA 
HETATM   37  H1  UNL     1     -10.352   3.231  64.955  1.00  0.00     0.000 HD 
HETATM   38  H2  UNL     1     -10.763   4.513  65.964  1.00  0.00     0.000 HD 
ENDBRANCH  30  35
ENDBRANCH  28  29
ENDBRANCH  25  28
ENDBRANCH  10  24
TORSDOF 8
ENDMDL
MODEL      199
REMARK 921   NORMALIZED FREE ENERGY PREDICTED BY IDOCK:   -5.37 KCAL/MOL
REMARK 922        TOTAL FREE ENERGY PREDICTED BY IDOCK:   -8.70 KCAL/MOL
REMARK 923 INTER-LIGAND FREE ENERGY PREDICTED BY IDOCK:   -9.76 KCAL/MOL
REMARK 924 INTRA-LIGAND FREE ENERGY PREDICTED BY IDOCK:    1.06 KCAL/MOL
REMARK 927      BINDING AFFINITY PREDICTED BY RF-SCORE:    0.00 PKD
ROOT
HETATM    1  C   UNL     1     -11.773  12.194  66.230  1.00  0.00    -0.320 C  
HETATM    2  S   UNL     1     -10.127  11.564  65.843  1.00  0.00    -0.242 SA 
HETATM    3  C   UNL     1     -10.212  10.222  67.049  1.00  0.00    -0.228 C  
HETATM    4  C   UNL     1     -10.757  10.617  68.417  1.00  0.00    -0.260 C  
HETATM    5  O   UNL     1     -12.126  13.403  70.344  1.00  0.00    -0.340 OA 
HETATM    6  CA  UNL     1     -11.459  11.763  68.661  1.00  0.00    -0.288 C  
HETATM    7  N   UNL     1     -11.784  12.591  67.623  1.00  0.00    -0.360 N  
HETATM    8  O   UNL     1     -12.375  14.755  68.211  1.00  0.00    -0.109 OA 
HETATM    9  C   UNL     1     -11.886  12.110  70.072  1.00  0.00    -0.306 C  
HETATM   10  CA  UNL     1     -12.072  13.688  65.877  1.00  0.00    -0.439 C  
HETATM   11  OXT UNL     1     -12.024  11.270  70.947  1.00  0.00    -0.326 OA 
HETATM   12  C   UNL     1     -12.165  13.865  67.421  1.00  0.00    -0.256 C  
ENDROOT
BRANCH   4  13
HETATM   13  C   UNL     1     -10.290   9.637  69.492  1.00  0.00    -0.221 C  
BRANCH  13  14
HETATM   14  S   UNL     1      -9.637   8.097  68.754  1.00  0.00    -0.151 SA 
BRANCH  14  15
HETATM   15  C   UNL     1      -9.581   7.101  70.169  1.00  0.00    -0.168 A  
HETATM   16  N   UNL     1      -8.493   6.757  70.820  1.00  0.00    -0.132 NA 
HETATM   17  N   UNL     1     -10.662   6.554  70.806  1.00  0.00    -0.230 NA 
HETATM   18  N   UNL     1      -8.911   6.018  71.897  1.00  0.00    -0.138 NA 
HETATM   19  N   UNL     1     -10.231   5.916  71.918  1.00  0.00    -0.198 NA 
BRANCH  17  20
HETATM   20  C   UNL     1     -12.077   6.697  70.543  1.00  0.00    -0.240 C  
HETATM   21  O   UNL     1     -12.228   8.603  72.082  1.00  0.00    -0.343 OA 
HETATM   22  C   UNL     1     -12.856   7.553  71.516  1.00  0.00    -0.360 C  
HETATM   23  O   UNL     1     -14.050   7.360  71.721  1.00  0.00    -0.395 OA 
ENDBRANCH  17  20
ENDBRANCH  14  15
ENDBRANCH  13  14
ENDBRANCH   4  13
BRANCH  10  24
HETATM   24  N   UNL     1     -11.016  14.476  65.198  1.00  0.00    -0.355 N  
HETATM   25  C   UNL     1     -10.355  15.562  65.706  1.00  0.00    -0.363 C  
HETATM   26  O   UNL     1      -9.547  16.156  64.994  1.00  0.00    -0.130 OA 
HETATM   27  H   UNL     1     -10.756  14.179  64.258  1.00  0.00     0.000 HD 
BRANCH  25  28
HETATM   28  C   UNL     1     -10.659  16.002  67.130  1.00  0.00    -0.305 C  
BRANCH  28  29
HETATM   29  C   UNL     1      -9.966  17.279  67.554  1.00  0.00    -0.296 A  
HETATM   30  C   UNL     1      -8.637  17.305  68.034  1.00  0.00    -0.234 A  
HETATM   31  C   UNL     1      -8.079  18.548  68.394  1.00  0.00    -0.346 A  
HETATM   32  C   UNL     1     -10.672  18.495  67.427  1.00  0.00    -0.424 A  
HETATM   33  C   UNL     1      -8.791  19.738  68.258  1.00  0.00    -0.329 A  
HETATM   34  C   UNL     1     -10.093  19.712  67.781  1.00  0.00    -0.538 A  
BRANCH  30  35
HETATM   35  C   UNL     1      -7.819  16.043  68.237  1.00  0.00    -0.144 C  
HETATM   36  N   UNL     1      -7.024  15.686  67.061  1.00  0.00    -0.246 NA 
HETATM   37  H1  UNL     1      -6.474  14.838  67.198  1.00  0.00     0.000 HD 
HETATM   38  H2  UNL     1      -6.431  16.464  66.773  1.00  0.00     0.000 HD 
ENDBRANCH  30  35
ENDBRANCH  28  29
ENDBRANCH  25  28
ENDBRANCH  10  24
TORSDOF 8
ENDMDL
MODEL      200
REMARK 921   NORMALIZED FREE ENERGY PREDICTED BY IDOCK:   -5.35 KCAL/MOL
REMARK 922        TOTAL FREE ENERGY PREDICTED BY IDOCK:   -8.67 KCAL/MOL
REMARK 923 INTER-LIGAND FREE ENERGY PREDICTED BY IDOCK:   -7.14 KCAL/MOL
REMARK 924 INTRA-LIGAND FREE ENERGY PREDICTED BY IDOCK:   -1.53 KCAL/MOL
REMARK 927      BINDING AFFINITY PREDICTED BY RF-SCORE:    0.00 PKD
ROOT
HETATM    1  C   UNL     1      -9.196   8.710  70.025  1.00  0.00    -0.157 C  
HETATM    2  S   UNL     1      -9.524   8.575  71.795  1.00  0.00    -0.282 SA 
HETATM    3  C   UNL     1      -8.092   7.522  72.115  1.00  0.00    -0.102 C  
HETATM    4  C   UNL     1      -7.890   6.386  71.119  1.00  0.00    -0.114 C  
HETATM    5  O   UNL     1      -9.223   4.878  68.069  1.00  0.00    -0.114 OA 
HETATM    6  CA  UNL     1      -8.483   6.329  69.889  1.00  0.00    -0.130 C  
HETATM    7  N   UNL     1      -9.246   7.378  69.458  1.00  0.00    -0.146 N  
HETATM    8  O   UNL     1     -10.692   6.915  67.705  1.00  0.00    -0.230 OA 
HETATM    9  C   UNL     1      -8.289   5.116  69.004  1.00  0.00    -0.087 C  
HETATM   10  CA  UNL     1     -10.401   9.073  69.096  1.00  0.00    -0.219 C  
HETATM   11  OXT UNL     1      -7.327   4.372  69.104  1.00  0.00    -0.054 OA 
HETATM   12  C   UNL     1     -10.193   7.635  68.537  1.00  0.00    -0.199 C  
ENDROOT
BRANCH   4  13
HETATM   13  C   UNL     1      -7.058   5.262  71.736  1.00  0.00    -0.075 C  
BRANCH  13  14
HETATM   14  S   UNL     1      -7.033   5.375  73.561  1.00  0.00    -0.086 SA 
BRANCH  14  15
HETATM   15  C   UNL     1      -7.551   3.771  73.954  1.00  0.00    -0.074 A  
HETATM   16  N   UNL     1      -6.762   2.751  74.202  1.00  0.00    -0.029 NA 
HETATM   17  N   UNL     1      -8.851   3.356  74.077  1.00  0.00    -0.087 NA 
HETATM   18  N   UNL     1      -7.584   1.700  74.518  1.00  0.00    -0.032 NA 
HETATM   19  N   UNL     1      -8.855   2.065  74.479  1.00  0.00    -0.061 NA 
BRANCH  17  20
HETATM   20  C   UNL     1     -10.085   4.103  73.989  1.00  0.00    -0.158 C  
HETATM   21  O   UNL     1     -10.258   3.647  71.583  1.00  0.00    -0.112 OA 
HETATM   22  C   UNL     1     -10.539   4.488  72.599  1.00  0.00    -0.179 C  
HETATM   23  O   UNL     1     -11.222   5.489  72.405  1.00  0.00    -0.260 OA 
ENDBRANCH  17  20
ENDBRANCH  14  15
ENDBRANCH  13  14
ENDBRANCH   4  13
BRANCH  10  24
HETATM   24  N   UNL     1     -11.716   9.340  69.722  1.00  0.00    -0.419 N  
HETATM   25  C   UNL     1     -12.168  10.546  70.187  1.00  0.00    -0.280 C  
HETATM   26  O   UNL     1     -13.264  10.599  70.746  1.00  0.00    -0.293 OA 
HETATM   27  H   UNL     1     -12.350   8.546  69.817  1.00  0.00     0.000 HD 
BRANCH  25  28
HETATM   28  C   UNL     1     -11.289  11.774  70.008  1.00  0.00    -0.130 C  
BRANCH  28  29
HETATM   29  C   UNL     1     -11.602  12.595  68.775  1.00  0.00    -0.355 A  
HETATM   30  C   UNL     1     -11.795  13.994  68.817  1.00  0.00    -0.396 A  
HETATM   31  C   UNL     1     -12.072  14.669  67.611  1.00  0.00    -0.216 A  
HETATM   32  C   UNL     1     -11.666  11.933  67.530  1.00  0.00    -0.335 A  
HETATM   33  C   UNL     1     -12.127  13.997  66.391  1.00  0.00    -0.483 A  
HETATM   34  C   UNL     1     -11.931  12.625  66.351  1.00  0.00    -0.425 A  
BRANCH  30  35
HETATM   35  C   UNL     1     -11.781  14.780  70.115  1.00  0.00    -0.301 C  
HETATM   36  N   UNL     1     -10.437  15.208  70.506  1.00  0.00    -0.519 NA 
HETATM   37  H1  UNL     1     -10.427  15.736  71.379  1.00  0.00     0.000 HD 
HETATM   38  H2  UNL     1      -9.989  15.733  69.755  1.00  0.00     0.000 HD 
ENDBRANCH  30  35
ENDBRANCH  28  29
ENDBRANCH  25  28
ENDBRANCH  10  24
TORSDOF 8
ENDMDL
MODEL      201
REMARK 921   NORMALIZED FREE ENERGY PREDICTED BY IDOCK:   -5.35 KCAL/MOL
REMARK 922        TOTAL FREE ENERGY PREDICTED BY IDOCK:   -8.67 KCAL/MOL
REMARK 923 INTER-LIGAND FREE ENERGY PREDICTED BY IDOCK:   -7.33 KCAL/MOL
REMARK 924 INTRA-LIGAND FREE ENERGY PREDICTED BY IDOCK:   -1.34 KCAL/MOL
REMARK 927      BINDING AFFINITY PREDICTED BY RF-SCORE:    0.00 PKD
ROOT
HETATM    1  C   UNL     1      -9.223   7.237  68.243  1.00  0.00    -0.133 C  
HETATM    2  S   UNL     1     -10.238   8.152  67.065  1.00  0.00    -0.325 SA 
HETATM    3  C   UNL     1     -10.334   9.633  68.095  1.00  0.00    -0.209 C  
HETATM    4  C   UNL     1     -10.625   9.377  69.569  1.00  0.00    -0.237 C  
HETATM    5  O   UNL     1     -11.182   6.745  72.042  1.00  0.00    -0.244 OA 
HETATM    6  CA  UNL     1     -10.484   8.163  70.179  1.00  0.00    -0.225 C  
HETATM    7  N   UNL     1      -9.974   7.108  69.475  1.00  0.00    -0.162 N  
HETATM    8  O   UNL     1     -10.382   5.009  70.374  1.00  0.00    -0.265 OA 
HETATM    9  C   UNL     1     -10.880   7.987  71.630  1.00  0.00    -0.237 C  
HETATM   10  CA  UNL     1      -9.246   5.676  68.150  1.00  0.00    -0.110 C  
HETATM   11  OXT UNL     1     -10.924   8.916  72.421  1.00  0.00    -0.273 OA 
HETATM   12  C   UNL     1      -9.933   5.765  69.545  1.00  0.00    -0.191 C  
ENDROOT
BRANCH   4  13
HETATM   13  C   UNL     1     -11.227  10.617  70.229  1.00  0.00    -0.285 C  
BRANCH  13  14
HETATM   14  S   UNL     1     -11.438  11.977  69.025  1.00  0.00    -0.324 SA 
BRANCH  14  15
HETATM   15  C   UNL     1     -12.223  13.139  70.039  1.00  0.00    -0.253 A  
HETATM   16  N   UNL     1     -12.756  12.893  71.215  1.00  0.00    -0.340 NA 
HETATM   17  N   UNL     1     -12.379  14.471  69.760  1.00  0.00    -0.302 NA 
HETATM   18  N   UNL     1     -13.214  14.097  71.685  1.00  0.00    -0.334 NA 
HETATM   19  N   UNL     1     -12.960  15.070  70.825  1.00  0.00    -0.388 NA 
BRANCH  17  20
HETATM   20  C   UNL     1     -11.902  15.257  68.645  1.00  0.00    -0.305 C  
HETATM   21  O   UNL     1      -9.936  15.983  69.924  1.00  0.00    -0.229 OA 
HETATM   22  C   UNL     1     -10.826  16.274  68.953  1.00  0.00    -0.317 C  
HETATM   23  O   UNL     1     -10.703  17.295  68.284  1.00  0.00    -0.373 OA 
ENDBRANCH  17  20
ENDBRANCH  14  15
ENDBRANCH  13  14
ENDBRANCH   4  13
BRANCH  10  24
HETATM   24  N   UNL     1     -10.045   5.046  67.074  1.00  0.00    -0.205 N  
HETATM   25  C   UNL     1      -9.564   4.506  65.911  1.00  0.00    -0.189 C  
HETATM   26  O   UNL     1     -10.361   4.077  65.077  1.00  0.00    -0.212 OA 
HETATM   27  H   UNL     1     -11.055   5.012  67.212  1.00  0.00     0.000 HD 
BRANCH  25  28
HETATM   28  C   UNL     1      -8.060   4.471  65.689  1.00  0.00    -0.106 C  
BRANCH  28  29
HETATM   29  C   UNL     1      -7.537   5.550  64.765  1.00  0.00    -0.079 A  
HETATM   30  C   UNL     1      -7.578   5.436  63.357  1.00  0.00    -0.065 A  
HETATM   31  C   UNL     1      -7.073   6.501  62.584  1.00  0.00    -0.045 A  
HETATM   32  C   UNL     1      -7.021   6.730  65.342  1.00  0.00    -0.059 A  
HETATM   33  C   UNL     1      -6.572   7.661  63.173  1.00  0.00    -0.062 A  
HETATM   34  C   UNL     1      -6.538   7.773  64.554  1.00  0.00    -0.048 A  
BRANCH  30  35
HETATM   35  C   UNL     1      -8.080   4.189  62.654  1.00  0.00    -0.075 C  
HETATM   36  N   UNL     1      -9.516   4.233  62.375  1.00  0.00    -0.124 NA 
HETATM   37  H1  UNL     1      -9.854   3.395  61.902  1.00  0.00     0.000 HD 
HETATM   38  H2  UNL     1      -9.759   5.073  61.849  1.00  0.00     0.000 HD 
ENDBRANCH  30  35
ENDBRANCH  28  29
ENDBRANCH  25  28
ENDBRANCH  10  24
TORSDOF 8
ENDMDL
MODEL      202
REMARK 921   NORMALIZED FREE ENERGY PREDICTED BY IDOCK:   -5.34 KCAL/MOL
REMARK 922        TOTAL FREE ENERGY PREDICTED BY IDOCK:   -8.67 KCAL/MOL
REMARK 923 INTER-LIGAND FREE ENERGY PREDICTED BY IDOCK:   -7.18 KCAL/MOL
REMARK 924 INTRA-LIGAND FREE ENERGY PREDICTED BY IDOCK:   -1.48 KCAL/MOL
REMARK 927      BINDING AFFINITY PREDICTED BY RF-SCORE:    0.00 PKD
ROOT
HETATM    1  C   UNL     1      -9.168  11.013  69.054  1.00  0.00    -0.064 C  
HETATM    2  S   UNL     1     -10.746  10.230  69.447  1.00  0.00    -0.258 SA 
HETATM    3  C   UNL     1      -9.994   8.673  69.973  1.00  0.00    -0.185 C  
HETATM    4  C   UNL     1      -8.897   8.144  69.058  1.00  0.00    -0.144 C  
HETATM    5  O   UNL     1      -6.997   8.869  66.022  1.00  0.00    -0.081 OA 
HETATM    6  CA  UNL     1      -8.254   8.897  68.116  1.00  0.00    -0.114 C  
HETATM    7  N   UNL     1      -8.527  10.232  68.016  1.00  0.00    -0.117 N  
HETATM    8  O   UNL     1      -7.897  11.241  66.025  1.00  0.00    -0.085 OA 
HETATM    9  C   UNL     1      -7.236   8.258  67.194  1.00  0.00    -0.084 C  
HETATM   10  CA  UNL     1      -9.190  12.206  68.044  1.00  0.00    -0.194 C  
HETATM   11  OXT UNL     1      -6.634   7.236  67.480  1.00  0.00    -0.052 OA 
HETATM   12  C   UNL     1      -8.387  11.234  67.129  1.00  0.00    -0.151 C  
ENDROOT
BRANCH   4  13
HETATM   13  C   UNL     1      -8.719   6.637  69.237  1.00  0.00    -0.131 C  
BRANCH  13  14
HETATM   14  S   UNL     1     -10.316   5.811  69.568  1.00  0.00    -0.292 SA 
BRANCH  14  15
HETATM   15  C   UNL     1      -9.798   4.160  69.532  1.00  0.00    -0.113 A  
HETATM   16  N   UNL     1      -9.659   3.378  70.579  1.00  0.00    -0.179 NA 
HETATM   17  N   UNL     1      -9.481   3.444  68.409  1.00  0.00    -0.170 NA 
HETATM   18  N   UNL     1      -9.287   2.152  70.092  1.00  0.00    -0.115 NA 
HETATM   19  N   UNL     1      -9.209   2.169  68.771  1.00  0.00    -0.147 NA 
BRANCH  17  20
HETATM   20  C   UNL     1      -9.550   3.811  67.013  1.00  0.00    -0.180 C  
HETATM   21  O   UNL     1      -7.102   3.848  66.842  1.00  0.00    -0.061 OA 
HETATM   22  C   UNL     1      -8.275   4.339  66.394  1.00  0.00    -0.102 C  
HETATM   23  O   UNL     1      -8.300   5.123  65.451  1.00  0.00    -0.121 OA 
ENDBRANCH  17  20
ENDBRANCH  14  15
ENDBRANCH  13  14
ENDBRANCH   4  13
BRANCH  10  24
HETATM   24  N   UNL     1     -10.498  12.658  67.517  1.00  0.00    -0.219 N  
HETATM   25  C   UNL     1     -10.749  13.829  66.853  1.00  0.00    -0.280 C  
HETATM   26  O   UNL     1     -11.907  14.099  66.534  1.00  0.00    -0.381 OA 
HETATM   27  H   UNL     1     -11.292  12.035  67.663  1.00  0.00     0.000 HD 
BRANCH  25  28
HETATM   28  C   UNL     1      -9.586  14.761  66.550  1.00  0.00    -0.304 C  
BRANCH  28  29
HETATM   29  C   UNL     1      -9.796  16.193  66.995  1.00  0.00    -0.248 A  
HETATM   30  C   UNL     1      -9.553  16.625  68.318  1.00  0.00    -0.233 A  
HETATM   31  C   UNL     1      -9.770  17.982  68.631  1.00  0.00    -0.356 A  
HETATM   32  C   UNL     1     -10.219  17.136  66.034  1.00  0.00    -0.332 A  
HETATM   33  C   UNL     1     -10.184  18.899  67.665  1.00  0.00    -0.459 A  
HETATM   34  C   UNL     1     -10.415  18.474  66.366  1.00  0.00    -0.443 A  
BRANCH  30  35
HETATM   35  C   UNL     1      -9.134  15.673  69.423  1.00  0.00    -0.278 C  
HETATM   36  N   UNL     1     -10.268  15.165  70.196  1.00  0.00    -0.509 NA 
HETATM   37  H1  UNL     1      -9.987  14.525  70.939  1.00  0.00     0.000 HD 
HETATM   38  H2  UNL     1     -10.962  14.733  69.585  1.00  0.00     0.000 HD 
ENDBRANCH  30  35
ENDBRANCH  28  29
ENDBRANCH  25  28
ENDBRANCH  10  24
TORSDOF 8
ENDMDL
MODEL      203
REMARK 921   NORMALIZED FREE ENERGY PREDICTED BY IDOCK:   -5.34 KCAL/MOL
REMARK 922        TOTAL FREE ENERGY PREDICTED BY IDOCK:   -8.66 KCAL/MOL
REMARK 923 INTER-LIGAND FREE ENERGY PREDICTED BY IDOCK:   -6.97 KCAL/MOL
REMARK 924 INTRA-LIGAND FREE ENERGY PREDICTED BY IDOCK:   -1.69 KCAL/MOL
REMARK 927      BINDING AFFINITY PREDICTED BY RF-SCORE:    0.00 PKD
ROOT
HETATM    1  C   UNL     1     -10.919   9.279  68.692  1.00  0.00     0.005 C  
HETATM    2  S   UNL     1     -10.171   8.927  67.088  1.00  0.00    -0.281 SA 
HETATM    3  C   UNL     1     -10.685   7.196  67.079  1.00  0.00    -0.350 C  
HETATM    4  C   UNL     1     -10.465   6.449  68.390  1.00  0.00    -0.266 C  
HETATM    5  O   UNL     1      -9.279   6.828  71.825  1.00  0.00    -0.147 OA 
HETATM    6  CA  UNL     1     -10.240   7.059  69.591  1.00  0.00    -0.202 C  
HETATM    7  N   UNL     1     -10.289   8.423  69.677  1.00  0.00    -0.214 N  
HETATM    8  O   UNL     1      -9.276   9.350  71.546  1.00  0.00    -0.276 OA 
HETATM    9  C   UNL     1      -9.947   6.231  70.824  1.00  0.00    -0.187 C  
HETATM   10  CA  UNL     1     -10.355  10.496  69.497  1.00  0.00    -0.221 C  
HETATM   11  OXT UNL     1     -10.299   5.068  70.939  1.00  0.00    -0.230 OA 
HETATM   12  C   UNL     1      -9.875   9.405  70.498  1.00  0.00    -0.270 C  
ENDROOT
BRANCH   4  13
HETATM   13  C   UNL     1     -10.388   4.942  68.152  1.00  0.00     0.035 C  
BRANCH  13  14
HETATM   14  S   UNL     1      -8.989   4.509  67.058  1.00  0.00    -0.121 SA 
BRANCH  14  15
HETATM   15  C   UNL     1      -7.733   4.368  68.240  1.00  0.00    -0.075 A  
HETATM   16  N   UNL     1      -7.703   3.499  69.225  1.00  0.00    -0.052 NA 
HETATM   17  N   UNL     1      -6.597   5.131  68.298  1.00  0.00    -0.048 NA 
HETATM   18  N   UNL     1      -6.514   3.703  69.877  1.00  0.00    -0.032 NA 
HETATM   19  N   UNL     1      -5.817   4.670  69.302  1.00  0.00    -0.017 NA 
BRANCH  17  20
HETATM   20  C   UNL     1      -6.114   6.161  67.406  1.00  0.00    -0.018 C  
HETATM   21  O   UNL     1      -7.051   7.922  68.837  1.00  0.00    -0.070 OA 
HETATM   22  C   UNL     1      -6.705   7.540  67.590  1.00  0.00    -0.067 C  
HETATM   23  O   UNL     1      -6.787   8.329  66.654  1.00  0.00    -0.066 OA 
ENDBRANCH  17  20
ENDBRANCH  14  15
ENDBRANCH  13  14
ENDBRANCH   4  13
BRANCH  10  24
HETATM   24  N   UNL     1      -9.291  11.318  68.876  1.00  0.00    -0.363 N  
HETATM   25  C   UNL     1      -9.469  12.364  68.010  1.00  0.00    -0.208 C  
HETATM   26  O   UNL     1      -8.479  12.910  67.522  1.00  0.00    -0.163 OA 
HETATM   27  H   UNL     1      -8.328  11.081  69.117  1.00  0.00     0.000 HD 
BRANCH  25  28
HETATM   28  C   UNL     1     -10.886  12.800  67.672  1.00  0.00    -0.252 C  
BRANCH  28  29
HETATM   29  C   UNL     1     -10.976  13.866  66.601  1.00  0.00    -0.302 A  
HETATM   30  C   UNL     1     -11.403  13.589  65.283  1.00  0.00    -0.304 A  
HETATM   31  C   UNL     1     -11.462  14.654  64.361  1.00  0.00    -0.272 A  
HETATM   32  C   UNL     1     -10.653  15.194  66.952  1.00  0.00    -0.297 A  
HETATM   33  C   UNL     1     -11.142  15.960  64.728  1.00  0.00    -0.397 A  
HETATM   34  C   UNL     1     -10.730  16.230  66.024  1.00  0.00    -0.217 A  
BRANCH  30  35
HETATM   35  C   UNL     1     -11.734  12.186  64.810  1.00  0.00    -0.327 C  
HETATM   36  N   UNL     1     -12.077  12.132  63.389  1.00  0.00    -0.699 NA 
HETATM   37  H1  UNL     1     -12.299  11.188  63.070  1.00  0.00     0.000 HD 
HETATM   38  H2  UNL     1     -11.338  12.545  62.819  1.00  0.00     0.000 HD 
ENDBRANCH  30  35
ENDBRANCH  28  29
ENDBRANCH  25  28
ENDBRANCH  10  24
TORSDOF 8
ENDMDL
MODEL      204
REMARK 921   NORMALIZED FREE ENERGY PREDICTED BY IDOCK:   -5.32 KCAL/MOL
REMARK 922        TOTAL FREE ENERGY PREDICTED BY IDOCK:   -8.63 KCAL/MOL
REMARK 923 INTER-LIGAND FREE ENERGY PREDICTED BY IDOCK:   -9.46 KCAL/MOL
REMARK 924 INTRA-LIGAND FREE ENERGY PREDICTED BY IDOCK:    0.83 KCAL/MOL
REMARK 927      BINDING AFFINITY PREDICTED BY RF-SCORE:    0.00 PKD
ROOT
HETATM    1  C   UNL     1     -10.824  13.490  68.351  1.00  0.00    -0.267 C  
HETATM    2  S   UNL     1      -9.058  13.174  68.544  1.00  0.00     0.021 SA 
HETATM    3  C   UNL     1      -8.567  14.815  67.968  1.00  0.00    -0.166 C  
HETATM    4  C   UNL     1      -9.292  15.305  66.721  1.00  0.00    -0.265 C  
HETATM    5  O   UNL     1     -11.875  14.434  64.288  1.00  0.00    -0.413 OA 
HETATM    6  CA  UNL     1     -10.454  14.765  66.247  1.00  0.00    -0.296 C  
HETATM    7  N   UNL     1     -11.078  13.776  66.954  1.00  0.00    -0.297 N  
HETATM    8  O   UNL     1     -12.626  12.519  65.772  1.00  0.00    -0.569 OA 
HETATM    9  C   UNL     1     -11.054  15.266  64.949  1.00  0.00    -0.424 C  
HETATM   10  CA  UNL     1     -11.763  12.249  68.193  1.00  0.00    -0.349 C  
HETATM   11  OXT UNL     1     -10.828  16.378  64.502  1.00  0.00    -0.719 OA 
HETATM   12  C   UNL     1     -11.995  12.812  66.760  1.00  0.00    -0.319 C  
ENDROOT
BRANCH   4  13
HETATM   13  C   UNL     1      -8.473  16.376  66.001  1.00  0.00    -0.170 C  
BRANCH  13  14
HETATM   14  S   UNL     1      -6.810  16.555  66.740  1.00  0.00    -0.124 SA 
BRANCH  14  15
HETATM   15  C   UNL     1      -6.619  18.270  66.607  1.00  0.00    -0.193 A  
HETATM   16  N   UNL     1      -5.822  18.888  65.766  1.00  0.00    -0.161 NA 
HETATM   17  N   UNL     1      -7.284  19.210  67.349  1.00  0.00    -0.209 NA 
HETATM   18  N   UNL     1      -6.025  20.229  65.964  1.00  0.00    -0.175 NA 
HETATM   19  N   UNL     1      -6.938  20.438  66.900  1.00  0.00    -0.254 NA 
BRANCH  17  20
HETATM   20  C   UNL     1      -8.323  19.057  68.343  1.00  0.00    -0.348 C  
HETATM   21  O   UNL     1     -10.041  19.762  66.738  1.00  0.00    -0.379 OA 
HETATM   22  C   UNL     1      -9.652  19.704  68.028  1.00  0.00    -0.369 C  
HETATM   23  O   UNL     1     -10.403  20.087  68.920  1.00  0.00    -0.411 OA 
ENDBRANCH  17  20
ENDBRANCH  14  15
ENDBRANCH  13  14
ENDBRANCH   4  13
BRANCH  10  24
HETATM   24  N   UNL     1     -11.161  10.897  68.268  1.00  0.00    -0.263 N  
HETATM   25  C   UNL     1     -10.385  10.296  67.313  1.00  0.00    -0.232 C  
HETATM   26  O   UNL     1     -10.011   9.137  67.490  1.00  0.00    -0.180 OA 
HETATM   27  H   UNL     1     -11.343  10.361  69.116  1.00  0.00     0.000 HD 
BRANCH  25  28
HETATM   28  C   UNL     1     -10.028  11.081  66.061  1.00  0.00    -0.285 C  
BRANCH  28  29
HETATM   29  C   UNL     1      -8.690  10.719  65.452  1.00  0.00    -0.190 A  
HETATM   30  C   UNL     1      -8.510  10.520  64.065  1.00  0.00    -0.118 A  
HETATM   31  C   UNL     1      -7.221  10.195  63.597  1.00  0.00    -0.112 A  
HETATM   32  C   UNL     1      -7.574  10.613  66.310  1.00  0.00    -0.137 A  
HETATM   33  C   UNL     1      -6.131  10.099  64.459  1.00  0.00    -0.133 A  
HETATM   34  C   UNL     1      -6.308  10.301  65.820  1.00  0.00    -0.111 A  
BRANCH  30  35
HETATM   35  C   UNL     1      -9.661  10.578  63.077  1.00  0.00    -0.333 C  
HETATM   36  N   UNL     1     -10.147  11.939  62.850  1.00  0.00    -0.509 NA 
HETATM   37  H1  UNL     1     -10.920  11.979  62.186  1.00  0.00     0.000 HD 
HETATM   38  H2  UNL     1      -9.386  12.555  62.562  1.00  0.00     0.000 HD 
ENDBRANCH  30  35
ENDBRANCH  28  29
ENDBRANCH  25  28
ENDBRANCH  10  24
TORSDOF 8
ENDMDL
MODEL      205
REMARK 921   NORMALIZED FREE ENERGY PREDICTED BY IDOCK:   -5.32 KCAL/MOL
REMARK 922        TOTAL FREE ENERGY PREDICTED BY IDOCK:   -8.63 KCAL/MOL
REMARK 923 INTER-LIGAND FREE ENERGY PREDICTED BY IDOCK:   -9.35 KCAL/MOL
REMARK 924 INTRA-LIGAND FREE ENERGY PREDICTED BY IDOCK:    0.73 KCAL/MOL
REMARK 927      BINDING AFFINITY PREDICTED BY RF-SCORE:    0.00 PKD
ROOT
HETATM    1  C   UNL     1     -11.022  17.000  66.322  1.00  0.00     0.190 C  
HETATM    2  S   UNL     1     -10.239  15.658  65.405  1.00  0.00    -0.335 SA 
HETATM    3  C   UNL     1     -11.382  14.398  66.013  1.00  0.00    -0.335 C  
HETATM    4  C   UNL     1     -11.672  14.456  67.508  1.00  0.00    -0.416 C  
HETATM    5  O   UNL     1     -10.964  16.321  70.569  1.00  0.00    -0.316 OA 
HETATM    6  CA  UNL     1     -11.410  15.539  68.299  1.00  0.00    -0.357 C  
HETATM    7  N   UNL     1     -10.934  16.689  67.733  1.00  0.00    -0.286 N  
HETATM    8  O   UNL     1      -9.933  18.186  69.194  1.00  0.00    -0.314 OA 
HETATM    9  C   UNL     1     -11.653  15.470  69.791  1.00  0.00    -0.334 C  
HETATM   10  CA  UNL     1     -10.155  18.267  66.621  1.00  0.00    -0.375 C  
HETATM   11  OXT UNL     1     -12.445  14.691  70.297  1.00  0.00    -0.335 OA 
HETATM   12  C   UNL     1     -10.298  17.815  68.104  1.00  0.00    -0.391 C  
ENDROOT
BRANCH   4  13
HETATM   13  C   UNL     1     -12.156  13.100  68.021  1.00  0.00    -0.197 C  
BRANCH  13  14
HETATM   14  S   UNL     1     -11.289  11.723  67.190  1.00  0.00    -0.307 SA 
BRANCH  14  15
HETATM   15  C   UNL     1     -11.038  10.680  68.548  1.00  0.00    -0.263 A  
HETATM   16  N   UNL     1     -11.200  11.012  69.809  1.00  0.00    -0.271 NA 
HETATM   17  N   UNL     1     -10.654   9.367  68.490  1.00  0.00    -0.213 NA 
HETATM   18  N   UNL     1     -10.949   9.879  70.537  1.00  0.00    -0.305 NA 
HETATM   19  N   UNL     1     -10.650   8.862  69.745  1.00  0.00    -0.223 NA 
BRANCH  17  20
HETATM   20  C   UNL     1     -10.430   8.506  67.351  1.00  0.00    -0.280 C  
HETATM   21  O   UNL     1      -8.042   9.073  67.318  1.00  0.00    -0.103 OA 
HETATM   22  C   UNL     1      -9.126   8.700  66.609  1.00  0.00    -0.165 C  
HETATM   23  O   UNL     1      -9.027   8.440  65.414  1.00  0.00    -0.151 OA 
ENDBRANCH  17  20
ENDBRANCH  14  15
ENDBRANCH  13  14
ENDBRANCH   4  13
BRANCH  10  24
HETATM   24  N   UNL     1      -8.774  18.317  66.089  1.00  0.00    -0.165 N  
HETATM   25  C   UNL     1      -7.644  18.653  66.785  1.00  0.00    -0.232 C  
HETATM   26  O   UNL     1      -6.570  18.714  66.186  1.00  0.00    -0.196 OA 
HETATM   27  H   UNL     1      -8.652  18.076  65.105  1.00  0.00     0.000 HD 
BRANCH  25  28
HETATM   28  C   UNL     1      -7.763  18.954  68.271  1.00  0.00    -0.332 C  
BRANCH  28  29
HETATM   29  C   UNL     1      -6.816  18.164  69.149  1.00  0.00    -0.240 A  
HETATM   30  C   UNL     1      -6.033  18.764  70.161  1.00  0.00    -0.193 A  
HETATM   31  C   UNL     1      -5.189  17.940  70.932  1.00  0.00    -0.269 A  
HETATM   32  C   UNL     1      -6.744  16.766  68.966  1.00  0.00    -0.209 A  
HETATM   33  C   UNL     1      -5.135  16.560  70.738  1.00  0.00    -0.207 A  
HETATM   34  C   UNL     1      -5.909  15.973  69.749  1.00  0.00    -0.162 A  
BRANCH  30  35
HETATM   35  C   UNL     1      -6.020  20.262  70.401  1.00  0.00    -0.340 C  
HETATM   36  N   UNL     1      -6.255  20.615  71.801  1.00  0.00    -0.727 NA 
HETATM   37  H1  UNL     1      -6.246  21.623  71.963  1.00  0.00     0.000 HD 
HETATM   38  H2  UNL     1      -5.591  20.141  72.414  1.00  0.00     0.000 HD 
ENDBRANCH  30  35
ENDBRANCH  28  29
ENDBRANCH  25  28
ENDBRANCH  10  24
TORSDOF 8
ENDMDL
MODEL      206
REMARK 921   NORMALIZED FREE ENERGY PREDICTED BY IDOCK:   -5.31 KCAL/MOL
REMARK 922        TOTAL FREE ENERGY PREDICTED BY IDOCK:   -8.61 KCAL/MOL
REMARK 923 INTER-LIGAND FREE ENERGY PREDICTED BY IDOCK:   -9.64 KCAL/MOL
REMARK 924 INTRA-LIGAND FREE ENERGY PREDICTED BY IDOCK:    1.03 KCAL/MOL
REMARK 927      BINDING AFFINITY PREDICTED BY RF-SCORE:    0.00 PKD
ROOT
HETATM    1  C   UNL     1      -9.593   7.957  73.075  1.00  0.00    -0.276 C  
HETATM    2  S   UNL     1      -8.620   8.377  71.614  1.00  0.00    -0.185 SA 
HETATM    3  C   UNL     1      -9.819   9.578  70.997  1.00  0.00    -0.166 C  
HETATM    4  C   UNL     1     -11.273   9.123  71.044  1.00  0.00    -0.380 C  
HETATM    5  O   UNL     1     -13.462   6.376  72.054  1.00  0.00    -0.049 OA 
HETATM    6  CA  UNL     1     -11.724   8.073  71.793  1.00  0.00    -0.291 C  
HETATM    7  N   UNL     1     -10.861   7.418  72.628  1.00  0.00    -0.276 N  
HETATM    8  O   UNL     1     -11.542   5.314  73.327  1.00  0.00    -0.264 OA 
HETATM    9  C   UNL     1     -13.173   7.642  71.709  1.00  0.00    -0.318 C  
HETATM   10  CA  UNL     1      -9.322   6.570  73.745  1.00  0.00    -0.150 C  
HETATM   11  OXT UNL     1     -14.067   8.393  71.355  1.00  0.00    -0.358 OA 
HETATM   12  C   UNL     1     -10.771   6.244  73.277  1.00  0.00    -0.260 C  
ENDROOT
BRANCH   4  13
HETATM   13  C   UNL     1     -12.121   9.902  70.039  1.00  0.00     0.051 C  
BRANCH  13  14
HETATM   14  S   UNL     1     -11.131  10.421  68.592  1.00  0.00    -0.251 SA 
BRANCH  14  15
HETATM   15  C   UNL     1     -11.580  12.091  68.522  1.00  0.00    -0.309 A  
HETATM   16  N   UNL     1     -11.823  12.862  69.557  1.00  0.00    -0.323 NA 
HETATM   17  N   UNL     1     -11.724  12.834  67.381  1.00  0.00    -0.358 NA 
HETATM   18  N   UNL     1     -12.085  14.109  69.051  1.00  0.00    -0.339 NA 
HETATM   19  N   UNL     1     -11.994  14.113  67.730  1.00  0.00    -0.372 NA 
BRANCH  17  20
HETATM   20  C   UNL     1     -11.491  12.484  65.998  1.00  0.00    -0.377 C  
HETATM   21  O   UNL     1     -13.297  13.972  65.256  1.00  0.00    -0.741 OA 
HETATM   22  C   UNL     1     -12.583  12.852  65.019  1.00  0.00    -0.472 C  
HETATM   23  O   UNL     1     -12.760  12.209  63.990  1.00  0.00    -0.587 OA 
ENDBRANCH  17  20
ENDBRANCH  14  15
ENDBRANCH  13  14
ENDBRANCH   4  13
BRANCH  10  24
HETATM   24  N   UNL     1      -8.252   5.715  73.183  1.00  0.00    -0.118 N  
HETATM   25  C   UNL     1      -8.371   4.845  72.131  1.00  0.00    -0.123 C  
HETATM   26  O   UNL     1      -7.405   4.149  71.820  1.00  0.00    -0.056 OA 
HETATM   27  H   UNL     1      -7.334   5.779  73.623  1.00  0.00     0.000 HD 
BRANCH  25  28
HETATM   28  C   UNL     1      -9.700   4.763  71.398  1.00  0.00    -0.240 C  
BRANCH  28  29
HETATM   29  C   UNL     1      -9.621   4.132  70.024  1.00  0.00    -0.274 A  
HETATM   30  C   UNL     1      -9.750   4.879  68.832  1.00  0.00    -0.242 A  
HETATM   31  C   UNL     1      -9.652   4.199  67.601  1.00  0.00    -0.213 A  
HETATM   32  C   UNL     1      -9.373   2.745  69.940  1.00  0.00    -0.202 A  
HETATM   33  C   UNL     1      -9.403   2.829  67.539  1.00  0.00    -0.201 A  
HETATM   34  C   UNL     1      -9.270   2.099  68.710  1.00  0.00    -0.221 A  
BRANCH  30  35
HETATM   35  C   UNL     1     -10.055   6.366  68.830  1.00  0.00    -0.158 C  
HETATM   36  N   UNL     1     -11.429   6.663  68.423  1.00  0.00    -0.545 NA 
HETATM   37  H1  UNL     1     -11.634   7.663  68.421  1.00  0.00     0.000 HD 
HETATM   38  H2  UNL     1     -12.099   6.154  69.000  1.00  0.00     0.000 HD 
ENDBRANCH  30  35
ENDBRANCH  28  29
ENDBRANCH  25  28
ENDBRANCH  10  24
TORSDOF 8
ENDMDL
MODEL      207
REMARK 921   NORMALIZED FREE ENERGY PREDICTED BY IDOCK:   -5.31 KCAL/MOL
REMARK 922        TOTAL FREE ENERGY PREDICTED BY IDOCK:   -8.61 KCAL/MOL
REMARK 923 INTER-LIGAND FREE ENERGY PREDICTED BY IDOCK:   -7.66 KCAL/MOL
REMARK 924 INTRA-LIGAND FREE ENERGY PREDICTED BY IDOCK:   -0.95 KCAL/MOL
REMARK 927      BINDING AFFINITY PREDICTED BY RF-SCORE:    0.00 PKD
ROOT
HETATM    1  C   UNL     1      -7.739  12.106  67.214  1.00  0.00    -0.168 C  
HETATM    2  S   UNL     1      -6.374  11.808  68.356  1.00  0.00    -0.054 SA 
HETATM    3  C   UNL     1      -6.376  10.020  68.102  1.00  0.00    -0.054 C  
HETATM    4  C   UNL     1      -7.753   9.367  68.111  1.00  0.00    -0.083 C  
HETATM    5  O   UNL     1     -11.330  10.055  68.400  1.00  0.00    -0.183 OA 
HETATM    6  CA  UNL     1      -8.927  10.051  67.964  1.00  0.00    -0.128 C  
HETATM    7  N   UNL     1      -8.899  11.394  67.708  1.00  0.00    -0.139 N  
HETATM    8  O   UNL     1     -10.875  12.536  68.121  1.00  0.00    -0.206 OA 
HETATM    9  C   UNL     1     -10.251   9.326  68.073  1.00  0.00    -0.209 C  
HETATM   10  CA  UNL     1      -8.558  13.425  67.401  1.00  0.00    -0.204 C  
HETATM   11  OXT UNL     1     -10.368   8.128  67.867  1.00  0.00    -0.210 OA 
HETATM   12  C   UNL     1      -9.719  12.459  67.780  1.00  0.00    -0.201 C  
ENDROOT
BRANCH   4  13
HETATM   13  C   UNL     1      -7.649   7.880  68.448  1.00  0.00    -0.108 C  
BRANCH  13  14
HETATM   14  S   UNL     1      -6.500   7.591  69.840  1.00  0.00    -0.035 SA 
BRANCH  14  15
HETATM   15  C   UNL     1      -7.577   7.876  71.165  1.00  0.00    -0.080 A  
HETATM   16  N   UNL     1      -7.814   9.042  71.721  1.00  0.00    -0.343 NA 
HETATM   17  N   UNL     1      -8.336   6.928  71.798  1.00  0.00    -0.109 NA 
HETATM   18  N   UNL     1      -8.761   8.818  72.687  1.00  0.00    -0.379 NA 
HETATM   19  N   UNL     1      -9.112   7.542  72.720  1.00  0.00    -0.141 NA 
BRANCH  17  20
HETATM   20  C   UNL     1      -8.504   5.520  71.517  1.00  0.00    -0.127 C  
HETATM   21  O   UNL     1     -10.292   5.996  69.905  1.00  0.00    -0.190 OA 
HETATM   22  C   UNL     1      -9.773   5.127  70.796  1.00  0.00    -0.190 C  
HETATM   23  O   UNL     1     -10.272   4.016  70.941  1.00  0.00    -0.076 OA 
ENDBRANCH  17  20
ENDBRANCH  14  15
ENDBRANCH  13  14
ENDBRANCH   4  13
BRANCH  10  24
HETATM   24  N   UNL     1      -8.134  14.373  68.457  1.00  0.00    -0.142 N  
HETATM   25  C   UNL     1      -7.900  15.713  68.304  1.00  0.00    -0.128 C  
HETATM   26  O   UNL     1      -7.485  16.361  69.265  1.00  0.00    -0.236 OA 
HETATM   27  H   UNL     1      -8.003  13.988  69.393  1.00  0.00     0.000 HD 
BRANCH  25  28
HETATM   28  C   UNL     1      -8.147  16.347  66.944  1.00  0.00    -0.262 C  
BRANCH  28  29
HETATM   29  C   UNL     1      -8.769  17.726  66.997  1.00  0.00    -0.254 A  
HETATM   30  C   UNL     1     -10.083  17.989  66.550  1.00  0.00    -0.379 A  
HETATM   31  C   UNL     1     -10.574  19.307  66.651  1.00  0.00    -0.530 A  
HETATM   32  C   UNL     1      -8.010  18.780  67.551  1.00  0.00    -0.260 A  
HETATM   33  C   UNL     1      -9.810  20.333  67.205  1.00  0.00    -0.606 A  
HETATM   34  C   UNL     1      -8.523  20.071  67.649  1.00  0.00    -0.378 A  
BRANCH  30  35
HETATM   35  C   UNL     1     -10.954  16.926  65.907  1.00  0.00     0.109 C  
HETATM   36  N   UNL     1     -11.118  17.120  64.466  1.00  0.00    -0.979 NA 
HETATM   37  H1  UNL     1     -11.704  16.405  64.034  1.00  0.00     0.000 HD 
HETATM   38  H2  UNL     1     -10.212  17.181  64.001  1.00  0.00     0.000 HD 
ENDBRANCH  30  35
ENDBRANCH  28  29
ENDBRANCH  25  28
ENDBRANCH  10  24
TORSDOF 8
ENDMDL
MODEL      208
REMARK 921   NORMALIZED FREE ENERGY PREDICTED BY IDOCK:   -5.31 KCAL/MOL
REMARK 922        TOTAL FREE ENERGY PREDICTED BY IDOCK:   -8.61 KCAL/MOL
REMARK 923 INTER-LIGAND FREE ENERGY PREDICTED BY IDOCK:   -7.41 KCAL/MOL
REMARK 924 INTRA-LIGAND FREE ENERGY PREDICTED BY IDOCK:   -1.20 KCAL/MOL
REMARK 927      BINDING AFFINITY PREDICTED BY RF-SCORE:    0.00 PKD
ROOT
HETATM    1  C   UNL     1      -9.708  12.087  67.066  1.00  0.00    -0.196 C  
HETATM    2  S   UNL     1     -10.477  11.471  65.554  1.00  0.00    -0.284 SA 
HETATM    3  C   UNL     1     -10.044   9.747  65.878  1.00  0.00    -0.243 C  
HETATM    4  C   UNL     1      -8.613   9.519  66.351  1.00  0.00    -0.143 C  
HETATM    5  O   UNL     1      -5.497  11.218  67.219  1.00  0.00    -0.043 OA 
HETATM    6  CA  UNL     1      -7.802  10.502  66.843  1.00  0.00    -0.117 C  
HETATM    7  N   UNL     1      -8.296  11.765  67.013  1.00  0.00    -0.167 N  
HETATM    8  O   UNL     1      -6.712  13.445  67.218  1.00  0.00    -0.196 OA 
HETATM    9  C   UNL     1      -6.365  10.193  67.208  1.00  0.00    -0.066 C  
HETATM   10  CA  UNL     1      -9.289  13.594  67.097  1.00  0.00    -0.240 C  
HETATM   11  OXT UNL     1      -5.982   9.071  67.496  1.00  0.00    -0.049 OA 
HETATM   12  C   UNL     1      -7.842  13.022  67.164  1.00  0.00    -0.063 C  
ENDROOT
BRANCH   4  13
HETATM   13  C   UNL     1      -8.169   8.084  66.068  1.00  0.00    -0.120 C  
BRANCH  13  14
HETATM   14  S   UNL     1      -8.737   6.939  67.375  1.00  0.00    -0.119 SA 
BRANCH  14  15
HETATM   15  C   UNL     1      -9.231   5.603  66.391  1.00  0.00    -0.152 A  
HETATM   16  N   UNL     1     -10.471   5.231  66.171  1.00  0.00    -0.231 NA 
HETATM   17  N   UNL     1      -8.396   4.767  65.698  1.00  0.00    -0.116 NA 
HETATM   18  N   UNL     1     -10.404   4.174  65.301  1.00  0.00    -0.205 NA 
HETATM   19  N   UNL     1      -9.149   3.905  64.978  1.00  0.00    -0.134 NA 
BRANCH  17  20
HETATM   20  C   UNL     1      -6.960   4.798  65.538  1.00  0.00    -0.062 C  
HETATM   21  O   UNL     1      -7.164   6.001  63.408  1.00  0.00    -0.045 OA 
HETATM   22  C   UNL     1      -6.445   5.141  64.159  1.00  0.00    -0.037 C  
HETATM   23  O   UNL     1      -5.362   4.726  63.760  1.00  0.00    -0.009 OA 
ENDBRANCH  17  20
ENDBRANCH  14  15
ENDBRANCH  13  14
ENDBRANCH   4  13
BRANCH  10  24
HETATM   24  N   UNL     1      -9.598  14.434  65.917  1.00  0.00    -0.481 N  
HETATM   25  C   UNL     1     -10.211  15.658  65.926  1.00  0.00    -0.351 C  
HETATM   26  O   UNL     1     -10.463  16.209  64.854  1.00  0.00    -0.605 OA 
HETATM   27  H   UNL     1      -9.327  14.064  65.006  1.00  0.00     0.000 HD 
BRANCH  25  28
HETATM   28  C   UNL     1     -10.574  16.284  67.264  1.00  0.00    -0.298 C  
BRANCH  28  29
HETATM   29  C   UNL     1      -9.947  17.639  67.514  1.00  0.00    -0.322 A  
HETATM   30  C   UNL     1      -8.641  17.793  68.032  1.00  0.00    -0.250 A  
HETATM   31  C   UNL     1      -8.145  19.099  68.219  1.00  0.00    -0.367 A  
HETATM   32  C   UNL     1     -10.692  18.791  67.180  1.00  0.00    -0.469 A  
HETATM   33  C   UNL     1      -8.895  20.224  67.879  1.00  0.00    -0.247 A  
HETATM   34  C   UNL     1     -10.173  20.070  67.365  1.00  0.00    -0.546 A  
BRANCH  30  35
HETATM   35  C   UNL     1      -7.786  16.612  68.452  1.00  0.00    -0.202 C  
HETATM   36  N   UNL     1      -6.772  16.971  69.444  1.00  0.00    -0.233 NA 
HETATM   37  H1  UNL     1      -6.196  16.177  69.727  1.00  0.00     0.000 HD 
HETATM   38  H2  UNL     1      -7.198  17.421  70.255  1.00  0.00     0.000 HD 
ENDBRANCH  30  35
ENDBRANCH  28  29
ENDBRANCH  25  28
ENDBRANCH  10  24
TORSDOF 8
ENDMDL
MODEL      209
REMARK 921   NORMALIZED FREE ENERGY PREDICTED BY IDOCK:   -5.31 KCAL/MOL
REMARK 922        TOTAL FREE ENERGY PREDICTED BY IDOCK:   -8.61 KCAL/MOL
REMARK 923 INTER-LIGAND FREE ENERGY PREDICTED BY IDOCK:   -7.36 KCAL/MOL
REMARK 924 INTRA-LIGAND FREE ENERGY PREDICTED BY IDOCK:   -1.25 KCAL/MOL
REMARK 927      BINDING AFFINITY PREDICTED BY RF-SCORE:    0.00 PKD
ROOT
HETATM    1  C   UNL     1      -9.451  10.460  66.834  1.00  0.00    -0.168 C  
HETATM    2  S   UNL     1     -10.996  11.060  67.548  1.00  0.00    -0.297 SA 
HETATM    3  C   UNL     1     -10.769  12.750  66.952  1.00  0.00    -0.253 C  
HETATM    4  C   UNL     1      -9.370  13.323  67.150  1.00  0.00    -0.240 C  
HETATM    5  O   UNL     1      -6.022  12.542  68.388  1.00  0.00    -0.053 OA 
HETATM    6  CA  UNL     1      -8.263  12.568  67.416  1.00  0.00    -0.183 C  
HETATM    7  N   UNL     1      -8.362  11.205  67.432  1.00  0.00    -0.132 N  
HETATM    8  O   UNL     1      -6.640  10.085  68.508  1.00  0.00    -0.053 OA 
HETATM    9  C   UNL     1      -6.930  13.236  67.682  1.00  0.00    -0.160 C  
HETATM   10  CA  UNL     1      -8.821   9.174  67.463  1.00  0.00    -0.119 C  
HETATM   11  OXT UNL     1      -6.659  14.354  67.277  1.00  0.00    -0.283 OA 
HETATM   12  C   UNL     1      -7.683  10.142  67.901  1.00  0.00    -0.089 C  
ENDROOT
BRANCH   4  13
HETATM   13  C   UNL     1      -9.403  14.851  67.152  1.00  0.00    -0.218 C  
BRANCH  13  14
HETATM   14  S   UNL     1      -9.782  15.507  68.816  1.00  0.00    -0.225 SA 
BRANCH  14  15
HETATM   15  C   UNL     1      -8.761  16.904  68.813  1.00  0.00    -0.248 A  
HETATM   16  N   UNL     1      -7.506  16.936  69.201  1.00  0.00    -0.220 NA 
HETATM   17  N   UNL     1      -9.118  18.157  68.391  1.00  0.00    -0.302 NA 
HETATM   18  N   UNL     1      -7.071  18.218  68.980  1.00  0.00    -0.263 NA 
HETATM   19  N   UNL     1      -8.032  18.961  68.455  1.00  0.00    -0.336 NA 
BRANCH  17  20
HETATM   20  C   UNL     1     -10.348  18.630  67.798  1.00  0.00    -0.410 C  
HETATM   21  O   UNL     1      -9.656  17.830  65.583  1.00  0.00    -0.484 OA 
HETATM   22  C   UNL     1     -10.371  18.730  66.289  1.00  0.00    -0.448 C  
HETATM   23  O   UNL     1     -11.087  19.543  65.714  1.00  0.00    -0.266 OA 
ENDBRANCH  17  20
ENDBRANCH  14  15
ENDBRANCH  13  14
ENDBRANCH   4  13
BRANCH  10  24
HETATM   24  N   UNL     1      -9.551   8.496  68.559  1.00  0.00    -0.150 N  
HETATM   25  C   UNL     1     -10.427   7.451  68.431  1.00  0.00    -0.185 C  
HETATM   26  O   UNL     1     -11.011   7.035  69.431  1.00  0.00    -0.239 OA 
HETATM   27  H   UNL     1      -9.385   8.842  69.504  1.00  0.00     0.000 HD 
BRANCH  25  28
HETATM   28  C   UNL     1     -10.656   6.855  67.051  1.00  0.00    -0.403 C  
BRANCH  28  29
HETATM   29  C   UNL     1      -9.729   5.711  66.699  1.00  0.00    -0.176 A  
HETATM   30  C   UNL     1      -8.714   5.824  65.723  1.00  0.00    -0.152 A  
HETATM   31  C   UNL     1      -7.896   4.703  65.474  1.00  0.00    -0.094 A  
HETATM   32  C   UNL     1      -9.869   4.497  67.405  1.00  0.00    -0.204 A  
HETATM   33  C   UNL     1      -8.047   3.513  66.185  1.00  0.00    -0.093 A  
HETATM   34  C   UNL     1      -9.040   3.407  67.147  1.00  0.00    -0.196 A  
BRANCH  30  35
HETATM   35  C   UNL     1      -8.517   7.078  64.891  1.00  0.00     0.071 C  
HETATM   36  N   UNL     1      -7.504   6.914  63.848  1.00  0.00    -0.088 NA 
HETATM   37  H1  UNL     1      -7.372   7.757  63.288  1.00  0.00     0.000 HD 
HETATM   38  H2  UNL     1      -7.718   6.112  63.254  1.00  0.00     0.000 HD 
ENDBRANCH  30  35
ENDBRANCH  28  29
ENDBRANCH  25  28
ENDBRANCH  10  24
TORSDOF 8
ENDMDL
MODEL      210
REMARK 921   NORMALIZED FREE ENERGY PREDICTED BY IDOCK:   -5.28 KCAL/MOL
REMARK 922        TOTAL FREE ENERGY PREDICTED BY IDOCK:   -8.57 KCAL/MOL
REMARK 923 INTER-LIGAND FREE ENERGY PREDICTED BY IDOCK:   -6.89 KCAL/MOL
REMARK 924 INTRA-LIGAND FREE ENERGY PREDICTED BY IDOCK:   -1.68 KCAL/MOL
REMARK 927      BINDING AFFINITY PREDICTED BY RF-SCORE:    0.00 PKD
ROOT
HETATM    1  C   UNL     1      -8.559  14.358  68.425  1.00  0.00    -0.174 C  
HETATM    2  S   UNL     1      -9.049  14.272  66.691  1.00  0.00    -0.183 SA 
HETATM    3  C   UNL     1     -10.047  12.782  66.909  1.00  0.00    -0.232 C  
HETATM    4  C   UNL     1      -9.398  11.686  67.746  1.00  0.00    -0.178 C  
HETATM    5  O   UNL     1      -6.420  10.845  69.688  1.00  0.00    -0.083 OA 
HETATM    6  CA  UNL     1      -8.327  11.884  68.571  1.00  0.00    -0.118 C  
HETATM    7  N   UNL     1      -7.833  13.146  68.746  1.00  0.00    -0.044 N  
HETATM    8  O   UNL     1      -5.685  13.272  69.611  1.00  0.00    -0.093 OA 
HETATM    9  C   UNL     1      -7.698  10.714  69.297  1.00  0.00    -0.142 C  
HETATM   10  CA  UNL     1      -7.251  15.145  68.764  1.00  0.00    -0.127 C  
HETATM   11  OXT UNL     1      -8.304   9.683  69.542  1.00  0.00    -0.124 OA 
HETATM   12  C   UNL     1      -6.709  13.746  69.178  1.00  0.00    -0.112 C  
ENDROOT
BRANCH   4  13
HETATM   13  C   UNL     1     -10.012  10.323  67.428  1.00  0.00    -0.189 C  
BRANCH  13  14
HETATM   14  S   UNL     1      -9.879   9.931  65.647  1.00  0.00    -0.288 SA 
BRANCH  14  15
HETATM   15  C   UNL     1      -8.603   8.763  65.704  1.00  0.00    -0.172 A  
HETATM   16  N   UNL     1      -8.755   7.471  65.882  1.00  0.00    -0.160 NA 
HETATM   17  N   UNL     1      -7.268   9.028  65.555  1.00  0.00    -0.084 NA 
HETATM   18  N   UNL     1      -7.500   6.924  65.804  1.00  0.00    -0.081 NA 
HETATM   19  N   UNL     1      -6.591   7.857  65.571  1.00  0.00    -0.042 NA 
BRANCH  17  20
HETATM   20  C   UNL     1      -6.586  10.267  65.255  1.00  0.00    -0.119 C  
HETATM   21  O   UNL     1      -5.147  10.019  67.228  1.00  0.00    -0.040 OA 
HETATM   22  C   UNL     1      -5.756  10.863  66.370  1.00  0.00    -0.115 C  
HETATM   23  O   UNL     1      -5.562  12.072  66.445  1.00  0.00    -0.260 OA 
ENDBRANCH  17  20
ENDBRANCH  14  15
ENDBRANCH  13  14
ENDBRANCH   4  13
BRANCH  10  24
HETATM   24  N   UNL     1      -6.528  15.818  67.660  1.00  0.00    -0.152 N  
HETATM   25  C   UNL     1      -6.478  17.165  67.420  1.00  0.00    -0.147 C  
HETATM   26  O   UNL     1      -5.890  17.573  66.419  1.00  0.00    -0.177 OA 
HETATM   27  H   UNL     1      -6.017  15.218  67.013  1.00  0.00     0.000 HD 
BRANCH  25  28
HETATM   28  C   UNL     1      -7.168  18.107  68.395  1.00  0.00    -0.264 C  
BRANCH  28  29
HETATM   29  C   UNL     1      -8.489  18.661  67.905  1.00  0.00    -0.297 A  
HETATM   30  C   UNL     1      -8.598  19.907  67.247  1.00  0.00    -0.384 A  
HETATM   31  C   UNL     1      -9.874  20.329  66.821  1.00  0.00    -0.586 A  
HETATM   32  C   UNL     1      -9.649  17.878  68.086  1.00  0.00    -0.306 A  
HETATM   33  C   UNL     1     -11.007  19.539  67.005  1.00  0.00    -0.443 A  
HETATM   34  C   UNL     1     -10.897  18.314  67.645  1.00  0.00    -0.272 A  
BRANCH  30  35
HETATM   35  C   UNL     1      -7.411  20.829  67.044  1.00  0.00    -0.296 C  
HETATM   36  N   UNL     1      -6.779  20.662  65.735  1.00  0.00    -0.399 NA 
HETATM   37  H1  UNL     1      -5.980  21.282  65.599  1.00  0.00     0.000 HD 
HETATM   38  H2  UNL     1      -7.460  20.773  64.984  1.00  0.00     0.000 HD 
ENDBRANCH  30  35
ENDBRANCH  28  29
ENDBRANCH  25  28
ENDBRANCH  10  24
TORSDOF 8
ENDMDL
MODEL      211
REMARK 921   NORMALIZED FREE ENERGY PREDICTED BY IDOCK:   -5.25 KCAL/MOL
REMARK 922        TOTAL FREE ENERGY PREDICTED BY IDOCK:   -8.53 KCAL/MOL
REMARK 923 INTER-LIGAND FREE ENERGY PREDICTED BY IDOCK:   -7.27 KCAL/MOL
REMARK 924 INTRA-LIGAND FREE ENERGY PREDICTED BY IDOCK:   -1.26 KCAL/MOL
REMARK 927      BINDING AFFINITY PREDICTED BY RF-SCORE:    0.00 PKD
ROOT
HETATM    1  C   UNL     1     -10.466  11.230  67.215  1.00  0.00    -0.214 C  
HETATM    2  S   UNL     1     -12.004  12.022  67.726  1.00  0.00     0.062 SA 
HETATM    3  C   UNL     1     -11.509  13.659  67.147  1.00  0.00    -0.342 C  
HETATM    4  C   UNL     1     -10.087  14.071  67.512  1.00  0.00    -0.237 C  
HETATM    5  O   UNL     1      -7.031  12.938  69.164  1.00  0.00    -0.090 OA 
HETATM    6  CA  UNL     1      -9.118  13.199  67.921  1.00  0.00    -0.207 C  
HETATM    7  N   UNL     1      -9.378  11.857  67.937  1.00  0.00    -0.181 N  
HETATM    8  O   UNL     1      -7.944  10.571  69.229  1.00  0.00    -0.142 OA 
HETATM    9  C   UNL     1      -7.758  13.715  68.344  1.00  0.00    -0.138 C  
HETATM   10  CA  UNL     1     -10.073   9.895  67.929  1.00  0.00    -0.173 C  
HETATM   11  OXT UNL     1      -7.309  14.784  67.965  1.00  0.00    -0.109 OA 
HETATM   12  C   UNL     1      -8.891  10.735  68.496  1.00  0.00    -0.149 C  
ENDROOT
BRANCH   4  13
HETATM   13  C   UNL     1      -9.940  15.592  67.496  1.00  0.00    -0.230 C  
BRANCH  13  14
HETATM   14  S   UNL     1      -9.793  16.231  65.790  1.00  0.00    -0.241 SA 
BRANCH  14  15
HETATM   15  C   UNL     1      -9.635  17.921  66.128  1.00  0.00    -0.178 A  
HETATM   16  N   UNL     1     -10.574  18.825  65.967  1.00  0.00    -0.446 NA 
HETATM   17  N   UNL     1      -8.517  18.537  66.625  1.00  0.00    -0.270 NA 
HETATM   18  N   UNL     1     -10.042  20.010  66.405  1.00  0.00    -0.472 NA 
HETATM   19  N   UNL     1      -8.803  19.842  66.839  1.00  0.00    -0.319 NA 
BRANCH  17  20
HETATM   20  C   UNL     1      -7.252  17.983  67.049  1.00  0.00    -0.196 C  
HETATM   21  O   UNL     1      -6.193  18.628  64.931  1.00  0.00    -0.391 OA 
HETATM   22  C   UNL     1      -6.218  17.766  65.968  1.00  0.00    -0.228 C  
HETATM   23  O   UNL     1      -5.365  16.890  66.067  1.00  0.00    -0.254 OA 
ENDBRANCH  17  20
ENDBRANCH  14  15
ENDBRANCH  13  14
ENDBRANCH   4  13
BRANCH  10  24
HETATM   24  N   UNL     1     -11.007   9.332  68.932  1.00  0.00    -0.431 N  
HETATM   25  C   UNL     1     -10.841   8.171  69.640  1.00  0.00    -0.158 C  
HETATM   26  O   UNL     1     -11.740   7.797  70.393  1.00  0.00    -0.176 OA 
HETATM   27  H   UNL     1     -11.859   9.862  69.114  1.00  0.00     0.000 HD 
BRANCH  25  28
HETATM   28  C   UNL     1      -9.556   7.380  69.455  1.00  0.00    -0.155 C  
BRANCH  28  29
HETATM   29  C   UNL     1      -9.399   6.748  68.089  1.00  0.00    -0.122 A  
HETATM   30  C   UNL     1      -8.217   6.866  67.323  1.00  0.00    -0.118 A  
HETATM   31  C   UNL     1      -8.167   6.231  66.065  1.00  0.00    -0.125 A  
HETATM   32  C   UNL     1     -10.469   5.980  67.581  1.00  0.00    -0.297 A  
HETATM   33  C   UNL     1      -9.234   5.474  65.584  1.00  0.00    -0.100 A  
HETATM   34  C   UNL     1     -10.390   5.354  66.339  1.00  0.00    -0.298 A  
BRANCH  30  35
HETATM   35  C   UNL     1      -7.034   7.702  67.774  1.00  0.00    -0.077 C  
HETATM   36  N   UNL     1      -6.673   8.743  66.810  1.00  0.00    -0.068 NA 
HETATM   37  H1  UNL     1      -5.877   9.305  67.113  1.00  0.00     0.000 HD 
HETATM   38  H2  UNL     1      -7.477   9.333  66.594  1.00  0.00     0.000 HD 
ENDBRANCH  30  35
ENDBRANCH  28  29
ENDBRANCH  25  28
ENDBRANCH  10  24
TORSDOF 8
ENDMDL
MODEL      212
REMARK 921   NORMALIZED FREE ENERGY PREDICTED BY IDOCK:   -5.25 KCAL/MOL
REMARK 922        TOTAL FREE ENERGY PREDICTED BY IDOCK:   -8.52 KCAL/MOL
REMARK 923 INTER-LIGAND FREE ENERGY PREDICTED BY IDOCK:   -7.04 KCAL/MOL
REMARK 924 INTRA-LIGAND FREE ENERGY PREDICTED BY IDOCK:   -1.48 KCAL/MOL
REMARK 927      BINDING AFFINITY PREDICTED BY RF-SCORE:    0.00 PKD
ROOT
HETATM    1  C   UNL     1      -9.224   9.752  67.751  1.00  0.00    -0.130 C  
HETATM    2  S   UNL     1     -10.942  10.249  67.513  1.00  0.00    -0.220 SA 
HETATM    3  C   UNL     1     -10.542  11.534  66.307  1.00  0.00    -0.263 C  
HETATM    4  C   UNL     1      -9.361  12.423  66.679  1.00  0.00    -0.227 C  
HETATM    5  O   UNL     1      -6.782  12.981  69.206  1.00  0.00    -0.109 OA 
HETATM    6  CA  UNL     1      -8.436  12.110  67.634  1.00  0.00    -0.163 C  
HETATM    7  N   UNL     1      -8.493  10.895  68.258  1.00  0.00    -0.128 N  
HETATM    8  O   UNL     1      -7.324  10.735  70.255  1.00  0.00    -0.106 OA 
HETATM    9  C   UNL     1      -7.345  13.097  67.993  1.00  0.00    -0.125 C  
HETATM   10  CA  UNL     1      -8.866   9.021  69.087  1.00  0.00    -0.142 C  
HETATM   11  OXT UNL     1      -6.965  13.969  67.228  1.00  0.00    -0.179 OA 
HETATM   12  C   UNL     1      -8.032  10.304  69.376  1.00  0.00    -0.159 C  
ENDROOT
BRANCH   4  13
HETATM   13  C   UNL     1      -9.436  13.762  65.946  1.00  0.00    -0.040 C  
BRANCH  13  14
HETATM   14  S   UNL     1     -11.169  14.270  65.660  1.00  0.00    -0.323 SA 
BRANCH  14  15
HETATM   15  C   UNL     1     -10.966  15.988  65.646  1.00  0.00    -0.171 A  
HETATM   16  N   UNL     1     -11.001  16.755  64.580  1.00  0.00    -0.897 NA 
HETATM   17  N   UNL     1     -10.759  16.779  66.745  1.00  0.00    -0.187 NA 
HETATM   18  N   UNL     1     -10.851  18.041  65.030  1.00  0.00    -0.583 NA 
HETATM   19  N   UNL     1     -10.738  18.072  66.349  1.00  0.00    -0.222 NA 
BRANCH  17  20
HETATM   20  C   UNL     1     -10.723  16.441  68.150  1.00  0.00    -0.336 C  
HETATM   21  O   UNL     1      -8.326  16.952  68.271  1.00  0.00    -0.208 OA 
HETATM   22  C   UNL     1      -9.354  16.225  68.753  1.00  0.00    -0.235 C  
HETATM   23  O   UNL     1      -9.190  15.480  69.714  1.00  0.00    -0.267 OA 
ENDBRANCH  17  20
ENDBRANCH  14  15
ENDBRANCH  13  14
ENDBRANCH   4  13
BRANCH  10  24
HETATM   24  N   UNL     1      -9.958   8.730  70.044  1.00  0.00    -0.182 N  
HETATM   25  C   UNL     1      -9.953   7.770  71.020  1.00  0.00    -0.177 C  
HETATM   26  O   UNL     1     -10.966   7.601  71.699  1.00  0.00    -0.230 OA 
HETATM   27  H   UNL     1     -10.799   9.303  69.970  1.00  0.00     0.000 HD 
BRANCH  25  28
HETATM   28  C   UNL     1      -8.697   6.935  71.217  1.00  0.00    -0.134 C  
BRANCH  28  29
HETATM   29  C   UNL     1      -8.597   5.727  70.311  1.00  0.00    -0.133 A  
HETATM   30  C   UNL     1      -7.511   5.518  69.433  1.00  0.00    -0.070 A  
HETATM   31  C   UNL     1      -7.507   4.354  68.637  1.00  0.00    -0.060 A  
HETATM   32  C   UNL     1      -9.620   4.756  70.379  1.00  0.00    -0.267 A  
HETATM   33  C   UNL     1      -8.524   3.405  68.721  1.00  0.00    -0.104 A  
HETATM   34  C   UNL     1      -9.587   3.609  69.589  1.00  0.00    -0.211 A  
BRANCH  30  35
HETATM   35  C   UNL     1      -6.389   6.526  69.269  1.00  0.00    -0.035 C  
HETATM   36  N   UNL     1      -5.231   6.230  70.112  1.00  0.00    -0.013 NA 
HETATM   37  H1  UNL     1      -4.476   6.908  70.002  1.00  0.00     0.000 HD 
HETATM   38  H2  UNL     1      -4.895   5.280  69.950  1.00  0.00     0.000 HD 
ENDBRANCH  30  35
ENDBRANCH  28  29
ENDBRANCH  25  28
ENDBRANCH  10  24
TORSDOF 8
ENDMDL
MODEL      213
REMARK 921   NORMALIZED FREE ENERGY PREDICTED BY IDOCK:   -5.24 KCAL/MOL
REMARK 922        TOTAL FREE ENERGY PREDICTED BY IDOCK:   -8.51 KCAL/MOL
REMARK 923 INTER-LIGAND FREE ENERGY PREDICTED BY IDOCK:   -9.21 KCAL/MOL
REMARK 924 INTRA-LIGAND FREE ENERGY PREDICTED BY IDOCK:    0.70 KCAL/MOL
REMARK 927      BINDING AFFINITY PREDICTED BY RF-SCORE:    0.00 PKD
ROOT
HETATM    1  C   UNL     1     -11.914  14.031  68.270  1.00  0.00    -0.349 C  
HETATM    2  S   UNL     1     -10.468  14.493  69.247  1.00  0.00    -0.119 SA 
HETATM    3  C   UNL     1     -10.380  16.165  68.570  1.00  0.00    -0.254 C  
HETATM    4  C   UNL     1     -10.549  16.261  67.059  1.00  0.00    -0.284 C  
HETATM    5  O   UNL     1     -11.174  14.298  64.041  1.00  0.00    -0.091 OA 
HETATM    6  CA  UNL     1     -11.071  15.267  66.281  1.00  0.00    -0.273 C  
HETATM    7  N   UNL     1     -11.559  14.134  66.870  1.00  0.00    -0.371 N  
HETATM    8  O   UNL     1     -11.804  12.300  65.471  1.00  0.00    -0.395 OA 
HETATM    9  C   UNL     1     -11.119  15.421  64.775  1.00  0.00    -0.403 C  
HETATM   10  CA  UNL     1     -12.157  12.506  68.023  1.00  0.00    -0.063 C  
HETATM   11  OXT UNL     1     -11.118  16.509  64.222  1.00  0.00    -0.915 OA 
HETATM   12  C   UNL     1     -11.866  12.867  66.537  1.00  0.00    -0.407 C  
ENDROOT
BRANCH   4  13
HETATM   13  C   UNL     1      -9.927  17.550  66.522  1.00  0.00    -0.321 C  
BRANCH  13  14
HETATM   14  S   UNL     1      -9.899  18.859  67.797  1.00  0.00    -0.355 SA 
BRANCH  14  15
HETATM   15  C   UNL     1      -8.222  18.813  68.221  1.00  0.00    -0.325 A  
HETATM   16  N   UNL     1      -7.669  17.970  69.063  1.00  0.00    -0.176 NA 
HETATM   17  N   UNL     1      -7.247  19.635  67.724  1.00  0.00    -0.259 NA 
HETATM   18  N   UNL     1      -6.327  18.251  69.058  1.00  0.00    -0.234 NA 
HETATM   19  N   UNL     1      -6.053  19.240  68.221  1.00  0.00    -0.219 NA 
BRANCH  17  20
HETATM   20  C   UNL     1      -7.316  20.667  66.713  1.00  0.00    -0.235 C  
HETATM   21  O   UNL     1      -6.899  19.030  64.932  1.00  0.00    -0.446 OA 
HETATM   22  C   UNL     1      -6.773  20.307  65.349  1.00  0.00    -0.285 C  
HETATM   23  O   UNL     1      -6.313  21.162  64.599  1.00  0.00    -0.231 OA 
ENDBRANCH  17  20
ENDBRANCH  14  15
ENDBRANCH  13  14
ENDBRANCH   4  13
BRANCH  10  24
HETATM   24  N   UNL     1     -11.229  11.535  68.647  1.00  0.00    -0.224 N  
HETATM   25  C   UNL     1     -10.003  11.155  68.169  1.00  0.00    -0.178 C  
HETATM   26  O   UNL     1      -9.373  10.283  68.766  1.00  0.00    -0.150 OA 
HETATM   27  H   UNL     1     -11.533  11.107  69.522  1.00  0.00     0.000 HD 
BRANCH  25  28
HETATM   28  C   UNL     1      -9.475  11.816  66.905  1.00  0.00    -0.200 C  
BRANCH  28  29
HETATM   29  C   UNL     1      -8.077  11.390  66.511  1.00  0.00    -0.141 A  
HETATM   30  C   UNL     1      -7.823  10.471  65.469  1.00  0.00    -0.138 A  
HETATM   31  C   UNL     1      -6.483  10.147  65.173  1.00  0.00    -0.121 A  
HETATM   32  C   UNL     1      -6.986  11.968  67.195  1.00  0.00    -0.134 A  
HETATM   33  C   UNL     1      -5.419  10.732  65.858  1.00  0.00    -0.133 A  
HETATM   34  C   UNL     1      -5.670  11.639  66.876  1.00  0.00    -0.139 A  
BRANCH  30  35
HETATM   35  C   UNL     1      -8.935   9.774  64.708  1.00  0.00    -0.225 C  
HETATM   36  N   UNL     1      -9.141   8.391  65.142  1.00  0.00    -0.417 NA 
HETATM   37  H1  UNL     1      -9.889   7.922  64.630  1.00  0.00     0.000 HD 
HETATM   38  H2  UNL     1      -9.302   8.345  66.148  1.00  0.00     0.000 HD 
ENDBRANCH  30  35
ENDBRANCH  28  29
ENDBRANCH  25  28
ENDBRANCH  10  24
TORSDOF 8
ENDMDL
MODEL      214
REMARK 921   NORMALIZED FREE ENERGY PREDICTED BY IDOCK:   -5.24 KCAL/MOL
REMARK 922        TOTAL FREE ENERGY PREDICTED BY IDOCK:   -8.51 KCAL/MOL
REMARK 923 INTER-LIGAND FREE ENERGY PREDICTED BY IDOCK:   -7.22 KCAL/MOL
REMARK 924 INTRA-LIGAND FREE ENERGY PREDICTED BY IDOCK:   -1.29 KCAL/MOL
REMARK 927      BINDING AFFINITY PREDICTED BY RF-SCORE:    0.00 PKD
ROOT
HETATM    1  C   UNL     1      -8.352  13.767  68.430  1.00  0.00    -0.152 C  
HETATM    2  S   UNL     1      -8.786  13.248  66.757  1.00  0.00    -0.063 SA 
HETATM    3  C   UNL     1      -9.397  11.629  67.274  1.00  0.00    -0.169 C  
HETATM    4  C   UNL     1      -8.512  10.894  68.274  1.00  0.00    -0.134 C  
HETATM    5  O   UNL     1      -5.441  11.165  70.236  1.00  0.00    -0.078 OA 
HETATM    6  CA  UNL     1      -7.531  11.491  69.014  1.00  0.00    -0.073 C  
HETATM    7  N   UNL     1      -7.358  12.845  68.940  1.00  0.00    -0.062 N  
HETATM    8  O   UNL     1      -5.315  13.641  69.697  1.00  0.00    -0.084 OA 
HETATM    9  C   UNL     1      -6.645  10.661  69.918  1.00  0.00    -0.137 C  
HETATM   10  CA  UNL     1      -7.278  14.894  68.577  1.00  0.00    -0.113 C  
HETATM   11  OXT UNL     1      -6.986   9.578  70.365  1.00  0.00    -0.083 OA 
HETATM   12  C   UNL     1      -6.418  13.767  69.219  1.00  0.00    -0.112 C  
ENDROOT
BRANCH   4  13
HETATM   13  C   UNL     1      -8.773   9.389  68.229  1.00  0.00    -0.124 C  
BRANCH  13  14
HETATM   14  S   UNL     1     -10.529   9.027  67.874  1.00  0.00    -0.209 SA 
BRANCH  14  15
HETATM   15  C   UNL     1     -10.735   7.615  68.854  1.00  0.00    -0.095 A  
HETATM   16  N   UNL     1     -11.006   7.608  70.139  1.00  0.00    -0.256 NA 
HETATM   17  N   UNL     1     -10.660   6.319  68.418  1.00  0.00    -0.230 NA 
HETATM   18  N   UNL     1     -11.137   6.291  70.495  1.00  0.00    -0.311 NA 
HETATM   19  N   UNL     1     -10.963   5.498  69.449  1.00  0.00    -0.182 NA 
BRANCH  17  20
HETATM   20  C   UNL     1     -10.470   5.787  67.087  1.00  0.00    -0.273 C  
HETATM   21  O   UNL     1      -8.038   5.706  67.404  1.00  0.00    -0.102 OA 
HETATM   22  C   UNL     1      -9.063   5.841  66.538  1.00  0.00    -0.141 C  
HETATM   23  O   UNL     1      -8.851   5.912  65.332  1.00  0.00    -0.144 OA 
ENDBRANCH  17  20
ENDBRANCH  14  15
ENDBRANCH  13  14
ENDBRANCH   4  13
BRANCH  10  24
HETATM   24  N   UNL     1      -6.727  15.506  67.345  1.00  0.00    -0.186 N  
HETATM   25  C   UNL     1      -6.666  16.843  67.056  1.00  0.00    -0.207 C  
HETATM   26  O   UNL     1      -6.240  17.198  65.957  1.00  0.00    -0.187 OA 
HETATM   27  H   UNL     1      -6.356  14.867  66.642  1.00  0.00     0.000 HD 
BRANCH  25  28
HETATM   28  C   UNL     1      -7.144  17.839  68.101  1.00  0.00    -0.219 C  
BRANCH  28  29
HETATM   29  C   UNL     1      -8.457  18.515  67.770  1.00  0.00    -0.285 A  
HETATM   30  C   UNL     1      -8.554  19.894  67.477  1.00  0.00    -0.393 A  
HETATM   31  C   UNL     1      -9.823  20.426  67.171  1.00  0.00    -0.601 A  
HETATM   32  C   UNL     1      -9.623  17.721  67.721  1.00  0.00    -0.272 A  
HETATM   33  C   UNL     1     -10.962  19.624  67.124  1.00  0.00    -0.420 A  
HETATM   34  C   UNL     1     -10.864  18.270  67.406  1.00  0.00    -0.281 A  
BRANCH  30  35
HETATM   35  C   UNL     1      -7.360  20.828  67.543  1.00  0.00    -0.313 C  
HETATM   36  N   UNL     1      -6.824  21.159  66.222  1.00  0.00    -0.524 NA 
HETATM   37  H1  UNL     1      -6.021  21.787  66.266  1.00  0.00     0.000 HD 
HETATM   38  H2  UNL     1      -7.553  21.539  65.617  1.00  0.00     0.000 HD 
ENDBRANCH  30  35
ENDBRANCH  28  29
ENDBRANCH  25  28
ENDBRANCH  10  24
TORSDOF 8
ENDMDL
MODEL      215
REMARK 921   NORMALIZED FREE ENERGY PREDICTED BY IDOCK:   -5.22 KCAL/MOL
REMARK 922        TOTAL FREE ENERGY PREDICTED BY IDOCK:   -8.48 KCAL/MOL
REMARK 923 INTER-LIGAND FREE ENERGY PREDICTED BY IDOCK:   -8.98 KCAL/MOL
REMARK 924 INTRA-LIGAND FREE ENERGY PREDICTED BY IDOCK:    0.50 KCAL/MOL
REMARK 927      BINDING AFFINITY PREDICTED BY RF-SCORE:    0.00 PKD
ROOT
HETATM    1  C   UNL     1      -9.029  14.890  67.382  1.00  0.00    -0.189 C  
HETATM    2  S   UNL     1      -7.977  13.975  68.528  1.00  0.00    -0.127 SA 
HETATM    3  C   UNL     1      -7.538  12.705  67.319  1.00  0.00    -0.120 C  
HETATM    4  C   UNL     1      -8.702  12.167  66.496  1.00  0.00    -0.114 C  
HETATM    5  O   UNL     1     -12.293  12.505  65.910  1.00  0.00    -0.626 OA 
HETATM    6  CA  UNL     1      -9.913  12.789  66.382  1.00  0.00    -0.265 C  
HETATM    7  N   UNL     1     -10.102  14.012  66.962  1.00  0.00    -0.252 N  
HETATM    8  O   UNL     1     -12.311  14.652  67.261  1.00  0.00    -0.203 OA 
HETATM    9  C   UNL     1     -11.038  12.133  65.609  1.00  0.00    -0.316 C  
HETATM   10  CA  UNL     1     -10.126  15.818  67.999  1.00  0.00    -0.228 C  
HETATM   11  OXT UNL     1     -10.844  11.303  64.735  1.00  0.00    -0.302 OA 
HETATM   12  C   UNL     1     -11.116  14.808  67.347  1.00  0.00    -0.324 C  
ENDROOT
BRANCH   4  13
HETATM   13  C   UNL     1      -8.380  10.781  65.939  1.00  0.00    -0.162 C  
BRANCH  13  14
HETATM   14  S   UNL     1      -7.653   9.699  67.221  1.00  0.00    -0.091 SA 
BRANCH  14  15
HETATM   15  C   UNL     1      -8.989   8.631  67.486  1.00  0.00    -0.134 A  
HETATM   16  N   UNL     1      -9.834   8.697  68.490  1.00  0.00    -0.165 NA 
HETATM   17  N   UNL     1      -9.353   7.587  66.678  1.00  0.00    -0.167 NA 
HETATM   18  N   UNL     1     -10.755   7.704  68.279  1.00  0.00    -0.110 NA 
HETATM   19  N   UNL     1     -10.493   7.044  67.162  1.00  0.00    -0.277 NA 
BRANCH  17  20
HETATM   20  C   UNL     1      -8.807   7.146  65.415  1.00  0.00     0.110 C  
HETATM   21  O   UNL     1      -7.925   5.100  66.445  1.00  0.00    -0.103 OA 
HETATM   22  C   UNL     1      -7.789   6.029  65.477  1.00  0.00    -0.105 C  
HETATM   23  O   UNL     1      -6.917   5.913  64.623  1.00  0.00    -0.049 OA 
ENDBRANCH  17  20
ENDBRANCH  14  15
ENDBRANCH  13  14
ENDBRANCH   4  13
BRANCH  10  24
HETATM   24  N   UNL     1     -10.200  15.936  69.474  1.00  0.00    -0.262 N  
HETATM   25  C   UNL     1     -11.168  15.410  70.287  1.00  0.00    -0.309 C  
HETATM   26  O   UNL     1     -11.131  15.651  71.493  1.00  0.00    -0.332 OA 
HETATM   27  H   UNL     1      -9.454  16.463  69.929  1.00  0.00     0.000 HD 
BRANCH  25  28
HETATM   28  C   UNL     1     -12.263  14.559  69.663  1.00  0.00    -0.336 C  
BRANCH  28  29
HETATM   29  C   UNL     1     -12.403  13.177  70.263  1.00  0.00    -0.319 A  
HETATM   30  C   UNL     1     -13.253  12.902  71.358  1.00  0.00    -0.262 A  
HETATM   31  C   UNL     1     -13.320  11.579  71.839  1.00  0.00    -0.408 A  
HETATM   32  C   UNL     1     -11.679  12.117  69.676  1.00  0.00    -0.396 A  
HETATM   33  C   UNL     1     -12.599  10.545  71.242  1.00  0.00    -0.531 A  
HETATM   34  C   UNL     1     -11.772  10.816  70.163  1.00  0.00    -0.425 A  
BRANCH  30  35
HETATM   35  C   UNL     1     -14.038  13.986  72.073  1.00  0.00    -0.509 C  
HETATM   36  N   UNL     1     -13.282  14.615  73.157  1.00  0.00    -0.572 NA 
HETATM   37  H1  UNL     1     -13.810  15.344  73.638  1.00  0.00     0.000 HD 
HETATM   38  H2  UNL     1     -12.388  14.973  72.818  1.00  0.00     0.000 HD 
ENDBRANCH  30  35
ENDBRANCH  28  29
ENDBRANCH  25  28
ENDBRANCH  10  24
TORSDOF 8
ENDMDL
MODEL      216
REMARK 921   NORMALIZED FREE ENERGY PREDICTED BY IDOCK:   -5.21 KCAL/MOL
REMARK 922        TOTAL FREE ENERGY PREDICTED BY IDOCK:   -8.47 KCAL/MOL
REMARK 923 INTER-LIGAND FREE ENERGY PREDICTED BY IDOCK:   -9.33 KCAL/MOL
REMARK 924 INTRA-LIGAND FREE ENERGY PREDICTED BY IDOCK:    0.87 KCAL/MOL
REMARK 927      BINDING AFFINITY PREDICTED BY RF-SCORE:    0.00 PKD
ROOT
HETATM    1  C   UNL     1      -9.733   7.906  72.846  1.00  0.00    -0.273 C  
HETATM    2  S   UNL     1      -8.917   8.587  71.388  1.00  0.00    -0.224 SA 
HETATM    3  C   UNL     1     -10.166   9.865  71.123  1.00  0.00     0.284 C  
HETATM    4  C   UNL     1     -11.610   9.392  71.243  1.00  0.00    -0.434 C  
HETATM    5  O   UNL     1     -13.701   6.487  71.978  1.00  0.00    -0.092 OA 
HETATM    6  CA  UNL     1     -11.987   8.222  71.839  1.00  0.00    -0.330 C  
HETATM    7  N   UNL     1     -11.045   7.440  72.448  1.00  0.00    -0.268 N  
HETATM    8  O   UNL     1     -11.664   5.238  72.833  1.00  0.00    -0.295 OA 
HETATM    9  C   UNL     1     -13.440   7.796  71.833  1.00  0.00    -0.266 C  
HETATM   10  CA  UNL     1      -9.403   6.425  73.228  1.00  0.00    -0.131 C  
HETATM   11  OXT UNL     1     -14.361   8.588  71.715  1.00  0.00    -0.430 OA 
HETATM   12  C   UNL     1     -10.896   6.170  72.867  1.00  0.00    -0.260 C  
ENDROOT
BRANCH   4  13
HETATM   13  C   UNL     1     -12.554  10.327  70.487  1.00  0.00    -0.258 C  
BRANCH  13  14
HETATM   14  S   UNL     1     -12.808  11.895  71.393  1.00  0.00    -0.209 SA 
BRANCH  14  15
HETATM   15  C   UNL     1     -12.245  13.011  70.196  1.00  0.00    -0.272 A  
HETATM   16  N   UNL     1     -11.432  12.726  69.205  1.00  0.00    -0.288 NA 
HETATM   17  N   UNL     1     -12.585  14.335  70.113  1.00  0.00    -0.334 NA 
HETATM   18  N   UNL     1     -11.297  13.880  68.478  1.00  0.00    -0.261 NA 
HETATM   19  N   UNL     1     -12.021  14.857  69.000  1.00  0.00    -0.296 NA 
BRANCH  17  20
HETATM   20  C   UNL     1     -13.508  15.117  70.905  1.00  0.00    -0.376 C  
HETATM   21  O   UNL     1     -11.669  16.024  72.256  1.00  0.00    -0.456 OA 
HETATM   22  C   UNL     1     -12.971  15.675  72.205  1.00  0.00    -0.449 C  
HETATM   23  O   UNL     1     -13.710  15.891  73.159  1.00  0.00    -0.576 OA 
ENDBRANCH  17  20
ENDBRANCH  14  15
ENDBRANCH  13  14
ENDBRANCH   4  13
BRANCH  10  24
HETATM   24  N   UNL     1      -8.405   5.694  72.414  1.00  0.00    -0.114 N  
HETATM   25  C   UNL     1      -8.658   4.937  71.301  1.00  0.00    -0.123 C  
HETATM   26  O   UNL     1      -7.729   4.331  70.767  1.00  0.00    -0.054 OA 
HETATM   27  H   UNL     1      -7.432   5.762  72.711  1.00  0.00     0.000 HD 
BRANCH  25  28
HETATM   28  C   UNL     1     -10.084   4.860  70.778  1.00  0.00    -0.303 C  
BRANCH  28  29
HETATM   29  C   UNL     1     -10.227   5.156  69.300  1.00  0.00    -0.276 A  
HETATM   30  C   UNL     1      -9.872   4.226  68.298  1.00  0.00    -0.106 A  
HETATM   31  C   UNL     1     -10.052   4.593  66.949  1.00  0.00    -0.227 A  
HETATM   32  C   UNL     1     -10.772   6.400  68.918  1.00  0.00    -0.339 A  
HETATM   33  C   UNL     1     -10.596   5.826  66.592  1.00  0.00    -0.347 A  
HETATM   34  C   UNL     1     -10.950   6.735  67.577  1.00  0.00    -0.375 A  
BRANCH  30  35
HETATM   35  C   UNL     1      -9.245   2.881  68.617  1.00  0.00    -0.173 C  
HETATM   36  N   UNL     1      -9.699   1.816  67.723  1.00  0.00    -0.399 NA 
HETATM   37  H1  UNL     1      -9.278   0.912  67.937  1.00  0.00     0.000 HD 
HETATM   38  H2  UNL     1      -9.544   2.069  66.746  1.00  0.00     0.000 HD 
ENDBRANCH  30  35
ENDBRANCH  28  29
ENDBRANCH  25  28
ENDBRANCH  10  24
TORSDOF 8
ENDMDL
MODEL      217
REMARK 921   NORMALIZED FREE ENERGY PREDICTED BY IDOCK:   -5.21 KCAL/MOL
REMARK 922        TOTAL FREE ENERGY PREDICTED BY IDOCK:   -8.46 KCAL/MOL
REMARK 923 INTER-LIGAND FREE ENERGY PREDICTED BY IDOCK:   -7.06 KCAL/MOL
REMARK 924 INTRA-LIGAND FREE ENERGY PREDICTED BY IDOCK:   -1.41 KCAL/MOL
REMARK 927      BINDING AFFINITY PREDICTED BY RF-SCORE:    0.00 PKD
ROOT
HETATM    1  C   UNL     1      -8.782   9.727  69.481  1.00  0.00    -0.185 C  
HETATM    2  S   UNL     1      -9.535   9.162  71.020  1.00  0.00    -0.252 SA 
HETATM    3  C   UNL     1      -8.877   7.485  70.881  1.00  0.00    -0.144 C  
HETATM    4  C   UNL     1      -9.001   6.854  69.500  1.00  0.00    -0.143 C  
HETATM    5  O   UNL     1     -10.134   7.465  66.080  1.00  0.00     0.045 OA 
HETATM    6  CA  UNL     1      -9.249   7.557  68.355  1.00  0.00    -0.139 C  
HETATM    7  N   UNL     1      -9.313   8.921  68.400  1.00  0.00    -0.136 N  
HETATM    8  O   UNL     1     -10.357   9.939  66.596  1.00  0.00    -0.231 OA 
HETATM    9  C   UNL     1      -9.442   6.830  67.040  1.00  0.00    -0.146 C  
HETATM   10  CA  UNL     1      -9.427  10.966  68.778  1.00  0.00    -0.190 C  
HETATM   11  OXT UNL     1      -8.990   5.717  66.828  1.00  0.00    -0.114 OA 
HETATM   12  C   UNL     1      -9.789   9.941  67.663  1.00  0.00    -0.163 C  
ENDROOT
BRANCH   4  13
HETATM   13  C   UNL     1      -8.956   5.329  69.592  1.00  0.00    -0.107 C  
BRANCH  13  14
HETATM   14  S   UNL     1      -8.086   4.777  71.102  1.00  0.00    -0.094 SA 
BRANCH  14  15
HETATM   15  C   UNL     1      -9.182   3.547  71.632  1.00  0.00    -0.123 A  
HETATM   16  N   UNL     1      -9.340   2.369  71.072  1.00  0.00    -0.131 NA 
HETATM   17  N   UNL     1     -10.018   3.630  72.714  1.00  0.00    -0.146 NA 
HETATM   18  N   UNL     1     -10.258   1.701  71.840  1.00  0.00    -0.155 NA 
HETATM   19  N   UNL     1     -10.653   2.445  72.861  1.00  0.00    -0.154 NA 
BRANCH  17  20
HETATM   20  C   UNL     1     -10.167   4.672  73.705  1.00  0.00    -0.179 C  
HETATM   21  O   UNL     1     -11.869   5.803  72.343  1.00  0.00    -0.293 OA 
HETATM   22  C   UNL     1     -10.884   5.926  73.257  1.00  0.00    -0.261 C  
HETATM   23  O   UNL     1     -10.647   7.014  73.770  1.00  0.00    -0.375 OA 
ENDBRANCH  17  20
ENDBRANCH  14  15
ENDBRANCH  13  14
ENDBRANCH   4  13
BRANCH  10  24
HETATM   24  N   UNL     1     -10.571  11.634  69.439  1.00  0.00    -0.437 N  
HETATM   25  C   UNL     1     -11.138  12.827  69.080  1.00  0.00    -0.189 C  
HETATM   26  O   UNL     1     -12.046  13.290  69.771  1.00  0.00    -0.316 OA 
HETATM   27  H   UNL     1     -10.979  11.157  70.244  1.00  0.00     0.000 HD 
BRANCH  25  28
HETATM   28  C   UNL     1     -10.611  13.544  67.847  1.00  0.00    -0.255 C  
BRANCH  28  29
HETATM   29  C   UNL     1     -10.074  14.935  68.110  1.00  0.00    -0.222 A  
HETATM   30  C   UNL     1      -8.693  15.209  68.232  1.00  0.00    -0.171 A  
HETATM   31  C   UNL     1      -8.293  16.540  68.468  1.00  0.00    -0.210 A  
HETATM   32  C   UNL     1     -10.995  16.000  68.202  1.00  0.00    -0.339 A  
HETATM   33  C   UNL     1      -9.218  17.580  68.551  1.00  0.00    -0.278 A  
HETATM   34  C   UNL     1     -10.572  17.309  68.425  1.00  0.00    -0.368 A  
BRANCH  30  35
HETATM   35  C   UNL     1      -7.637  14.120  68.184  1.00  0.00    -0.136 C  
HETATM   36  N   UNL     1      -7.183  13.711  69.513  1.00  0.00    -0.321 NA 
HETATM   37  H1  UNL     1      -6.473  12.978  69.481  1.00  0.00     0.000 HD 
HETATM   38  H2  UNL     1      -7.971  13.431  70.098  1.00  0.00     0.000 HD 
ENDBRANCH  30  35
ENDBRANCH  28  29
ENDBRANCH  25  28
ENDBRANCH  10  24
TORSDOF 8
ENDMDL
MODEL      218
REMARK 921   NORMALIZED FREE ENERGY PREDICTED BY IDOCK:   -5.18 KCAL/MOL
REMARK 922        TOTAL FREE ENERGY PREDICTED BY IDOCK:   -8.43 KCAL/MOL
REMARK 923 INTER-LIGAND FREE ENERGY PREDICTED BY IDOCK:   -7.92 KCAL/MOL
REMARK 924 INTRA-LIGAND FREE ENERGY PREDICTED BY IDOCK:   -0.50 KCAL/MOL
REMARK 927      BINDING AFFINITY PREDICTED BY RF-SCORE:    0.00 PKD
ROOT
HETATM    1  C   UNL     1     -10.816   5.847  70.976  1.00  0.00    -0.273 C  
HETATM    2  S   UNL     1     -11.324   6.416  69.341  1.00  0.00    -0.292 SA 
HETATM    3  C   UNL     1      -9.648   6.394  68.667  1.00  0.00    -0.120 C  
HETATM    4  C   UNL     1      -8.580   6.999  69.570  1.00  0.00    -0.134 C  
HETATM    5  O   UNL     1      -8.020   8.535  72.838  1.00  0.00    -0.335 OA 
HETATM    6  CA  UNL     1      -8.746   7.227  70.907  1.00  0.00    -0.148 C  
HETATM    7  N   UNL     1      -9.897   6.824  71.524  1.00  0.00    -0.171 N  
HETATM    8  O   UNL     1     -10.339   7.814  73.574  1.00  0.00    -0.322 OA 
HETATM    9  C   UNL     1      -7.657   7.913  71.705  1.00  0.00    -0.080 C  
HETATM   10  CA  UNL     1     -11.765   6.173  72.177  1.00  0.00    -0.309 C  
HETATM   11  OXT UNL     1      -6.485   7.909  71.363  1.00  0.00    -0.037 OA 
HETATM   12  C   UNL     1     -10.587   7.073  72.652  1.00  0.00    -0.245 C  
ENDROOT
BRANCH   4  13
HETATM   13  C   UNL     1      -7.367   7.444  68.756  1.00  0.00    -0.095 C  
BRANCH  13  14
HETATM   14  S   UNL     1      -7.551   7.008  66.990  1.00  0.00    -0.104 SA 
BRANCH  14  15
HETATM   15  C   UNL     1      -8.131   8.520  66.379  1.00  0.00    -0.103 A  
HETATM   16  N   UNL     1      -9.310   8.725  65.836  1.00  0.00    -0.228 NA 
HETATM   17  N   UNL     1      -7.447   9.706  66.396  1.00  0.00    -0.094 NA 
HETATM   18  N   UNL     1      -9.369  10.064  65.547  1.00  0.00    -0.197 NA 
HETATM   19  N   UNL     1      -8.255  10.678  65.915  1.00  0.00    -0.156 NA 
BRANCH  17  20
HETATM   20  C   UNL     1      -6.155  10.035  66.955  1.00  0.00    -0.055 C  
HETATM   21  O   UNL     1      -7.181  10.686  69.088  1.00  0.00    -0.080 OA 
HETATM   22  C   UNL     1      -6.163  10.863  68.220  1.00  0.00    -0.049 C  
HETATM   23  O   UNL     1      -5.231  11.609  68.501  1.00  0.00    -0.043 OA 
ENDBRANCH  17  20
ENDBRANCH  14  15
ENDBRANCH  13  14
ENDBRANCH   4  13
BRANCH  10  24
HETATM   24  N   UNL     1     -13.040   6.872  71.896  1.00  0.00    -0.525 N  
HETATM   25  C   UNL     1     -13.221   8.224  71.777  1.00  0.00    -0.347 C  
HETATM   26  O   UNL     1     -14.359   8.662  71.608  1.00  0.00    -0.415 OA 
HETATM   27  H   UNL     1     -13.868   6.286  71.780  1.00  0.00     0.000 HD 
BRANCH  25  28
HETATM   28  C   UNL     1     -12.007   9.134  71.874  1.00  0.00    -0.443 C  
BRANCH  28  29
HETATM   29  C   UNL     1     -12.229  10.536  71.347  1.00  0.00    -0.429 A  
HETATM   30  C   UNL     1     -11.632  11.008  70.157  1.00  0.00    -0.421 A  
HETATM   31  C   UNL     1     -11.910  12.328  69.746  1.00  0.00    -0.388 A  
HETATM   32  C   UNL     1     -13.099  11.388  72.062  1.00  0.00    -0.423 A  
HETATM   33  C   UNL     1     -12.775  13.152  70.464  1.00  0.00    -0.140 A  
HETATM   34  C   UNL     1     -13.365  12.684  71.628  1.00  0.00    -0.315 A  
BRANCH  30  35
HETATM   35  C   UNL     1     -10.657  10.175  69.347  1.00  0.00    -0.237 C  
HETATM   36  N   UNL     1     -10.077  10.911  68.223  1.00  0.00    -0.168 NA 
HETATM   37  H1  UNL     1      -9.421  10.350  67.678  1.00  0.00     0.000 HD 
HETATM   38  H2  UNL     1      -9.642  11.778  68.540  1.00  0.00     0.000 HD 
ENDBRANCH  30  35
ENDBRANCH  28  29
ENDBRANCH  25  28
ENDBRANCH  10  24
TORSDOF 8
ENDMDL
MODEL      219
REMARK 921   NORMALIZED FREE ENERGY PREDICTED BY IDOCK:   -5.18 KCAL/MOL
REMARK 922        TOTAL FREE ENERGY PREDICTED BY IDOCK:   -8.42 KCAL/MOL
REMARK 923 INTER-LIGAND FREE ENERGY PREDICTED BY IDOCK:   -7.43 KCAL/MOL
REMARK 924 INTRA-LIGAND FREE ENERGY PREDICTED BY IDOCK:   -0.98 KCAL/MOL
REMARK 927      BINDING AFFINITY PREDICTED BY RF-SCORE:    0.00 PKD
ROOT
HETATM    1  C   UNL     1      -8.567  10.066  65.319  1.00  0.00    -0.154 C  
HETATM    2  S   UNL     1     -10.283  10.413  64.883  1.00  0.00    -0.158 SA 
HETATM    3  C   UNL     1     -10.166  12.172  65.276  1.00  0.00    -0.274 C  
HETATM    4  C   UNL     1      -9.458  12.496  66.586  1.00  0.00    -0.242 C  
HETATM    5  O   UNL     1      -7.710  11.007  69.428  1.00  0.00    -0.114 OA 
HETATM    6  CA  UNL     1      -8.657  11.619  67.261  1.00  0.00    -0.154 C  
HETATM    7  N   UNL     1      -8.386  10.395  66.718  1.00  0.00    -0.124 N  
HETATM    8  O   UNL     1      -7.591   8.793  68.195  1.00  0.00    -0.094 OA 
HETATM    9  C   UNL     1      -8.065  12.004  68.601  1.00  0.00    -0.069 C  
HETATM   10  CA  UNL     1      -8.205   8.591  65.693  1.00  0.00    -0.130 C  
HETATM   11  OXT UNL     1      -7.894  13.164  68.940  1.00  0.00    -0.028 OA 
HETATM   12  C   UNL     1      -7.941   9.186  67.107  1.00  0.00    -0.106 C  
ENDROOT
BRANCH   4  13
HETATM   13  C   UNL     1      -9.877  13.870  67.106  1.00  0.00    -0.241 C  
BRANCH  13  14
HETATM   14  S   UNL     1      -8.743  15.180  66.522  1.00  0.00    -0.176 SA 
BRANCH  14  15
HETATM   15  C   UNL     1      -9.860  16.144  65.617  1.00  0.00    -0.255 A  
HETATM   16  N   UNL     1     -10.840  15.683  64.872  1.00  0.00    -0.441 NA 
HETATM   17  N   UNL     1      -9.882  17.512  65.569  1.00  0.00    -0.377 NA 
HETATM   18  N   UNL     1     -11.500  16.783  64.388  1.00  0.00    -1.005 NA 
HETATM   19  N   UNL     1     -10.947  17.901  64.832  1.00  0.00    -0.608 NA 
BRANCH  17  20
HETATM   20  C   UNL     1      -9.078  18.487  66.269  1.00  0.00    -0.207 C  
HETATM   21  O   UNL     1     -10.835  18.813  67.951  1.00  0.00    -0.345 OA 
HETATM   22  C   UNL     1      -9.800  19.353  67.277  1.00  0.00    -0.344 C  
HETATM   23  O   UNL     1      -9.406  20.484  67.545  1.00  0.00    -0.380 OA 
ENDBRANCH  17  20
ENDBRANCH  14  15
ENDBRANCH  13  14
ENDBRANCH   4  13
BRANCH  10  24
HETATM   24  N   UNL     1      -9.269   7.563  65.612  1.00  0.00    -0.387 N  
HETATM   25  C   UNL     1      -9.171   6.256  66.009  1.00  0.00    -0.078 C  
HETATM   26  O   UNL     1     -10.124   5.500  65.815  1.00  0.00    -0.008 OA 
HETATM   27  H   UNL     1     -10.163   7.858  65.221  1.00  0.00     0.000 HD 
BRANCH  25  28
HETATM   28  C   UNL     1      -7.881   5.785  66.661  1.00  0.00    -0.101 C  
BRANCH  28  29
HETATM   29  C   UNL     1      -8.056   4.655  67.653  1.00  0.00    -0.100 A  
HETATM   30  C   UNL     1      -8.737   4.815  68.881  1.00  0.00    -0.107 A  
HETATM   31  C   UNL     1      -8.854   3.697  69.733  1.00  0.00    -0.152 A  
HETATM   32  C   UNL     1      -7.544   3.384  67.315  1.00  0.00    -0.078 A  
HETATM   33  C   UNL     1      -8.345   2.449  69.378  1.00  0.00    -0.077 A  
HETATM   34  C   UNL     1      -7.682   2.293  68.170  1.00  0.00    -0.054 A  
BRANCH  30  35
HETATM   35  C   UNL     1      -9.285   6.153  69.341  1.00  0.00    -0.133 C  
HETATM   36  N   UNL     1      -8.465   6.775  70.381  1.00  0.00    -0.133 NA 
HETATM   37  H1  UNL     1      -8.834   7.675  70.691  1.00  0.00     0.000 HD 
HETATM   38  H2  UNL     1      -7.495   6.862  70.077  1.00  0.00     0.000 HD 
ENDBRANCH  30  35
ENDBRANCH  28  29
ENDBRANCH  25  28
ENDBRANCH  10  24
TORSDOF 8
ENDMDL
MODEL      220
REMARK 921   NORMALIZED FREE ENERGY PREDICTED BY IDOCK:   -5.17 KCAL/MOL
REMARK 922        TOTAL FREE ENERGY PREDICTED BY IDOCK:   -8.41 KCAL/MOL
REMARK 923 INTER-LIGAND FREE ENERGY PREDICTED BY IDOCK:   -9.07 KCAL/MOL
REMARK 924 INTRA-LIGAND FREE ENERGY PREDICTED BY IDOCK:    0.66 KCAL/MOL
REMARK 927      BINDING AFFINITY PREDICTED BY RF-SCORE:    0.00 PKD
ROOT
HETATM    1  C   UNL     1     -12.016  12.410  65.714  1.00  0.00    -0.372 C  
HETATM    2  S   UNL     1     -10.421  11.882  65.057  1.00  0.00    -0.301 SA 
HETATM    3  C   UNL     1     -10.350  10.386  66.066  1.00  0.00    -0.192 C  
HETATM    4  C   UNL     1     -10.736  10.573  67.528  1.00  0.00    -0.326 C  
HETATM    5  O   UNL     1     -11.897  13.031  69.970  1.00  0.00    -0.322 OA 
HETATM    6  CA  UNL     1     -11.416  11.656  68.009  1.00  0.00    -0.315 C  
HETATM    7  N   UNL     1     -11.868  12.611  67.141  1.00  0.00    -0.366 N  
HETATM    8  O   UNL     1     -12.408  14.657  68.090  1.00  0.00    -0.134 OA 
HETATM    9  C   UNL     1     -11.678  11.795  69.494  1.00  0.00    -0.343 C  
HETATM   10  CA  UNL     1     -12.369  13.930  65.610  1.00  0.00    -0.482 C  
HETATM   11  OXT UNL     1     -11.705  10.839  70.253  1.00  0.00    -0.295 OA 
HETATM   12  C   UNL     1     -12.283  13.890  67.164  1.00  0.00    -0.318 C  
ENDROOT
BRANCH   4  13
HETATM   13  C   UNL     1     -10.136   9.467  68.395  1.00  0.00    -0.175 C  
BRANCH  13  14
HETATM   14  S   UNL     1      -8.457   9.014  67.833  1.00  0.00    -0.121 SA 
BRANCH  14  15
HETATM   15  C   UNL     1      -7.542   9.546  69.202  1.00  0.00    -0.075 A  
HETATM   16  N   UNL     1      -6.939  10.708  69.314  1.00  0.00    -0.084 NA 
HETATM   17  N   UNL     1      -7.338   8.836  70.355  1.00  0.00    -0.056 NA 
HETATM   18  N   UNL     1      -6.387  10.731  70.569  1.00  0.00    -0.301 NA 
HETATM   19  N   UNL     1      -6.652   9.612  71.224  1.00  0.00    -0.305 NA 
BRANCH  17  20
HETATM   20  C   UNL     1      -7.852   7.549  70.766  1.00  0.00    -0.098 C  
HETATM   21  O   UNL     1      -9.803   8.603  71.821  1.00  0.00    -0.238 OA 
HETATM   22  C   UNL     1      -8.939   7.567  71.818  1.00  0.00    -0.122 C  
HETATM   23  O   UNL     1      -9.094   6.627  72.590  1.00  0.00    -0.134 OA 
ENDBRANCH  17  20
ENDBRANCH  14  15
ENDBRANCH  13  14
ENDBRANCH   4  13
BRANCH  10  24
HETATM   24  N   UNL     1     -11.409  14.831  64.932  1.00  0.00    -0.395 N  
HETATM   25  C   UNL     1     -10.477  15.633  65.535  1.00  0.00    -0.404 C  
HETATM   26  O   UNL     1      -9.791  16.381  64.838  1.00  0.00    -0.056 OA 
HETATM   27  H   UNL     1     -11.444  14.856  63.913  1.00  0.00     0.000 HD 
BRANCH  25  28
HETATM   28  C   UNL     1     -10.338  15.581  67.049  1.00  0.00    -0.279 C  
BRANCH  28  29
HETATM   29  C   UNL     1      -9.596  16.754  67.652  1.00  0.00    -0.244 A  
HETATM   30  C   UNL     1      -8.192  16.769  67.811  1.00  0.00    -0.190 A  
HETATM   31  C   UNL     1      -7.594  17.914  68.375  1.00  0.00    -0.282 A  
HETATM   32  C   UNL     1     -10.340  17.890  68.036  1.00  0.00    -0.394 A  
HETATM   33  C   UNL     1      -8.347  19.027  68.745  1.00  0.00    -0.364 A  
HETATM   34  C   UNL     1      -9.723  19.013  68.582  1.00  0.00    -0.468 A  
BRANCH  30  35
HETATM   35  C   UNL     1      -7.318  15.579  67.460  1.00  0.00    -0.189 C  
HETATM   36  N   UNL     1      -5.980  15.968  67.014  1.00  0.00    -0.328 NA 
HETATM   37  H1  UNL     1      -5.393  15.167  66.778  1.00  0.00     0.000 HD 
HETATM   38  H2  UNL     1      -5.525  16.565  67.705  1.00  0.00     0.000 HD 
ENDBRANCH  30  35
ENDBRANCH  28  29
ENDBRANCH  25  28
ENDBRANCH  10  24
TORSDOF 8
ENDMDL
MODEL      221
REMARK 921   NORMALIZED FREE ENERGY PREDICTED BY IDOCK:   -5.14 KCAL/MOL
REMARK 922        TOTAL FREE ENERGY PREDICTED BY IDOCK:   -8.37 KCAL/MOL
REMARK 923 INTER-LIGAND FREE ENERGY PREDICTED BY IDOCK:   -7.63 KCAL/MOL
REMARK 924 INTRA-LIGAND FREE ENERGY PREDICTED BY IDOCK:   -0.74 KCAL/MOL
REMARK 927      BINDING AFFINITY PREDICTED BY RF-SCORE:    0.00 PKD
ROOT
HETATM    1  C   UNL     1      -9.635   8.625  70.374  1.00  0.00    -0.173 C  
HETATM    2  S   UNL     1      -9.815   8.806  68.588  1.00  0.00    -0.173 SA 
HETATM    3  C   UNL     1     -10.380  10.519  68.684  1.00  0.00    -0.185 C  
HETATM    4  C   UNL     1     -11.428  10.794  69.756  1.00  0.00    -0.386 C  
HETATM    5  O   UNL     1     -13.347   9.253  72.456  1.00  0.00    -0.457 OA 
HETATM    6  CA  UNL     1     -11.693   9.957  70.803  1.00  0.00    -0.341 C  
HETATM    7  N   UNL     1     -10.934   8.834  70.979  1.00  0.00    -0.252 N  
HETATM    8  O   UNL     1     -11.858   7.202  72.343  1.00  0.00    -0.259 OA 
HETATM    9  C   UNL     1     -12.814  10.276  71.769  1.00  0.00    -0.460 C  
HETATM   10  CA  UNL     1      -9.676   7.175  70.958  1.00  0.00    -0.165 C  
HETATM   11  OXT UNL     1     -13.232  11.409  71.947  1.00  0.00    -0.484 OA 
HETATM   12  C   UNL     1     -10.999   7.655  71.624  1.00  0.00    -0.233 C  
ENDROOT
BRANCH   4  13
HETATM   13  C   UNL     1     -12.232  12.050  69.421  1.00  0.00    -0.097 C  
BRANCH  13  14
HETATM   14  S   UNL     1     -11.163  13.533  69.369  1.00  0.00    -0.135 SA 
BRANCH  14  15
HETATM   15  C   UNL     1     -11.322  13.944  67.696  1.00  0.00    -0.309 A  
HETATM   16  N   UNL     1     -11.922  13.215  66.782  1.00  0.00    -0.388 NA 
HETATM   17  N   UNL     1     -10.861  15.090  67.105  1.00  0.00    -0.307 NA 
HETATM   18  N   UNL     1     -11.863  13.937  65.618  1.00  0.00    -0.354 NA 
HETATM   19  N   UNL     1     -11.250  15.095  65.809  1.00  0.00    -0.321 NA 
BRANCH  17  20
HETATM   20  C   UNL     1     -10.213  16.246  67.681  1.00  0.00    -0.272 C  
HETATM   21  O   UNL     1      -7.999  15.383  67.065  1.00  0.00    -0.203 OA 
HETATM   22  C   UNL     1      -8.724  16.130  67.922  1.00  0.00    -0.174 C  
HETATM   23  O   UNL     1      -8.171  16.765  68.814  1.00  0.00    -0.238 OA 
ENDBRANCH  17  20
ENDBRANCH  14  15
ENDBRANCH  13  14
ENDBRANCH   4  13
BRANCH  10  24
HETATM   24  N   UNL     1      -9.801   6.040  70.015  1.00  0.00    -0.167 N  
HETATM   25  C   UNL     1      -9.922   4.716  70.343  1.00  0.00    -0.230 C  
HETATM   26  O   UNL     1      -9.949   3.877  69.442  1.00  0.00    -0.084 OA 
HETATM   27  H   UNL     1      -9.796   6.267  69.020  1.00  0.00     0.000 HD 
BRANCH  25  28
HETATM   28  C   UNL     1     -10.003   4.332  71.812  1.00  0.00    -0.254 C  
BRANCH  28  29
HETATM   29  C   UNL     1      -8.700   4.471  72.570  1.00  0.00    -0.119 A  
HETATM   30  C   UNL     1      -7.540   3.735  72.238  1.00  0.00    -0.062 A  
HETATM   31  C   UNL     1      -6.373   3.944  73.000  1.00  0.00    -0.020 A  
HETATM   32  C   UNL     1      -8.640   5.403  73.629  1.00  0.00    -0.110 A  
HETATM   33  C   UNL     1      -6.333   4.872  74.039  1.00  0.00    -0.064 A  
HETATM   34  C   UNL     1      -7.470   5.598  74.360  1.00  0.00    -0.088 A  
BRANCH  30  35
HETATM   35  C   UNL     1      -7.526   2.688  71.140  1.00  0.00    -0.033 C  
HETATM   36  N   UNL     1      -6.931   3.176  69.896  1.00  0.00    -0.034 NA 
HETATM   37  H1  UNL     1      -6.921   2.471  69.158  1.00  0.00     0.000 HD 
HETATM   38  H2  UNL     1      -5.994   3.546  70.061  1.00  0.00     0.000 HD 
ENDBRANCH  30  35
ENDBRANCH  28  29
ENDBRANCH  25  28
ENDBRANCH  10  24
TORSDOF 8
ENDMDL
MODEL      222
REMARK 921   NORMALIZED FREE ENERGY PREDICTED BY IDOCK:   -5.11 KCAL/MOL
REMARK 922        TOTAL FREE ENERGY PREDICTED BY IDOCK:   -8.32 KCAL/MOL
REMARK 923 INTER-LIGAND FREE ENERGY PREDICTED BY IDOCK:   -6.95 KCAL/MOL
REMARK 924 INTRA-LIGAND FREE ENERGY PREDICTED BY IDOCK:   -1.37 KCAL/MOL
REMARK 927      BINDING AFFINITY PREDICTED BY RF-SCORE:    0.00 PKD
ROOT
HETATM    1  C   UNL     1      -9.801   8.874  69.125  1.00  0.00    -0.180 C  
HETATM    2  S   UNL     1     -10.150   8.962  67.356  1.00  0.00    -0.247 SA 
HETATM    3  C   UNL     1     -10.622  10.705  67.401  1.00  0.00    -0.256 C  
HETATM    4  C   UNL     1     -11.544  11.095  68.550  1.00  0.00    -0.385 C  
HETATM    5  O   UNL     1     -13.254   9.811  71.513  1.00  0.00    -0.365 OA 
HETATM    6  CA  UNL     1     -11.742  10.333  69.667  1.00  0.00    -0.160 C  
HETATM    7  N   UNL     1     -11.023   9.184  69.838  1.00  0.00    -0.229 N  
HETATM    8  O   UNL     1     -11.881   7.682  71.383  1.00  0.00    -0.278 OA 
HETATM    9  C   UNL     1     -12.745  10.765  70.716  1.00  0.00    -0.360 C  
HETATM   10  CA  UNL     1      -9.851   7.463  69.798  1.00  0.00    -0.171 C  
HETATM   11  OXT UNL     1     -13.090  11.926  70.864  1.00  0.00    -0.087 OA 
HETATM   12  C   UNL     1     -11.078   8.048  70.557  1.00  0.00    -0.251 C  
ENDROOT
BRANCH   4  13
HETATM   13  C   UNL     1     -12.318  12.370  68.218  1.00  0.00     0.470 C  
BRANCH  13  14
HETATM   14  S   UNL     1     -11.324  13.505  67.186  1.00  0.00    -0.337 SA 
BRANCH  14  15
HETATM   15  C   UNL     1     -10.922  14.697  68.375  1.00  0.00    -0.251 A  
HETATM   16  N   UNL     1     -11.466  14.804  69.565  1.00  0.00    -0.282 NA 
HETATM   17  N   UNL     1      -9.972  15.674  68.240  1.00  0.00    -0.212 NA 
HETATM   18  N   UNL     1     -10.818  15.839  70.189  1.00  0.00    -0.326 NA 
HETATM   19  N   UNL     1      -9.884  16.354  69.406  1.00  0.00    -0.224 NA 
BRANCH  17  20
HETATM   20  C   UNL     1      -9.042  15.935  67.165  1.00  0.00    -0.209 C  
HETATM   21  O   UNL     1      -7.284  14.650  68.299  1.00  0.00    -0.102 OA 
HETATM   22  C   UNL     1      -7.584  15.663  67.459  1.00  0.00    -0.175 C  
HETATM   23  O   UNL     1      -6.691  16.279  66.887  1.00  0.00    -0.201 OA 
ENDBRANCH  17  20
ENDBRANCH  14  15
ENDBRANCH  13  14
ENDBRANCH   4  13
BRANCH  10  24
HETATM   24  N   UNL     1     -10.122   6.284  68.942  1.00  0.00    -0.158 N  
HETATM   25  C   UNL     1      -9.664   5.009  69.142  1.00  0.00    -0.173 C  
HETATM   26  O   UNL     1      -9.919   4.145  68.303  1.00  0.00    -0.063 OA 
HETATM   27  H   UNL     1     -10.708   6.438  68.122  1.00  0.00     0.000 HD 
BRANCH  25  28
HETATM   28  C   UNL     1      -8.843   4.714  70.387  1.00  0.00    -0.137 C  
BRANCH  28  29
HETATM   29  C   UNL     1      -9.557   3.878  71.427  1.00  0.00    -0.237 A  
HETATM   30  C   UNL     1      -9.444   2.470  71.484  1.00  0.00    -0.211 A  
HETATM   31  C   UNL     1     -10.142   1.783  72.498  1.00  0.00    -0.210 A  
HETATM   32  C   UNL     1     -10.338   4.542  72.397  1.00  0.00    -0.256 A  
HETATM   33  C   UNL     1     -10.906   2.458  73.449  1.00  0.00    -0.285 A  
HETATM   34  C   UNL     1     -11.010   3.839  73.395  1.00  0.00    -0.317 A  
BRANCH  30  35
HETATM   35  C   UNL     1      -8.658   1.673  70.461  1.00  0.00    -0.051 C  
HETATM   36  N   UNL     1      -7.261   1.472  70.849  1.00  0.00    -0.032 NA 
HETATM   37  H1  UNL     1      -6.732   0.935  70.161  1.00  0.00     0.000 HD 
HETATM   38  H2  UNL     1      -7.198   1.044  71.773  1.00  0.00     0.000 HD 
ENDBRANCH  30  35
ENDBRANCH  28  29
ENDBRANCH  25  28
ENDBRANCH  10  24
TORSDOF 8
ENDMDL
MODEL      223
REMARK 921   NORMALIZED FREE ENERGY PREDICTED BY IDOCK:   -5.09 KCAL/MOL
REMARK 922        TOTAL FREE ENERGY PREDICTED BY IDOCK:   -8.29 KCAL/MOL
REMARK 923 INTER-LIGAND FREE ENERGY PREDICTED BY IDOCK:   -7.57 KCAL/MOL
REMARK 924 INTRA-LIGAND FREE ENERGY PREDICTED BY IDOCK:   -0.71 KCAL/MOL
REMARK 927      BINDING AFFINITY PREDICTED BY RF-SCORE:    0.00 PKD
ROOT
HETATM    1  C   UNL     1      -9.873   8.960  69.731  1.00  0.00    -0.180 C  
HETATM    2  S   UNL     1     -10.291   8.812  67.982  1.00  0.00    -0.205 SA 
HETATM    3  C   UNL     1     -10.587  10.581  67.767  1.00  0.00    -0.243 C  
HETATM    4  C   UNL     1     -11.413  11.237  68.867  1.00  0.00    -0.363 C  
HETATM    5  O   UNL     1     -13.106  10.608  72.043  1.00  0.00    -0.481 OA 
HETATM    6  CA  UNL     1     -11.635  10.680  70.095  1.00  0.00    -0.330 C  
HETATM    7  N   UNL     1     -11.025   9.501  70.422  1.00  0.00    -0.257 N  
HETATM    8  O   UNL     1     -11.957   8.352  72.208  1.00  0.00    -0.349 OA 
HETATM    9  C   UNL     1     -12.542  11.370  71.092  1.00  0.00    -0.386 C  
HETATM   10  CA  UNL     1     -10.033   7.682  70.619  1.00  0.00    -0.183 C  
HETATM   11  OXT UNL     1     -12.764  12.569  71.065  1.00  0.00    -0.326 OA 
HETATM   12  C   UNL     1     -11.160   8.501  71.312  1.00  0.00    -0.262 C  
ENDROOT
BRANCH   4  13
HETATM   13  C   UNL     1     -12.072  12.520  68.361  1.00  0.00    -0.072 C  
BRANCH  13  14
HETATM   14  S   UNL     1     -11.011  13.381  67.146  1.00  0.00    -0.285 SA 
BRANCH  14  15
HETATM   15  C   UNL     1      -9.962  14.228  68.231  1.00  0.00    -0.239 A  
HETATM   16  N   UNL     1      -8.672  14.018  68.369  1.00  0.00    -0.180 NA 
HETATM   17  N   UNL     1     -10.331  15.240  69.076  1.00  0.00    -0.232 NA 
HETATM   18  N   UNL     1      -8.232  14.938  69.285  1.00  0.00    -0.157 NA 
HETATM   19  N   UNL     1      -9.225  15.710  69.697  1.00  0.00    -0.256 NA 
BRANCH  17  20
HETATM   20  C   UNL     1     -11.605  15.901  69.246  1.00  0.00    -0.369 C  
HETATM   21  O   UNL     1     -11.446  15.705  71.688  1.00  0.00    -0.387 OA 
HETATM   22  C   UNL     1     -12.251  15.773  70.608  1.00  0.00    -0.384 C  
HETATM   23  O   UNL     1     -13.469  15.821  70.744  1.00  0.00    -0.520 OA 
ENDBRANCH  17  20
ENDBRANCH  14  15
ENDBRANCH  13  14
ENDBRANCH   4  13
BRANCH  10  24
HETATM   24  N   UNL     1     -10.456   6.421  69.967  1.00  0.00    -0.200 N  
HETATM   25  C   UNL     1      -9.679   5.602  69.193  1.00  0.00    -0.145 C  
HETATM   26  O   UNL     1     -10.193   4.618  68.661  1.00  0.00    -0.075 OA 
HETATM   27  H   UNL     1     -11.425   6.134  70.109  1.00  0.00     0.000 HD 
BRANCH  25  28
HETATM   28  C   UNL     1      -8.210   5.949  69.008  1.00  0.00    -0.103 C  
BRANCH  28  29
HETATM   29  C   UNL     1      -7.499   5.132  67.950  1.00  0.00    -0.076 A  
HETATM   30  C   UNL     1      -6.978   3.843  68.203  1.00  0.00    -0.051 A  
HETATM   31  C   UNL     1      -6.342   3.159  67.147  1.00  0.00    -0.036 A  
HETATM   32  C   UNL     1      -7.389   5.673  66.651  1.00  0.00    -0.083 A  
HETATM   33  C   UNL     1      -6.246   3.709  65.870  1.00  0.00    -0.032 A  
HETATM   34  C   UNL     1      -6.764   4.971  65.623  1.00  0.00    -0.056 A  
BRANCH  30  35
HETATM   35  C   UNL     1      -7.020   3.202  69.577  1.00  0.00    -0.041 C  
HETATM   36  N   UNL     1      -6.930   1.742  69.526  1.00  0.00    -0.033 NA 
HETATM   37  H1  UNL     1      -6.958   1.310  70.450  1.00  0.00     0.000 HD 
HETATM   38  H2  UNL     1      -6.101   1.446  69.009  1.00  0.00     0.000 HD 
ENDBRANCH  30  35
ENDBRANCH  28  29
ENDBRANCH  25  28
ENDBRANCH  10  24
TORSDOF 8
ENDMDL
MODEL      224
REMARK 921   NORMALIZED FREE ENERGY PREDICTED BY IDOCK:   -5.06 KCAL/MOL
REMARK 922        TOTAL FREE ENERGY PREDICTED BY IDOCK:   -8.25 KCAL/MOL
REMARK 923 INTER-LIGAND FREE ENERGY PREDICTED BY IDOCK:   -7.82 KCAL/MOL
REMARK 924 INTRA-LIGAND FREE ENERGY PREDICTED BY IDOCK:   -0.43 KCAL/MOL
REMARK 927      BINDING AFFINITY PREDICTED BY RF-SCORE:    0.00 PKD
ROOT
HETATM    1  C   UNL     1     -11.337  11.417  67.799  1.00  0.00    -0.287 C  
HETATM    2  S   UNL     1     -10.824  12.894  68.700  1.00  0.00    -0.249 SA 
HETATM    3  C   UNL     1     -11.337  14.031  67.393  1.00  0.00    -0.329 C  
HETATM    4  C   UNL     1     -10.935  13.617  65.982  1.00  0.00    -0.288 C  
HETATM    5  O   UNL     1      -9.274  11.001  64.047  1.00  0.00    -0.205 OA 
HETATM    6  CA  UNL     1     -10.541  12.356  65.636  1.00  0.00    -0.265 C  
HETATM    7  N   UNL     1     -10.576  11.357  66.568  1.00  0.00    -0.253 N  
HETATM    8  O   UNL     1      -9.306   9.479  66.076  1.00  0.00    -0.180 OA 
HETATM    9  C   UNL     1     -10.077  12.062  64.224  1.00  0.00    -0.293 C  
HETATM   10  CA  UNL     1     -10.664  10.062  68.197  1.00  0.00    -0.239 C  
HETATM   11  OXT UNL     1     -10.411  12.738  63.265  1.00  0.00    -0.219 OA 
HETATM   12  C   UNL     1     -10.048  10.135  66.768  1.00  0.00    -0.219 C  
ENDROOT
BRANCH   4  13
HETATM   13  C   UNL     1     -10.895  14.828  65.051  1.00  0.00    -0.425 C  
BRANCH  13  14
HETATM   14  S   UNL     1     -11.229  16.379  65.958  1.00  0.00     0.464 SA 
BRANCH  14  15
HETATM   15  C   UNL     1      -9.618  17.001  66.067  1.00  0.00    -0.187 A  
HETATM   16  N   UNL     1      -8.540  16.423  65.587  1.00  0.00    -0.173 NA 
HETATM   17  N   UNL     1      -9.253  18.185  66.651  1.00  0.00    -0.283 NA 
HETATM   18  N   UNL     1      -7.501  17.278  65.846  1.00  0.00    -0.408 NA 
HETATM   19  N   UNL     1      -7.927  18.370  66.462  1.00  0.00    -0.262 NA 
BRANCH  17  20
HETATM   20  C   UNL     1     -10.062  19.225  67.245  1.00  0.00    -0.384 C  
HETATM   21  O   UNL     1      -8.258  19.821  68.799  1.00  0.00    -0.291 OA 
HETATM   22  C   UNL     1      -9.587  19.769  68.573  1.00  0.00    -0.342 C  
HETATM   23  O   UNL     1     -10.374  20.235  69.391  1.00  0.00    -0.185 OA 
ENDBRANCH  17  20
ENDBRANCH  14  15
ENDBRANCH  13  14
ENDBRANCH   4  13
BRANCH  10  24
HETATM   24  N   UNL     1      -9.697  10.060  69.319  1.00  0.00    -0.203 N  
HETATM   25  C   UNL     1      -9.600   9.120  70.310  1.00  0.00    -0.213 C  
HETATM   26  O   UNL     1      -8.785   9.290  71.217  1.00  0.00    -0.301 OA 
HETATM   27  H   UNL     1      -9.036  10.837  69.357  1.00  0.00     0.000 HD 
BRANCH  25  28
HETATM   28  C   UNL     1     -10.516   7.908  70.259  1.00  0.00    -0.225 C  
BRANCH  28  29
HETATM   29  C   UNL     1     -11.805   8.062  71.037  1.00  0.00    -0.280 A  
HETATM   30  C   UNL     1     -12.354   7.022  71.820  1.00  0.00    -0.391 A  
HETATM   31  C   UNL     1     -13.556   7.270  72.515  1.00  0.00     0.470 A  
HETATM   32  C   UNL     1     -12.462   9.311  71.000  1.00  0.00    -0.276 A  
HETATM   33  C   UNL     1     -14.187   8.512  72.469  1.00  0.00    -0.322 A  
HETATM   34  C   UNL     1     -13.643   9.533  71.705  1.00  0.00    -0.426 A  
BRANCH  30  35
HETATM   35  C   UNL     1     -11.737   5.638  71.887  1.00  0.00     0.063 C  
HETATM   36  N   UNL     1     -10.646   5.549  72.858  1.00  0.00    -0.213 NA 
HETATM   37  H1  UNL     1     -10.230   4.618  72.903  1.00  0.00     0.000 HD 
HETATM   38  H2  UNL     1     -10.953   5.857  73.781  1.00  0.00     0.000 HD 
ENDBRANCH  30  35
ENDBRANCH  28  29
ENDBRANCH  25  28
ENDBRANCH  10  24
TORSDOF 8
ENDMDL
MODEL      225
REMARK 921   NORMALIZED FREE ENERGY PREDICTED BY IDOCK:   -5.06 KCAL/MOL
REMARK 922        TOTAL FREE ENERGY PREDICTED BY IDOCK:   -8.25 KCAL/MOL
REMARK 923 INTER-LIGAND FREE ENERGY PREDICTED BY IDOCK:   -6.86 KCAL/MOL
REMARK 924 INTRA-LIGAND FREE ENERGY PREDICTED BY IDOCK:   -1.38 KCAL/MOL
REMARK 927      BINDING AFFINITY PREDICTED BY RF-SCORE:    0.00 PKD
ROOT
HETATM    1  C   UNL     1      -9.178   9.042  67.291  1.00  0.00    -0.134 C  
HETATM    2  S   UNL     1     -10.877   9.588  67.026  1.00  0.00     0.072 SA 
HETATM    3  C   UNL     1     -10.398  11.087  66.139  1.00  0.00    -0.251 C  
HETATM    4  C   UNL     1      -9.257  11.876  66.772  1.00  0.00    -0.194 C  
HETATM    5  O   UNL     1      -6.886  11.896  69.552  1.00  0.00    -0.092 OA 
HETATM    6  CA  UNL     1      -8.405  11.370  67.713  1.00  0.00    -0.127 C  
HETATM    7  N   UNL     1      -8.499  10.055  68.073  1.00  0.00    -0.117 N  
HETATM    8  O   UNL     1      -7.485   9.488  70.080  1.00  0.00    -0.098 OA 
HETATM    9  C   UNL     1      -7.356  12.258  68.347  1.00  0.00    -0.109 C  
HETATM   10  CA  UNL     1      -8.917   8.055  68.475  1.00  0.00    -0.133 C  
HETATM   11  OXT UNL     1      -6.926  13.264  67.806  1.00  0.00    -0.120 OA 
HETATM   12  C   UNL     1      -8.120   9.248  69.080  1.00  0.00    -0.106 C  
ENDROOT
BRANCH   4  13
HETATM   13  C   UNL     1      -9.289  13.335  66.322  1.00  0.00    -0.120 C  
BRANCH  13  14
HETATM   14  S   UNL     1     -10.723  14.222  67.029  1.00  0.00    -0.293 SA 
BRANCH  14  15
HETATM   15  C   UNL     1     -10.927  15.447  65.824  1.00  0.00    -0.309 A  
HETATM   16  N   UNL     1     -11.690  15.353  64.759  1.00  0.00    -0.289 NA 
HETATM   17  N   UNL     1     -10.334  16.681  65.828  1.00  0.00    -0.471 NA 
HETATM   18  N   UNL     1     -11.597  16.560  64.115  1.00  0.00    -1.080 NA 
HETATM   19  N   UNL     1     -10.803  17.389  64.775  1.00  0.00    -0.709 NA 
BRANCH  17  20
HETATM   20  C   UNL     1      -9.479  17.307  66.811  1.00  0.00    -0.265 C  
HETATM   21  O   UNL     1     -11.351  17.526  68.384  1.00  0.00     0.094 OA 
HETATM   22  C   UNL     1     -10.175  18.022  67.948  1.00  0.00    -0.378 C  
HETATM   23  O   UNL     1      -9.650  18.970  68.522  1.00  0.00    -0.341 OA 
ENDBRANCH  17  20
ENDBRANCH  14  15
ENDBRANCH  13  14
ENDBRANCH   4  13
BRANCH  10  24
HETATM   24  N   UNL     1     -10.076   7.583  69.267  1.00  0.00    -0.183 N  
HETATM   25  C   UNL     1     -10.214   6.357  69.860  1.00  0.00    -0.183 C  
HETATM   26  O   UNL     1     -11.270   6.084  70.432  1.00  0.00    -0.337 OA 
HETATM   27  H   UNL     1     -10.850   8.238  69.382  1.00  0.00     0.000 HD 
BRANCH  25  28
HETATM   28  C   UNL     1      -9.059   5.371  69.776  1.00  0.00    -0.157 C  
BRANCH  28  29
HETATM   29  C   UNL     1      -7.890   5.694  70.681  1.00  0.00    -0.100 A  
HETATM   30  C   UNL     1      -6.565   5.813  70.204  1.00  0.00    -0.047 A  
HETATM   31  C   UNL     1      -5.546   6.127  71.127  1.00  0.00    -0.022 A  
HETATM   32  C   UNL     1      -8.148   5.920  72.050  1.00  0.00    -0.108 A  
HETATM   33  C   UNL     1      -5.822   6.350  72.475  1.00  0.00    -0.038 A  
HETATM   34  C   UNL     1      -7.124   6.240  72.940  1.00  0.00    -0.079 A  
BRANCH  30  35
HETATM   35  C   UNL     1      -6.192   5.550  68.757  1.00  0.00    -0.033 C  
HETATM   36  N   UNL     1      -5.273   6.553  68.217  1.00  0.00    -0.007 NA 
HETATM   37  H1  UNL     1      -5.023   6.376  67.243  1.00  0.00     0.000 HD 
HETATM   38  H2  UNL     1      -4.440   6.635  68.799  1.00  0.00     0.000 HD 
ENDBRANCH  30  35
ENDBRANCH  28  29
ENDBRANCH  25  28
ENDBRANCH  10  24
TORSDOF 8
ENDMDL
MODEL      226
REMARK 921   NORMALIZED FREE ENERGY PREDICTED BY IDOCK:   -5.05 KCAL/MOL
REMARK 922        TOTAL FREE ENERGY PREDICTED BY IDOCK:   -8.24 KCAL/MOL
REMARK 923 INTER-LIGAND FREE ENERGY PREDICTED BY IDOCK:   -8.24 KCAL/MOL
REMARK 924 INTRA-LIGAND FREE ENERGY PREDICTED BY IDOCK:    0.00 KCAL/MOL
REMARK 927      BINDING AFFINITY PREDICTED BY RF-SCORE:    0.00 PKD
ROOT
HETATM    1  C   UNL     1      -9.419   8.746  70.083  1.00  0.00    -0.169 C  
HETATM    2  S   UNL     1      -8.985   8.839  68.334  1.00  0.00    -0.141 SA 
HETATM    3  C   UNL     1      -9.040  10.643  68.279  1.00  0.00    -0.153 C  
HETATM    4  C   UNL     1     -10.241  11.274  68.972  1.00  0.00    -0.169 C  
HETATM    5  O   UNL     1     -13.250  10.523  70.905  1.00  0.00    -0.353 OA 
HETATM    6  CA  UNL     1     -11.041  10.621  69.868  1.00  0.00    -0.298 C  
HETATM    7  N   UNL     1     -10.725   9.348  70.252  1.00  0.00    -0.234 N  
HETATM    8  O   UNL     1     -12.446   8.138  71.228  1.00  0.00    -0.307 OA 
HETATM    9  C   UNL     1     -12.264  11.307  70.439  1.00  0.00    -0.365 C  
HETATM   10  CA  UNL     1     -10.048   7.410  70.597  1.00  0.00    -0.190 C  
HETATM   11  OXT UNL     1     -12.375  12.521  70.498  1.00  0.00    -0.332 OA 
HETATM   12  C   UNL     1     -11.317   8.283  70.822  1.00  0.00    -0.266 C  
ENDROOT
BRANCH   4  13
HETATM   13  C   UNL     1     -10.512  12.675  68.425  1.00  0.00    -0.238 C  
BRANCH  13  14
HETATM   14  S   UNL     1     -11.835  12.655  67.164  1.00  0.00    -0.257 SA 
BRANCH  14  15
HETATM   15  C   UNL     1     -10.877  12.389  65.747  1.00  0.00    -0.276 A  
HETATM   16  N   UNL     1     -10.552  11.217  65.252  1.00  0.00    -0.263 NA 
HETATM   17  N   UNL     1     -10.344  13.363  64.945  1.00  0.00    -0.368 NA 
HETATM   18  N   UNL     1      -9.841  11.470  64.107  1.00  0.00    -0.254 NA 
HETATM   19  N   UNL     1      -9.737  12.771  63.891  1.00  0.00    -0.076 NA 
BRANCH  17  20
HETATM   20  C   UNL     1     -10.477  14.802  65.003  1.00  0.00    -0.416 C  
HETATM   21  O   UNL     1     -12.761  14.684  64.111  1.00  0.00    -0.738 OA 
HETATM   22  C   UNL     1     -11.624  15.401  64.222  1.00  0.00    -0.191 C  
HETATM   23  O   UNL     1     -11.565  16.542  63.775  1.00  0.00    -1.109 OA 
ENDBRANCH  17  20
ENDBRANCH  14  15
ENDBRANCH  13  14
ENDBRANCH   4  13
BRANCH  10  24
HETATM   24  N   UNL     1     -10.196   6.288  69.642  1.00  0.00    -0.176 N  
HETATM   25  C   UNL     1      -9.566   5.074  69.706  1.00  0.00    -0.170 C  
HETATM   26  O   UNL     1      -9.738   4.262  68.796  1.00  0.00    -0.162 OA 
HETATM   27  H   UNL     1     -10.831   6.434  68.857  1.00  0.00     0.000 HD 
BRANCH  25  28
HETATM   28  C   UNL     1      -8.662   4.781  70.893  1.00  0.00    -0.135 C  
BRANCH  28  29
HETATM   29  C   UNL     1      -7.660   5.873  71.203  1.00  0.00    -0.100 A  
HETATM   30  C   UNL     1      -6.755   6.375  70.241  1.00  0.00    -0.053 A  
HETATM   31  C   UNL     1      -5.867   7.400  70.627  1.00  0.00    -0.027 A  
HETATM   32  C   UNL     1      -7.660   6.430  72.500  1.00  0.00    -0.100 A  
HETATM   33  C   UNL     1      -5.886   7.940  71.912  1.00  0.00    -0.036 A  
HETATM   34  C   UNL     1      -6.779   7.450  72.853  1.00  0.00    -0.064 A  
BRANCH  30  35
HETATM   35  C   UNL     1      -6.661   5.809  68.837  1.00  0.00    -0.054 C  
HETATM   36  N   UNL     1      -5.411   6.165  68.164  1.00  0.00    -0.004 NA 
HETATM   37  H1  UNL     1      -5.347   5.785  67.219  1.00  0.00     0.000 HD 
HETATM   38  H2  UNL     1      -4.604   5.890  68.724  1.00  0.00     0.000 HD 
ENDBRANCH  30  35
ENDBRANCH  28  29
ENDBRANCH  25  28
ENDBRANCH  10  24
TORSDOF 8
ENDMDL
MODEL      227
REMARK 921   NORMALIZED FREE ENERGY PREDICTED BY IDOCK:   -5.05 KCAL/MOL
REMARK 922        TOTAL FREE ENERGY PREDICTED BY IDOCK:   -8.24 KCAL/MOL
REMARK 923 INTER-LIGAND FREE ENERGY PREDICTED BY IDOCK:   -8.20 KCAL/MOL
REMARK 924 INTRA-LIGAND FREE ENERGY PREDICTED BY IDOCK:   -0.04 KCAL/MOL
REMARK 927      BINDING AFFINITY PREDICTED BY RF-SCORE:    0.00 PKD
ROOT
HETATM    1  C   UNL     1      -8.480   9.400  65.478  1.00  0.00    -0.143 C  
HETATM    2  S   UNL     1     -10.119  10.042  65.078  1.00  0.00     0.011 SA 
HETATM    3  C   UNL     1      -9.650  11.768  65.331  1.00  0.00    -0.190 C  
HETATM    4  C   UNL     1      -8.828  12.038  66.586  1.00  0.00    -0.191 C  
HETATM    5  O   UNL     1      -7.258  10.437  69.471  1.00  0.00    -0.098 OA 
HETATM    6  CA  UNL     1      -8.177  11.071  67.298  1.00  0.00    -0.125 C  
HETATM    7  N   UNL     1      -8.171   9.782  66.841  1.00  0.00    -0.117 N  
HETATM    8  O   UNL     1      -7.623   8.162  68.407  1.00  0.00    -0.100 OA 
HETATM    9  C   UNL     1      -7.457  11.424  68.583  1.00  0.00    -0.119 C  
HETATM   10  CA  UNL     1      -8.388   7.912  65.951  1.00  0.00    -0.132 C  
HETATM   11  OXT UNL     1      -7.052  12.549  68.826  1.00  0.00    -0.094 OA 
HETATM   12  C   UNL     1      -7.946   8.540  67.306  1.00  0.00    -0.102 C  
ENDROOT
BRANCH   4  13
HETATM   13  C   UNL     1      -8.952  13.499  67.015  1.00  0.00    -0.231 C  
BRANCH  13  14
HETATM   14  S   UNL     1     -10.699  13.973  67.275  1.00  0.00    -0.280 SA 
BRANCH  14  15
HETATM   15  C   UNL     1     -10.795  15.322  66.196  1.00  0.00    -0.320 A  
HETATM   16  N   UNL     1     -10.377  16.540  66.455  1.00  0.00    -0.311 NA 
HETATM   17  N   UNL     1     -11.302  15.296  64.924  1.00  0.00    -0.399 NA 
HETATM   18  N   UNL     1     -10.596  17.269  65.314  1.00  0.00    -0.657 NA 
HETATM   19  N   UNL     1     -11.126  16.515  64.364  1.00  0.00    -0.933 NA 
BRANCH  17  20
HETATM   20  C   UNL     1     -11.806  14.193  64.138  1.00  0.00    -0.337 C  
HETATM   21  O   UNL     1     -13.786  13.998  65.576  1.00  0.00    -0.415 OA 
HETATM   22  C   UNL     1     -12.909  13.370  64.766  1.00  0.00    -0.157 C  
HETATM   23  O   UNL     1     -13.063  12.187  64.482  1.00  0.00    -0.720 OA 
ENDBRANCH  17  20
ENDBRANCH  14  15
ENDBRANCH  13  14
ENDBRANCH   4  13
BRANCH  10  24
HETATM   24  N   UNL     1      -9.630   7.106  65.986  1.00  0.00    -0.405 N  
HETATM   25  C   UNL     1      -9.841   5.964  66.712  1.00  0.00    -0.160 C  
HETATM   26  O   UNL     1     -10.909   5.365  66.586  1.00  0.00    -0.277 OA 
HETATM   27  H   UNL     1     -10.407   7.435  65.413  1.00  0.00     0.000 HD 
BRANCH  25  28
HETATM   28  C   UNL     1      -8.738   5.471  67.636  1.00  0.00    -0.107 C  
BRANCH  28  29
HETATM   29  C   UNL     1      -8.982   4.101  68.229  1.00  0.00    -0.154 A  
HETATM   30  C   UNL     1      -8.904   3.844  69.617  1.00  0.00    -0.144 A  
HETATM   31  C   UNL     1      -9.159   2.534  70.071  1.00  0.00    -0.182 A  
HETATM   32  C   UNL     1      -9.337   3.049  67.357  1.00  0.00    -0.216 A  
HETATM   33  C   UNL     1      -9.512   1.510  69.194  1.00  0.00    -0.157 A  
HETATM   34  C   UNL     1      -9.594   1.765  67.834  1.00  0.00    -0.079 A  
BRANCH  30  35
HETATM   35  C   UNL     1      -8.493   4.905  70.620  1.00  0.00    -0.105 C  
HETATM   36  N   UNL     1      -7.044   4.979  70.808  1.00  0.00    -0.054 NA 
HETATM   37  H1  UNL     1      -6.767   5.692  71.484  1.00  0.00     0.000 HD 
HETATM   38  H2  UNL     1      -6.567   5.115  69.917  1.00  0.00     0.000 HD 
ENDBRANCH  30  35
ENDBRANCH  28  29
ENDBRANCH  25  28
ENDBRANCH  10  24
TORSDOF 8
ENDMDL
MODEL      228
REMARK 921   NORMALIZED FREE ENERGY PREDICTED BY IDOCK:   -4.99 KCAL/MOL
REMARK 922        TOTAL FREE ENERGY PREDICTED BY IDOCK:   -8.15 KCAL/MOL
REMARK 923 INTER-LIGAND FREE ENERGY PREDICTED BY IDOCK:   -6.67 KCAL/MOL
REMARK 924 INTRA-LIGAND FREE ENERGY PREDICTED BY IDOCK:   -1.48 KCAL/MOL
REMARK 927      BINDING AFFINITY PREDICTED BY RF-SCORE:    0.00 PKD
ROOT
HETATM    1  C   UNL     1     -10.451   7.084  72.519  1.00  0.00    -0.216 C  
HETATM    2  S   UNL     1     -11.183   5.661  71.685  1.00  0.00    -0.061 SA 
HETATM    3  C   UNL     1      -9.654   4.700  71.696  1.00  0.00    -0.161 C  
HETATM    4  C   UNL     1      -8.403   5.471  71.290  1.00  0.00    -0.126 C  
HETATM    5  O   UNL     1      -7.175   8.765  70.294  1.00  0.00    -0.042 OA 
HETATM    6  CA  UNL     1      -8.320   6.834  71.257  1.00  0.00    -0.120 C  
HETATM    7  N   UNL     1      -9.378   7.587  71.686  1.00  0.00    -0.145 N  
HETATM    8  O   UNL     1      -9.384   9.799  70.991  1.00  0.00    -0.090 OA 
HETATM    9  C   UNL     1      -7.061   7.510  70.757  1.00  0.00    -0.059 C  
HETATM   10  CA  UNL     1     -11.152   8.469  72.326  1.00  0.00    -0.360 C  
HETATM   11  OXT UNL     1      -5.968   6.966  70.772  1.00  0.00    -0.027 OA 
HETATM   12  C   UNL     1      -9.843   8.844  71.571  1.00  0.00    -0.314 C  
ENDROOT
BRANCH   4  13
HETATM   13  C   UNL     1      -7.315   4.521  70.793  1.00  0.00    -0.052 C  
BRANCH  13  14
HETATM   14  S   UNL     1      -7.918   3.475  69.420  1.00  0.00    -0.049 SA 
BRANCH  14  15
HETATM   15  C   UNL     1      -7.493   4.487  68.081  1.00  0.00    -0.065 A  
HETATM   16  N   UNL     1      -6.362   4.439  67.415  1.00  0.00    -0.039 NA 
HETATM   17  N   UNL     1      -8.284   5.458  67.528  1.00  0.00    -0.101 NA 
HETATM   18  N   UNL     1      -6.471   5.369  66.413  1.00  0.00    -0.042 NA 
HETATM   19  N   UNL     1      -7.649   5.970  66.450  1.00  0.00    -0.093 NA 
BRANCH  17  20
HETATM   20  C   UNL     1      -9.642   5.847  67.835  1.00  0.00    -0.115 C  
HETATM   21  O   UNL     1     -10.465   4.823  65.761  1.00  0.00    -0.270 OA 
HETATM   22  C   UNL     1     -10.632   5.783  66.694  1.00  0.00    -0.280 C  
HETATM   23  O   UNL     1     -11.613   6.519  66.657  1.00  0.00     0.157 OA 
ENDBRANCH  17  20
ENDBRANCH  14  15
ENDBRANCH  13  14
ENDBRANCH   4  13
BRANCH  10  24
HETATM   24  N   UNL     1     -12.398   8.521  71.526  1.00  0.00    -0.306 N  
HETATM   25  C   UNL     1     -13.056   9.650  71.115  1.00  0.00    -0.309 C  
HETATM   26  O   UNL     1     -14.122   9.533  70.511  1.00  0.00     0.206 OA 
HETATM   27  H   UNL     1     -12.807   7.627  71.255  1.00  0.00     0.000 HD 
BRANCH  25  28
HETATM   28  C   UNL     1     -12.449  11.007  71.436  1.00  0.00    -0.436 C  
BRANCH  28  29
HETATM   29  C   UNL     1     -12.145  11.861  70.224  1.00  0.00    -0.409 A  
HETATM   30  C   UNL     1     -12.333  13.261  70.209  1.00  0.00    -0.334 A  
HETATM   31  C   UNL     1     -12.010  13.969  69.033  1.00  0.00    -0.392 A  
HETATM   32  C   UNL     1     -11.619  11.229  69.077  1.00  0.00    -0.386 A  
HETATM   33  C   UNL     1     -11.488  13.326  67.912  1.00  0.00    -0.341 A  
HETATM   34  C   UNL     1     -11.298  11.953  67.930  1.00  0.00    -0.358 A  
BRANCH  30  35
HETATM   35  C   UNL     1     -12.928  14.017  71.383  1.00  0.00    -0.353 C  
HETATM   36  N   UNL     1     -14.103  14.807  71.013  1.00  0.00    -0.577 NA 
HETATM   37  H1  UNL     1     -14.503  15.315  71.803  1.00  0.00     0.000 HD 
HETATM   38  H2  UNL     1     -14.806  14.224  70.559  1.00  0.00     0.000 HD 
ENDBRANCH  30  35
ENDBRANCH  28  29
ENDBRANCH  25  28
ENDBRANCH  10  24
TORSDOF 8
ENDMDL
MODEL      229
REMARK 921   NORMALIZED FREE ENERGY PREDICTED BY IDOCK:   -4.92 KCAL/MOL
REMARK 922        TOTAL FREE ENERGY PREDICTED BY IDOCK:   -8.04 KCAL/MOL
REMARK 923 INTER-LIGAND FREE ENERGY PREDICTED BY IDOCK:   -8.21 KCAL/MOL
REMARK 924 INTRA-LIGAND FREE ENERGY PREDICTED BY IDOCK:    0.17 KCAL/MOL
REMARK 927      BINDING AFFINITY PREDICTED BY RF-SCORE:    0.00 PKD
ROOT
HETATM    1  C   UNL     1      -8.371   9.529  65.697  1.00  0.00    -0.126 C  
HETATM    2  S   UNL     1      -9.989  10.328  65.735  1.00  0.00    -0.267 SA 
HETATM    3  C   UNL     1      -9.327  11.947  66.188  1.00  0.00    -0.219 C  
HETATM    4  C   UNL     1      -8.274  11.929  67.289  1.00  0.00    -0.170 C  
HETATM    5  O   UNL     1      -6.366   9.731  69.498  1.00  0.00    -0.043 OA 
HETATM    6  CA  UNL     1      -7.597  10.811  67.685  1.00  0.00    -0.096 C  
HETATM    7  N   UNL     1      -7.790   9.632  67.020  1.00  0.00    -0.098 N  
HETATM    8  O   UNL     1      -7.121   7.720  68.148  1.00  0.00    -0.080 OA 
HETATM    9  C   UNL     1      -6.630  10.876  68.849  1.00  0.00    -0.056 C  
HETATM   10  CA  UNL     1      -8.332   7.976  65.879  1.00  0.00    -0.134 C  
HETATM   11  OXT UNL     1      -6.087  11.911  69.200  1.00  0.00    -0.065 OA 
HETATM   12  C   UNL     1      -7.600   8.314  67.211  1.00  0.00    -0.097 C  
ENDROOT
BRANCH   4  13
HETATM   13  C   UNL     1      -8.185  13.290  67.979  1.00  0.00    -0.162 C  
BRANCH  13  14
HETATM   14  S   UNL     1      -9.008  14.592  66.995  1.00  0.00    -0.250 SA 
BRANCH  14  15
HETATM   15  C   UNL     1     -10.032  15.270  68.214  1.00  0.00    -0.222 A  
HETATM   16  N   UNL     1      -9.774  16.348  68.919  1.00  0.00    -0.247 NA 
HETATM   17  N   UNL     1     -11.255  14.783  68.594  1.00  0.00    -0.260 NA 
HETATM   18  N   UNL     1     -10.869  16.551  69.719  1.00  0.00    -0.336 NA 
HETATM   19  N   UNL     1     -11.791  15.626  69.506  1.00  0.00    -0.367 NA 
BRANCH  17  20
HETATM   20  C   UNL     1     -12.026  13.677  68.074  1.00  0.00    -0.350 C  
HETATM   21  O   UNL     1     -11.697  12.399  70.144  1.00  0.00    -0.286 OA 
HETATM   22  C   UNL     1     -11.895  12.362  68.810  1.00  0.00    -0.311 C  
HETATM   23  O   UNL     1     -12.054  11.291  68.236  1.00  0.00    -0.619 OA 
ENDBRANCH  17  20
ENDBRANCH  14  15
ENDBRANCH  13  14
ENDBRANCH   4  13
BRANCH  10  24
HETATM   24  N   UNL     1      -9.616   7.251  66.013  1.00  0.00    -0.408 N  
HETATM   25  C   UNL     1     -10.376   7.139  67.147  1.00  0.00    -0.289 C  
HETATM   26  O   UNL     1     -11.391   6.444  67.120  1.00  0.00    -0.308 OA 
HETATM   27  H   UNL     1      -9.971   6.788  65.176  1.00  0.00     0.000 HD 
BRANCH  25  28
HETATM   28  C   UNL     1      -9.925   7.869  68.403  1.00  0.00    -0.198 C  
BRANCH  28  29
HETATM   29  C   UNL     1     -10.162   7.108  69.690  1.00  0.00    -0.215 A  
HETATM   30  C   UNL     1     -10.921   7.635  70.760  1.00  0.00    -0.262 A  
HETATM   31  C   UNL     1     -11.092   6.843  71.913  1.00  0.00    -0.278 A  
HETATM   32  C   UNL     1      -9.630   5.806  69.804  1.00  0.00    -0.199 A  
HETATM   33  C   UNL     1     -10.561   5.557  72.004  1.00  0.00    -0.284 A  
HETATM   34  C   UNL     1      -9.823   5.040  70.951  1.00  0.00    -0.274 A  
BRANCH  30  35
HETATM   35  C   UNL     1     -11.497   9.038  70.737  1.00  0.00    -0.282 C  
HETATM   36  N   UNL     1     -12.169   9.396  71.987  1.00  0.00    -0.352 NA 
HETATM   37  H1  UNL     1     -12.557  10.340  71.973  1.00  0.00     0.000 HD 
HETATM   38  H2  UNL     1     -11.546   9.269  72.785  1.00  0.00     0.000 HD 
ENDBRANCH  30  35
ENDBRANCH  28  29
ENDBRANCH  25  28
ENDBRANCH  10  24
TORSDOF 8
ENDMDL
MODEL      230
REMARK 921   NORMALIZED FREE ENERGY PREDICTED BY IDOCK:   -4.90 KCAL/MOL
REMARK 922        TOTAL FREE ENERGY PREDICTED BY IDOCK:   -8.01 KCAL/MOL
REMARK 923 INTER-LIGAND FREE ENERGY PREDICTED BY IDOCK:   -7.02 KCAL/MOL
REMARK 924 INTRA-LIGAND FREE ENERGY PREDICTED BY IDOCK:   -0.99 KCAL/MOL
REMARK 927      BINDING AFFINITY PREDICTED BY RF-SCORE:    0.00 PKD
ROOT
HETATM    1  C   UNL     1     -10.889   8.311  68.072  1.00  0.00     0.059 C  
HETATM    2  S   UNL     1      -9.350   7.525  67.552  1.00  0.00    -0.141 SA 
HETATM    3  C   UNL     1      -9.777   5.918  68.259  1.00  0.00    -0.128 C  
HETATM    4  C   UNL     1     -10.367   5.966  69.663  1.00  0.00    -0.313 C  
HETATM    5  O   UNL     1     -11.400   8.225  72.343  1.00  0.00    -0.347 OA 
HETATM    6  CA  UNL     1     -10.878   7.092  70.242  1.00  0.00    -0.249 C  
HETATM    7  N   UNL     1     -10.958   8.249  69.517  1.00  0.00    -0.114 N  
HETATM    8  O   UNL     1     -11.214  10.194  70.754  1.00  0.00    -0.321 OA 
HETATM    9  C   UNL     1     -11.365   7.060  71.676  1.00  0.00    -0.257 C  
HETATM   10  CA  UNL     1     -10.890   9.869  68.211  1.00  0.00    -0.230 C  
HETATM   11  OXT UNL     1     -11.727   6.034  72.228  1.00  0.00    -0.310 OA 
HETATM   12  C   UNL     1     -11.091   9.571  69.726  1.00  0.00    -0.191 C  
ENDROOT
BRANCH   4  13
HETATM   13  C   UNL     1     -10.178   4.629  70.379  1.00  0.00    -0.138 C  
BRANCH  13  14
HETATM   14  S   UNL     1      -8.411   4.286  70.696  1.00  0.00    -0.071 SA 
BRANCH  14  15
HETATM   15  C   UNL     1      -8.112   5.449  71.942  1.00  0.00    -0.114 A  
HETATM   16  N   UNL     1      -8.535   5.368  73.183  1.00  0.00    -0.118 NA 
HETATM   17  N   UNL     1      -7.381   6.600  71.806  1.00  0.00    -0.085 NA 
HETATM   18  N   UNL     1      -8.028   6.464  73.832  1.00  0.00    -0.101 NA 
HETATM   19  N   UNL     1      -7.296   7.203  73.013  1.00  0.00    -0.073 NA 
BRANCH  17  20
HETATM   20  C   UNL     1      -6.637   7.109  70.676  1.00  0.00    -0.048 C  
HETATM   21  O   UNL     1      -7.082   9.426  71.354  1.00  0.00    -0.307 OA 
HETATM   22  C   UNL     1      -6.843   8.569  70.340  1.00  0.00    -0.037 C  
HETATM   23  O   UNL     1      -6.707   8.985  69.194  1.00  0.00    -0.049 OA 
ENDBRANCH  17  20
ENDBRANCH  14  15
ENDBRANCH  13  14
ENDBRANCH   4  13
BRANCH  10  24
HETATM   24  N   UNL     1      -9.656  10.607  67.855  1.00  0.00    -0.160 N  
HETATM   25  C   UNL     1      -9.544  11.956  67.649  1.00  0.00    -0.185 C  
HETATM   26  O   UNL     1      -8.460  12.418  67.291  1.00  0.00    -0.168 OA 
HETATM   27  H   UNL     1      -8.804  10.055  67.752  1.00  0.00     0.000 HD 
BRANCH  25  28
HETATM   28  C   UNL     1     -10.770  12.831  67.857  1.00  0.00    -0.235 C  
BRANCH  28  29
HETATM   29  C   UNL     1     -10.756  14.127  67.075  1.00  0.00    -0.285 A  
HETATM   30  C   UNL     1     -10.951  15.388  67.682  1.00  0.00    -0.315 A  
HETATM   31  C   UNL     1     -10.910  16.538  66.867  1.00  0.00    -0.083 A  
HETATM   32  C   UNL     1     -10.503  14.067  65.688  1.00  0.00    -0.328 A  
HETATM   33  C   UNL     1     -10.654  16.458  65.499  1.00  0.00    -0.346 A  
HETATM   34  C   UNL     1     -10.457  15.220  64.907  1.00  0.00    -0.334 A  
BRANCH  30  35
HETATM   35  C   UNL     1     -11.266  15.542  69.158  1.00  0.00    -0.299 C  
HETATM   36  N   UNL     1     -12.648  15.190  69.484  1.00  0.00    -0.601 NA 
HETATM   37  H1  UNL     1     -12.861  15.293  70.477  1.00  0.00     0.000 HD 
HETATM   38  H2  UNL     1     -12.871  14.248  69.159  1.00  0.00     0.000 HD 
ENDBRANCH  30  35
ENDBRANCH  28  29
ENDBRANCH  25  28
ENDBRANCH  10  24
TORSDOF 8
ENDMDL
MODEL      231
REMARK 921   NORMALIZED FREE ENERGY PREDICTED BY IDOCK:   -4.86 KCAL/MOL
REMARK 922        TOTAL FREE ENERGY PREDICTED BY IDOCK:   -7.95 KCAL/MOL
REMARK 923 INTER-LIGAND FREE ENERGY PREDICTED BY IDOCK:   -8.17 KCAL/MOL
REMARK 924 INTRA-LIGAND FREE ENERGY PREDICTED BY IDOCK:    0.22 KCAL/MOL
REMARK 927      BINDING AFFINITY PREDICTED BY RF-SCORE:    0.00 PKD
ROOT
HETATM    1  C   UNL     1      -5.524   8.523  68.415  1.00  0.00    -0.034 C  
HETATM    2  S   UNL     1      -6.219   7.307  67.277  1.00  0.00    -0.055 SA 
HETATM    3  C   UNL     1      -6.462   8.500  65.942  1.00  0.00    -0.053 C  
HETATM    4  C   UNL     1      -7.073   9.830  66.367  1.00  0.00    -0.094 C  
HETATM    5  O   UNL     1      -8.271  11.727  69.251  1.00  0.00     0.192 OA 
HETATM    6  CA  UNL     1      -7.124  10.273  67.658  1.00  0.00    -0.086 C  
HETATM    7  N   UNL     1      -6.526   9.543  68.647  1.00  0.00    -0.051 N  
HETATM    8  O   UNL     1      -7.216  10.024  70.808  1.00  0.00    -0.328 OA 
HETATM    9  C   UNL     1      -7.829  11.570  67.992  1.00  0.00    -0.126 C  
HETATM   10  CA  UNL     1      -5.601   8.202  69.944  1.00  0.00    -0.023 C  
HETATM   11  OXT UNL     1      -7.996  12.462  67.176  1.00  0.00    -0.174 OA 
HETATM   12  C   UNL     1      -6.565   9.424  69.987  1.00  0.00    -0.059 C  
ENDROOT
BRANCH   4  13
HETATM   13  C   UNL     1      -7.743  10.524  65.182  1.00  0.00    -0.062 C  
BRANCH  13  14
HETATM   14  S   UNL     1      -9.297   9.686  64.708  1.00  0.00    -0.158 SA 
BRANCH  14  15
HETATM   15  C   UNL     1     -10.364  10.372  65.885  1.00  0.00    -0.190 A  
HETATM   16  N   UNL     1     -10.731   9.801  67.010  1.00  0.00    -0.207 NA 
HETATM   17  N   UNL     1     -10.953  11.605  65.810  1.00  0.00    -0.292 NA 
HETATM   18  N   UNL     1     -11.529  10.709  67.656  1.00  0.00    -0.479 NA 
HETATM   19  N   UNL     1     -11.644  11.825  66.952  1.00  0.00    -0.548 NA 
BRANCH  17  20
HETATM   20  C   UNL     1     -10.810  12.654  64.825  1.00  0.00    -0.302 C  
HETATM   21  O   UNL     1     -13.086  13.461  65.269  1.00  0.00    -0.687 OA 
HETATM   22  C   UNL     1     -12.085  13.329  64.373  1.00  0.00    -0.415 C  
HETATM   23  O   UNL     1     -12.183  13.827  63.257  1.00  0.00    -0.642 OA 
ENDBRANCH  17  20
ENDBRANCH  14  15
ENDBRANCH  13  14
ENDBRANCH   4  13
BRANCH  10  24
HETATM   24  N   UNL     1      -6.180   6.905  70.363  1.00  0.00    -0.027 N  
HETATM   25  C   UNL     1      -7.502   6.551  70.319  1.00  0.00    -0.094 C  
HETATM   26  O   UNL     1      -7.843   5.456  70.767  1.00  0.00    -0.090 OA 
HETATM   27  H   UNL     1      -5.530   6.205  70.719  1.00  0.00     0.000 HD 
BRANCH  25  28
HETATM   28  C   UNL     1      -8.503   7.534  69.733  1.00  0.00    -0.135 C  
BRANCH  28  29
HETATM   29  C   UNL     1      -9.836   7.575  70.449  1.00  0.00    -0.183 A  
HETATM   30  C   UNL     1     -10.967   6.855  70.001  1.00  0.00    -0.320 A  
HETATM   31  C   UNL     1     -12.161   6.952  70.744  1.00  0.00    -0.400 A  
HETATM   32  C   UNL     1      -9.936   8.339  71.632  1.00  0.00    -0.277 A  
HETATM   33  C   UNL     1     -12.237   7.709  71.913  1.00  0.00    -0.336 A  
HETATM   34  C   UNL     1     -11.125   8.410  72.354  1.00  0.00    -0.431 A  
BRANCH  30  35
HETATM   35  C   UNL     1     -10.960   6.040  68.721  1.00  0.00    -0.312 C  
HETATM   36  N   UNL     1     -11.429   6.799  67.562  1.00  0.00    -0.688 NA 
HETATM   37  H1  UNL     1     -11.425   6.251  66.701  1.00  0.00     0.000 HD 
HETATM   38  H2  UNL     1     -10.894   7.661  67.449  1.00  0.00     0.000 HD 
ENDBRANCH  30  35
ENDBRANCH  28  29
ENDBRANCH  25  28
ENDBRANCH  10  24
TORSDOF 8
ENDMDL
MODEL      232
REMARK 921   NORMALIZED FREE ENERGY PREDICTED BY IDOCK:   -4.84 KCAL/MOL
REMARK 922        TOTAL FREE ENERGY PREDICTED BY IDOCK:   -7.93 KCAL/MOL
REMARK 923 INTER-LIGAND FREE ENERGY PREDICTED BY IDOCK:   -8.74 KCAL/MOL
REMARK 924 INTRA-LIGAND FREE ENERGY PREDICTED BY IDOCK:    0.81 KCAL/MOL
REMARK 927      BINDING AFFINITY PREDICTED BY RF-SCORE:    0.00 PKD
ROOT
HETATM    1  C   UNL     1      -9.145   8.469  72.055  1.00  0.00    -0.247 C  
HETATM    2  S   UNL     1      -8.521   8.969  70.437  1.00  0.00    -0.203 SA 
HETATM    3  C   UNL     1      -9.838  10.173  70.154  1.00  0.00    -0.053 C  
HETATM    4  C   UNL     1     -11.241   9.689  70.500  1.00  0.00    -0.359 C  
HETATM    5  O   UNL     1     -13.130   6.861  71.838  1.00  0.00    -0.316 OA 
HETATM    6  CA  UNL     1     -11.507   8.600  71.280  1.00  0.00    -0.283 C  
HETATM    7  N   UNL     1     -10.475   7.926  71.873  1.00  0.00    -0.218 N  
HETATM    8  O   UNL     1     -10.967   5.781  72.607  1.00  0.00    -0.235 OA 
HETATM    9  C   UNL     1     -12.935   8.146  71.496  1.00  0.00    -0.296 C  
HETATM   10  CA  UNL     1      -8.721   7.059  72.584  1.00  0.00    -0.119 C  
HETATM   11  OXT UNL     1     -13.891   8.895  71.383  1.00  0.00    -0.354 OA 
HETATM   12  C   UNL     1     -10.234   6.726  72.432  1.00  0.00    -0.180 C  
ENDROOT
BRANCH   4  13
HETATM   13  C   UNL     1     -12.297  10.495  69.742  1.00  0.00    -0.130 C  
BRANCH  13  14
HETATM   14  S   UNL     1     -11.889  12.277  69.724  1.00  0.00    -0.272 SA 
BRANCH  14  15
HETATM   15  C   UNL     1     -11.905  12.557  68.016  1.00  0.00    -0.325 A  
HETATM   16  N   UNL     1     -12.023  11.633  67.090  1.00  0.00    -0.574 NA 
HETATM   17  N   UNL     1     -11.814  13.779  67.404  1.00  0.00    -0.380 NA 
HETATM   18  N   UNL     1     -12.042  12.296  65.890  1.00  0.00    -0.620 NA 
HETATM   19  N   UNL     1     -11.951  13.604  66.070  1.00  0.00    -0.388 NA 
BRANCH  17  20
HETATM   20  C   UNL     1     -11.754  15.108  67.969  1.00  0.00    -0.285 C  
HETATM   21  O   UNL     1      -9.411  15.357  67.282  1.00  0.00    -0.204 OA 
HETATM   22  C   UNL     1     -10.373  15.692  68.165  1.00  0.00    -0.246 C  
HETATM   23  O   UNL     1     -10.149  16.517  69.044  1.00  0.00    -0.250 OA 
ENDBRANCH  17  20
ENDBRANCH  14  15
ENDBRANCH  13  14
ENDBRANCH   4  13
BRANCH  10  24
HETATM   24  N   UNL     1      -7.793   6.249  71.762  1.00  0.00    -0.101 N  
HETATM   25  C   UNL     1      -8.118   5.510  70.656  1.00  0.00    -0.115 C  
HETATM   26  O   UNL     1      -7.246   4.831  70.114  1.00  0.00    -0.048 OA 
HETATM   27  H   UNL     1      -6.814   6.240  72.048  1.00  0.00     0.000 HD 
BRANCH  25  28
HETATM   28  C   UNL     1      -9.551   5.544  70.149  1.00  0.00    -0.223 C  
BRANCH  28  29
HETATM   29  C   UNL     1      -9.730   5.029  68.737  1.00  0.00    -0.226 A  
HETATM   30  C   UNL     1     -10.264   5.822  67.696  1.00  0.00    -0.236 A  
HETATM   31  C   UNL     1     -10.382   5.252  66.412  1.00  0.00    -0.315 A  
HETATM   32  C   UNL     1      -9.312   3.712  68.448  1.00  0.00    -0.225 A  
HETATM   33  C   UNL     1      -9.958   3.951  66.147  1.00  0.00    -0.070 A  
HETATM   34  C   UNL     1      -9.429   3.176  67.168  1.00  0.00    -0.147 A  
BRANCH  30  35
HETATM   35  C   UNL     1     -10.773   7.233  67.925  1.00  0.00    -0.172 C  
HETATM   36  N   UNL     1     -10.303   8.178  66.912  1.00  0.00    -0.328 NA 
HETATM   37  H1  UNL     1     -10.645   9.127  67.066  1.00  0.00     0.000 HD 
HETATM   38  H2  UNL     1     -10.536   7.853  65.973  1.00  0.00     0.000 HD 
ENDBRANCH  30  35
ENDBRANCH  28  29
ENDBRANCH  25  28
ENDBRANCH  10  24
TORSDOF 8
ENDMDL
MODEL      233
REMARK 921   NORMALIZED FREE ENERGY PREDICTED BY IDOCK:   -4.82 KCAL/MOL
REMARK 922        TOTAL FREE ENERGY PREDICTED BY IDOCK:   -7.89 KCAL/MOL
REMARK 923 INTER-LIGAND FREE ENERGY PREDICTED BY IDOCK:   -8.89 KCAL/MOL
REMARK 924 INTRA-LIGAND FREE ENERGY PREDICTED BY IDOCK:    1.00 KCAL/MOL
REMARK 927      BINDING AFFINITY PREDICTED BY RF-SCORE:    0.00 PKD
ROOT
HETATM    1  C   UNL     1      -7.464  10.498  69.447  1.00  0.00    -0.141 C  
HETATM    2  S   UNL     1      -6.933   9.914  67.825  1.00  0.00    -0.086 SA 
HETATM    3  C   UNL     1      -8.176  10.869  66.927  1.00  0.00    -0.135 C  
HETATM    4  C   UNL     1      -9.580  10.821  67.518  1.00  0.00    -0.176 C  
HETATM    5  O   UNL     1     -11.561   9.484  70.282  1.00  0.00    -0.245 OA 
HETATM    6  CA  UNL     1      -9.863  10.409  68.789  1.00  0.00    -0.185 C  
HETATM    7  N   UNL     1      -8.841  10.092  69.640  1.00  0.00    -0.190 N  
HETATM    8  O   UNL     1      -9.431   8.819  71.487  1.00  0.00    -0.222 OA 
HETATM    9  C   UNL     1     -11.300  10.313  69.258  1.00  0.00    -0.196 C  
HETATM   10  CA  UNL     1      -7.105   9.610  70.684  1.00  0.00    -0.109 C  
HETATM   11  OXT UNL     1     -12.205  10.958  68.753  1.00  0.00    -0.518 OA 
HETATM   12  C   UNL     1      -8.646   9.410  70.784  1.00  0.00    -0.145 C  
ENDROOT
BRANCH   4  13
HETATM   13  C   UNL     1     -10.629  11.154  66.457  1.00  0.00    -0.262 C  
BRANCH  13  14
HETATM   14  S   UNL     1      -9.849  11.676  64.888  1.00  0.00    -0.211 SA 
BRANCH  14  15
HETATM   15  C   UNL     1     -11.140  12.618  64.225  1.00  0.00    -0.362 A  
HETATM   16  N   UNL     1     -11.987  12.216  63.305  1.00  0.00    -0.437 NA 
HETATM   17  N   UNL     1     -11.462  13.900  64.583  1.00  0.00    -0.362 NA 
HETATM   18  N   UNL     1     -12.867  13.251  63.118  1.00  0.00    -0.315 NA 
HETATM   19  N   UNL     1     -12.579  14.268  63.915  1.00  0.00    -0.787 NA 
BRANCH  17  20
HETATM   20  C   UNL     1     -10.899  14.758  65.601  1.00  0.00    -0.339 C  
HETATM   21  O   UNL     1     -11.199  16.737  64.181  1.00  0.00    -1.155 OA 
HETATM   22  C   UNL     1     -10.484  16.143  65.157  1.00  0.00    -0.268 C  
HETATM   23  O   UNL     1      -9.583  16.751  65.725  1.00  0.00    -0.506 OA 
ENDBRANCH  17  20
ENDBRANCH  14  15
ENDBRANCH  13  14
ENDBRANCH   4  13
BRANCH  10  24
HETATM   24  N   UNL     1      -6.307   8.382  70.460  1.00  0.00    -0.035 N  
HETATM   25  C   UNL     1      -6.794   7.128  70.205  1.00  0.00    -0.056 C  
HETATM   26  O   UNL     1      -6.004   6.189  70.108  1.00  0.00    -0.027 OA 
HETATM   27  H   UNL     1      -5.292   8.481  70.500  1.00  0.00     0.000 HD 
BRANCH  25  28
HETATM   28  C   UNL     1      -8.297   6.941  70.069  1.00  0.00    -0.139 C  
BRANCH  28  29
HETATM   29  C   UNL     1      -8.747   5.498  70.012  1.00  0.00    -0.132 A  
HETATM   30  C   UNL     1      -9.133   4.772  71.162  1.00  0.00    -0.180 A  
HETATM   31  C   UNL     1      -9.547   3.434  71.002  1.00  0.00    -0.239 A  
HETATM   32  C   UNL     1      -8.816   4.869  68.750  1.00  0.00    -0.114 A  
HETATM   33  C   UNL     1      -9.612   2.832  69.746  1.00  0.00    -0.077 A  
HETATM   34  C   UNL     1      -9.239   3.548  68.619  1.00  0.00    -0.225 A  
BRANCH  30  35
HETATM   35  C   UNL     1      -9.055   5.357  72.559  1.00  0.00    -0.136 C  
HETATM   36  N   UNL     1     -10.219   6.175  72.899  1.00  0.00    -0.183 NA 
HETATM   37  H1  UNL     1     -10.167   6.569  73.839  1.00  0.00     0.000 HD 
HETATM   38  H2  UNL     1     -11.084   5.650  72.770  1.00  0.00     0.000 HD 
ENDBRANCH  30  35
ENDBRANCH  28  29
ENDBRANCH  25  28
ENDBRANCH  10  24
TORSDOF 8
ENDMDL
MODEL      234
REMARK 921   NORMALIZED FREE ENERGY PREDICTED BY IDOCK:   -4.82 KCAL/MOL
REMARK 922        TOTAL FREE ENERGY PREDICTED BY IDOCK:   -7.89 KCAL/MOL
REMARK 923 INTER-LIGAND FREE ENERGY PREDICTED BY IDOCK:   -8.60 KCAL/MOL
REMARK 924 INTRA-LIGAND FREE ENERGY PREDICTED BY IDOCK:    0.71 KCAL/MOL
REMARK 927      BINDING AFFINITY PREDICTED BY RF-SCORE:    0.00 PKD
ROOT
HETATM    1  C   UNL     1     -10.477  14.659  68.839  1.00  0.00    -0.248 C  
HETATM    2  S   UNL     1     -11.993  14.075  68.052  1.00  0.00    -0.295 SA 
HETATM    3  C   UNL     1     -11.903  12.431  68.796  1.00  0.00    -0.311 C  
HETATM    4  C   UNL     1     -10.526  11.779  68.757  1.00  0.00    -0.221 C  
HETATM    5  O   UNL     1      -7.056  12.295  67.736  1.00  0.00    -0.093 OA 
HETATM    6  CA  UNL     1      -9.363  12.456  68.522  1.00  0.00    -0.088 C  
HETATM    7  N   UNL     1      -9.387  13.816  68.391  1.00  0.00    -0.204 N  
HETATM    8  O   UNL     1      -7.530  14.760  67.373  1.00  0.00    -0.186 OA 
HETATM    9  C   UNL     1      -8.052  11.706  68.418  1.00  0.00    -0.153 C  
HETATM   10  CA  UNL     1      -9.732  15.857  68.163  1.00  0.00    -0.212 C  
HETATM   11  OXT UNL     1      -7.872  10.613  68.931  1.00  0.00    -0.110 OA 
HETATM   12  C   UNL     1      -8.618  14.803  67.896  1.00  0.00    -0.166 C  
ENDROOT
BRANCH   4  13
HETATM   13  C   UNL     1     -10.640  10.259  68.873  1.00  0.00    -0.219 C  
BRANCH  13  14
HETATM   14  S   UNL     1     -11.526   9.770  70.395  1.00  0.00    -0.276 SA 
BRANCH  14  15
HETATM   15  C   UNL     1     -10.461   8.529  70.961  1.00  0.00    -0.212 A  
HETATM   16  N   UNL     1      -9.602   8.648  71.948  1.00  0.00    -0.283 NA 
HETATM   17  N   UNL     1     -10.382   7.254  70.467  1.00  0.00    -0.204 NA 
HETATM   18  N   UNL     1      -9.012   7.419  72.090  1.00  0.00    -0.130 NA 
HETATM   19  N   UNL     1      -9.503   6.553  71.218  1.00  0.00    -0.166 NA 
BRANCH  17  20
HETATM   20  C   UNL     1     -11.164   6.595  69.445  1.00  0.00    -0.299 C  
HETATM   21  O   UNL     1      -9.262   6.617  67.894  1.00  0.00    -0.115 OA 
HETATM   22  C   UNL     1     -10.602   6.633  68.042  1.00  0.00    -0.245 C  
HETATM   23  O   UNL     1     -11.335   6.587  67.059  1.00  0.00    -0.342 OA 
ENDBRANCH  17  20
ENDBRANCH  14  15
ENDBRANCH  13  14
ENDBRANCH   4  13
BRANCH  10  24
HETATM   24  N   UNL     1     -10.339  16.476  66.962  1.00  0.00    -0.299 N  
HETATM   25  C   UNL     1     -10.337  15.964  65.692  1.00  0.00    -0.390 C  
HETATM   26  O   UNL     1     -10.826  16.629  64.779  1.00  0.00    -0.732 OA 
HETATM   27  H   UNL     1     -10.806  17.373  67.094  1.00  0.00     0.000 HD 
BRANCH  25  28
HETATM   28  C   UNL     1      -9.714  14.597  65.456  1.00  0.00    -0.247 C  
BRANCH  28  29
HETATM   29  C   UNL     1     -10.613  13.613  64.738  1.00  0.00    -0.436 A  
HETATM   30  C   UNL     1     -10.260  12.258  64.542  1.00  0.00    -0.322 A  
HETATM   31  C   UNL     1     -11.171  11.419  63.869  1.00  0.00    -0.364 A  
HETATM   32  C   UNL     1     -11.868  14.067  64.279  1.00  0.00    -0.435 A  
HETATM   33  C   UNL     1     -12.408  11.886  63.427  1.00  0.00    -0.577 A  
HETATM   34  C   UNL     1     -12.755  13.214  63.625  1.00  0.00    -0.083 A  
BRANCH  30  35
HETATM   35  C   UNL     1      -8.918  11.695  64.969  1.00  0.00     0.240 C  
HETATM   36  N   UNL     1      -8.858  10.236  64.875  1.00  0.00    -0.179 NA 
HETATM   37  H1  UNL     1      -7.955   9.857  65.162  1.00  0.00     0.000 HD 
HETATM   38  H2  UNL     1      -9.105   9.921  63.937  1.00  0.00     0.000 HD 
ENDBRANCH  30  35
ENDBRANCH  28  29
ENDBRANCH  25  28
ENDBRANCH  10  24
TORSDOF 8
ENDMDL
MODEL      235
REMARK 921   NORMALIZED FREE ENERGY PREDICTED BY IDOCK:   -4.79 KCAL/MOL
REMARK 922        TOTAL FREE ENERGY PREDICTED BY IDOCK:   -7.86 KCAL/MOL
REMARK 923 INTER-LIGAND FREE ENERGY PREDICTED BY IDOCK:   -7.06 KCAL/MOL
REMARK 924 INTRA-LIGAND FREE ENERGY PREDICTED BY IDOCK:   -0.79 KCAL/MOL
REMARK 927      BINDING AFFINITY PREDICTED BY RF-SCORE:    0.00 PKD
ROOT
HETATM    1  C   UNL     1     -10.382   5.249  71.764  1.00  0.00    -0.214 C  
HETATM    2  S   UNL     1     -10.501   5.598  69.997  1.00  0.00    -0.311 SA 
HETATM    3  C   UNL     1      -8.712   5.600  69.742  1.00  0.00    -0.125 C  
HETATM    4  C   UNL     1      -7.912   6.366  70.789  1.00  0.00    -0.111 C  
HETATM    5  O   UNL     1      -8.199   8.291  73.881  1.00  0.00    -0.235 OA 
HETATM    6  CA  UNL     1      -8.400   6.733  72.011  1.00  0.00    -0.111 C  
HETATM    7  N   UNL     1      -9.652   6.334  72.386  1.00  0.00    -0.151 N  
HETATM    8  O   UNL     1     -10.602   7.521  74.137  1.00  0.00    -0.081 OA 
HETATM    9  C   UNL     1      -7.555   7.568  72.950  1.00  0.00    -0.088 C  
HETATM   10  CA  UNL     1     -11.600   5.650  72.659  1.00  0.00    -0.251 C  
HETATM   11  OXT UNL     1      -6.336   7.597  72.895  1.00  0.00    -0.058 OA 
HETATM   12  C   UNL     1     -10.599   6.667  73.282  1.00  0.00    -0.291 C  
ENDROOT
BRANCH   4  13
HETATM   13  C   UNL     1      -6.553   6.789  70.232  1.00  0.00    -0.044 C  
BRANCH  13  14
HETATM   14  S   UNL     1      -6.366   6.296  68.481  1.00  0.00    -0.046 SA 
BRANCH  14  15
HETATM   15  C   UNL     1      -6.700   7.813  67.719  1.00  0.00    -0.068 A  
HETATM   16  N   UNL     1      -6.297   8.989  68.144  1.00  0.00    -0.055 NA 
HETATM   17  N   UNL     1      -7.413   7.989  66.563  1.00  0.00    -0.087 NA 
HETATM   18  N   UNL     1      -6.736   9.901  67.219  1.00  0.00    -0.073 NA 
HETATM   19  N   UNL     1      -7.386   9.301  66.234  1.00  0.00    -0.091 NA 
BRANCH  17  20
HETATM   20  C   UNL     1      -7.995   7.018  65.664  1.00  0.00    -0.123 C  
HETATM   21  O   UNL     1     -10.164   7.181  66.801  1.00  0.00    -0.235 OA 
HETATM   22  C   UNL     1      -9.312   6.412  66.093  1.00  0.00    -0.076 C  
HETATM   23  O   UNL     1      -9.643   5.286  65.735  1.00  0.00    -0.153 OA 
ENDBRANCH  17  20
ENDBRANCH  14  15
ENDBRANCH  13  14
ENDBRANCH   4  13
BRANCH  10  24
HETATM   24  N   UNL     1     -12.793   6.235  72.004  1.00  0.00    -0.304 N  
HETATM   25  C   UNL     1     -13.024   7.564  71.767  1.00  0.00    -0.328 C  
HETATM   26  O   UNL     1     -14.098   7.904  71.271  1.00  0.00    -0.326 OA 
HETATM   27  H   UNL     1     -13.514   5.582  71.697  1.00  0.00     0.000 HD 
BRANCH  25  28
HETATM   28  C   UNL     1     -11.949   8.571  72.143  1.00  0.00    -0.451 C  
BRANCH  28  29
HETATM   29  C   UNL     1     -12.012   9.874  71.375  1.00  0.00    -0.489 A  
HETATM   30  C   UNL     1     -11.310  10.083  70.166  1.00  0.00    -0.357 A  
HETATM   31  C   UNL     1     -11.442  11.329  69.521  1.00  0.00    -0.376 A  
HETATM   32  C   UNL     1     -12.837  10.904  71.874  1.00  0.00    -0.432 A  
HETATM   33  C   UNL     1     -12.265  12.333  70.029  1.00  0.00    -0.267 A  
HETATM   34  C   UNL     1     -12.959  12.124  71.212  1.00  0.00    -0.303 A  
BRANCH  30  35
HETATM   35  C   UNL     1     -10.372   9.045  69.578  1.00  0.00    -0.209 C  
HETATM   36  N   UNL     1      -9.378   9.625  68.675  1.00  0.00    -0.141 NA 
HETATM   37  H1  UNL     1      -8.747   8.927  68.278  1.00  0.00     0.000 HD 
HETATM   38  H2  UNL     1      -8.855  10.369  69.137  1.00  0.00     0.000 HD 
ENDBRANCH  30  35
ENDBRANCH  28  29
ENDBRANCH  25  28
ENDBRANCH  10  24
TORSDOF 8
ENDMDL
MODEL      236
REMARK 921   NORMALIZED FREE ENERGY PREDICTED BY IDOCK:   -4.78 KCAL/MOL
REMARK 922        TOTAL FREE ENERGY PREDICTED BY IDOCK:   -7.84 KCAL/MOL
REMARK 923 INTER-LIGAND FREE ENERGY PREDICTED BY IDOCK:   -6.89 KCAL/MOL
REMARK 924 INTRA-LIGAND FREE ENERGY PREDICTED BY IDOCK:   -0.95 KCAL/MOL
REMARK 927      BINDING AFFINITY PREDICTED BY RF-SCORE:    0.00 PKD
ROOT
HETATM    1  C   UNL     1      -8.834   9.992  67.208  1.00  0.00    -0.135 C  
HETATM    2  S   UNL     1      -9.886  10.152  68.665  1.00  0.00    -0.170 SA 
HETATM    3  C   UNL     1     -10.221  11.907  68.393  1.00  0.00    -0.204 C  
HETATM    4  C   UNL     1      -9.004  12.748  68.029  1.00  0.00    -0.196 C  
HETATM    5  O   UNL     1      -5.412  12.594  67.375  1.00  0.00    -0.196 OA 
HETATM    6  CA  UNL     1      -7.818  12.232  67.588  1.00  0.00    -0.156 C  
HETATM    7  N   UNL     1      -7.707  10.887  67.368  1.00  0.00    -0.105 N  
HETATM    8  O   UNL     1      -5.542  10.063  67.262  1.00  0.00    -0.042 OA 
HETATM    9  C   UNL     1      -6.637  13.144  67.333  1.00  0.00    -0.082 C  
HETATM   10  CA  UNL     1      -7.804   8.815  67.191  1.00  0.00    -0.096 C  
HETATM   11  OXT UNL     1      -6.760  14.333  67.087  1.00  0.00    -0.185 OA 
HETATM   12  C   UNL     1      -6.745   9.955  67.237  1.00  0.00    -0.074 C  
ENDROOT
BRANCH   4  13
HETATM   13  C   UNL     1      -9.242  14.221  68.360  1.00  0.00    -0.196 C  
BRANCH  13  14
HETATM   14  S   UNL     1     -11.025  14.624  68.366  1.00  0.00    -0.262 SA 
BRANCH  14  15
HETATM   15  C   UNL     1     -11.244  14.982  66.687  1.00  0.00    -0.311 A  
HETATM   16  N   UNL     1     -12.162  14.458  65.907  1.00  0.00    -0.374 NA 
HETATM   17  N   UNL     1     -10.502  15.868  65.953  1.00  0.00    -0.341 NA 
HETATM   18  N   UNL     1     -12.010  15.057  64.683  1.00  0.00    -0.399 NA 
HETATM   19  N   UNL     1     -11.025  15.942  64.708  1.00  0.00    -0.552 NA 
BRANCH  17  20
HETATM   20  C   UNL     1      -9.436  16.758  66.356  1.00  0.00    -0.282 C  
HETATM   21  O   UNL     1     -11.034  18.275  67.438  1.00  0.00    -0.328 OA 
HETATM   22  C   UNL     1      -9.851  18.141  66.805  1.00  0.00    -0.337 C  
HETATM   23  O   UNL     1      -9.100  19.103  66.683  1.00  0.00    -0.308 OA 
ENDBRANCH  17  20
ENDBRANCH  14  15
ENDBRANCH  13  14
ENDBRANCH   4  13
BRANCH  10  24
HETATM   24  N   UNL     1      -7.792   7.874  68.336  1.00  0.00    -0.118 N  
HETATM   25  C   UNL     1      -7.330   6.585  68.327  1.00  0.00    -0.087 C  
HETATM   26  O   UNL     1      -7.449   5.901  69.344  1.00  0.00    -0.083 OA 
HETATM   27  H   UNL     1      -8.165   8.222  69.219  1.00  0.00     0.000 HD 
BRANCH  25  28
HETATM   28  C   UNL     1      -6.702   6.043  67.053  1.00  0.00    -0.058 C  
BRANCH  28  29
HETATM   29  C   UNL     1      -7.285   4.729  66.575  1.00  0.00    -0.077 A  
HETATM   30  C   UNL     1      -8.578   4.626  66.016  1.00  0.00    -0.115 A  
HETATM   31  C   UNL     1      -9.025   3.358  65.592  1.00  0.00    -0.142 A  
HETATM   32  C   UNL     1      -6.482   3.572  66.665  1.00  0.00    -0.040 A  
HETATM   33  C   UNL     1      -8.216   2.226  65.685  1.00  0.00    -0.088 A  
HETATM   34  C   UNL     1      -6.944   2.332  66.229  1.00  0.00    -0.044 A  
BRANCH  30  35
HETATM   35  C   UNL     1      -9.521   5.810  65.917  1.00  0.00    -0.035 C  
HETATM   36  N   UNL     1     -10.853   5.522  66.448  1.00  0.00    -0.673 NA 
HETATM   37  H1  UNL     1     -11.488   6.318  66.382  1.00  0.00     0.000 HD 
HETATM   38  H2  UNL     1     -10.797   5.179  67.408  1.00  0.00     0.000 HD 
ENDBRANCH  30  35
ENDBRANCH  28  29
ENDBRANCH  25  28
ENDBRANCH  10  24
TORSDOF 8
ENDMDL
MODEL      237
REMARK 921   NORMALIZED FREE ENERGY PREDICTED BY IDOCK:   -4.73 KCAL/MOL
REMARK 922        TOTAL FREE ENERGY PREDICTED BY IDOCK:   -7.76 KCAL/MOL
REMARK 923 INTER-LIGAND FREE ENERGY PREDICTED BY IDOCK:   -7.08 KCAL/MOL
REMARK 924 INTRA-LIGAND FREE ENERGY PREDICTED BY IDOCK:   -0.68 KCAL/MOL
REMARK 927      BINDING AFFINITY PREDICTED BY RF-SCORE:    0.00 PKD
ROOT
HETATM    1  C   UNL     1     -12.005  10.128  69.812  1.00  0.00    -0.037 C  
HETATM    2  S   UNL     1     -11.883  11.322  71.159  1.00  0.00     0.441 SA 
HETATM    3  C   UNL     1     -12.479  12.707  70.164  1.00  0.00    -0.029 C  
HETATM    4  C   UNL     1     -11.868  12.812  68.772  1.00  0.00    -0.346 C  
HETATM    5  O   UNL     1      -9.544  11.207  66.452  1.00  0.00    -0.190 OA 
HETATM    6  CA  UNL     1     -11.202  11.795  68.148  1.00  0.00    -0.260 C  
HETATM    7  N   UNL     1     -11.131  10.567  68.744  1.00  0.00    -0.249 N  
HETATM    8  O   UNL     1      -9.476   9.154  67.942  1.00  0.00    -0.139 OA 
HETATM    9  C   UNL     1     -10.554  12.022  66.798  1.00  0.00    -0.227 C  
HETATM   10  CA  UNL     1     -11.121   8.842  69.910  1.00  0.00    -0.123 C  
HETATM   11  OXT UNL     1     -10.919  12.897  66.028  1.00  0.00    -0.272 OA 
HETATM   12  C   UNL     1     -10.396   9.442  68.670  1.00  0.00    -0.203 C  
ENDROOT
BRANCH   4  13
HETATM   13  C   UNL     1     -11.975  14.239  68.236  1.00  0.00    -0.311 C  
BRANCH  13  14
HETATM   14  S   UNL     1     -10.808  15.361  69.086  1.00  0.00    -0.268 SA 
BRANCH  14  15
HETATM   15  C   UNL     1     -10.149  16.183  67.714  1.00  0.00    -0.250 A  
HETATM   16  N   UNL     1     -10.399  15.896  66.456  1.00  0.00    -0.292 NA 
HETATM   17  N   UNL     1      -9.293  17.252  67.755  1.00  0.00    -0.247 NA 
HETATM   18  N   UNL     1      -9.718  16.823  65.711  1.00  0.00    -0.543 NA 
HETATM   19  N   UNL     1      -9.069  17.675  66.490  1.00  0.00    -0.274 NA 
BRANCH  17  20
HETATM   20  C   UNL     1      -8.782  18.000  68.881  1.00  0.00    -0.110 C  
HETATM   21  O   UNL     1      -8.401  19.972  67.471  1.00  0.00    -0.316 OA 
HETATM   22  C   UNL     1      -8.022  19.266  68.556  1.00  0.00    -0.361 C  
HETATM   23  O   UNL     1      -7.147  19.695  69.301  1.00  0.00    -0.358 OA 
ENDBRANCH  17  20
ENDBRANCH  14  15
ENDBRANCH  13  14
ENDBRANCH   4  13
BRANCH  10  24
HETATM   24  N   UNL     1     -10.287   8.651  71.119  1.00  0.00    -0.214 N  
HETATM   25  C   UNL     1     -10.157   7.498  71.846  1.00  0.00    -0.172 C  
HETATM   26  O   UNL     1      -9.475   7.513  72.871  1.00  0.00    -0.157 OA 
HETATM   27  H   UNL     1      -9.756   9.460  71.441  1.00  0.00     0.000 HD 
BRANCH  25  28
HETATM   28  C   UNL     1     -10.875   6.247  71.367  1.00  0.00    -0.312 C  
BRANCH  28  29
HETATM   29  C   UNL     1      -9.972   5.053  71.141  1.00  0.00    -0.276 A  
HETATM   30  C   UNL     1      -9.432   4.731  69.875  1.00  0.00    -0.231 A  
HETATM   31  C   UNL     1      -8.594   3.603  69.772  1.00  0.00    -0.112 A  
HETATM   32  C   UNL     1      -9.632   4.253  72.254  1.00  0.00    -0.196 A  
HETATM   33  C   UNL     1      -8.267   2.828  70.884  1.00  0.00    -0.072 A  
HETATM   34  C   UNL     1      -8.793   3.149  72.126  1.00  0.00    -0.119 A  
BRANCH  30  35
HETATM   35  C   UNL     1      -9.774   5.513  68.621  1.00  0.00    -0.142 C  
HETATM   36  N   UNL     1      -8.657   6.324  68.135  1.00  0.00    -0.117 NA 
HETATM   37  H1  UNL     1      -8.887   6.850  67.291  1.00  0.00     0.000 HD 
HETATM   38  H2  UNL     1      -7.825   5.752  67.994  1.00  0.00     0.000 HD 
ENDBRANCH  30  35
ENDBRANCH  28  29
ENDBRANCH  25  28
ENDBRANCH  10  24
TORSDOF 8
ENDMDL
MODEL      238
REMARK 921   NORMALIZED FREE ENERGY PREDICTED BY IDOCK:   -4.72 KCAL/MOL
REMARK 922        TOTAL FREE ENERGY PREDICTED BY IDOCK:   -7.75 KCAL/MOL
REMARK 923 INTER-LIGAND FREE ENERGY PREDICTED BY IDOCK:   -7.48 KCAL/MOL
REMARK 924 INTRA-LIGAND FREE ENERGY PREDICTED BY IDOCK:   -0.26 KCAL/MOL
REMARK 927      BINDING AFFINITY PREDICTED BY RF-SCORE:    0.00 PKD
ROOT
HETATM    1  C   UNL     1      -9.165   9.281  69.808  1.00  0.00    -0.181 C  
HETATM    2  S   UNL     1      -9.365   8.789  71.533  1.00  0.00    -0.268 SA 
HETATM    3  C   UNL     1      -7.949   7.667  71.515  1.00  0.00    -0.094 C  
HETATM    4  C   UNL     1      -7.860   6.758  70.294  1.00  0.00    -0.110 C  
HETATM    5  O   UNL     1      -9.468   5.938  67.117  1.00  0.00    -0.114 OA 
HETATM    6  CA  UNL     1      -8.545   6.968  69.131  1.00  0.00    -0.133 C  
HETATM    7  N   UNL     1      -9.303   8.096  68.986  1.00  0.00    -0.148 N  
HETATM    8  O   UNL     1     -10.890   8.031  67.297  1.00  0.00    -0.261 OA 
HETATM    9  C   UNL     1      -8.459   5.961  68.003  1.00  0.00    -0.110 C  
HETATM   10  CA  UNL     1     -10.424   9.849  69.073  1.00  0.00    -0.210 C  
HETATM   11  OXT UNL     1      -7.518   5.195  67.871  1.00  0.00    -0.074 OA 
HETATM   12  C   UNL     1     -10.307   8.554  68.216  1.00  0.00    -0.201 C  
ENDROOT
BRANCH   4  13
HETATM   13  C   UNL     1      -7.023   5.517  70.599  1.00  0.00    -0.057 C  
BRANCH  13  14
HETATM   14  S   UNL     1      -6.948   5.187  72.396  1.00  0.00    -0.082 SA 
BRANCH  14  15
HETATM   15  C   UNL     1      -7.942   3.772  72.469  1.00  0.00    -0.073 A  
HETATM   16  N   UNL     1      -7.559   2.588  72.890  1.00  0.00    -0.044 NA 
HETATM   17  N   UNL     1      -9.263   3.702  72.116  1.00  0.00    -0.110 NA 
HETATM   18  N   UNL     1      -8.668   1.785  72.831  1.00  0.00    -0.062 NA 
HETATM   19  N   UNL     1      -9.720   2.460  72.394  1.00  0.00    -0.112 NA 
BRANCH  17  20
HETATM   20  C   UNL     1     -10.172   4.737  71.676  1.00  0.00    -0.179 C  
HETATM   21  O   UNL     1     -10.367   5.617  73.959  1.00  0.00    -0.238 OA 
HETATM   22  C   UNL     1     -10.955   5.446  72.757  1.00  0.00    -0.277 C  
HETATM   23  O   UNL     1     -12.057   5.936  72.530  1.00  0.00    -0.241 OA 
ENDBRANCH  17  20
ENDBRANCH  14  15
ENDBRANCH  13  14
ENDBRANCH   4  13
BRANCH  10  24
HETATM   24  N   UNL     1     -11.679  10.004  69.844  1.00  0.00    -0.422 N  
HETATM   25  C   UNL     1     -12.327  11.178  70.120  1.00  0.00    -0.295 C  
HETATM   26  O   UNL     1     -13.329  11.154  70.834  1.00  0.00    -0.019 OA 
HETATM   27  H   UNL     1     -12.104   9.150  70.206  1.00  0.00     0.000 HD 
BRANCH  25  28
HETATM   28  C   UNL     1     -11.770  12.472  69.546  1.00  0.00    -0.375 C  
BRANCH  28  29
HETATM   29  C   UNL     1     -12.088  13.708  70.360  1.00  0.00    -0.421 A  
HETATM   30  C   UNL     1     -11.472  14.957  70.124  1.00  0.00    -0.320 A  
HETATM   31  C   UNL     1     -11.844  16.051  70.931  1.00  0.00    -0.409 A  
HETATM   32  C   UNL     1     -13.067  13.608  71.371  1.00  0.00    -0.396 A  
HETATM   33  C   UNL     1     -12.816  15.933  71.923  1.00  0.00    -0.455 A  
HETATM   34  C   UNL     1     -13.424  14.708  72.149  1.00  0.00    -0.494 A  
BRANCH  30  35
HETATM   35  C   UNL     1     -10.383  15.146  69.083  1.00  0.00    -0.249 C  
HETATM   36  N   UNL     1      -9.967  16.542  68.944  1.00  0.00    -0.250 NA 
HETATM   37  H1  UNL     1      -9.235  16.670  68.244  1.00  0.00     0.000 HD 
HETATM   38  H2  UNL     1      -9.684  16.930  69.844  1.00  0.00     0.000 HD 
ENDBRANCH  30  35
ENDBRANCH  28  29
ENDBRANCH  25  28
ENDBRANCH  10  24
TORSDOF 8
ENDMDL
MODEL      239
REMARK 921   NORMALIZED FREE ENERGY PREDICTED BY IDOCK:   -4.72 KCAL/MOL
REMARK 922        TOTAL FREE ENERGY PREDICTED BY IDOCK:   -7.75 KCAL/MOL
REMARK 923 INTER-LIGAND FREE ENERGY PREDICTED BY IDOCK:   -8.02 KCAL/MOL
REMARK 924 INTRA-LIGAND FREE ENERGY PREDICTED BY IDOCK:    0.28 KCAL/MOL
REMARK 927      BINDING AFFINITY PREDICTED BY RF-SCORE:    0.00 PKD
ROOT
HETATM    1  C   UNL     1      -8.107  10.188  68.970  1.00  0.00    -0.125 C  
HETATM    2  S   UNL     1      -7.661  10.518  67.253  1.00  0.00    -0.097 SA 
HETATM    3  C   UNL     1      -8.333  12.195  67.262  1.00  0.00    -0.179 C  
HETATM    4  C   UNL     1      -9.706  12.338  67.909  1.00  0.00    -0.202 C  
HETATM    5  O   UNL     1     -12.345  10.497  69.639  1.00  0.00    -0.225 OA 
HETATM    6  CA  UNL     1     -10.266  11.403  68.732  1.00  0.00    -0.197 C  
HETATM    7  N   UNL     1      -9.546  10.296  69.087  1.00  0.00    -0.207 N  
HETATM    8  O   UNL     1     -10.782   8.518  69.919  1.00  0.00    -0.228 OA 
HETATM    9  C   UNL     1     -11.673  11.595  69.259  1.00  0.00    -0.331 C  
HETATM   10  CA  UNL     1      -8.257   8.691  69.398  1.00  0.00    -0.113 C  
HETATM   11  OXT UNL     1     -12.198  12.692  69.355  1.00  0.00    -0.200 OA 
HETATM   12  C   UNL     1      -9.757   9.063  69.583  1.00  0.00    -0.172 C  
ENDROOT
BRANCH   4  13
HETATM   13  C   UNL     1     -10.420  13.588  67.399  1.00  0.00    -0.247 C  
BRANCH  13  14
HETATM   14  S   UNL     1     -11.667  13.174  66.127  1.00  0.00    -0.401 SA 
BRANCH  14  15
HETATM   15  C   UNL     1     -11.619  14.629  65.192  1.00  0.00    -0.371 A  
HETATM   16  N   UNL     1     -12.468  14.959  64.246  1.00  0.00    -0.726 NA 
HETATM   17  N   UNL     1     -10.701  15.637  65.326  1.00  0.00    -0.402 NA 
HETATM   18  N   UNL     1     -12.092  16.205  63.814  1.00  0.00    -0.732 NA 
HETATM   19  N   UNL     1     -11.040  16.643  64.487  1.00  0.00    -0.967 NA 
BRANCH  17  20
HETATM   20  C   UNL     1      -9.621  15.802  66.271  1.00  0.00    -0.313 C  
HETATM   21  O   UNL     1     -11.123  16.872  67.891  1.00  0.00    -0.301 OA 
HETATM   22  C   UNL     1      -9.867  16.764  67.411  1.00  0.00    -0.252 C  
HETATM   23  O   UNL     1      -8.944  17.364  67.951  1.00  0.00    -0.242 OA 
ENDBRANCH  17  20
ENDBRANCH  14  15
ENDBRANCH  13  14
ENDBRANCH   4  13
BRANCH  10  24
HETATM   24  N   UNL     1      -7.969   7.640  68.395  1.00  0.00    -0.121 N  
HETATM   25  C   UNL     1      -7.986   6.287  68.604  1.00  0.00    -0.105 C  
HETATM   26  O   UNL     1      -7.658   5.536  67.686  1.00  0.00    -0.086 OA 
HETATM   27  H   UNL     1      -7.736   7.956  67.454  1.00  0.00     0.000 HD 
BRANCH  25  28
HETATM   28  C   UNL     1      -8.395   5.764  69.973  1.00  0.00    -0.123 C  
BRANCH  28  29
HETATM   29  C   UNL     1      -7.775   4.435  70.348  1.00  0.00    -0.053 A  
HETATM   30  C   UNL     1      -8.385   3.196  70.049  1.00  0.00    -0.079 A  
HETATM   31  C   UNL     1      -7.721   2.013  70.433  1.00  0.00    -0.043 A  
HETATM   32  C   UNL     1      -6.518   4.442  70.991  1.00  0.00    -0.029 A  
HETATM   33  C   UNL     1      -6.479   2.041  71.064  1.00  0.00    -0.023 A  
HETATM   34  C   UNL     1      -5.879   3.258  71.351  1.00  0.00    -0.013 A  
BRANCH  30  35
HETATM   35  C   UNL     1      -9.750   3.096  69.394  1.00  0.00     0.117 C  
HETATM   36  N   UNL     1      -9.676   3.037  67.934  1.00  0.00    -0.229 NA 
HETATM   37  H1  UNL     1     -10.594   2.970  67.493  1.00  0.00     0.000 HD 
HETATM   38  H2  UNL     1      -9.068   2.276  67.630  1.00  0.00     0.000 HD 
ENDBRANCH  30  35
ENDBRANCH  28  29
ENDBRANCH  25  28
ENDBRANCH  10  24
TORSDOF 8
ENDMDL
MODEL      240
REMARK 921   NORMALIZED FREE ENERGY PREDICTED BY IDOCK:   -4.71 KCAL/MOL
REMARK 922        TOTAL FREE ENERGY PREDICTED BY IDOCK:   -7.73 KCAL/MOL
REMARK 923 INTER-LIGAND FREE ENERGY PREDICTED BY IDOCK:   -8.71 KCAL/MOL
REMARK 924 INTRA-LIGAND FREE ENERGY PREDICTED BY IDOCK:    0.98 KCAL/MOL
REMARK 927      BINDING AFFINITY PREDICTED BY RF-SCORE:    0.00 PKD
ROOT
HETATM    1  C   UNL     1      -8.434  14.033  67.131  1.00  0.00    -0.190 C  
HETATM    2  S   UNL     1      -7.690  13.871  68.768  1.00  0.00    -0.051 SA 
HETATM    3  C   UNL     1      -7.184  12.156  68.514  1.00  0.00    -0.102 C  
HETATM    4  C   UNL     1      -8.240  11.258  67.880  1.00  0.00    -0.123 C  
HETATM    5  O   UNL     1     -11.626  11.218  66.508  1.00  0.00    -0.344 OA 
HETATM    6  CA  UNL     1      -9.344  11.719  67.222  1.00  0.00    -0.171 C  
HETATM    7  N   UNL     1      -9.504  13.063  67.028  1.00  0.00    -0.229 N  
HETATM    8  O   UNL     1     -11.655  13.754  66.506  1.00  0.00    -0.334 OA 
HETATM    9  C   UNL     1     -10.383  10.748  66.701  1.00  0.00    -0.241 C  
HETATM   10  CA  UNL     1      -9.519  15.143  66.942  1.00  0.00    -0.238 C  
HETATM   11  OXT UNL     1     -10.129   9.581  66.447  1.00  0.00    -0.254 OA 
HETATM   12  C   UNL     1     -10.482  13.938  66.732  1.00  0.00    -0.270 C  
ENDROOT
BRANCH   4  13
HETATM   13  C   UNL     1      -7.971   9.789  68.205  1.00  0.00    -0.096 C  
BRANCH  13  14
HETATM   14  S   UNL     1      -6.297   9.555  68.902  1.00  0.00    -0.042 SA 
BRANCH  14  15
HETATM   15  C   UNL     1      -6.719   8.998  70.485  1.00  0.00    -0.058 A  
HETATM   16  N   UNL     1      -6.466   9.627  71.610  1.00  0.00    -0.305 NA 
HETATM   17  N   UNL     1      -7.388   7.839  70.775  1.00  0.00    -0.064 NA 
HETATM   18  N   UNL     1      -7.019   8.864  72.606  1.00  0.00    -0.325 NA 
HETATM   19  N   UNL     1      -7.612   7.791  72.108  1.00  0.00    -0.077 NA 
BRANCH  17  20
HETATM   20  C   UNL     1      -7.960   6.843  69.897  1.00  0.00    -0.120 C  
HETATM   21  O   UNL     1      -5.851   5.587  69.854  1.00  0.00    -0.015 OA 
HETATM   22  C   UNL     1      -6.983   5.921  69.202  1.00  0.00    -0.064 C  
HETATM   23  O   UNL     1      -7.246   5.415  68.116  1.00  0.00    -0.069 OA 
ENDBRANCH  17  20
ENDBRANCH  14  15
ENDBRANCH  13  14
ENDBRANCH   4  13
BRANCH  10  24
HETATM   24  N   UNL     1      -9.830  16.027  68.089  1.00  0.00    -0.220 N  
HETATM   25  C   UNL     1     -10.865  15.882  68.974  1.00  0.00    -0.266 C  
HETATM   26  O   UNL     1     -11.035  16.739  69.841  1.00  0.00    -0.293 OA 
HETATM   27  H   UNL     1      -9.210  16.824  68.235  1.00  0.00     0.000 HD 
BRANCH  25  28
HETATM   28  C   UNL     1     -11.776  14.672  68.840  1.00  0.00    -0.343 C  
BRANCH  28  29
HETATM   29  C   UNL     1     -12.513  14.298  70.108  1.00  0.00    -0.393 A  
HETATM   30  C   UNL     1     -12.461  13.002  70.668  1.00  0.00    -0.347 A  
HETATM   31  C   UNL     1     -13.176  12.757  71.858  1.00  0.00    -0.511 A  
HETATM   32  C   UNL     1     -13.253  15.301  70.771  1.00  0.00    -0.442 A  
HETATM   33  C   UNL     1     -13.898  13.762  72.500  1.00  0.00    -0.626 A  
HETATM   34  C   UNL     1     -13.943  15.035  71.952  1.00  0.00    -0.604 A  
BRANCH  30  35
HETATM   35  C   UNL     1     -11.722  11.855  70.004  1.00  0.00    -0.286 C  
HETATM   36  N   UNL     1     -12.622  10.832  69.471  1.00  0.00    -0.599 NA 
HETATM   37  H1  UNL     1     -12.126  10.060  69.024  1.00  0.00     0.000 HD 
HETATM   38  H2  UNL     1     -13.307  11.243  68.836  1.00  0.00     0.000 HD 
ENDBRANCH  30  35
ENDBRANCH  28  29
ENDBRANCH  25  28
ENDBRANCH  10  24
TORSDOF 8
ENDMDL
MODEL      241
REMARK 921   NORMALIZED FREE ENERGY PREDICTED BY IDOCK:   -4.70 KCAL/MOL
REMARK 922        TOTAL FREE ENERGY PREDICTED BY IDOCK:   -7.71 KCAL/MOL
REMARK 923 INTER-LIGAND FREE ENERGY PREDICTED BY IDOCK:   -6.44 KCAL/MOL
REMARK 924 INTRA-LIGAND FREE ENERGY PREDICTED BY IDOCK:   -1.27 KCAL/MOL
REMARK 927      BINDING AFFINITY PREDICTED BY RF-SCORE:    0.00 PKD
ROOT
HETATM    1  C   UNL     1      -8.405  13.251  68.404  1.00  0.00    -0.131 C  
HETATM    2  S   UNL     1      -8.120  12.557  66.763  1.00  0.00     0.145 SA 
HETATM    3  C   UNL     1      -8.106  10.846  67.344  1.00  0.00    -0.114 C  
HETATM    4  C   UNL     1      -7.294  10.600  68.610  1.00  0.00    -0.094 C  
HETATM    5  O   UNL     1      -5.264  12.243  71.165  1.00  0.00    -0.142 OA 
HETATM    6  CA  UNL     1      -6.890  11.586  69.465  1.00  0.00    -0.075 C  
HETATM    7  N   UNL     1      -7.290  12.875  69.249  1.00  0.00     0.149 N  
HETATM    8  O   UNL     1      -6.053  14.507  70.336  1.00  0.00    -0.156 OA 
HETATM    9  C   UNL     1      -6.011  11.253  70.653  1.00  0.00    -0.059 C  
HETATM   10  CA  UNL     1      -7.986  14.740  68.637  1.00  0.00    -0.143 C  
HETATM   11  OXT UNL     1      -5.971  10.140  71.154  1.00  0.00    -0.214 OA 
HETATM   12  C   UNL     1      -6.936  14.123  69.607  1.00  0.00    -0.011 C  
ENDROOT
BRANCH   4  13
HETATM   13  C   UNL     1      -6.875   9.134  68.712  1.00  0.00    -0.061 C  
BRANCH  13  14
HETATM   14  S   UNL     1      -8.054   8.172  69.725  1.00  0.00    -0.118 SA 
BRANCH  14  15
HETATM   15  C   UNL     1      -9.155   7.672  68.487  1.00  0.00    -0.131 A  
HETATM   16  N   UNL     1      -8.876   7.579  67.207  1.00  0.00    -0.123 NA 
HETATM   17  N   UNL     1     -10.457   7.291  68.678  1.00  0.00    -0.197 NA 
HETATM   18  N   UNL     1     -10.010   7.098  66.603  1.00  0.00    -0.191 NA 
HETATM   19  N   UNL     1     -10.967   6.886  67.493  1.00  0.00    -0.284 NA 
BRANCH  17  20
HETATM   20  C   UNL     1     -11.218   7.137  69.897  1.00  0.00    -0.208 C  
HETATM   21  O   UNL     1     -11.929   9.485  69.818  1.00  0.00     0.132 OA 
HETATM   22  C   UNL     1     -11.647   8.412  70.586  1.00  0.00    -0.191 C  
HETATM   23  O   UNL     1     -11.825   8.454  71.799  1.00  0.00    -0.280 OA 
ENDBRANCH  17  20
ENDBRANCH  14  15
ENDBRANCH  13  14
ENDBRANCH   4  13
BRANCH  10  24
HETATM   24  N   UNL     1      -7.439  15.504  67.492  1.00  0.00    -0.164 N  
HETATM   25  C   UNL     1      -8.136  16.345  66.666  1.00  0.00    -0.286 C  
HETATM   26  O   UNL     1      -7.555  16.860  65.711  1.00  0.00    -0.206 OA 
HETATM   27  H   UNL     1      -6.443  15.394  67.301  1.00  0.00     0.000 HD 
BRANCH  25  28
HETATM   28  C   UNL     1      -9.608  16.596  66.952  1.00  0.00    -0.259 C  
BRANCH  28  29
HETATM   29  C   UNL     1     -10.528  15.461  66.554  1.00  0.00    -0.295 A  
HETATM   30  C   UNL     1     -11.413  14.841  67.464  1.00  0.00    -0.369 A  
HETATM   31  C   UNL     1     -12.236  13.798  66.993  1.00  0.00    -0.381 A  
HETATM   32  C   UNL     1     -10.519  15.035  65.209  1.00  0.00    -0.428 A  
HETATM   33  C   UNL     1     -12.215  13.394  65.659  1.00  0.00    -0.510 A  
HETATM   34  C   UNL     1     -11.350  14.008  64.766  1.00  0.00    -0.366 A  
BRANCH  30  35
HETATM   35  C   UNL     1     -11.461  15.210  68.935  1.00  0.00    -0.320 C  
HETATM   36  N   UNL     1     -12.244  14.264  69.732  1.00  0.00    -0.359 NA 
HETATM   37  H1  UNL     1     -12.277  14.512  70.722  1.00  0.00     0.000 HD 
HETATM   38  H2  UNL     1     -11.903  13.311  69.606  1.00  0.00     0.000 HD 
ENDBRANCH  30  35
ENDBRANCH  28  29
ENDBRANCH  25  28
ENDBRANCH  10  24
TORSDOF 8
ENDMDL
MODEL      242
REMARK 921   NORMALIZED FREE ENERGY PREDICTED BY IDOCK:   -4.66 KCAL/MOL
REMARK 922        TOTAL FREE ENERGY PREDICTED BY IDOCK:   -7.65 KCAL/MOL
REMARK 923 INTER-LIGAND FREE ENERGY PREDICTED BY IDOCK:   -8.31 KCAL/MOL
REMARK 924 INTRA-LIGAND FREE ENERGY PREDICTED BY IDOCK:    0.66 KCAL/MOL
REMARK 927      BINDING AFFINITY PREDICTED BY RF-SCORE:    0.00 PKD
ROOT
HETATM    1  C   UNL     1      -9.216   8.653  72.124  1.00  0.00    -0.255 C  
HETATM    2  S   UNL     1      -8.529   9.072  70.509  1.00  0.00    -0.219 SA 
HETATM    3  C   UNL     1      -9.787  10.317  70.148  1.00  0.00     0.067 C  
HETATM    4  C   UNL     1     -11.218   9.901  70.469  1.00  0.00    -0.399 C  
HETATM    5  O   UNL     1     -13.255   7.197  71.845  1.00  0.00    -0.309 OA 
HETATM    6  CA  UNL     1     -11.548   8.850  71.277  1.00  0.00    -0.304 C  
HETATM    7  N   UNL     1     -10.562   8.157  71.922  1.00  0.00    -0.242 N  
HETATM    8  O   UNL     1     -11.159   6.060  72.712  1.00  0.00    -0.248 OA 
HETATM    9  C   UNL     1     -12.999   8.460  71.467  1.00  0.00    -0.301 C  
HETATM   10  CA  UNL     1      -8.864   7.247  72.712  1.00  0.00    -0.127 C  
HETATM   11  OXT UNL     1     -13.921   9.243  71.301  1.00  0.00    -0.291 OA 
HETATM   12  C   UNL     1     -10.385   6.969  72.527  1.00  0.00    -0.205 C  
ENDROOT
BRANCH   4  13
HETATM   13  C   UNL     1     -12.219  10.720  69.655  1.00  0.00    -0.254 C  
BRANCH  13  14
HETATM   14  S   UNL     1     -11.381  11.698  68.356  1.00  0.00    -0.309 SA 
BRANCH  14  15
HETATM   15  C   UNL     1     -11.792  13.293  68.888  1.00  0.00    -0.327 A  
HETATM   16  N   UNL     1     -12.362  13.595  70.032  1.00  0.00    -0.309 NA 
HETATM   17  N   UNL     1     -11.562  14.452  68.195  1.00  0.00    -0.312 NA 
HETATM   18  N   UNL     1     -12.452  14.963  70.063  1.00  0.00    -0.304 NA 
HETATM   19  N   UNL     1     -11.937  15.497  68.967  1.00  0.00    -0.337 NA 
BRANCH  17  20
HETATM   20  C   UNL     1     -10.890  14.673  66.935  1.00  0.00    -0.305 C  
HETATM   21  O   UNL     1      -8.851  15.410  68.085  1.00  0.00    -0.166 OA 
HETATM   22  C   UNL     1      -9.626  15.501  66.984  1.00  0.00    -0.224 C  
HETATM   23  O   UNL     1      -9.260  16.166  66.021  1.00  0.00    -0.319 OA 
ENDBRANCH  17  20
ENDBRANCH  14  15
ENDBRANCH  13  14
ENDBRANCH   4  13
BRANCH  10  24
HETATM   24  N   UNL     1      -7.948   6.373  71.945  1.00  0.00    -0.104 N  
HETATM   25  C   UNL     1      -8.304   5.452  70.996  1.00  0.00    -0.119 C  
HETATM   26  O   UNL     1      -7.430   4.748  70.489  1.00  0.00    -0.055 OA 
HETATM   27  H   UNL     1      -6.951   6.467  72.142  1.00  0.00     0.000 HD 
BRANCH  25  28
HETATM   28  C   UNL     1      -9.771   5.322  70.617  1.00  0.00    -0.249 C  
BRANCH  28  29
HETATM   29  C   UNL     1     -10.048   5.432  69.133  1.00  0.00    -0.293 A  
HETATM   30  C   UNL     1      -9.840   4.361  68.236  1.00  0.00    -0.132 A  
HETATM   31  C   UNL     1     -10.138   4.561  66.873  1.00  0.00    -0.200 A  
HETATM   32  C   UNL     1     -10.568   6.648  68.639  1.00  0.00    -0.274 A  
HETATM   33  C   UNL     1     -10.655   5.769  66.405  1.00  0.00    -0.219 A  
HETATM   34  C   UNL     1     -10.865   6.817  67.289  1.00  0.00    -0.443 A  
BRANCH  30  35
HETATM   35  C   UNL     1      -9.249   3.034  68.673  1.00  0.00    -0.170 C  
HETATM   36  N   UNL     1      -7.820   2.924  68.381  1.00  0.00    -0.055 NA 
HETATM   37  H1  UNL     1      -7.422   2.032  68.675  1.00  0.00     0.000 HD 
HETATM   38  H2  UNL     1      -7.304   3.706  68.787  1.00  0.00     0.000 HD 
ENDBRANCH  30  35
ENDBRANCH  28  29
ENDBRANCH  25  28
ENDBRANCH  10  24
TORSDOF 8
ENDMDL
MODEL      243
REMARK 921   NORMALIZED FREE ENERGY PREDICTED BY IDOCK:   -4.65 KCAL/MOL
REMARK 922        TOTAL FREE ENERGY PREDICTED BY IDOCK:   -7.64 KCAL/MOL
REMARK 923 INTER-LIGAND FREE ENERGY PREDICTED BY IDOCK:   -8.51 KCAL/MOL
REMARK 924 INTRA-LIGAND FREE ENERGY PREDICTED BY IDOCK:    0.87 KCAL/MOL
REMARK 927      BINDING AFFINITY PREDICTED BY RF-SCORE:    0.00 PKD
ROOT
HETATM    1  C   UNL     1      -8.528   7.054  67.261  1.00  0.00    -0.121 C  
HETATM    2  S   UNL     1     -10.322   7.177  67.420  1.00  0.00    -0.287 SA 
HETATM    3  C   UNL     1     -10.350   8.972  67.219  1.00  0.00    -0.273 C  
HETATM    4  C   UNL     1      -9.293   9.728  68.015  1.00  0.00    -0.138 C  
HETATM    5  O   UNL     1      -6.467   9.305  70.293  1.00  0.00    -0.047 OA 
HETATM    6  CA  UNL     1      -8.184   9.148  68.562  1.00  0.00    -0.115 C  
HETATM    7  N   UNL     1      -7.930   7.824  68.332  1.00  0.00    -0.121 N  
HETATM    8  O   UNL     1      -6.438   6.818  69.794  1.00  0.00    -0.041 OA 
HETATM    9  C   UNL     1      -7.234   9.966  69.411  1.00  0.00    -0.083 C  
HETATM   10  CA  UNL     1      -7.836   5.794  67.877  1.00  0.00    -0.097 C  
HETATM   11  OXT UNL     1      -7.139  11.179  69.314  1.00  0.00    -0.109 OA 
HETATM   12  C   UNL     1      -7.197   6.824  68.855  1.00  0.00    -0.091 C  
ENDROOT
BRANCH   4  13
HETATM   13  C   UNL     1      -9.715  11.180  68.238  1.00  0.00    -0.188 C  
BRANCH  13  14
HETATM   14  S   UNL     1     -11.395  11.494  67.589  1.00  0.00    -0.283 SA 
BRANCH  14  15
HETATM   15  C   UNL     1     -11.625  13.112  68.159  1.00  0.00    -0.339 A  
HETATM   16  N   UNL     1     -11.860  13.459  69.404  1.00  0.00    -0.320 NA 
HETATM   17  N   UNL     1     -11.576  14.246  67.392  1.00  0.00    -0.350 NA 
HETATM   18  N   UNL     1     -11.920  14.829  69.413  1.00  0.00    -0.308 NA 
HETATM   19  N   UNL     1     -11.714  15.321  68.202  1.00  0.00    -0.330 NA 
BRANCH  17  20
HETATM   20  C   UNL     1     -11.268  14.417  65.991  1.00  0.00    -0.333 C  
HETATM   21  O   UNL     1     -13.650  14.365  65.402  1.00  0.00    -0.428 OA 
HETATM   22  C   UNL     1     -12.383  14.111  65.016  1.00  0.00    -0.440 C  
HETATM   23  O   UNL     1     -12.146  13.728  63.875  1.00  0.00    -0.487 OA 
ENDBRANCH  17  20
ENDBRANCH  14  15
ENDBRANCH  13  14
ENDBRANCH   4  13
BRANCH  10  24
HETATM   24  N   UNL     1      -8.690   4.756  68.498  1.00  0.00    -0.097 N  
HETATM   25  C   UNL     1      -9.210   4.778  69.765  1.00  0.00    -0.121 C  
HETATM   26  O   UNL     1      -9.850   3.806  70.166  1.00  0.00    -0.188 OA 
HETATM   27  H   UNL     1      -8.914   3.943  67.925  1.00  0.00     0.000 HD 
BRANCH  25  28
HETATM   28  C   UNL     1      -8.962   6.000  70.635  1.00  0.00    -0.150 C  
BRANCH  28  29
HETATM   29  C   UNL     1     -10.218   6.688  71.125  1.00  0.00    -0.216 A  
HETATM   30  C   UNL     1     -10.212   7.632  72.177  1.00  0.00    -0.256 A  
HETATM   31  C   UNL     1     -11.435   8.224  72.553  1.00  0.00    -0.454 A  
HETATM   32  C   UNL     1     -11.436   6.395  70.475  1.00  0.00    -0.444 A  
HETATM   33  C   UNL     1     -12.627   7.924  71.895  1.00  0.00    -0.348 A  
HETATM   34  C   UNL     1     -12.630   7.003  70.859  1.00  0.00    -0.273 A  
BRANCH  30  35
HETATM   35  C   UNL     1      -8.956   7.978  72.955  1.00  0.00    -0.239 C  
HETATM   36  N   UNL     1      -9.091   7.731  74.391  1.00  0.00    -0.396 NA 
HETATM   37  H1  UNL     1      -8.247   7.964  74.914  1.00  0.00     0.000 HD 
HETATM   38  H2  UNL     1      -9.378   6.768  74.570  1.00  0.00     0.000 HD 
ENDBRANCH  30  35
ENDBRANCH  28  29
ENDBRANCH  25  28
ENDBRANCH  10  24
TORSDOF 8
ENDMDL
MODEL      244
REMARK 921   NORMALIZED FREE ENERGY PREDICTED BY IDOCK:   -4.58 KCAL/MOL
REMARK 922        TOTAL FREE ENERGY PREDICTED BY IDOCK:   -7.55 KCAL/MOL
REMARK 923 INTER-LIGAND FREE ENERGY PREDICTED BY IDOCK:   -6.92 KCAL/MOL
REMARK 924 INTRA-LIGAND FREE ENERGY PREDICTED BY IDOCK:   -0.63 KCAL/MOL
REMARK 927      BINDING AFFINITY PREDICTED BY RF-SCORE:    0.00 PKD
ROOT
HETATM    1  C   UNL     1      -7.901   9.795  67.557  1.00  0.00    -0.095 C  
HETATM    2  S   UNL     1      -6.572  10.023  68.756  1.00  0.00    -0.049 SA 
HETATM    3  C   UNL     1      -6.054   8.293  68.711  1.00  0.00    -0.044 C  
HETATM    4  C   UNL     1      -7.189   7.278  68.766  1.00  0.00    -0.090 C  
HETATM    5  O   UNL     1     -10.825   6.936  68.894  1.00  0.00    -0.229 OA 
HETATM    6  CA  UNL     1      -8.498   7.576  68.514  1.00  0.00    -0.129 C  
HETATM    7  N   UNL     1      -8.838   8.836  68.105  1.00  0.00    -0.141 N  
HETATM    8  O   UNL     1     -11.075   9.399  68.338  1.00  0.00    -0.084 OA 
HETATM    9  C   UNL     1      -9.568   6.517  68.677  1.00  0.00    -0.125 C  
HETATM   10  CA  UNL     1      -9.069  10.835  67.572  1.00  0.00    -0.139 C  
HETATM   11  OXT UNL     1      -9.330   5.321  68.610  1.00  0.00    -0.113 OA 
HETATM   12  C   UNL     1      -9.927   9.622  68.035  1.00  0.00    -0.160 C  
ENDROOT
BRANCH   4  13
HETATM   13  C   UNL     1      -6.687   5.927  69.275  1.00  0.00    -0.060 C  
BRANCH  13  14
HETATM   14  S   UNL     1      -7.263   5.601  70.980  1.00  0.00    -0.078 SA 
BRANCH  14  15
HETATM   15  C   UNL     1      -6.698   7.042  71.754  1.00  0.00    -0.053 A  
HETATM   16  N   UNL     1      -5.450   7.301  72.072  1.00  0.00    -0.036 NA 
HETATM   17  N   UNL     1      -7.472   8.109  72.124  1.00  0.00    -0.096 NA 
HETATM   18  N   UNL     1      -5.447   8.561  72.611  1.00  0.00    -0.046 NA 
HETATM   19  N   UNL     1      -6.666   9.077  72.616  1.00  0.00    -0.313 NA 
BRANCH  17  20
HETATM   20  C   UNL     1      -8.882   8.359  71.923  1.00  0.00    -0.203 C  
HETATM   21  O   UNL     1      -9.397   7.608  74.203  1.00  0.00    -0.217 OA 
HETATM   22  C   UNL     1      -9.823   7.735  72.929  1.00  0.00    -0.264 C  
HETATM   23  O   UNL     1     -10.973   7.435  72.627  1.00  0.00    -0.266 OA 
ENDBRANCH  17  20
ENDBRANCH  14  15
ENDBRANCH  13  14
ENDBRANCH   4  13
BRANCH  10  24
HETATM   24  N   UNL     1      -8.988  11.970  68.520  1.00  0.00    -0.327 N  
HETATM   25  C   UNL     1      -8.905  13.298  68.197  1.00  0.00    -0.187 C  
HETATM   26  O   UNL     1      -8.776  14.126  69.099  1.00  0.00     0.040 OA 
HETATM   27  H   UNL     1      -8.995  11.740  69.514  1.00  0.00     0.000 HD 
BRANCH  25  28
HETATM   28  C   UNL     1      -8.960  13.699  66.731  1.00  0.00    -0.196 C  
BRANCH  28  29
HETATM   29  C   UNL     1     -10.295  13.451  66.062  1.00  0.00    -0.297 A  
HETATM   30  C   UNL     1     -11.475  14.133  66.436  1.00  0.00    -0.362 A  
HETATM   31  C   UNL     1     -12.667  13.838  65.744  1.00  0.00    -0.494 A  
HETATM   32  C   UNL     1     -10.348  12.524  64.999  1.00  0.00    -0.323 A  
HETATM   33  C   UNL     1     -12.697  12.922  64.693  1.00  0.00    -0.403 A  
HETATM   34  C   UNL     1     -11.537  12.258  64.324  1.00  0.00    -0.442 A  
BRANCH  30  35
HETATM   35  C   UNL     1     -11.518  15.116  67.590  1.00  0.00    -0.309 C  
HETATM   36  N   UNL     1     -12.390  14.676  68.680  1.00  0.00    -0.593 NA 
HETATM   37  H1  UNL     1     -12.419  15.337  69.457  1.00  0.00     0.000 HD 
HETATM   38  H2  UNL     1     -12.128  13.744  69.002  1.00  0.00     0.000 HD 
ENDBRANCH  30  35
ENDBRANCH  28  29
ENDBRANCH  25  28
ENDBRANCH  10  24
TORSDOF 8
ENDMDL
MODEL      245
REMARK 921   NORMALIZED FREE ENERGY PREDICTED BY IDOCK:   -4.54 KCAL/MOL
REMARK 922        TOTAL FREE ENERGY PREDICTED BY IDOCK:   -7.48 KCAL/MOL
REMARK 923 INTER-LIGAND FREE ENERGY PREDICTED BY IDOCK:   -7.22 KCAL/MOL
REMARK 924 INTRA-LIGAND FREE ENERGY PREDICTED BY IDOCK:   -0.26 KCAL/MOL
REMARK 927      BINDING AFFINITY PREDICTED BY RF-SCORE:    0.00 PKD
ROOT
HETATM    1  C   UNL     1      -9.012  10.667  65.343  1.00  0.00    -0.189 C  
HETATM    2  S   UNL     1     -10.646  10.968  64.639  1.00  0.00    -0.243 SA 
HETATM    3  C   UNL     1     -10.530  12.763  64.800  1.00  0.00    -0.335 C  
HETATM    4  C   UNL     1      -9.990  13.258  66.137  1.00  0.00    -0.295 C  
HETATM    5  O   UNL     1      -8.673  12.161  69.363  1.00  0.00     0.676 OA 
HETATM    6  CA  UNL     1      -9.310  12.475  67.027  1.00  0.00    -0.210 C  
HETATM    7  N   UNL     1      -9.006  11.185  66.696  1.00  0.00    -0.164 N  
HETATM    8  O   UNL     1      -8.457   9.796  68.470  1.00  0.00    -0.112 OA 
HETATM    9  C   UNL     1      -8.887  13.036  68.368  1.00  0.00    -0.123 C  
HETATM   10  CA  UNL     1      -8.745   9.254  65.960  1.00  0.00    -0.153 C  
HETATM   11  OXT UNL     1      -8.729  14.230  68.566  1.00  0.00    -0.176 OA 
HETATM   12  C   UNL     1      -8.651  10.037  67.302  1.00  0.00    -0.125 C  
ENDROOT
BRANCH   4  13
HETATM   13  C   UNL     1     -10.434  14.696  66.405  1.00  0.00    -0.295 C  
BRANCH  13  14
HETATM   14  S   UNL     1      -9.110  15.890  65.999  1.00  0.00    -0.277 SA 
BRANCH  14  15
HETATM   15  C   UNL     1      -9.860  17.349  66.552  1.00  0.00    -0.304 A  
HETATM   16  N   UNL     1     -10.301  18.320  65.786  1.00  0.00    -0.618 NA 
HETATM   17  N   UNL     1     -10.108  17.677  67.858  1.00  0.00    -0.327 NA 
HETATM   18  N   UNL     1     -10.863  19.244  66.628  1.00  0.00    -0.389 NA 
HETATM   19  N   UNL     1     -10.783  18.848  67.888  1.00  0.00    -0.344 NA 
BRANCH  17  20
HETATM   20  C   UNL     1      -9.895  16.920  69.071  1.00  0.00    -0.247 C  
HETATM   21  O   UNL     1     -12.145  15.950  68.929  1.00  0.00    -0.315 OA 
HETATM   22  C   UNL     1     -11.129  16.340  69.725  1.00  0.00    -0.337 C  
HETATM   23  O   UNL     1     -11.177  16.142  70.934  1.00  0.00    -0.361 OA 
ENDBRANCH  17  20
ENDBRANCH  14  15
ENDBRANCH  13  14
ENDBRANCH   4  13
BRANCH  10  24
HETATM   24  N   UNL     1      -9.817   8.236  65.878  1.00  0.00    -0.440 N  
HETATM   25  C   UNL     1      -9.809   6.994  66.455  1.00  0.00    -0.108 C  
HETATM   26  O   UNL     1     -10.749   6.229  66.241  1.00  0.00    -0.030 OA 
HETATM   27  H   UNL     1     -10.646   8.485  65.338  1.00  0.00     0.000 HD 
BRANCH  25  28
HETATM   28  C   UNL     1      -8.626   6.602  67.327  1.00  0.00    -0.119 C  
BRANCH  28  29
HETATM   29  C   UNL     1      -8.970   5.673  68.472  1.00  0.00    -0.115 A  
HETATM   30  C   UNL     1      -8.276   4.467  68.713  1.00  0.00    -0.083 A  
HETATM   31  C   UNL     1      -8.667   3.676  69.812  1.00  0.00    -0.126 A  
HETATM   32  C   UNL     1     -10.007   6.054  69.351  1.00  0.00    -0.220 A  
HETATM   33  C   UNL     1      -9.691   4.072  70.671  1.00  0.00    -0.266 A  
HETATM   34  C   UNL     1     -10.368   5.259  70.437  1.00  0.00    -0.345 A  
BRANCH  30  35
HETATM   35  C   UNL     1      -7.175   3.963  67.798  1.00  0.00    -0.063 C  
HETATM   36  N   UNL     1      -6.901   2.536  67.972  1.00  0.00    -0.043 NA 
HETATM   37  H1  UNL     1      -6.160   2.197  67.357  1.00  0.00     0.000 HD 
HETATM   38  H2  UNL     1      -7.752   1.985  67.858  1.00  0.00     0.000 HD 
ENDBRANCH  30  35
ENDBRANCH  28  29
ENDBRANCH  25  28
ENDBRANCH  10  24
TORSDOF 8
ENDMDL
MODEL      246
REMARK 921   NORMALIZED FREE ENERGY PREDICTED BY IDOCK:   -4.53 KCAL/MOL
REMARK 922        TOTAL FREE ENERGY PREDICTED BY IDOCK:   -7.48 KCAL/MOL
REMARK 923 INTER-LIGAND FREE ENERGY PREDICTED BY IDOCK:   -7.78 KCAL/MOL
REMARK 924 INTRA-LIGAND FREE ENERGY PREDICTED BY IDOCK:    0.30 KCAL/MOL
REMARK 927      BINDING AFFINITY PREDICTED BY RF-SCORE:    0.00 PKD
ROOT
HETATM    1  C   UNL     1     -10.872  16.884  66.231  1.00  0.00     0.026 C  
HETATM    2  S   UNL     1     -10.044  15.443  65.529  1.00  0.00    -0.367 SA 
HETATM    3  C   UNL     1     -11.284  14.274  66.127  1.00  0.00    -0.331 C  
HETATM    4  C   UNL     1     -11.724  14.480  67.572  1.00  0.00    -0.413 C  
HETATM    5  O   UNL     1     -11.273  16.611  70.506  1.00  0.00    -0.250 OA 
HETATM    6  CA  UNL     1     -11.508  15.627  68.282  1.00  0.00    -0.350 C  
HETATM    7  N   UNL     1     -10.939  16.707  67.667  1.00  0.00    -0.253 N  
HETATM    8  O   UNL     1     -10.044  18.313  69.080  1.00  0.00    -0.347 OA 
HETATM    9  C   UNL     1     -11.906  15.707  69.741  1.00  0.00    -0.363 C  
HETATM   10  CA  UNL     1      -9.999  18.154  66.502  1.00  0.00    -0.374 C  
HETATM   11  OXT UNL     1     -12.771  14.998  70.231  1.00  0.00    -0.329 OA 
HETATM   12  C   UNL     1     -10.307  17.848  67.997  1.00  0.00    -0.387 C  
ENDROOT
BRANCH   4  13
HETATM   13  C   UNL     1     -12.303  13.192  68.154  1.00  0.00     0.169 C  
BRANCH  13  14
HETATM   14  S   UNL     1     -11.144  11.792  67.960  1.00  0.00    -0.264 SA 
BRANCH  14  15
HETATM   15  C   UNL     1     -11.483  10.933  69.424  1.00  0.00    -0.302 A  
HETATM   16  N   UNL     1     -12.297  11.332  70.374  1.00  0.00    -0.331 NA 
HETATM   17  N   UNL     1     -10.963   9.716  69.778  1.00  0.00    -0.240 NA 
HETATM   18  N   UNL     1     -12.309  10.331  71.312  1.00  0.00    -0.371 NA 
HETATM   19  N   UNL     1     -11.528   9.328  70.944  1.00  0.00    -0.284 NA 
BRANCH  17  20
HETATM   20  C   UNL     1     -10.092   8.822  69.050  1.00  0.00    -0.198 C  
HETATM   21  O   UNL     1      -8.103   9.830  70.076  1.00  0.00    -0.161 OA 
HETATM   22  C   UNL     1      -8.628   9.198  69.006  1.00  0.00    -0.133 C  
HETATM   23  O   UNL     1      -7.910   8.863  68.070  1.00  0.00    -0.100 OA 
ENDBRANCH  17  20
ENDBRANCH  14  15
ENDBRANCH  13  14
ENDBRANCH   4  13
BRANCH  10  24
HETATM   24  N   UNL     1      -8.569  18.120  66.116  1.00  0.00    -0.162 N  
HETATM   25  C   UNL     1      -7.546  17.553  66.827  1.00  0.00    -0.226 C  
HETATM   26  O   UNL     1      -6.394  17.664  66.408  1.00  0.00    -0.184 OA 
HETATM   27  H   UNL     1      -8.322  18.563  65.231  1.00  0.00     0.000 HD 
BRANCH  25  28
HETATM   28  C   UNL     1      -7.872  16.820  68.119  1.00  0.00    -0.182 C  
BRANCH  28  29
HETATM   29  C   UNL     1      -7.216  15.463  68.254  1.00  0.00    -0.118 A  
HETATM   30  C   UNL     1      -6.132  15.222  69.128  1.00  0.00    -0.102 A  
HETATM   31  C   UNL     1      -5.597  13.919  69.188  1.00  0.00    -0.078 A  
HETATM   32  C   UNL     1      -7.738  14.391  67.498  1.00  0.00    -0.210 A  
HETATM   33  C   UNL     1      -6.130  12.873  68.436  1.00  0.00    -0.074 A  
HETATM   34  C   UNL     1      -7.197  13.110  67.584  1.00  0.00    -0.160 A  
BRANCH  30  35
HETATM   35  C   UNL     1      -5.486  16.322  69.948  1.00  0.00    -0.162 C  
HETATM   36  N   UNL     1      -5.127  15.888  71.299  1.00  0.00    -0.166 NA 
HETATM   37  H1  UNL     1      -4.692  16.628  71.851  1.00  0.00     0.000 HD 
HETATM   38  H2  UNL     1      -4.535  15.057  71.270  1.00  0.00     0.000 HD 
ENDBRANCH  30  35
ENDBRANCH  28  29
ENDBRANCH  25  28
ENDBRANCH  10  24
TORSDOF 8
ENDMDL
MODEL      247
REMARK 921   NORMALIZED FREE ENERGY PREDICTED BY IDOCK:   -4.48 KCAL/MOL
REMARK 922        TOTAL FREE ENERGY PREDICTED BY IDOCK:   -7.39 KCAL/MOL
REMARK 923 INTER-LIGAND FREE ENERGY PREDICTED BY IDOCK:   -7.37 KCAL/MOL
REMARK 924 INTRA-LIGAND FREE ENERGY PREDICTED BY IDOCK:   -0.03 KCAL/MOL
REMARK 927      BINDING AFFINITY PREDICTED BY RF-SCORE:    0.00 PKD
ROOT
HETATM    1  C   UNL     1     -10.728  13.721  68.323  1.00  0.00    -0.253 C  
HETATM    2  S   UNL     1      -9.731  12.217  68.306  1.00  0.00    -0.202 SA 
HETATM    3  C   UNL     1     -11.105  11.142  68.773  1.00  0.00    -0.236 C  
HETATM    4  C   UNL     1     -11.978  11.665  69.907  1.00  0.00    -0.414 C  
HETATM    5  O   UNL     1     -12.465  14.480  72.185  1.00  0.00    -0.326 OA 
HETATM    6  CA  UNL     1     -11.991  12.964  70.329  1.00  0.00    -0.283 C  
HETATM    7  N   UNL     1     -11.248  13.898  69.663  1.00  0.00    -0.190 N  
HETATM    8  O   UNL     1     -10.836  15.866  70.820  1.00  0.00    -0.286 OA 
HETATM    9  C   UNL     1     -12.830  13.370  71.523  1.00  0.00    -0.337 C  
HETATM   10  CA  UNL     1      -9.977  15.080  68.512  1.00  0.00    -0.219 C  
HETATM   11  OXT UNL     1     -13.810  12.741  71.887  1.00  0.00    -0.223 OA 
HETATM   12  C   UNL     1     -10.745  15.130  69.865  1.00  0.00    -0.257 C  
ENDROOT
BRANCH   4  13
HETATM   13  C   UNL     1     -12.721  10.520  70.594  1.00  0.00    -0.355 C  
BRANCH  13  14
HETATM   14  S   UNL     1     -11.617   9.582  71.710  1.00  0.00    -0.196 SA 
BRANCH  14  15
HETATM   15  C   UNL     1     -12.658   8.253  72.094  1.00  0.00    -0.337 A  
HETATM   16  N   UNL     1     -13.950   8.333  72.317  1.00  0.00    -0.290 NA 
HETATM   17  N   UNL     1     -12.277   6.942  72.199  1.00  0.00    -0.259 NA 
HETATM   18  N   UNL     1     -14.380   7.048  72.527  1.00  0.00     0.212 NA 
HETATM   19  N   UNL     1     -13.378   6.189  72.423  1.00  0.00     0.363 NA 
BRANCH  17  20
HETATM   20  C   UNL     1     -10.995   6.317  71.965  1.00  0.00    -0.256 C  
HETATM   21  O   UNL     1     -11.430   6.195  69.553  1.00  0.00    -0.429 OA 
HETATM   22  C   UNL     1     -10.808   5.653  70.620  1.00  0.00    -0.234 C  
HETATM   23  O   UNL     1     -10.043   4.705  70.477  1.00  0.00    -0.225 OA 
ENDBRANCH  17  20
ENDBRANCH  14  15
ENDBRANCH  13  14
ENDBRANCH   4  13
BRANCH  10  24
HETATM   24  N   UNL     1      -8.499  15.059  68.608  1.00  0.00    -0.160 N  
HETATM   25  C   UNL     1      -7.697  16.071  69.064  1.00  0.00    -0.216 C  
HETATM   26  O   UNL     1      -6.475  15.931  69.020  1.00  0.00    -0.124 OA 
HETATM   27  H   UNL     1      -8.031  14.205  68.303  1.00  0.00     0.000 HD 
BRANCH  25  28
HETATM   28  C   UNL     1      -8.350  17.339  69.593  1.00  0.00     0.896 C  
BRANCH  28  29
HETATM   29  C   UNL     1      -8.788  18.314  68.521  1.00  0.00    -0.322 A  
HETATM   30  C   UNL     1      -8.280  19.629  68.431  1.00  0.00    -0.350 A  
HETATM   31  C   UNL     1      -8.745  20.457  67.390  1.00  0.00    -0.415 A  
HETATM   32  C   UNL     1      -9.717  17.871  67.555  1.00  0.00    -0.278 A  
HETATM   33  C   UNL     1      -9.660  19.999  66.442  1.00  0.00    -0.536 A  
HETATM   34  C   UNL     1     -10.152  18.706  66.529  1.00  0.00    -0.426 A  
BRANCH  30  35
HETATM   35  C   UNL     1      -7.308  20.199  69.448  1.00  0.00     0.077 C  
HETATM   36  N   UNL     1      -5.915  20.124  69.006  1.00  0.00    -0.282 NA 
HETATM   37  H1  UNL     1      -5.261  20.508  69.690  1.00  0.00     0.000 HD 
HETATM   38  H2  UNL     1      -5.796  20.571  68.096  1.00  0.00     0.000 HD 
ENDBRANCH  30  35
ENDBRANCH  28  29
ENDBRANCH  25  28
ENDBRANCH  10  24
TORSDOF 8
ENDMDL
MODEL      248
REMARK 921   NORMALIZED FREE ENERGY PREDICTED BY IDOCK:   -4.46 KCAL/MOL
REMARK 922        TOTAL FREE ENERGY PREDICTED BY IDOCK:   -7.37 KCAL/MOL
REMARK 923 INTER-LIGAND FREE ENERGY PREDICTED BY IDOCK:   -8.35 KCAL/MOL
REMARK 924 INTRA-LIGAND FREE ENERGY PREDICTED BY IDOCK:    0.97 KCAL/MOL
REMARK 927      BINDING AFFINITY PREDICTED BY RF-SCORE:    0.00 PKD
ROOT
HETATM    1  C   UNL     1     -10.459  15.195  68.524  1.00  0.00    -0.233 C  
HETATM    2  S   UNL     1     -11.862  14.318  67.803  1.00  0.00    -0.359 SA 
HETATM    3  C   UNL     1     -11.515  12.774  68.675  1.00  0.00    -0.303 C  
HETATM    4  C   UNL     1     -10.052  12.346  68.674  1.00  0.00    -0.143 C  
HETATM    5  O   UNL     1      -6.706  13.318  67.575  1.00  0.00    -0.160 OA 
HETATM    6  CA  UNL     1      -9.010  13.177  68.372  1.00  0.00    -0.128 C  
HETATM    7  N   UNL     1      -9.249  14.501  68.132  1.00  0.00    -0.189 N  
HETATM    8  O   UNL     1      -7.563  15.641  67.021  1.00  0.00    -0.212 OA 
HETATM    9  C   UNL     1      -7.597  12.637  68.313  1.00  0.00    -0.133 C  
HETATM   10  CA  UNL     1      -9.912  16.437  67.746  1.00  0.00    -0.248 C  
HETATM   11  OXT UNL     1      -7.247  11.631  68.910  1.00  0.00    -0.107 OA 
HETATM   12  C   UNL     1      -8.645  15.554  67.552  1.00  0.00    -0.170 C  
ENDROOT
BRANCH   4  13
HETATM   13  C   UNL     1      -9.925  10.842  68.911  1.00  0.00    -0.202 C  
BRANCH  13  14
HETATM   14  S   UNL     1     -11.275   9.920  68.092  1.00  0.00     0.044 SA 
BRANCH  14  15
HETATM   15  C   UNL     1     -10.489   8.394  67.873  1.00  0.00    -0.193 A  
HETATM   16  N   UNL     1     -10.283   7.798  66.720  1.00  0.00    -0.286 NA 
HETATM   17  N   UNL     1      -9.963   7.613  68.868  1.00  0.00    -0.172 NA 
HETATM   18  N   UNL     1      -9.587   6.651  67.004  1.00  0.00    -0.144 NA 
HETATM   19  N   UNL     1      -9.356   6.545  68.303  1.00  0.00    -0.119 NA 
BRANCH  17  20
HETATM   20  C   UNL     1      -9.855   7.853  70.289  1.00  0.00    -0.184 C  
HETATM   21  O   UNL     1     -12.052   6.835  70.687  1.00  0.00    -0.392 OA 
HETATM   22  C   UNL     1     -11.133   7.736  71.088  1.00  0.00    -0.248 C  
HETATM   23  O   UNL     1     -11.298   8.372  72.124  1.00  0.00    -0.316 OA 
ENDBRANCH  17  20
ENDBRANCH  14  15
ENDBRANCH  13  14
ENDBRANCH   4  13
BRANCH  10  24
HETATM   24  N   UNL     1     -10.607  16.853  66.506  1.00  0.00    -0.240 N  
HETATM   25  C   UNL     1     -10.619  16.181  65.313  1.00  0.00    -0.369 C  
HETATM   26  O   UNL     1     -11.189  16.688  64.347  1.00  0.00    -1.033 OA 
HETATM   27  H   UNL     1     -11.130  17.728  66.545  1.00  0.00     0.000 HD 
BRANCH  25  28
HETATM   28  C   UNL     1      -9.911  14.838  65.224  1.00  0.00    -0.331 C  
BRANCH  28  29
HETATM   29  C   UNL     1     -10.763  13.715  64.673  1.00  0.00    -0.433 A  
HETATM   30  C   UNL     1     -10.344  12.365  64.676  1.00  0.00    -0.332 A  
HETATM   31  C   UNL     1     -11.215  11.392  64.148  1.00  0.00    -0.327 A  
HETATM   32  C   UNL     1     -12.042  14.033  64.168  1.00  0.00    -0.456 A  
HETATM   33  C   UNL     1     -12.477  11.726  63.658  1.00  0.00    -0.482 A  
HETATM   34  C   UNL     1     -12.889  13.050  63.661  1.00  0.00     0.056 A  
BRANCH  30  35
HETATM   35  C   UNL     1      -8.972  11.939  65.165  1.00  0.00     0.375 C  
HETATM   36  N   UNL     1      -8.895  10.509  65.466  1.00  0.00    -0.177 NA 
HETATM   37  H1  UNL     1      -7.973  10.222  65.794  1.00  0.00     0.000 HD 
HETATM   38  H2  UNL     1      -9.187   9.951  64.663  1.00  0.00     0.000 HD 
ENDBRANCH  30  35
ENDBRANCH  28  29
ENDBRANCH  25  28
ENDBRANCH  10  24
TORSDOF 8
ENDMDL
MODEL      249
REMARK 921   NORMALIZED FREE ENERGY PREDICTED BY IDOCK:   -4.41 KCAL/MOL
REMARK 922        TOTAL FREE ENERGY PREDICTED BY IDOCK:   -7.30 KCAL/MOL
REMARK 923 INTER-LIGAND FREE ENERGY PREDICTED BY IDOCK:   -8.71 KCAL/MOL
REMARK 924 INTRA-LIGAND FREE ENERGY PREDICTED BY IDOCK:    1.41 KCAL/MOL
REMARK 927      BINDING AFFINITY PREDICTED BY RF-SCORE:    0.00 PKD
ROOT
HETATM    1  C   UNL     1      -9.397  15.499  69.565  1.00  0.00    -0.276 C  
HETATM    2  S   UNL     1      -8.270  14.178  69.071  1.00  0.00     0.157 SA 
HETATM    3  C   UNL     1      -7.054  15.304  68.352  1.00  0.00    -0.111 C  
HETATM    4  C   UNL     1      -7.634  16.407  67.474  1.00  0.00    -0.168 C  
HETATM    5  O   UNL     1     -10.756  17.819  66.206  1.00  0.00    -0.253 OA 
HETATM    6  CA  UNL     1      -8.948  16.778  67.477  1.00  0.00    -0.205 C  
HETATM    7  N   UNL     1      -9.811  16.204  68.369  1.00  0.00    -0.218 N  
HETATM    8  O   UNL     1     -12.065  16.413  67.864  1.00  0.00     0.434 OA 
HETATM    9  C   UNL     1      -9.447  17.827  66.506  1.00  0.00    -0.290 C  
HETATM   10  CA  UNL     1     -10.900  15.120  69.775  1.00  0.00    -0.284 C  
HETATM   11  OXT UNL     1      -8.716  18.667  66.006  1.00  0.00    -0.491 OA 
HETATM   12  C   UNL     1     -11.135  16.036  68.538  1.00  0.00    -0.347 C  
ENDROOT
BRANCH   4  13
HETATM   13  C   UNL     1      -6.583  16.934  66.497  1.00  0.00    -0.178 C  
BRANCH  13  14
HETATM   14  S   UNL     1      -5.198  17.739  67.377  1.00  0.00    -0.135 SA 
BRANCH  14  15
HETATM   15  C   UNL     1      -5.694  19.391  67.243  1.00  0.00    -0.175 A  
HETATM   16  N   UNL     1      -5.505  20.165  66.198  1.00  0.00    -0.167 NA 
HETATM   17  N   UNL     1      -6.363  20.107  68.200  1.00  0.00    -0.260 NA 
HETATM   18  N   UNL     1      -6.098  21.363  66.498  1.00  0.00    -0.354 NA 
HETATM   19  N   UNL     1      -6.654  21.330  67.699  1.00  0.00    -0.473 NA 
BRANCH  17  20
HETATM   20  C   UNL     1      -6.879  19.698  69.486  1.00  0.00    -0.315 C  
HETATM   21  O   UNL     1      -5.407  21.285  70.645  1.00  0.00    -0.555 OA 
HETATM   22  C   UNL     1      -6.070  20.111  70.696  1.00  0.00    -0.326 C  
HETATM   23  O   UNL     1      -6.084  19.451  71.729  1.00  0.00     0.013 OA 
ENDBRANCH  17  20
ENDBRANCH  14  15
ENDBRANCH  13  14
ENDBRANCH   4  13
BRANCH  10  24
HETATM   24  N   UNL     1     -11.297  13.702  69.615  1.00  0.00    -0.429 N  
HETATM   25  C   UNL     1     -11.216  12.957  68.470  1.00  0.00    -0.274 C  
HETATM   26  O   UNL     1     -11.650  11.805  68.475  1.00  0.00    -0.271 OA 
HETATM   27  H   UNL     1     -11.668  13.234  70.442  1.00  0.00     0.000 HD 
BRANCH  25  28
HETATM   28  C   UNL     1     -10.606  13.589  67.228  1.00  0.00    -0.263 C  
BRANCH  28  29
HETATM   29  C   UNL     1     -10.948  12.884  65.933  1.00  0.00    -0.300 A  
HETATM   30  C   UNL     1     -11.395  13.574  64.783  1.00  0.00    -0.362 A  
HETATM   31  C   UNL     1     -11.679  12.827  63.622  1.00  0.00    -0.587 A  
HETATM   32  C   UNL     1     -10.777  11.485  65.868  1.00  0.00    -0.325 A  
HETATM   33  C   UNL     1     -11.499  11.445  63.577  1.00  0.00    -0.190 A  
HETATM   34  C   UNL     1     -11.054  10.771  64.704  1.00  0.00     0.313 A  
BRANCH  30  35
HETATM   35  C   UNL     1     -11.643  15.071  64.775  1.00  0.00    -0.395 C  
HETATM   36  N   UNL     1     -12.547  15.491  63.704  1.00  0.00    -0.656 NA 
HETATM   37  H1  UNL     1     -12.714  16.498  63.698  1.00  0.00     0.000 HD 
HETATM   38  H2  UNL     1     -13.427  14.975  63.746  1.00  0.00     0.000 HD 
ENDBRANCH  30  35
ENDBRANCH  28  29
ENDBRANCH  25  28
ENDBRANCH  10  24
TORSDOF 8
ENDMDL
MODEL      250
REMARK 921   NORMALIZED FREE ENERGY PREDICTED BY IDOCK:   -4.41 KCAL/MOL
REMARK 922        TOTAL FREE ENERGY PREDICTED BY IDOCK:   -7.29 KCAL/MOL
REMARK 923 INTER-LIGAND FREE ENERGY PREDICTED BY IDOCK:   -6.47 KCAL/MOL
REMARK 924 INTRA-LIGAND FREE ENERGY PREDICTED BY IDOCK:   -0.82 KCAL/MOL
REMARK 927      BINDING AFFINITY PREDICTED BY RF-SCORE:    0.00 PKD
ROOT
HETATM    1  C   UNL     1      -9.075  13.990  67.013  1.00  0.00    -0.246 C  
HETATM    2  S   UNL     1      -9.769  14.755  65.534  1.00  0.00    -0.127 SA 
HETATM    3  C   UNL     1      -9.839  16.408  66.260  1.00  0.00    -0.314 C  
HETATM    4  C   UNL     1     -10.388  16.466  67.680  1.00  0.00    -0.284 C  
HETATM    5  O   UNL     1     -11.652  14.419  70.431  1.00  0.00    -0.270 OA 
HETATM    6  CA  UNL     1     -10.498  15.383  68.506  1.00  0.00    -0.234 C  
HETATM    7  N   UNL     1     -10.020  14.170  68.096  1.00  0.00    -0.226 N  
HETATM    8  O   UNL     1     -10.824  12.329  69.255  1.00  0.00    -0.154 OA 
HETATM    9  C   UNL     1     -11.136  15.526  69.871  1.00  0.00    -0.310 C  
HETATM   10  CA  UNL     1      -9.278  12.449  67.188  1.00  0.00    -0.199 C  
HETATM   11  OXT UNL     1     -11.187  16.588  70.470  1.00  0.00    -0.330 OA 
HETATM   12  C   UNL     1     -10.159  12.867  68.402  1.00  0.00    -0.227 C  
ENDROOT
BRANCH   4  13
HETATM   13  C   UNL     1     -10.926  17.861  67.999  1.00  0.00    -0.043 C  
BRANCH  13  14
HETATM   14  S   UNL     1     -10.020  19.153  67.076  1.00  0.00    -0.374 SA 
BRANCH  14  15
HETATM   15  C   UNL     1      -8.536  19.154  67.966  1.00  0.00    -0.310 A  
HETATM   16  N   UNL     1      -8.427  19.241  69.272  1.00  0.00    -0.122 NA 
HETATM   17  N   UNL     1      -7.280  19.048  67.430  1.00  0.00    -0.213 NA 
HETATM   18  N   UNL     1      -7.087  19.150  69.550  1.00  0.00    -0.204 NA 
HETATM   19  N   UNL     1      -6.382  18.997  68.440  1.00  0.00    -0.224 NA 
BRANCH  17  20
HETATM   20  C   UNL     1      -6.859  18.845  66.062  1.00  0.00    -0.252 C  
HETATM   21  O   UNL     1      -6.097  21.172  65.892  1.00  0.00    -0.261 OA 
HETATM   22  C   UNL     1      -6.591  20.093  65.251  1.00  0.00    -0.295 C  
HETATM   23  O   UNL     1      -6.728  20.104  64.032  1.00  0.00    -0.172 OA 
ENDBRANCH  17  20
ENDBRANCH  14  15
ENDBRANCH  13  14
ENDBRANCH   4  13
BRANCH  10  24
HETATM   24  N   UNL     1      -9.970  11.704  66.112  1.00  0.00    -0.214 N  
HETATM   25  C   UNL     1      -9.931  10.351  65.901  1.00  0.00    -0.255 C  
HETATM   26  O   UNL     1     -10.508   9.883  64.919  1.00  0.00     0.099 OA 
HETATM   27  H   UNL     1     -10.533  12.253  65.462  1.00  0.00     0.000 HD 
BRANCH  25  28
HETATM   28  C   UNL     1      -9.162   9.481  66.882  1.00  0.00    -0.174 C  
BRANCH  28  29
HETATM   29  C   UNL     1      -7.743   9.164  66.460  1.00  0.00    -0.096 A  
HETATM   30  C   UNL     1      -6.615   9.567  67.210  1.00  0.00    -0.071 A  
HETATM   31  C   UNL     1      -5.335   9.213  66.737  1.00  0.00    -0.039 A  
HETATM   32  C   UNL     1      -7.549   8.403  65.287  1.00  0.00    -0.090 A  
HETATM   33  C   UNL     1      -5.165   8.458  65.578  1.00  0.00    -0.031 A  
HETATM   34  C   UNL     1      -6.273   8.058  64.847  1.00  0.00    -0.048 A  
BRANCH  30  35
HETATM   35  C   UNL     1      -6.729  10.418  68.461  1.00  0.00    -0.056 C  
HETATM   36  N   UNL     1      -7.747   9.927  69.391  1.00  0.00    -0.105 NA 
HETATM   37  H1  UNL     1      -7.824  10.499  70.233  1.00  0.00     0.000 HD 
HETATM   38  H2  UNL     1      -7.582   8.948  69.628  1.00  0.00     0.000 HD 
ENDBRANCH  30  35
ENDBRANCH  28  29
ENDBRANCH  25  28
ENDBRANCH  10  24
TORSDOF 8
ENDMDL
MODEL      251
REMARK 921   NORMALIZED FREE ENERGY PREDICTED BY IDOCK:   -4.38 KCAL/MOL
REMARK 922        TOTAL FREE ENERGY PREDICTED BY IDOCK:   -7.25 KCAL/MOL
REMARK 923 INTER-LIGAND FREE ENERGY PREDICTED BY IDOCK:   -8.14 KCAL/MOL
REMARK 924 INTRA-LIGAND FREE ENERGY PREDICTED BY IDOCK:    0.88 KCAL/MOL
REMARK 927      BINDING AFFINITY PREDICTED BY RF-SCORE:    0.00 PKD
ROOT
HETATM    1  C   UNL     1     -11.881   8.206  70.793  1.00  0.00    -0.159 C  
HETATM    2  S   UNL     1     -10.861   9.695  70.786  1.00  0.00    -0.345 SA 
HETATM    3  C   UNL     1     -10.859   9.845  68.985  1.00  0.00    -0.215 C  
HETATM    4  C   UNL     1     -10.611   8.545  68.229  1.00  0.00    -0.173 C  
HETATM    5  O   UNL     1     -10.041   4.961  68.651  1.00  0.00    -0.153 OA 
HETATM    6  CA  UNL     1     -10.727   7.301  68.782  1.00  0.00    -0.139 C  
HETATM    7  N   UNL     1     -11.170   7.173  70.069  1.00  0.00    -0.261 N  
HETATM    8  O   UNL     1     -10.713   5.141  71.091  1.00  0.00    -0.181 OA 
HETATM    9  C   UNL     1     -10.375   6.070  67.973  1.00  0.00    -0.202 C  
HETATM   10  CA  UNL     1     -11.795   7.282  72.052  1.00  0.00    -0.296 C  
HETATM   11  OXT UNL     1     -10.396   6.053  66.753  1.00  0.00    -0.200 OA 
HETATM   12  C   UNL     1     -11.162   6.263  71.060  1.00  0.00    -0.312 C  
ENDROOT
BRANCH   4  13
HETATM   13  C   UNL     1     -10.081   8.826  66.823  1.00  0.00    -0.288 C  
BRANCH  13  14
HETATM   14  S   UNL     1      -9.180  10.415  66.755  1.00  0.00    -0.156 SA 
BRANCH  14  15
HETATM   15  C   UNL     1      -9.467  10.837  65.102  1.00  0.00    -0.226 A  
HETATM   16  N   UNL     1      -9.045  10.164  64.055  1.00  0.00    -0.232 NA 
HETATM   17  N   UNL     1     -10.185  11.918  64.664  1.00  0.00    -0.269 NA 
HETATM   18  N   UNL     1      -9.541  10.817  62.956  1.00  0.00    -0.326 NA 
HETATM   19  N   UNL     1     -10.265  11.866  63.315  1.00  0.00    -0.431 NA 
BRANCH  17  20
HETATM   20  C   UNL     1     -10.924  12.915  65.405  1.00  0.00    -0.278 C  
HETATM   21  O   UNL     1     -13.045  12.145  64.439  1.00  0.00    -0.740 OA 
HETATM   22  C   UNL     1     -12.341  13.177  64.949  1.00  0.00    -0.441 C  
HETATM   23  O   UNL     1     -12.874  14.269  65.117  1.00  0.00    -0.659 OA 
ENDBRANCH  17  20
ENDBRANCH  14  15
ENDBRANCH  13  14
ENDBRANCH   4  13
BRANCH  10  24
HETATM   24  N   UNL     1     -10.934   7.708  73.180  1.00  0.00    -0.452 N  
HETATM   25  C   UNL     1      -9.574   7.568  73.266  1.00  0.00    -0.254 C  
HETATM   26  O   UNL     1      -9.003   7.911  74.301  1.00  0.00    -0.195 OA 
HETATM   27  H   UNL     1     -11.400   8.151  73.972  1.00  0.00     0.000 HD 
BRANCH  25  28
HETATM   28  C   UNL     1      -8.824   6.977  72.083  1.00  0.00    -0.138 C  
BRANCH  28  29
HETATM   29  C   UNL     1      -7.568   6.217  72.452  1.00  0.00    -0.099 A  
HETATM   30  C   UNL     1      -6.314   6.847  72.615  1.00  0.00    -0.053 A  
HETATM   31  C   UNL     1      -5.206   6.052  72.970  1.00  0.00    -0.027 A  
HETATM   32  C   UNL     1      -7.670   4.827  72.674  1.00  0.00    -0.092 A  
HETATM   33  C   UNL     1      -5.328   4.680  73.189  1.00  0.00    -0.008 A  
HETATM   34  C   UNL     1      -6.560   4.065  73.034  1.00  0.00    -0.041 A  
BRANCH  30  35
HETATM   35  C   UNL     1      -6.107   8.328  72.360  1.00  0.00    -0.061 C  
HETATM   36  N   UNL     1      -5.552   8.604  71.034  1.00  0.00    -0.032 NA 
HETATM   37  H1  UNL     1      -5.412   9.600  70.862  1.00  0.00     0.000 HD 
HETATM   38  H2  UNL     1      -6.128   8.184  70.304  1.00  0.00     0.000 HD 
ENDBRANCH  30  35
ENDBRANCH  28  29
ENDBRANCH  25  28
ENDBRANCH  10  24
TORSDOF 8
ENDMDL
MODEL      252
REMARK 921   NORMALIZED FREE ENERGY PREDICTED BY IDOCK:   -4.38 KCAL/MOL
REMARK 922        TOTAL FREE ENERGY PREDICTED BY IDOCK:   -7.24 KCAL/MOL
REMARK 923 INTER-LIGAND FREE ENERGY PREDICTED BY IDOCK:   -6.48 KCAL/MOL
REMARK 924 INTRA-LIGAND FREE ENERGY PREDICTED BY IDOCK:   -0.76 KCAL/MOL
REMARK 927      BINDING AFFINITY PREDICTED BY RF-SCORE:    0.00 PKD
ROOT
HETATM    1  C   UNL     1      -8.385  11.464  68.034  1.00  0.00    -0.143 C  
HETATM    2  S   UNL     1      -6.980  11.499  69.167  1.00  0.00    -0.097 SA 
HETATM    3  C   UNL     1      -6.843   9.700  69.262  1.00  0.00    -0.050 C  
HETATM    4  C   UNL     1      -8.163   8.960  69.442  1.00  0.00    -0.107 C  
HETATM    5  O   UNL     1     -11.778   9.420  69.711  1.00  0.00     0.025 OA 
HETATM    6  CA  UNL     1      -9.391   9.512  69.205  1.00  0.00    -0.163 C  
HETATM    7  N   UNL     1      -9.475  10.777  68.694  1.00  0.00    -0.180 N  
HETATM    8  O   UNL     1     -11.529  11.826  68.944  1.00  0.00    -0.244 OA 
HETATM    9  C   UNL     1     -10.651   8.724  69.495  1.00  0.00    -0.219 C  
HETATM   10  CA  UNL     1      -9.304  12.729  67.991  1.00  0.00    -0.213 C  
HETATM   11  OXT UNL     1     -10.675   7.504  69.528  1.00  0.00    -0.237 OA 
HETATM   12  C   UNL     1     -10.376  11.771  68.587  1.00  0.00    -0.214 C  
ENDROOT
BRANCH   4  13
HETATM   13  C   UNL     1      -7.935   7.579  70.055  1.00  0.00    -0.112 C  
BRANCH  13  14
HETATM   14  S   UNL     1      -6.952   6.510  68.945  1.00  0.00    -0.082 SA 
BRANCH  14  15
HETATM   15  C   UNL     1      -8.222   5.888  67.947  1.00  0.00    -0.108 A  
HETATM   16  N   UNL     1      -9.242   5.172  68.364  1.00  0.00    -0.112 NA 
HETATM   17  N   UNL     1      -8.343   6.073  66.596  1.00  0.00    -0.110 NA 
HETATM   18  N   UNL     1     -10.023   4.943  67.261  1.00  0.00    -0.186 NA 
HETATM   19  N   UNL     1      -9.505   5.515  66.186  1.00  0.00    -0.158 NA 
BRANCH  17  20
HETATM   20  C   UNL     1      -7.538   6.850  65.680  1.00  0.00    -0.089 C  
HETATM   21  O   UNL     1      -8.959   8.823  66.015  1.00  0.00    -0.167 OA 
HETATM   22  C   UNL     1      -8.146   8.141  65.182  1.00  0.00    -0.139 C  
HETATM   23  O   UNL     1      -7.844   8.609  64.089  1.00  0.00    -0.126 OA 
ENDBRANCH  17  20
ENDBRANCH  14  15
ENDBRANCH  13  14
ENDBRANCH   4  13
BRANCH  10  24
HETATM   24  N   UNL     1      -8.938  13.894  68.830  1.00  0.00    -0.385 N  
HETATM   25  C   UNL     1      -8.347  15.053  68.403  1.00  0.00    -0.154 C  
HETATM   26  O   UNL     1      -8.041  15.908  69.234  1.00  0.00    -0.224 OA 
HETATM   27  H   UNL     1      -9.149  13.826  69.826  1.00  0.00     0.000 HD 
BRANCH  25  28
HETATM   28  C   UNL     1      -8.075  15.231  66.918  1.00  0.00    -0.224 C  
BRANCH  28  29
HETATM   29  C   UNL     1      -9.317  15.386  66.067  1.00  0.00    -0.364 A  
HETATM   30  C   UNL     1     -10.007  16.612  65.939  1.00  0.00    -0.320 A  
HETATM   31  C   UNL     1     -11.149  16.656  65.113  1.00  0.00    -0.086 A  
HETATM   32  C   UNL     1      -9.778  14.263  65.347  1.00  0.00    -0.135 A  
HETATM   33  C   UNL     1     -11.586  15.536  64.407  1.00  0.00    -0.258 A  
HETATM   34  C   UNL     1     -10.904  14.335  64.530  1.00  0.00    -0.305 A  
BRANCH  30  35
HETATM   35  C   UNL     1      -9.604  17.859  66.704  1.00  0.00    -0.309 C  
HETATM   36  N   UNL     1      -8.550  18.621  66.034  1.00  0.00    -0.490 NA 
HETATM   37  H1  UNL     1      -8.278  19.459  66.549  1.00  0.00     0.000 HD 
HETATM   38  H2  UNL     1      -8.818  18.851  65.077  1.00  0.00     0.000 HD 
ENDBRANCH  30  35
ENDBRANCH  28  29
ENDBRANCH  25  28
ENDBRANCH  10  24
TORSDOF 8
ENDMDL
MODEL      253
REMARK 921   NORMALIZED FREE ENERGY PREDICTED BY IDOCK:   -4.37 KCAL/MOL
REMARK 922        TOTAL FREE ENERGY PREDICTED BY IDOCK:   -7.24 KCAL/MOL
REMARK 923 INTER-LIGAND FREE ENERGY PREDICTED BY IDOCK:   -7.80 KCAL/MOL
REMARK 924 INTRA-LIGAND FREE ENERGY PREDICTED BY IDOCK:    0.55 KCAL/MOL
REMARK 927      BINDING AFFINITY PREDICTED BY RF-SCORE:    0.00 PKD
ROOT
HETATM    1  C   UNL     1      -7.346  10.641  69.373  1.00  0.00    -0.133 C  
HETATM    2  S   UNL     1      -6.838  10.096  67.730  1.00  0.00    -0.076 SA 
HETATM    3  C   UNL     1      -8.142  11.012  66.878  1.00  0.00    -0.142 C  
HETATM    4  C   UNL     1      -9.526  10.900  67.507  1.00  0.00    -0.168 C  
HETATM    5  O   UNL     1     -11.375   9.456  70.308  1.00  0.00    -0.249 OA 
HETATM    6  CA  UNL     1      -9.757  10.464  68.781  1.00  0.00    -0.183 C  
HETATM    7  N   UNL     1      -8.700  10.179  69.600  1.00  0.00    -0.182 N  
HETATM    8  O   UNL     1      -9.186   8.863  71.447  1.00  0.00    -0.230 OA 
HETATM    9  C   UNL     1     -11.175  10.306  69.288  1.00  0.00    -0.228 C  
HETATM   10  CA  UNL     1      -6.917   9.755  70.589  1.00  0.00    -0.094 C  
HETATM   11  OXT UNL     1     -12.118  10.920  68.816  1.00  0.00    -0.496 OA 
HETATM   12  C   UNL     1      -8.445   9.493  70.729  1.00  0.00    -0.028 C  
ENDROOT
BRANCH   4  13
HETATM   13  C   UNL     1     -10.616  11.203  66.480  1.00  0.00    -0.262 C  
BRANCH  13  14
HETATM   14  S   UNL     1      -9.901  11.609  64.847  1.00  0.00    -0.211 SA 
BRANCH  14  15
HETATM   15  C   UNL     1     -11.088  12.737  64.286  1.00  0.00    -0.370 A  
HETATM   16  N   UNL     1     -11.982  12.506  63.352  1.00  0.00    -0.517 NA 
HETATM   17  N   UNL     1     -11.264  14.012  64.753  1.00  0.00    -0.359 NA 
HETATM   18  N   UNL     1     -12.745  13.642  63.265  1.00  0.00    -0.597 NA 
HETATM   19  N   UNL     1     -12.341  14.552  64.137  1.00  0.00    -0.729 NA 
BRANCH  17  20
HETATM   20  C   UNL     1     -10.602  14.717  65.827  1.00  0.00    -0.327 C  
HETATM   21  O   UNL     1     -12.315  13.998  67.431  1.00  0.00    -0.322 OA 
HETATM   22  C   UNL     1     -11.413  14.939  67.084  1.00  0.00    -0.335 C  
HETATM   23  O   UNL     1     -11.200  15.897  67.820  1.00  0.00    -0.326 OA 
ENDBRANCH  17  20
ENDBRANCH  14  15
ENDBRANCH  13  14
ENDBRANCH   4  13
BRANCH  10  24
HETATM   24  N   UNL     1      -6.077   8.563  70.329  1.00  0.00    -0.030 N  
HETATM   25  C   UNL     1      -6.511   7.341  69.889  1.00  0.00    -0.035 C  
HETATM   26  O   UNL     1      -5.698   6.422  69.783  1.00  0.00    -0.013 OA 
HETATM   27  H   UNL     1      -5.076   8.662  70.494  1.00  0.00     0.000 HD 
BRANCH  25  28
HETATM   28  C   UNL     1      -7.985   7.162  69.564  1.00  0.00    -0.128 C  
BRANCH  28  29
HETATM   29  C   UNL     1      -8.369   5.760  69.140  1.00  0.00    -0.105 A  
HETATM   30  C   UNL     1      -8.364   5.342  67.790  1.00  0.00    -0.099 A  
HETATM   31  C   UNL     1      -8.729   4.012  67.499  1.00  0.00    -0.116 A  
HETATM   32  C   UNL     1      -8.710   4.829  70.144  1.00  0.00    -0.121 A  
HETATM   33  C   UNL     1      -9.059   3.106  68.506  1.00  0.00    -0.210 A  
HETATM   34  C   UNL     1      -9.057   3.516  69.830  1.00  0.00    -0.195 A  
BRANCH  30  35
HETATM   35  C   UNL     1      -8.047   6.286  66.645  1.00  0.00    -0.110 C  
HETATM   36  N   UNL     1      -7.260   5.652  65.587  1.00  0.00    -0.070 NA 
HETATM   37  H1  UNL     1      -7.046   6.286  64.817  1.00  0.00     0.000 HD 
HETATM   38  H2  UNL     1      -7.719   4.806  65.248  1.00  0.00     0.000 HD 
ENDBRANCH  30  35
ENDBRANCH  28  29
ENDBRANCH  25  28
ENDBRANCH  10  24
TORSDOF 8
ENDMDL
MODEL      254
REMARK 921   NORMALIZED FREE ENERGY PREDICTED BY IDOCK:   -4.35 KCAL/MOL
REMARK 922        TOTAL FREE ENERGY PREDICTED BY IDOCK:   -7.21 KCAL/MOL
REMARK 923 INTER-LIGAND FREE ENERGY PREDICTED BY IDOCK:   -7.83 KCAL/MOL
REMARK 924 INTRA-LIGAND FREE ENERGY PREDICTED BY IDOCK:    0.62 KCAL/MOL
REMARK 927      BINDING AFFINITY PREDICTED BY RF-SCORE:    0.00 PKD
ROOT
HETATM    1  C   UNL     1     -12.035  12.762  65.815  1.00  0.00    -0.449 C  
HETATM    2  S   UNL     1     -10.531  12.157  65.022  1.00  0.00    -0.300 SA 
HETATM    3  C   UNL     1     -10.643  10.513  65.762  1.00  0.00    -0.066 C  
HETATM    4  C   UNL     1     -10.980  10.495  67.248  1.00  0.00    -0.325 C  
HETATM    5  O   UNL     1     -11.777  12.626  70.108  1.00  0.00    -0.275 OA 
HETATM    6  CA  UNL     1     -11.506  11.557  67.928  1.00  0.00    -0.301 C  
HETATM    7  N   UNL     1     -11.842  12.695  67.249  1.00  0.00    -0.364 N  
HETATM    8  O   UNL     1     -12.097  14.601  68.547  1.00  0.00    -0.284 OA 
HETATM    9  C   UNL     1     -11.727  11.472  69.424  1.00  0.00    -0.346 C  
HETATM   10  CA  UNL     1     -12.187  14.310  65.980  1.00  0.00    -0.404 C  
HETATM   11  OXT UNL     1     -11.868  10.412  70.012  1.00  0.00    -0.267 OA 
HETATM   12  C   UNL     1     -12.086  13.994  67.502  1.00  0.00    -0.326 C  
ENDROOT
BRANCH   4  13
HETATM   13  C   UNL     1     -10.518   9.190  67.896  1.00  0.00    -0.237 C  
BRANCH  13  14
HETATM   14  S   UNL     1      -8.767   8.836  67.508  1.00  0.00    -0.135 SA 
BRANCH  14  15
HETATM   15  C   UNL     1      -8.209   8.388  69.084  1.00  0.00    -0.120 A  
HETATM   16  N   UNL     1      -8.500   9.009  70.205  1.00  0.00    -0.141 NA 
HETATM   17  N   UNL     1      -7.406   7.317  69.375  1.00  0.00    -0.087 NA 
HETATM   18  N   UNL     1      -7.899   8.291  71.206  1.00  0.00    -0.092 NA 
HETATM   19  N   UNL     1      -7.259   7.240  70.718  1.00  0.00    -0.068 NA 
BRANCH  17  20
HETATM   20  C   UNL     1      -6.883   6.278  68.518  1.00  0.00    -0.074 C  
HETATM   21  O   UNL     1      -9.123   5.322  68.213  1.00  0.00    -0.108 OA 
HETATM   22  C   UNL     1      -7.794   5.098  68.261  1.00  0.00    -0.087 C  
HETATM   23  O   UNL     1      -7.342   3.986  68.011  1.00  0.00    -0.062 OA 
ENDBRANCH  17  20
ENDBRANCH  14  15
ENDBRANCH  13  14
ENDBRANCH   4  13
BRANCH  10  24
HETATM   24  N   UNL     1     -11.127  15.184  65.429  1.00  0.00    -0.358 N  
HETATM   25  C   UNL     1      -9.975  15.568  66.062  1.00  0.00    -0.330 C  
HETATM   26  O   UNL     1      -9.217  16.357  65.497  1.00  0.00    -0.419 OA 
HETATM   27  H   UNL     1     -11.268  15.536  64.482  1.00  0.00     0.000 HD 
BRANCH  25  28
HETATM   28  C   UNL     1      -9.685  15.016  67.449  1.00  0.00    -0.216 C  
BRANCH  28  29
HETATM   29  C   UNL     1      -8.346  15.430  68.022  1.00  0.00    -0.142 A  
HETATM   30  C   UNL     1      -7.203  14.602  67.967  1.00  0.00    -0.147 A  
HETATM   31  C   UNL     1      -6.000  15.083  68.522  1.00  0.00    -0.094 A  
HETATM   32  C   UNL     1      -8.236  16.712  68.603  1.00  0.00    -0.245 A  
HETATM   33  C   UNL     1      -5.910  16.354  69.087  1.00  0.00    -0.142 A  
HETATM   34  C   UNL     1      -7.032  17.168  69.134  1.00  0.00    -0.224 A  
BRANCH  30  35
HETATM   35  C   UNL     1      -7.241  13.196  67.396  1.00  0.00    -0.110 C  
HETATM   36  N   UNL     1      -5.917  12.703  67.014  1.00  0.00    -0.479 NA 
HETATM   37  H1  UNL     1      -5.942  11.758  66.629  1.00  0.00     0.000 HD 
HETATM   38  H2  UNL     1      -5.265  12.762  67.797  1.00  0.00     0.000 HD 
ENDBRANCH  30  35
ENDBRANCH  28  29
ENDBRANCH  25  28
ENDBRANCH  10  24
TORSDOF 8
ENDMDL
MODEL      255
REMARK 921   NORMALIZED FREE ENERGY PREDICTED BY IDOCK:   -4.35 KCAL/MOL
REMARK 922        TOTAL FREE ENERGY PREDICTED BY IDOCK:   -7.21 KCAL/MOL
REMARK 923 INTER-LIGAND FREE ENERGY PREDICTED BY IDOCK:   -7.17 KCAL/MOL
REMARK 924 INTRA-LIGAND FREE ENERGY PREDICTED BY IDOCK:   -0.04 KCAL/MOL
REMARK 927      BINDING AFFINITY PREDICTED BY RF-SCORE:    0.00 PKD
ROOT
HETATM    1  C   UNL     1      -9.632   8.608  69.769  1.00  0.00    -0.171 C  
HETATM    2  S   UNL     1      -9.338   8.987  68.029  1.00  0.00    -0.142 SA 
HETATM    3  C   UNL     1      -9.323  10.775  68.284  1.00  0.00    -0.161 C  
HETATM    4  C   UNL     1     -10.437  11.310  69.175  1.00  0.00    -0.191 C  
HETATM    5  O   UNL     1     -13.307  10.319  71.208  1.00  0.00    -0.357 OA 
HETATM    6  CA  UNL     1     -11.187  10.535  70.014  1.00  0.00    -0.315 C  
HETATM    7  N   UNL     1     -10.894   9.207  70.150  1.00  0.00    -0.234 N  
HETATM    8  O   UNL     1     -12.578   7.894  71.054  1.00  0.00    -0.224 OA 
HETATM    9  C   UNL     1     -12.331  11.145  70.797  1.00  0.00    -0.406 C  
HETATM   10  CA  UNL     1     -10.272   7.221  70.104  1.00  0.00    -0.203 C  
HETATM   11  OXT UNL     1     -12.388  12.333  71.068  1.00  0.00    -0.351 OA 
HETATM   12  C   UNL     1     -11.481   8.076  70.582  1.00  0.00    -0.232 C  
ENDROOT
BRANCH   4  13
HETATM   13  C   UNL     1     -10.693  12.791  68.897  1.00  0.00    -0.163 C  
BRANCH  13  14
HETATM   14  S   UNL     1     -12.151  13.025  67.819  1.00  0.00    -0.062 SA 
BRANCH  14  15
HETATM   15  C   UNL     1     -11.353  13.469  66.349  1.00  0.00    -0.316 A  
HETATM   16  N   UNL     1     -11.369  12.780  65.231  1.00  0.00    -0.295 NA 
HETATM   17  N   UNL     1     -10.614  14.605  66.150  1.00  0.00    -0.303 NA 
HETATM   18  N   UNL     1     -10.661  13.518  64.318  1.00  0.00    -0.376 NA 
HETATM   19  N   UNL     1     -10.226  14.647  64.855  1.00  0.00    -0.366 NA 
BRANCH  17  20
HETATM   20  C   UNL     1     -10.362  15.725  67.029  1.00  0.00    -0.292 C  
HETATM   21  O   UNL     1     -10.462  17.298  65.147  1.00  0.00    -0.656 OA 
HETATM   22  C   UNL     1      -9.951  17.020  66.365  1.00  0.00    -0.307 C  
HETATM   23  O   UNL     1      -9.249  17.840  66.946  1.00  0.00    -0.245 OA 
ENDBRANCH  17  20
ENDBRANCH  14  15
ENDBRANCH  13  14
ENDBRANCH   4  13
BRANCH  10  24
HETATM   24  N   UNL     1     -10.542   6.283  68.989  1.00  0.00    -0.235 N  
HETATM   25  C   UNL     1     -10.163   4.969  68.919  1.00  0.00    -0.114 C  
HETATM   26  O   UNL     1     -10.404   4.332  67.894  1.00  0.00     0.131 OA 
HETATM   27  H   UNL     1     -11.064   6.653  68.195  1.00  0.00     0.000 HD 
BRANCH  25  28
HETATM   28  C   UNL     1      -9.444   4.351  70.108  1.00  0.00    -0.245 C  
BRANCH  28  29
HETATM   29  C   UNL     1      -7.946   4.220  69.937  1.00  0.00    -0.056 A  
HETATM   30  C   UNL     1      -7.027   5.112  70.535  1.00  0.00    -0.045 A  
HETATM   31  C   UNL     1      -5.650   4.898  70.322  1.00  0.00    -0.015 A  
HETATM   32  C   UNL     1      -7.453   3.139  69.174  1.00  0.00    -0.048 A  
HETATM   33  C   UNL     1      -5.184   3.822  69.569  1.00  0.00    -0.008 A  
HETATM   34  C   UNL     1      -6.086   2.944  68.988  1.00  0.00    -0.025 A  
BRANCH  30  35
HETATM   35  C   UNL     1      -7.470   6.321  71.338  1.00  0.00    -0.090 C  
HETATM   36  N   UNL     1      -6.453   6.776  72.287  1.00  0.00    -0.057 NA 
HETATM   37  H1  UNL     1      -6.750   7.589  72.827  1.00  0.00     0.000 HD 
HETATM   38  H2  UNL     1      -5.567   6.955  71.814  1.00  0.00     0.000 HD 
ENDBRANCH  30  35
ENDBRANCH  28  29
ENDBRANCH  25  28
ENDBRANCH  10  24
TORSDOF 8
ENDMDL
MODEL      256
REMARK 921   NORMALIZED FREE ENERGY PREDICTED BY IDOCK:   -4.35 KCAL/MOL
REMARK 922        TOTAL FREE ENERGY PREDICTED BY IDOCK:   -7.21 KCAL/MOL
REMARK 923 INTER-LIGAND FREE ENERGY PREDICTED BY IDOCK:   -7.91 KCAL/MOL
REMARK 924 INTRA-LIGAND FREE ENERGY PREDICTED BY IDOCK:    0.70 KCAL/MOL
REMARK 927      BINDING AFFINITY PREDICTED BY RF-SCORE:    0.00 PKD
ROOT
HETATM    1  C   UNL     1      -8.669   9.678  65.527  1.00  0.00    -0.153 C  
HETATM    2  S   UNL     1     -10.274  10.492  65.663  1.00  0.00    -0.216 SA 
HETATM    3  C   UNL     1      -9.567  12.131  65.945  1.00  0.00    -0.214 C  
HETATM    4  C   UNL     1      -8.415  12.175  66.943  1.00  0.00    -0.173 C  
HETATM    5  O   UNL     1      -6.318  10.105  69.104  1.00  0.00    -0.043 OA 
HETATM    6  CA  UNL     1      -7.708  11.077  67.346  1.00  0.00    -0.114 C  
HETATM    7  N   UNL     1      -7.967   9.861  66.780  1.00  0.00    -0.115 N  
HETATM    8  O   UNL     1      -7.202   8.019  67.964  1.00  0.00    -0.089 OA 
HETATM    9  C   UNL     1      -6.637  11.209  68.408  1.00  0.00    -0.058 C  
HETATM   10  CA  UNL     1      -8.618   8.140  65.805  1.00  0.00    -0.154 C  
HETATM   11  OXT UNL     1      -6.060  12.259  68.639  1.00  0.00    -0.054 OA 
HETATM   12  C   UNL     1      -7.764   8.556  67.038  1.00  0.00    -0.092 C  
ENDROOT
BRANCH   4  13
HETATM   13  C   UNL     1      -8.258  13.576  67.532  1.00  0.00    -0.183 C  
BRANCH  13  14
HETATM   14  S   UNL     1      -9.369  14.773  66.710  1.00  0.00    -0.262 SA 
BRANCH  14  15
HETATM   15  C   UNL     1     -10.271  15.318  68.084  1.00  0.00    -0.230 A  
HETATM   16  N   UNL     1     -11.249  14.662  68.666  1.00  0.00    -0.262 NA 
HETATM   17  N   UNL     1     -10.074  16.494  68.756  1.00  0.00    -0.241 NA 
HETATM   18  N   UNL     1     -11.637  15.427  69.735  1.00  0.00    -0.298 NA 
HETATM   19  N   UNL     1     -10.907  16.528  69.821  1.00  0.00    -0.336 NA 
BRANCH  17  20
HETATM   20  C   UNL     1      -9.076  17.524  68.571  1.00  0.00    -0.277 C  
HETATM   21  O   UNL     1     -10.750  19.058  67.637  1.00  0.00    -0.443 OA 
HETATM   22  C   UNL     1      -9.457  18.672  67.664  1.00  0.00    -0.293 C  
HETATM   23  O   UNL     1      -8.609  19.299  67.038  1.00  0.00    -0.272 OA 
ENDBRANCH  17  20
ENDBRANCH  14  15
ENDBRANCH  13  14
ENDBRANCH   4  13
BRANCH  10  24
HETATM   24  N   UNL     1      -9.887   7.436  66.105  1.00  0.00    -0.435 N  
HETATM   25  C   UNL     1     -10.522   7.381  67.316  1.00  0.00    -0.315 C  
HETATM   26  O   UNL     1     -11.540   6.697  67.427  1.00  0.00     0.002 OA 
HETATM   27  H   UNL     1     -10.333   6.944  65.330  1.00  0.00     0.000 HD 
BRANCH  25  28
HETATM   28  C   UNL     1      -9.934   8.155  68.486  1.00  0.00    -0.204 C  
BRANCH  28  29
HETATM   29  C   UNL     1     -10.524   7.799  69.834  1.00  0.00    -0.232 A  
HETATM   30  C   UNL     1     -11.313   8.700  70.585  1.00  0.00    -0.277 A  
HETATM   31  C   UNL     1     -11.823   8.269  71.826  1.00  0.00    -0.357 A  
HETATM   32  C   UNL     1     -10.300   6.500  70.339  1.00  0.00    -0.237 A  
HETATM   33  C   UNL     1     -11.594   6.980  72.305  1.00  0.00    -0.307 A  
HETATM   34  C   UNL     1     -10.825   6.096  71.564  1.00  0.00    -0.313 A  
BRANCH  30  35
HETATM   35  C   UNL     1     -11.572  10.126  70.136  1.00  0.00    -0.277 C  
HETATM   36  N   UNL     1     -12.556  10.814  70.972  1.00  0.00    -0.385 NA 
HETATM   37  H1  UNL     1     -12.731  11.773  70.671  1.00  0.00     0.000 HD 
HETATM   38  H2  UNL     1     -12.285  10.783  71.956  1.00  0.00     0.000 HD 
ENDBRANCH  30  35
ENDBRANCH  28  29
ENDBRANCH  25  28
ENDBRANCH  10  24
TORSDOF 8
ENDMDL
MODEL      257
REMARK 921   NORMALIZED FREE ENERGY PREDICTED BY IDOCK:   -4.33 KCAL/MOL
REMARK 922        TOTAL FREE ENERGY PREDICTED BY IDOCK:   -7.18 KCAL/MOL
REMARK 923 INTER-LIGAND FREE ENERGY PREDICTED BY IDOCK:   -7.98 KCAL/MOL
REMARK 924 INTRA-LIGAND FREE ENERGY PREDICTED BY IDOCK:    0.80 KCAL/MOL
REMARK 927      BINDING AFFINITY PREDICTED BY RF-SCORE:    0.00 PKD
ROOT
HETATM    1  C   UNL     1     -11.745  14.679  66.334  1.00  0.00    -0.322 C  
HETATM    2  S   UNL     1     -10.634  13.456  65.609  1.00  0.00    -0.287 SA 
HETATM    3  C   UNL     1     -11.388  12.062  66.478  1.00  0.00    -0.354 C  
HETATM    4  C   UNL     1     -11.671  12.299  67.956  1.00  0.00    -0.417 C  
HETATM    5  O   UNL     1     -11.472  14.786  70.626  1.00  0.00    -0.268 OA 
HETATM    6  CA  UNL     1     -11.706  13.533  68.543  1.00  0.00    -0.357 C  
HETATM    7  N   UNL     1     -11.565  14.652  67.771  1.00  0.00    -0.346 N  
HETATM    8  O   UNL     1     -10.995  16.591  68.908  1.00  0.00    -0.319 OA 
HETATM    9  C   UNL     1     -11.910  13.662  70.037  1.00  0.00    -0.308 C  
HETATM   10  CA  UNL     1     -11.252  16.163  66.373  1.00  0.00     0.220 C  
HETATM   11  OXT UNL     1     -12.457  12.800  70.707  1.00  0.00    -0.344 OA 
HETATM   12  C   UNL     1     -11.254  15.953  67.915  1.00  0.00    -0.297 C  
ENDROOT
BRANCH   4  13
HETATM   13  C   UNL     1     -11.766  10.974  68.712  1.00  0.00    -0.314 C  
BRANCH  13  14
HETATM   14  S   UNL     1     -10.108  10.317  69.117  1.00  0.00    -0.230 SA 
BRANCH  14  15
HETATM   15  C   UNL     1     -10.467   8.624  69.135  1.00  0.00    -0.211 A  
HETATM   16  N   UNL     1     -10.738   7.911  70.204  1.00  0.00    -0.242 NA 
HETATM   17  N   UNL     1     -10.533   7.807  68.038  1.00  0.00    -0.204 NA 
HETATM   18  N   UNL     1     -11.012   6.644  69.758  1.00  0.00    -0.285 NA 
HETATM   19  N   UNL     1     -10.925   6.576  68.439  1.00  0.00    -0.288 NA 
BRANCH  17  20
HETATM   20  C   UNL     1     -10.402   8.114  66.632  1.00  0.00    -0.213 C  
HETATM   21  O   UNL     1      -7.964   8.309  66.844  1.00  0.00    -0.098 OA 
HETATM   22  C   UNL     1      -9.079   8.702  66.194  1.00  0.00    -0.201 C  
HETATM   23  O   UNL     1      -9.001   9.444  65.221  1.00  0.00    -0.179 OA 
ENDBRANCH  17  20
ENDBRANCH  14  15
ENDBRANCH  13  14
ENDBRANCH   4  13
BRANCH  10  24
HETATM   24  N   UNL     1      -9.940  16.485  65.766  1.00  0.00    -0.304 N  
HETATM   25  C   UNL     1      -8.749  16.630  66.426  1.00  0.00    -0.310 C  
HETATM   26  O   UNL     1      -7.750  16.966  65.791  1.00  0.00    -0.272 OA 
HETATM   27  H   UNL     1      -9.921  16.611  64.754  1.00  0.00     0.000 HD 
BRANCH  25  28
HETATM   28  C   UNL     1      -8.711  16.385  67.927  1.00  0.00    -0.179 C  
BRANCH  28  29
HETATM   29  C   UNL     1      -7.562  15.518  68.393  1.00  0.00    -0.116 A  
HETATM   30  C   UNL     1      -6.275  16.035  68.662  1.00  0.00    -0.115 A  
HETATM   31  C   UNL     1      -5.274  15.145  69.101  1.00  0.00    -0.094 A  
HETATM   32  C   UNL     1      -7.804  14.142  68.598  1.00  0.00    -0.137 A  
HETATM   33  C   UNL     1      -5.534  13.790  69.302  1.00  0.00    -0.078 A  
HETATM   34  C   UNL     1      -6.799  13.286  69.043  1.00  0.00    -0.096 A  
BRANCH  30  35
HETATM   35  C   UNL     1      -5.917  17.492  68.433  1.00  0.00    -0.168 C  
HETATM   36  N   UNL     1      -6.613  18.398  69.347  1.00  0.00    -0.245 NA 
HETATM   37  H1  UNL     1      -6.373  19.378  69.193  1.00  0.00     0.000 HD 
HETATM   38  H2  UNL     1      -6.453  18.131  70.318  1.00  0.00     0.000 HD 
ENDBRANCH  30  35
ENDBRANCH  28  29
ENDBRANCH  25  28
ENDBRANCH  10  24
TORSDOF 8
ENDMDL
MODEL      258
REMARK 921   NORMALIZED FREE ENERGY PREDICTED BY IDOCK:   -4.31 KCAL/MOL
REMARK 922        TOTAL FREE ENERGY PREDICTED BY IDOCK:   -7.15 KCAL/MOL
REMARK 923 INTER-LIGAND FREE ENERGY PREDICTED BY IDOCK:   -6.23 KCAL/MOL
REMARK 924 INTRA-LIGAND FREE ENERGY PREDICTED BY IDOCK:   -0.92 KCAL/MOL
REMARK 927      BINDING AFFINITY PREDICTED BY RF-SCORE:    0.00 PKD
ROOT
HETATM    1  C   UNL     1      -9.772   8.552  69.840  1.00  0.00    -0.179 C  
HETATM    2  S   UNL     1     -10.021   9.757  68.520  1.00  0.00    -0.166 SA 
HETATM    3  C   UNL     1     -10.997  10.878  69.547  1.00  0.00    -0.253 C  
HETATM    4  C   UNL     1     -12.063  10.206  70.403  1.00  0.00    -0.332 C  
HETATM    5  O   UNL     1     -13.489   6.969  71.319  1.00  0.00    -0.333 OA 
HETATM    6  CA  UNL     1     -12.092   8.869  70.683  1.00  0.00    -0.014 C  
HETATM    7  N   UNL     1     -11.073   8.066  70.253  1.00  0.00    -0.250 N  
HETATM    8  O   UNL     1     -11.534   5.794  70.209  1.00  0.00    -0.180 OA 
HETATM    9  C   UNL     1     -13.242   8.280  71.473  1.00  0.00    -0.287 C  
HETATM   10  CA  UNL     1      -9.438   7.083  69.419  1.00  0.00    -0.145 C  
HETATM   11  OXT UNL     1     -13.929   8.941  72.235  1.00  0.00    -0.442 OA 
HETATM   12  C   UNL     1     -10.829   6.760  70.040  1.00  0.00    -0.266 C  
ENDROOT
BRANCH   4  13
HETATM   13  C   UNL     1     -13.163  11.198  70.781  1.00  0.00     0.177 C  
BRANCH  13  14
HETATM   14  S   UNL     1     -12.726  12.135  72.289  1.00  0.00     0.750 SA 
BRANCH  14  15
HETATM   15  C   UNL     1     -13.124  13.734  71.759  1.00  0.00    -0.379 A  
HETATM   16  N   UNL     1     -14.204  14.404  72.092  1.00  0.00    -0.519 NA 
HETATM   17  N   UNL     1     -12.359  14.519  70.938  1.00  0.00    -0.320 NA 
HETATM   18  N   UNL     1     -14.087  15.634  71.498  1.00  0.00    -0.512 NA 
HETATM   19  N   UNL     1     -12.953  15.728  70.821  1.00  0.00    -0.485 NA 
BRANCH  17  20
HETATM   20  C   UNL     1     -11.051  14.285  70.369  1.00  0.00     0.161 C  
HETATM   21  O   UNL     1     -11.699  15.392  68.277  1.00  0.00    -0.360 OA 
HETATM   22  C   UNL     1     -10.930  14.458  68.872  1.00  0.00    -0.255 C  
HETATM   23  O   UNL     1     -10.094  13.837  68.224  1.00  0.00    -0.227 OA 
ENDBRANCH  17  20
ENDBRANCH  14  15
ENDBRANCH  13  14
ENDBRANCH   4  13
BRANCH  10  24
HETATM   24  N   UNL     1      -9.288   6.782  67.976  1.00  0.00    -0.120 N  
HETATM   25  C   UNL     1      -8.393   5.912  67.414  1.00  0.00    -0.105 C  
HETATM   26  O   UNL     1      -8.342   5.817  66.187  1.00  0.00    -0.114 OA 
HETATM   27  H   UNL     1      -9.915   7.271  67.338  1.00  0.00     0.000 HD 
BRANCH  25  28
HETATM   28  C   UNL     1      -7.482   5.107  68.328  1.00  0.00    -0.075 C  
BRANCH  28  29
HETATM   29  C   UNL     1      -8.111   3.851  68.893  1.00  0.00    -0.075 A  
HETATM   30  C   UNL     1      -8.387   3.688  70.269  1.00  0.00    -0.082 A  
HETATM   31  C   UNL     1      -8.983   2.483  70.694  1.00  0.00    -0.161 A  
HETATM   32  C   UNL     1      -8.465   2.821  67.996  1.00  0.00    -0.103 A  
HETATM   33  C   UNL     1      -9.329   1.478  69.792  1.00  0.00    -0.158 A  
HETATM   34  C   UNL     1      -9.063   1.644  68.441  1.00  0.00    -0.193 A  
BRANCH  30  35
HETATM   35  C   UNL     1      -8.006   4.727  71.307  1.00  0.00    -0.096 C  
HETATM   36  N   UNL     1      -9.043   4.926  72.319  1.00  0.00    -0.130 NA 
HETATM   37  H1  UNL     1      -8.788   5.625  73.017  1.00  0.00     0.000 HD 
HETATM   38  H2  UNL     1      -9.294   4.041  72.763  1.00  0.00     0.000 HD 
ENDBRANCH  30  35
ENDBRANCH  28  29
ENDBRANCH  25  28
ENDBRANCH  10  24
TORSDOF 8
ENDMDL
MODEL      259
REMARK 921   NORMALIZED FREE ENERGY PREDICTED BY IDOCK:   -4.30 KCAL/MOL
REMARK 922        TOTAL FREE ENERGY PREDICTED BY IDOCK:   -7.13 KCAL/MOL
REMARK 923 INTER-LIGAND FREE ENERGY PREDICTED BY IDOCK:   -7.73 KCAL/MOL
REMARK 924 INTRA-LIGAND FREE ENERGY PREDICTED BY IDOCK:    0.60 KCAL/MOL
REMARK 927      BINDING AFFINITY PREDICTED BY RF-SCORE:    0.00 PKD
ROOT
HETATM    1  C   UNL     1      -7.141   8.811  66.936  1.00  0.00    -0.078 C  
HETATM    2  S   UNL     1      -8.403   9.668  65.972  1.00  0.00    -0.122 SA 
HETATM    3  C   UNL     1      -7.601  11.281  66.106  1.00  0.00     0.032 C  
HETATM    4  C   UNL     1      -7.095  11.637  67.499  1.00  0.00    -0.111 C  
HETATM    5  O   UNL     1      -6.784  10.392  70.921  1.00  0.00    -0.341 OA 
HETATM    6  CA  UNL     1      -6.916  10.730  68.505  1.00  0.00    -0.068 C  
HETATM    7  N   UNL     1      -7.113   9.399  68.259  1.00  0.00    -0.075 N  
HETATM    8  O   UNL     1      -7.415   8.065  70.131  1.00  0.00    -0.070 OA 
HETATM    9  C   UNL     1      -6.491  11.192  69.883  1.00  0.00    -0.142 C  
HETATM   10  CA  UNL     1      -7.550   7.466  67.621  1.00  0.00    -0.106 C  
HETATM   11  OXT UNL     1      -5.896  12.241  70.074  1.00  0.00    -0.124 OA 
HETATM   12  C   UNL     1      -7.334   8.262  68.942  1.00  0.00    -0.090 C  
ENDROOT
BRANCH   4  13
HETATM   13  C   UNL     1      -6.957  13.150  67.658  1.00  0.00    -0.154 C  
BRANCH  13  14
HETATM   14  S   UNL     1      -8.455  13.882  68.410  1.00  0.00    -0.139 SA 
BRANCH  14  15
HETATM   15  C   UNL     1      -8.781  15.124  67.250  1.00  0.00    -0.202 A  
HETATM   16  N   UNL     1      -7.881  15.751  66.526  1.00  0.00    -0.166 NA 
HETATM   17  N   UNL     1     -10.019  15.607  66.919  1.00  0.00    -0.243 NA 
HETATM   18  N   UNL     1      -8.576  16.606  65.711  1.00  0.00    -0.408 NA 
HETATM   19  N   UNL     1      -9.880  16.503  65.916  1.00  0.00    -0.459 NA 
BRANCH  17  20
HETATM   20  C   UNL     1     -11.333  15.198  67.361  1.00  0.00    -0.306 C  
HETATM   21  O   UNL     1     -11.034  16.352  69.507  1.00  0.00    -0.309 OA 
HETATM   22  C   UNL     1     -11.616  15.334  68.840  1.00  0.00    -0.347 C  
HETATM   23  O   UNL     1     -12.420  14.602  69.407  1.00  0.00    -0.209 OA 
ENDBRANCH  17  20
ENDBRANCH  14  15
ENDBRANCH  13  14
ENDBRANCH   4  13
BRANCH  10  24
HETATM   24  N   UNL     1      -8.919   6.948  67.394  1.00  0.00    -0.117 N  
HETATM   25  C   UNL     1     -10.081   7.463  67.904  1.00  0.00    -0.178 C  
HETATM   26  O   UNL     1     -11.142   6.880  67.680  1.00  0.00    -0.242 OA 
HETATM   27  H   UNL     1      -9.005   6.125  66.797  1.00  0.00     0.000 HD 
BRANCH  25  28
HETATM   28  C   UNL     1     -10.012   8.729  68.744  1.00  0.00    -0.197 C  
BRANCH  28  29
HETATM   29  C   UNL     1     -10.757   8.651  70.059  1.00  0.00    -0.233 A  
HETATM   30  C   UNL     1     -11.593   9.690  70.526  1.00  0.00    -0.341 A  
HETATM   31  C   UNL     1     -12.251   9.516  71.761  1.00  0.00    -0.465 A  
HETATM   32  C   UNL     1     -10.633   7.473  70.828  1.00  0.00    -0.227 A  
HETATM   33  C   UNL     1     -12.119   8.343  72.503  1.00  0.00    -0.403 A  
HETATM   34  C   UNL     1     -11.304   7.323  72.040  1.00  0.00    -0.295 A  
BRANCH  30  35
HETATM   35  C   UNL     1     -11.754  11.003  69.784  1.00  0.00    -0.335 C  
HETATM   36  N   UNL     1     -11.881  12.151  70.682  1.00  0.00    -0.466 NA 
HETATM   37  H1  UNL     1     -11.989  13.035  70.183  1.00  0.00     0.000 HD 
HETATM   38  H2  UNL     1     -11.096  12.193  71.333  1.00  0.00     0.000 HD 
ENDBRANCH  30  35
ENDBRANCH  28  29
ENDBRANCH  25  28
ENDBRANCH  10  24
TORSDOF 8
ENDMDL
MODEL      260
REMARK 921   NORMALIZED FREE ENERGY PREDICTED BY IDOCK:   -4.28 KCAL/MOL
REMARK 922        TOTAL FREE ENERGY PREDICTED BY IDOCK:   -7.11 KCAL/MOL
REMARK 923 INTER-LIGAND FREE ENERGY PREDICTED BY IDOCK:   -8.40 KCAL/MOL
REMARK 924 INTRA-LIGAND FREE ENERGY PREDICTED BY IDOCK:    1.29 KCAL/MOL
REMARK 927      BINDING AFFINITY PREDICTED BY RF-SCORE:    0.00 PKD
ROOT
HETATM    1  C   UNL     1      -9.559  15.411  69.527  1.00  0.00    -0.257 C  
HETATM    2  S   UNL     1      -8.436  14.077  69.063  1.00  0.00     0.252 SA 
HETATM    3  C   UNL     1      -7.152  15.192  68.452  1.00  0.00    -0.107 C  
HETATM    4  C   UNL     1      -7.651  16.334  67.574  1.00  0.00    -0.170 C  
HETATM    5  O   UNL     1     -10.656  17.859  66.163  1.00  0.00    -0.344 OA 
HETATM    6  CA  UNL     1      -8.954  16.738  67.509  1.00  0.00    -0.205 C  
HETATM    7  N   UNL     1      -9.883  16.160  68.330  1.00  0.00    -0.221 N  
HETATM    8  O   UNL     1     -12.096  16.440  67.696  1.00  0.00     0.622 OA 
HETATM    9  C   UNL     1      -9.368  17.826  66.541  1.00  0.00    -0.279 C  
HETATM   10  CA  UNL     1     -11.080  15.065  69.634  1.00  0.00    -0.273 C  
HETATM   11  OXT UNL     1      -8.588  18.661  66.112  1.00  0.00    -0.447 OA 
HETATM   12  C   UNL     1     -11.218  16.021  68.413  1.00  0.00    -0.364 C  
ENDROOT
BRANCH   4  13
HETATM   13  C   UNL     1      -6.531  16.862  66.679  1.00  0.00    -0.200 C  
BRANCH  13  14
HETATM   14  S   UNL     1      -5.201  17.640  67.663  1.00  0.00    -0.133 SA 
BRANCH  14  15
HETATM   15  C   UNL     1      -5.809  19.259  67.738  1.00  0.00    -0.197 A  
HETATM   16  N   UNL     1      -6.394  19.809  68.777  1.00  0.00    -0.262 NA 
HETATM   17  N   UNL     1      -5.747  20.186  66.732  1.00  0.00    -0.173 NA 
HETATM   18  N   UNL     1      -6.664  21.106  68.421  1.00  0.00     0.078 NA 
HETATM   19  N   UNL     1      -6.243  21.357  67.192  1.00  0.00    -0.489 NA 
BRANCH  17  20
HETATM   20  C   UNL     1      -5.132  20.111  65.426  1.00  0.00    -0.161 C  
HETATM   21  O   UNL     1      -7.231  20.771  64.337  1.00  0.00     0.103 OA 
HETATM   22  C   UNL     1      -6.073  20.086  64.242  1.00  0.00    -0.253 C  
HETATM   23  O   UNL     1      -5.760  19.538  63.190  1.00  0.00    -0.318 OA 
ENDBRANCH  17  20
ENDBRANCH  14  15
ENDBRANCH  13  14
ENDBRANCH   4  13
BRANCH  10  24
HETATM   24  N   UNL     1     -11.500  13.662  69.408  1.00  0.00    -0.295 N  
HETATM   25  C   UNL     1     -11.446  12.975  68.225  1.00  0.00    -0.312 C  
HETATM   26  O   UNL     1     -11.896  11.830  68.178  1.00  0.00    -0.451 OA 
HETATM   27  H   UNL     1     -11.866  13.157  70.216  1.00  0.00     0.000 HD 
BRANCH  25  28
HETATM   28  C   UNL     1     -10.846  13.662  67.008  1.00  0.00    -0.291 C  
BRANCH  28  29
HETATM   29  C   UNL     1     -11.277  13.077  65.680  1.00  0.00    -0.310 A  
HETATM   30  C   UNL     1     -11.870  13.854  64.660  1.00  0.00    -0.428 A  
HETATM   31  C   UNL     1     -12.228  13.216  63.455  1.00  0.00    -0.521 A  
HETATM   32  C   UNL     1     -11.042  11.705  65.447  1.00  0.00    -0.299 A  
HETATM   33  C   UNL     1     -11.983  11.860  63.242  1.00  0.00    -0.441 A  
HETATM   34  C   UNL     1     -11.396  11.101  64.243  1.00  0.00     0.058 A  
BRANCH  30  35
HETATM   35  C   UNL     1     -12.193  15.325  64.839  1.00  0.00     0.037 C  
HETATM   36  N   UNL     1     -11.368  16.194  63.999  1.00  0.00    -1.347 NA 
HETATM   37  H1  UNL     1     -11.585  17.184  64.119  1.00  0.00     0.000 HD 
HETATM   38  H2  UNL     1     -11.433  15.922  63.017  1.00  0.00     0.000 HD 
ENDBRANCH  30  35
ENDBRANCH  28  29
ENDBRANCH  25  28
ENDBRANCH  10  24
TORSDOF 8
ENDMDL
MODEL      261
REMARK 921   NORMALIZED FREE ENERGY PREDICTED BY IDOCK:   -4.27 KCAL/MOL
REMARK 922        TOTAL FREE ENERGY PREDICTED BY IDOCK:   -7.09 KCAL/MOL
REMARK 923 INTER-LIGAND FREE ENERGY PREDICTED BY IDOCK:   -7.48 KCAL/MOL
REMARK 924 INTRA-LIGAND FREE ENERGY PREDICTED BY IDOCK:    0.39 KCAL/MOL
REMARK 927      BINDING AFFINITY PREDICTED BY RF-SCORE:    0.00 PKD
ROOT
HETATM    1  C   UNL     1      -8.915   6.396  66.826  1.00  0.00    -0.130 C  
HETATM    2  S   UNL     1     -10.635   6.726  67.258  1.00  0.00    -0.362 SA 
HETATM    3  C   UNL     1     -10.526   8.492  66.894  1.00  0.00    -0.275 C  
HETATM    4  C   UNL     1      -9.283   9.188  67.435  1.00  0.00    -0.150 C  
HETATM    5  O   UNL     1      -6.166   8.637  69.261  1.00  0.00    -0.041 OA 
HETATM    6  CA  UNL     1      -8.157   8.534  67.850  1.00  0.00    -0.115 C  
HETATM    7  N   UNL     1      -8.074   7.177  67.709  1.00  0.00    -0.114 N  
HETATM    8  O   UNL     1      -6.459   6.130  69.003  1.00  0.00    -0.039 OA 
HETATM    9  C   UNL     1      -7.004   9.308  68.454  1.00  0.00    -0.067 C  
HETATM   10  CA  UNL     1      -8.252   5.119  67.441  1.00  0.00    -0.107 C  
HETATM   11  OXT UNL     1      -6.812  10.491  68.228  1.00  0.00    -0.066 OA 
HETATM   12  C   UNL     1      -7.362   6.146  68.201  1.00  0.00    -0.085 C  
ENDROOT
BRANCH   4  13
HETATM   13  C   UNL     1      -9.521  10.690  67.583  1.00  0.00    -0.153 C  
BRANCH  13  14
HETATM   14  S   UNL     1     -11.256  11.131  67.214  1.00  0.00    -0.217 SA 
BRANCH  14  15
HETATM   15  C   UNL     1     -11.783  11.578  68.801  1.00  0.00    -0.334 A  
HETATM   16  N   UNL     1     -12.042  10.746  69.784  1.00  0.00    -0.323 NA 
HETATM   17  N   UNL     1     -11.983  12.856  69.248  1.00  0.00    -0.287 NA 
HETATM   18  N   UNL     1     -12.371  11.523  70.865  1.00  0.00    -0.382 NA 
HETATM   19  N   UNL     1     -12.305  12.809  70.561  1.00  0.00    -0.318 NA 
BRANCH  17  20
HETATM   20  C   UNL     1     -11.760  14.125  68.592  1.00  0.00    -0.350 C  
HETATM   21  O   UNL     1      -9.328  13.878  68.817  1.00  0.00    -0.149 OA 
HETATM   22  C   UNL     1     -10.378  14.721  68.737  1.00  0.00    -0.248 C  
HETATM   23  O   UNL     1     -10.199  15.934  68.692  1.00  0.00    -0.213 OA 
ENDBRANCH  17  20
ENDBRANCH  14  15
ENDBRANCH  13  14
ENDBRANCH   4  13
BRANCH  10  24
HETATM   24  N   UNL     1      -9.083   4.233  68.287  1.00  0.00    -0.122 N  
HETATM   25  C   UNL     1      -9.326   4.377  69.627  1.00  0.00    -0.158 C  
HETATM   26  O   UNL     1      -9.987   3.517  70.210  1.00  0.00    -0.069 OA 
HETATM   27  H   UNL     1      -9.519   3.434  67.825  1.00  0.00     0.000 HD 
BRANCH  25  28
HETATM   28  C   UNL     1      -8.755   5.589  70.347  1.00  0.00    -0.136 C  
BRANCH  28  29
HETATM   29  C   UNL     1      -9.785   6.438  71.060  1.00  0.00    -0.192 A  
HETATM   30  C   UNL     1      -9.470   7.246  72.176  1.00  0.00    -0.157 A  
HETATM   31  C   UNL     1     -10.499   8.008  72.764  1.00  0.00    -0.415 A  
HETATM   32  C   UNL     1     -11.106   6.446  70.561  1.00  0.00    -0.388 A  
HETATM   33  C   UNL     1     -11.797   8.005  72.254  1.00  0.00    -0.424 A  
HETATM   34  C   UNL     1     -12.103   7.217  71.155  1.00  0.00    -0.397 A  
BRANCH  30  35
HETATM   35  C   UNL     1      -8.087   7.270  72.799  1.00  0.00    -0.106 C  
HETATM   36  N   UNL     1      -7.817   8.506  73.534  1.00  0.00    -0.394 NA 
HETATM   37  H1  UNL     1      -6.886   8.523  73.954  1.00  0.00     0.000 HD 
HETATM   38  H2  UNL     1      -8.537   8.678  74.236  1.00  0.00     0.000 HD 
ENDBRANCH  30  35
ENDBRANCH  28  29
ENDBRANCH  25  28
ENDBRANCH  10  24
TORSDOF 8
ENDMDL
MODEL      262
REMARK 921   NORMALIZED FREE ENERGY PREDICTED BY IDOCK:   -4.27 KCAL/MOL
REMARK 922        TOTAL FREE ENERGY PREDICTED BY IDOCK:   -7.09 KCAL/MOL
REMARK 923 INTER-LIGAND FREE ENERGY PREDICTED BY IDOCK:   -7.80 KCAL/MOL
REMARK 924 INTRA-LIGAND FREE ENERGY PREDICTED BY IDOCK:    0.71 KCAL/MOL
REMARK 927      BINDING AFFINITY PREDICTED BY RF-SCORE:    0.00 PKD
ROOT
HETATM    1  C   UNL     1      -9.875   8.825  68.726  1.00  0.00    -0.171 C  
HETATM    2  S   UNL     1     -11.127   9.969  68.109  1.00  0.00    -0.128 SA 
HETATM    3  C   UNL     1      -9.982  10.842  67.017  1.00  0.00    -0.197 C  
HETATM    4  C   UNL     1      -8.634  11.187  67.638  1.00  0.00    -0.126 C  
HETATM    5  O   UNL     1      -6.625  10.863  70.673  1.00  0.00    -0.319 OA 
HETATM    6  CA  UNL     1      -8.144  10.612  68.776  1.00  0.00    -0.139 C  
HETATM    7  N   UNL     1      -8.841   9.602  69.378  1.00  0.00    -0.166 N  
HETATM    8  O   UNL     1      -8.277   9.167  71.585  1.00  0.00    -0.343 OA 
HETATM    9  C   UNL     1      -6.830  11.084  69.364  1.00  0.00    -0.119 C  
HETATM   10  CA  UNL     1     -10.140   8.149  70.111  1.00  0.00    -0.194 C  
HETATM   11  OXT UNL     1      -5.968  11.635  68.699  1.00  0.00    -0.049 OA 
HETATM   12  C   UNL     1      -8.911   8.987  70.572  1.00  0.00    -0.213 C  
ENDROOT
BRANCH   4  13
HETATM   13  C   UNL     1      -7.978  12.354  66.901  1.00  0.00    -0.038 C  
BRANCH  13  14
HETATM   14  S   UNL     1      -8.244  13.934  67.782  1.00  0.00    -0.190 SA 
BRANCH  14  15
HETATM   15  C   UNL     1      -9.967  13.889  67.938  1.00  0.00    -0.242 A  
HETATM   16  N   UNL     1     -10.633  13.854  69.070  1.00  0.00    -0.209 NA 
HETATM   17  N   UNL     1     -10.866  13.902  66.904  1.00  0.00    -0.284 NA 
HETATM   18  N   UNL     1     -11.961  13.883  68.732  1.00  0.00    -0.356 NA 
HETATM   19  N   UNL     1     -12.116  13.947  67.419  1.00  0.00    -0.385 NA 
BRANCH  17  20
HETATM   20  C   UNL     1     -10.654  14.020  65.480  1.00  0.00    -0.318 C  
HETATM   21  O   UNL     1     -12.738  12.811  65.011  1.00  0.00    -0.625 OA 
HETATM   22  C   UNL     1     -11.490  13.120  64.599  1.00  0.00    -0.333 C  
HETATM   23  O   UNL     1     -11.090  12.750  63.501  1.00  0.00    -0.433 OA 
ENDBRANCH  17  20
ENDBRANCH  14  15
ENDBRANCH  13  14
ENDBRANCH   4  13
BRANCH  10  24
HETATM   24  N   UNL     1     -11.417   8.439  70.803  1.00  0.00    -0.294 N  
HETATM   25  C   UNL     1     -11.719   8.157  72.108  1.00  0.00    -0.359 C  
HETATM   26  O   UNL     1     -12.853   8.398  72.525  1.00  0.00    -0.305 OA 
HETATM   27  H   UNL     1     -12.145   8.894  70.251  1.00  0.00     0.000 HD 
BRANCH  25  28
HETATM   28  C   UNL     1     -10.645   7.541  72.991  1.00  0.00    -0.422 C  
BRANCH  28  29
HETATM   29  C   UNL     1     -10.156   6.185  72.531  1.00  0.00    -0.197 A  
HETATM   30  C   UNL     1      -9.027   5.548  73.093  1.00  0.00    -0.121 A  
HETATM   31  C   UNL     1      -8.658   4.280  72.601  1.00  0.00    -0.106 A  
HETATM   32  C   UNL     1     -10.885   5.519  71.521  1.00  0.00    -0.263 A  
HETATM   33  C   UNL     1      -9.394   3.637  71.606  1.00  0.00    -0.201 A  
HETATM   34  C   UNL     1     -10.505   4.261  71.060  1.00  0.00     0.226 A  
BRANCH  30  35
HETATM   35  C   UNL     1      -8.165   6.206  74.155  1.00  0.00    -0.108 C  
HETATM   36  N   UNL     1      -7.045   6.960  73.590  1.00  0.00    -0.074 NA 
HETATM   37  H1  UNL     1      -6.465   7.402  74.304  1.00  0.00     0.000 HD 
HETATM   38  H2  UNL     1      -7.374   7.646  72.910  1.00  0.00     0.000 HD 
ENDBRANCH  30  35
ENDBRANCH  28  29
ENDBRANCH  25  28
ENDBRANCH  10  24
TORSDOF 8
ENDMDL
MODEL      263
REMARK 921   NORMALIZED FREE ENERGY PREDICTED BY IDOCK:   -4.25 KCAL/MOL
REMARK 922        TOTAL FREE ENERGY PREDICTED BY IDOCK:   -7.07 KCAL/MOL
REMARK 923 INTER-LIGAND FREE ENERGY PREDICTED BY IDOCK:   -7.73 KCAL/MOL
REMARK 924 INTRA-LIGAND FREE ENERGY PREDICTED BY IDOCK:    0.66 KCAL/MOL
REMARK 927      BINDING AFFINITY PREDICTED BY RF-SCORE:    0.00 PKD
ROOT
HETATM    1  C   UNL     1      -7.440   8.795  65.521  1.00  0.00    -0.086 C  
HETATM    2  S   UNL     1      -9.182   9.211  65.293  1.00  0.00    -0.125 SA 
HETATM    3  C   UNL     1      -8.944  10.968  65.638  1.00  0.00    -0.199 C  
HETATM    4  C   UNL     1      -8.065  11.277  66.844  1.00  0.00    -0.155 C  
HETATM    5  O   UNL     1      -6.042   9.750  69.476  1.00  0.00    -0.042 OA 
HETATM    6  CA  UNL     1      -7.224  10.375  67.432  1.00  0.00    -0.091 C  
HETATM    7  N   UNL     1      -7.073   9.133  66.880  1.00  0.00    -0.081 N  
HETATM    8  O   UNL     1      -6.168   7.517  68.276  1.00  0.00    -0.034 OA 
HETATM    9  C   UNL     1      -6.455  10.750  68.681  1.00  0.00    -0.055 C  
HETATM   10  CA  UNL     1      -7.096   7.311  65.873  1.00  0.00    -0.066 C  
HETATM   11  OXT UNL     1      -6.195  11.906  68.976  1.00  0.00    -0.065 OA 
HETATM   12  C   UNL     1      -6.634   7.911  67.233  1.00  0.00    -0.060 C  
ENDROOT
BRANCH   4  13
HETATM   13  C   UNL     1      -8.359  12.674  67.388  1.00  0.00    -0.184 C  
BRANCH  13  14
HETATM   14  S   UNL     1     -10.152  12.929  67.641  1.00  0.00    -0.225 SA 
BRANCH  14  15
HETATM   15  C   UNL     1     -10.435  14.167  66.465  1.00  0.00    -0.280 A  
HETATM   16  N   UNL     1      -9.717  15.256  66.312  1.00  0.00    -0.277 NA 
HETATM   17  N   UNL     1     -11.433  14.168  65.527  1.00  0.00    -0.317 NA 
HETATM   18  N   UNL     1     -10.256  15.921  65.241  1.00  0.00    -0.483 NA 
HETATM   19  N   UNL     1     -11.279  15.252  64.733  1.00  0.00    -0.410 NA 
BRANCH  17  20
HETATM   20  C   UNL     1     -12.431  13.168  65.219  1.00  0.00    -0.495 C  
HETATM   21  O   UNL     1     -11.026  12.230  63.438  1.00  0.00    -0.441 OA 
HETATM   22  C   UNL     1     -12.275  12.449  63.898  1.00  0.00    -0.513 C  
HETATM   23  O   UNL     1     -13.245  11.993  63.302  1.00  0.00    -0.628 OA 
ENDBRANCH  17  20
ENDBRANCH  14  15
ENDBRANCH  13  14
ENDBRANCH   4  13
BRANCH  10  24
HETATM   24  N   UNL     1      -8.203   6.329  65.942  1.00  0.00    -0.122 N  
HETATM   25  C   UNL     1      -8.963   6.033  67.042  1.00  0.00    -0.113 C  
HETATM   26  O   UNL     1      -9.807   5.140  66.962  1.00  0.00    -0.148 OA 
HETATM   27  H   UNL     1      -8.421   5.822  65.084  1.00  0.00     0.000 HD 
BRANCH  25  28
HETATM   28  C   UNL     1      -8.722   6.809  68.327  1.00  0.00    -0.123 C  
BRANCH  28  29
HETATM   29  C   UNL     1      -9.045   6.044  69.593  1.00  0.00    -0.139 A  
HETATM   30  C   UNL     1     -10.178   6.327  70.389  1.00  0.00    -0.248 A  
HETATM   31  C   UNL     1     -10.396   5.550  71.544  1.00  0.00    -0.282 A  
HETATM   32  C   UNL     1      -8.193   4.982  69.967  1.00  0.00    -0.081 A  
HETATM   33  C   UNL     1      -9.545   4.503  71.895  1.00  0.00    -0.211 A  
HETATM   34  C   UNL     1      -8.437   4.222  71.109  1.00  0.00    -0.105 A  
BRANCH  30  35
HETATM   35  C   UNL     1     -11.124   7.472  70.082  1.00  0.00    -0.231 C  
HETATM   36  N   UNL     1     -12.492   7.216  70.536  1.00  0.00    -0.614 NA 
HETATM   37  H1  UNL     1     -13.129   7.987  70.330  1.00  0.00     0.000 HD 
HETATM   38  H2  UNL     1     -12.509   6.984  71.529  1.00  0.00     0.000 HD 
ENDBRANCH  30  35
ENDBRANCH  28  29
ENDBRANCH  25  28
ENDBRANCH  10  24
TORSDOF 8
ENDMDL
MODEL      264
REMARK 921   NORMALIZED FREE ENERGY PREDICTED BY IDOCK:   -4.25 KCAL/MOL
REMARK 922        TOTAL FREE ENERGY PREDICTED BY IDOCK:   -7.06 KCAL/MOL
REMARK 923 INTER-LIGAND FREE ENERGY PREDICTED BY IDOCK:   -6.04 KCAL/MOL
REMARK 924 INTRA-LIGAND FREE ENERGY PREDICTED BY IDOCK:   -1.02 KCAL/MOL
REMARK 927      BINDING AFFINITY PREDICTED BY RF-SCORE:    0.00 PKD
ROOT
HETATM    1  C   UNL     1      -8.506  12.182  66.773  1.00  0.00    -0.138 C  
HETATM    2  S   UNL     1      -6.900  11.532  67.274  1.00  0.00    -0.129 SA 
HETATM    3  C   UNL     1      -7.475   9.822  67.375  1.00  0.00    -0.091 C  
HETATM    4  C   UNL     1      -8.814   9.631  68.077  1.00  0.00    -0.119 C  
HETATM    5  O   UNL     1     -11.561  11.410  69.703  1.00  0.00    -0.274 OA 
HETATM    6  CA  UNL     1      -9.707  10.638  68.312  1.00  0.00    -0.161 C  
HETATM    7  N   UNL     1      -9.456  11.891  67.828  1.00  0.00    -0.178 N  
HETATM    8  O   UNL     1     -10.664  13.609  68.812  1.00  0.00    -0.247 OA 
HETATM    9  C   UNL     1     -10.975  10.366  69.094  1.00  0.00    -0.241 C  
HETATM   10  CA  UNL     1      -8.783  13.698  67.042  1.00  0.00    -0.192 C  
HETATM   11  OXT UNL     1     -11.475   9.255  69.179  1.00  0.00     0.150 OA 
HETATM   12  C   UNL     1      -9.850  13.160  68.040  1.00  0.00    -0.231 C  
ENDROOT
BRANCH   4  13
HETATM   13  C   UNL     1      -8.953   8.204  68.605  1.00  0.00    -0.137 C  
BRANCH  13  14
HETATM   14  S   UNL     1     -10.089   7.216  67.567  1.00  0.00    -0.209 SA 
BRANCH  14  15
HETATM   15  C   UNL     1      -9.009   6.792  66.283  1.00  0.00    -0.152 A  
HETATM   16  N   UNL     1      -8.979   7.346  65.093  1.00  0.00     0.253 NA 
HETATM   17  N   UNL     1      -8.032   5.834  66.342  1.00  0.00    -0.101 NA 
HETATM   18  N   UNL     1      -7.945   6.750  64.419  1.00  0.00    -0.117 NA 
HETATM   19  N   UNL     1      -7.339   5.852  65.180  1.00  0.00    -0.073 NA 
BRANCH  17  20
HETATM   20  C   UNL     1      -7.599   5.003  67.443  1.00  0.00    -0.091 C  
HETATM   21  O   UNL     1      -5.773   6.556  67.971  1.00  0.00    -0.011 OA 
HETATM   22  C   UNL     1      -6.218   5.283  67.991  1.00  0.00    -0.034 C  
HETATM   23  O   UNL     1      -5.552   4.402  68.524  1.00  0.00    -0.012 OA 
ENDBRANCH  17  20
ENDBRANCH  14  15
ENDBRANCH  13  14
ENDBRANCH   4  13
BRANCH  10  24
HETATM   24  N   UNL     1      -7.700  14.518  67.632  1.00  0.00    -0.163 N  
HETATM   25  C   UNL     1      -7.310  15.767  67.229  1.00  0.00    -0.222 C  
HETATM   26  O   UNL     1      -6.343  16.297  67.776  1.00  0.00    -0.120 OA 
HETATM   27  H   UNL     1      -7.193  14.111  68.418  1.00  0.00     0.000 HD 
BRANCH  25  28
HETATM   28  C   UNL     1      -8.079  16.445  66.105  1.00  0.00    -0.193 C  
BRANCH  28  29
HETATM   29  C   UNL     1      -8.739  17.750  66.495  1.00  0.00    -0.281 A  
HETATM   30  C   UNL     1      -8.139  19.008  66.266  1.00  0.00    -0.298 A  
HETATM   31  C   UNL     1      -8.840  20.167  66.657  1.00  0.00    -0.382 A  
HETATM   32  C   UNL     1     -10.023  17.700  67.079  1.00  0.00    -0.320 A  
HETATM   33  C   UNL     1     -10.109  20.097  67.229  1.00  0.00    -0.572 A  
HETATM   34  C   UNL     1     -10.700  18.861  67.447  1.00  0.00    -0.519 A  
BRANCH  30  35
HETATM   35  C   UNL     1      -6.747  19.153  65.678  1.00  0.00    -0.279 C  
HETATM   36  N   UNL     1      -5.689  18.941  66.666  1.00  0.00    -0.157 NA 
HETATM   37  H1  UNL     1      -4.752  19.038  66.271  1.00  0.00     0.000 HD 
HETATM   38  H2  UNL     1      -5.798  18.038  67.129  1.00  0.00     0.000 HD 
ENDBRANCH  30  35
ENDBRANCH  28  29
ENDBRANCH  25  28
ENDBRANCH  10  24
TORSDOF 8
ENDMDL
MODEL      265
REMARK 921   NORMALIZED FREE ENERGY PREDICTED BY IDOCK:   -4.23 KCAL/MOL
REMARK 922        TOTAL FREE ENERGY PREDICTED BY IDOCK:   -7.04 KCAL/MOL
REMARK 923 INTER-LIGAND FREE ENERGY PREDICTED BY IDOCK:   -8.14 KCAL/MOL
REMARK 924 INTRA-LIGAND FREE ENERGY PREDICTED BY IDOCK:    1.10 KCAL/MOL
REMARK 927      BINDING AFFINITY PREDICTED BY RF-SCORE:    0.00 PKD
ROOT
HETATM    1  C   UNL     1     -11.553   7.936  71.248  1.00  0.00    -0.276 C  
HETATM    2  S   UNL     1     -10.436   9.353  71.220  1.00  0.00    -0.258 SA 
HETATM    3  C   UNL     1     -10.653   9.657  69.452  1.00  0.00    -0.225 C  
HETATM    4  C   UNL     1     -10.600   8.415  68.571  1.00  0.00    -0.149 C  
HETATM    5  O   UNL     1     -10.244   4.778  68.636  1.00  0.00    -0.106 OA 
HETATM    6  CA  UNL     1     -10.734   7.137  69.038  1.00  0.00    -0.184 C  
HETATM    7  N   UNL     1     -11.018   6.927  70.358  1.00  0.00    -0.259 N  
HETATM    8  O   UNL     1     -10.584   4.790  71.150  1.00  0.00    -0.110 OA 
HETATM    9  C   UNL     1     -10.580   5.961  68.097  1.00  0.00    -0.244 C  
HETATM   10  CA  UNL     1     -11.374   6.904  72.410  1.00  0.00    -0.271 C  
HETATM   11  OXT UNL     1     -10.758   6.050  66.892  1.00  0.00    -0.286 OA 
HETATM   12  C   UNL     1     -10.949   5.936  71.267  1.00  0.00    -0.259 C  
ENDROOT
BRANCH   4  13
HETATM   13  C   UNL     1     -10.234   8.782  67.134  1.00  0.00    -0.276 C  
BRANCH  13  14
HETATM   14  S   UNL     1     -10.043  10.589  66.934  1.00  0.00    -0.225 SA 
BRANCH  14  15
HETATM   15  C   UNL     1      -9.819  10.667  65.220  1.00  0.00    -0.275 A  
HETATM   16  N   UNL     1      -9.195   9.772  64.488  1.00  0.00    -0.256 NA 
HETATM   17  N   UNL     1     -10.277  11.661  64.397  1.00  0.00    -0.280 NA 
HETATM   18  N   UNL     1      -9.301  10.200  63.190  1.00  0.00    -0.296 NA 
HETATM   19  N   UNL     1      -9.986  11.330  63.118  1.00  0.00    -0.361 NA 
BRANCH  17  20
HETATM   20  C   UNL     1     -11.087  12.821  64.689  1.00  0.00    -0.318 C  
HETATM   21  O   UNL     1     -12.876  12.016  63.214  1.00  0.00    -0.732 OA 
HETATM   22  C   UNL     1     -12.250  13.080  63.758  1.00  0.00    -0.460 C  
HETATM   23  O   UNL     1     -12.677  14.214  63.570  1.00  0.00    -0.794 OA 
ENDBRANCH  17  20
ENDBRANCH  14  15
ENDBRANCH  13  14
ENDBRANCH   4  13
BRANCH  10  24
HETATM   24  N   UNL     1     -10.348   7.177  73.442  1.00  0.00    -0.311 N  
HETATM   25  C   UNL     1      -9.019   6.854  73.375  1.00  0.00    -0.133 C  
HETATM   26  O   UNL     1      -8.298   7.086  74.346  1.00  0.00    -0.147 OA 
HETATM   27  H   UNL     1     -10.662   7.653  74.287  1.00  0.00     0.000 HD 
BRANCH  25  28
HETATM   28  C   UNL     1      -8.487   6.205  72.107  1.00  0.00    -0.116 C  
BRANCH  28  29
HETATM   29  C   UNL     1      -7.600   7.100  71.268  1.00  0.00    -0.081 A  
HETATM   30  C   UNL     1      -6.983   6.661  70.075  1.00  0.00    -0.062 A  
HETATM   31  C   UNL     1      -6.183   7.575  69.360  1.00  0.00    -0.031 A  
HETATM   32  C   UNL     1      -7.417   8.436  71.683  1.00  0.00    -0.118 A  
HETATM   33  C   UNL     1      -6.017   8.893  69.784  1.00  0.00    -0.032 A  
HETATM   34  C   UNL     1      -6.629   9.323  70.951  1.00  0.00    -0.089 A  
BRANCH  30  35
HETATM   35  C   UNL     1      -7.096   5.233  69.576  1.00  0.00    -0.060 C  
HETATM   36  N   UNL     1      -6.684   5.085  68.179  1.00  0.00    -0.053 NA 
HETATM   37  H1  UNL     1      -6.760   4.124  67.843  1.00  0.00     0.000 HD 
HETATM   38  H2  UNL     1      -5.742   5.449  68.036  1.00  0.00     0.000 HD 
ENDBRANCH  30  35
ENDBRANCH  28  29
ENDBRANCH  25  28
ENDBRANCH  10  24
TORSDOF 8
ENDMDL
MODEL      266
REMARK 921   NORMALIZED FREE ENERGY PREDICTED BY IDOCK:   -4.21 KCAL/MOL
REMARK 922        TOTAL FREE ENERGY PREDICTED BY IDOCK:   -7.00 KCAL/MOL
REMARK 923 INTER-LIGAND FREE ENERGY PREDICTED BY IDOCK:   -6.61 KCAL/MOL
REMARK 924 INTRA-LIGAND FREE ENERGY PREDICTED BY IDOCK:   -0.39 KCAL/MOL
REMARK 927      BINDING AFFINITY PREDICTED BY RF-SCORE:    0.00 PKD
ROOT
HETATM    1  C   UNL     1     -10.465   9.350  68.534  1.00  0.00    -0.208 C  
HETATM    2  S   UNL     1      -9.811   9.250  66.855  1.00  0.00    -0.234 SA 
HETATM    3  C   UNL     1     -10.233   7.505  66.653  1.00  0.00    -0.190 C  
HETATM    4  C   UNL     1      -9.885   6.615  67.840  1.00  0.00    -0.138 C  
HETATM    5  O   UNL     1      -8.487   6.629  71.216  1.00  0.00    -0.124 OA 
HETATM    6  CA  UNL     1      -9.610   7.081  69.094  1.00  0.00    -0.149 C  
HETATM    7  N   UNL     1      -9.725   8.417  69.359  1.00  0.00    -0.175 N  
HETATM    8  O   UNL     1      -8.636   9.161  71.267  1.00  0.00    -0.278 OA 
HETATM    9  C   UNL     1      -9.190   6.123  70.189  1.00  0.00    -0.155 C  
HETATM   10  CA  UNL     1      -9.912  10.489  69.454  1.00  0.00    -0.196 C  
HETATM   11  OXT UNL     1      -9.471   4.936  70.173  1.00  0.00    -0.144 OA 
HETATM   12  C   UNL     1      -9.308   9.311  70.274  1.00  0.00    -0.239 C  
ENDROOT
BRANCH   4  13
HETATM   13  C   UNL     1      -9.745   5.157  67.404  1.00  0.00    -0.152 C  
BRANCH  13  14
HETATM   14  S   UNL     1      -8.931   5.023  65.772  1.00  0.00    -0.148 SA 
BRANCH  14  15
HETATM   15  C   UNL     1      -7.630   6.140  66.008  1.00  0.00    -0.087 A  
HETATM   16  N   UNL     1      -6.853   6.197  67.066  1.00  0.00    -0.064 NA 
HETATM   17  N   UNL     1      -7.226   7.099  65.118  1.00  0.00    -0.070 NA 
HETATM   18  N   UNL     1      -5.933   7.181  66.810  1.00  0.00    -0.033 NA 
HETATM   19  N   UNL     1      -6.128   7.713  65.614  1.00  0.00    -0.038 NA 
BRANCH  17  20
HETATM   20  C   UNL     1      -7.691   7.393  63.781  1.00  0.00    -0.125 C  
HETATM   21  O   UNL     1      -7.607   9.806  64.221  1.00  0.00    -0.123 OA 
HETATM   22  C   UNL     1      -8.190   8.799  63.539  1.00  0.00    -0.164 C  
HETATM   23  O   UNL     1      -9.036   9.038  62.684  1.00  0.00    -0.126 OA 
ENDBRANCH  17  20
ENDBRANCH  14  15
ENDBRANCH  13  14
ENDBRANCH   4  13
BRANCH  10  24
HETATM   24  N   UNL     1      -8.938  11.446  68.881  1.00  0.00    -0.372 N  
HETATM   25  C   UNL     1      -9.200  12.421  67.956  1.00  0.00    -0.203 C  
HETATM   26  O   UNL     1      -8.268  13.099  67.523  1.00  0.00    -0.159 OA 
HETATM   27  H   UNL     1      -7.975  11.371  69.208  1.00  0.00     0.000 HD 
BRANCH  25  28
HETATM   28  C   UNL     1     -10.633  12.618  67.488  1.00  0.00    -0.236 C  
BRANCH  28  29
HETATM   29  C   UNL     1     -10.801  13.653  66.397  1.00  0.00    -0.290 A  
HETATM   30  C   UNL     1     -10.899  13.313  65.029  1.00  0.00    -0.335 A  
HETATM   31  C   UNL     1     -11.063  14.351  64.090  1.00  0.00     0.125 A  
HETATM   32  C   UNL     1     -10.896  15.010  66.773  1.00  0.00    -0.318 A  
HETATM   33  C   UNL     1     -11.160  15.685  64.482  1.00  0.00    -0.303 A  
HETATM   34  C   UNL     1     -11.069  16.017  65.825  1.00  0.00    -0.032 A  
BRANCH  30  35
HETATM   35  C   UNL     1     -10.769  11.885  64.533  1.00  0.00    -0.312 C  
HETATM   36  N   UNL     1     -11.468  11.657  63.267  1.00  0.00    -0.815 NA 
HETATM   37  H1  UNL     1     -11.381  10.697  62.933  1.00  0.00     0.000 HD 
HETATM   38  H2  UNL     1     -11.160  12.321  62.556  1.00  0.00     0.000 HD 
ENDBRANCH  30  35
ENDBRANCH  28  29
ENDBRANCH  25  28
ENDBRANCH  10  24
TORSDOF 8
ENDMDL
MODEL      267
REMARK 921   NORMALIZED FREE ENERGY PREDICTED BY IDOCK:   -4.20 KCAL/MOL
REMARK 922        TOTAL FREE ENERGY PREDICTED BY IDOCK:   -6.98 KCAL/MOL
REMARK 923 INTER-LIGAND FREE ENERGY PREDICTED BY IDOCK:   -7.62 KCAL/MOL
REMARK 924 INTRA-LIGAND FREE ENERGY PREDICTED BY IDOCK:    0.63 KCAL/MOL
REMARK 927      BINDING AFFINITY PREDICTED BY RF-SCORE:    0.00 PKD
ROOT
HETATM    1  C   UNL     1      -8.478   8.390  71.689  1.00  0.00    -0.163 C  
HETATM    2  S   UNL     1      -8.036   9.091  70.086  1.00  0.00    -0.131 SA 
HETATM    3  C   UNL     1      -9.450  10.215  70.040  1.00  0.00    -0.036 C  
HETATM    4  C   UNL     1     -10.781   9.596  70.447  1.00  0.00    -0.356 C  
HETATM    5  O   UNL     1     -12.351   6.517  71.634  1.00  0.00    -0.343 OA 
HETATM    6  CA  UNL     1     -10.903   8.418  71.129  1.00  0.00    -0.237 C  
HETATM    7  N   UNL     1      -9.781   7.769  71.562  1.00  0.00    -0.161 N  
HETATM    8  O   UNL     1     -10.061   5.532  72.107  1.00  0.00    -0.177 OA 
HETATM    9  C   UNL     1     -12.273   7.840  71.414  1.00  0.00    -0.319 C  
HETATM   10  CA  UNL     1      -7.916   6.971  72.032  1.00  0.00    -0.094 C  
HETATM   11  OXT UNL     1     -13.283   8.523  71.458  1.00  0.00    -0.329 OA 
HETATM   12  C   UNL     1      -9.411   6.542  71.971  1.00  0.00    -0.147 C  
ENDROOT
BRANCH   4  13
HETATM   13  C   UNL     1     -11.951  10.390  69.867  1.00  0.00    -0.215 C  
BRANCH  13  14
HETATM   14  S   UNL     1     -11.500  12.141  69.597  1.00  0.00    -0.191 SA 
BRANCH  14  15
HETATM   15  C   UNL     1     -12.380  12.868  70.898  1.00  0.00    -0.275 A  
HETATM   16  N   UNL     1     -13.342  12.296  71.585  1.00  0.00    -0.268 NA 
HETATM   17  N   UNL     1     -12.180  14.129  71.394  1.00  0.00    -0.337 NA 
HETATM   18  N   UNL     1     -13.716  13.202  72.544  1.00  0.00    -0.668 NA 
HETATM   19  N   UNL     1     -12.993  14.307  72.460  1.00  0.00    -0.412 NA 
BRANCH  17  20
HETATM   20  C   UNL     1     -11.194  15.127  71.047  1.00  0.00    -0.285 C  
HETATM   21  O   UNL     1     -12.469  15.777  69.053  1.00  0.00    -0.055 OA 
HETATM   22  C   UNL     1     -11.258  15.673  69.639  1.00  0.00    -0.310 C  
HETATM   23  O   UNL     1     -10.257  16.096  69.072  1.00  0.00    -0.222 OA 
ENDBRANCH  17  20
ENDBRANCH  14  15
ENDBRANCH  13  14
ENDBRANCH   4  13
BRANCH  10  24
HETATM   24  N   UNL     1      -7.014   6.316  71.056  1.00  0.00    -0.066 N  
HETATM   25  C   UNL     1      -7.389   5.629  69.933  1.00  0.00    -0.070 C  
HETATM   26  O   UNL     1      -6.524   5.080  69.251  1.00  0.00    -0.036 OA 
HETATM   27  H   UNL     1      -6.013   6.384  71.239  1.00  0.00     0.000 HD 
BRANCH  25  28
HETATM   28  C   UNL     1      -8.866   5.558  69.579  1.00  0.00    -0.115 C  
BRANCH  28  29
HETATM   29  C   UNL     1      -9.159   4.955  68.222  1.00  0.00    -0.138 A  
HETATM   30  C   UNL     1      -9.477   5.738  67.090  1.00  0.00    -0.121 A  
HETATM   31  C   UNL     1      -9.724   5.081  65.868  1.00  0.00    -0.182 A  
HETATM   32  C   UNL     1      -9.073   3.553  68.082  1.00  0.00    -0.200 A  
HETATM   33  C   UNL     1      -9.630   3.695  65.750  1.00  0.00    -0.143 A  
HETATM   34  C   UNL     1      -9.311   2.928  66.860  1.00  0.00    -0.112 A  
BRANCH  30  35
HETATM   35  C   UNL     1      -9.627   7.247  67.158  1.00  0.00    -0.160 C  
HETATM   36  N   UNL     1     -11.003   7.669  67.423  1.00  0.00    -0.546 NA 
HETATM   37  H1  UNL     1     -11.104   8.684  67.469  1.00  0.00     0.000 HD 
HETATM   38  H2  UNL     1     -11.364   7.227  68.270  1.00  0.00     0.000 HD 
ENDBRANCH  30  35
ENDBRANCH  28  29
ENDBRANCH  25  28
ENDBRANCH  10  24
TORSDOF 8
ENDMDL
MODEL      268
REMARK 921   NORMALIZED FREE ENERGY PREDICTED BY IDOCK:   -4.18 KCAL/MOL
REMARK 922        TOTAL FREE ENERGY PREDICTED BY IDOCK:   -6.95 KCAL/MOL
REMARK 923 INTER-LIGAND FREE ENERGY PREDICTED BY IDOCK:   -7.16 KCAL/MOL
REMARK 924 INTRA-LIGAND FREE ENERGY PREDICTED BY IDOCK:    0.20 KCAL/MOL
REMARK 927      BINDING AFFINITY PREDICTED BY RF-SCORE:    0.00 PKD
ROOT
HETATM    1  C   UNL     1      -9.511   8.047  73.304  1.00  0.00    -0.266 C  
HETATM    2  S   UNL     1      -8.601   8.601  71.848  1.00  0.00    -0.112 SA 
HETATM    3  C   UNL     1      -9.914   9.706  71.284  1.00  0.00     0.111 C  
HETATM    4  C   UNL     1     -11.319   9.118  71.332  1.00  0.00    -0.414 C  
HETATM    5  O   UNL     1     -13.232   6.150  72.274  1.00  0.00     0.068 OA 
HETATM    6  CA  UNL     1     -11.661   8.007  72.051  1.00  0.00    -0.316 C  
HETATM    7  N   UNL     1     -10.730   7.409  72.854  1.00  0.00    -0.305 N  
HETATM    8  O   UNL     1     -11.205   5.229  73.490  1.00  0.00    -0.296 OA 
HETATM    9  C   UNL     1     -13.065   7.447  71.968  1.00  0.00    -0.149 C  
HETATM   10  CA  UNL     1      -9.104   6.670  73.925  1.00  0.00    -0.160 C  
HETATM   11  OXT UNL     1     -14.030   8.124  71.649  1.00  0.00    -0.376 OA 
HETATM   12  C   UNL     1     -10.523   6.227  73.462  1.00  0.00    -0.271 C  
ENDROOT
BRANCH   4  13
HETATM   13  C   UNL     1     -12.249   9.847  70.363  1.00  0.00    -0.114 C  
BRANCH  13  14
HETATM   14  S   UNL     1     -11.415  11.277  69.587  1.00  0.00    -0.320 SA 
BRANCH  14  15
HETATM   15  C   UNL     1     -10.968  10.564  68.075  1.00  0.00    -0.290 A  
HETATM   16  N   UNL     1     -10.624   9.309  67.893  1.00  0.00    -0.246 NA 
HETATM   17  N   UNL     1     -10.929  11.206  66.867  1.00  0.00    -0.285 NA 
HETATM   18  N   UNL     1     -10.406   9.165  66.547  1.00  0.00    -0.241 NA 
HETATM   19  N   UNL     1     -10.622  10.304  65.907  1.00  0.00    -0.084 NA 
BRANCH  17  20
HETATM   20  C   UNL     1     -11.295  12.559  66.512  1.00  0.00    -0.334 C  
HETATM   21  O   UNL     1      -9.004  13.345  66.914  1.00  0.00    -0.229 OA 
HETATM   22  C   UNL     1     -10.319  13.644  66.910  1.00  0.00    -0.262 C  
HETATM   23  O   UNL     1     -10.696  14.789  67.136  1.00  0.00    -0.287 OA 
ENDBRANCH  17  20
ENDBRANCH  14  15
ENDBRANCH  13  14
ENDBRANCH   4  13
BRANCH  10  24
HETATM   24  N   UNL     1      -7.968   5.935  73.323  1.00  0.00    -0.109 N  
HETATM   25  C   UNL     1      -7.988   5.217  72.157  1.00  0.00    -0.112 C  
HETATM   26  O   UNL     1      -6.977   4.601  71.818  1.00  0.00    -0.047 OA 
HETATM   27  H   UNL     1      -7.082   5.968  73.827  1.00  0.00     0.000 HD 
BRANCH  25  28
HETATM   28  C   UNL     1      -9.266   5.195  71.334  1.00  0.00    -0.180 C  
BRANCH  28  29
HETATM   29  C   UNL     1      -9.319   4.103  70.286  1.00  0.00    -0.232 A  
HETATM   30  C   UNL     1      -9.220   4.368  68.902  1.00  0.00    -0.199 A  
HETATM   31  C   UNL     1      -9.271   3.281  68.006  1.00  0.00    -0.243 A  
HETATM   32  C   UNL     1      -9.437   2.766  70.721  1.00  0.00    -0.219 A  
HETATM   33  C   UNL     1      -9.383   1.966  68.456  1.00  0.00    -0.243 A  
HETATM   34  C   UNL     1      -9.474   1.708  69.815  1.00  0.00    -0.124 A  
BRANCH  30  35
HETATM   35  C   UNL     1      -9.129   5.777  68.345  1.00  0.00    -0.118 C  
HETATM   36  N   UNL     1     -10.265   6.124  67.490  1.00  0.00    -0.156 NA 
HETATM   37  H1  UNL     1     -10.204   7.072  67.116  1.00  0.00     0.000 HD 
HETATM   38  H2  UNL     1     -11.148   5.981  67.981  1.00  0.00     0.000 HD 
ENDBRANCH  30  35
ENDBRANCH  28  29
ENDBRANCH  25  28
ENDBRANCH  10  24
TORSDOF 8
ENDMDL
MODEL      269
REMARK 921   NORMALIZED FREE ENERGY PREDICTED BY IDOCK:   -4.17 KCAL/MOL
REMARK 922        TOTAL FREE ENERGY PREDICTED BY IDOCK:   -6.94 KCAL/MOL
REMARK 923 INTER-LIGAND FREE ENERGY PREDICTED BY IDOCK:   -6.01 KCAL/MOL
REMARK 924 INTRA-LIGAND FREE ENERGY PREDICTED BY IDOCK:   -0.93 KCAL/MOL
REMARK 927      BINDING AFFINITY PREDICTED BY RF-SCORE:    0.00 PKD
ROOT
HETATM    1  C   UNL     1      -9.186   9.673  67.636  1.00  0.00    -0.130 C  
HETATM    2  S   UNL     1     -10.524  10.239  68.707  1.00  0.00    -0.217 SA 
HETATM    3  C   UNL     1     -10.546  11.909  68.020  1.00  0.00    -0.207 C  
HETATM    4  C   UNL     1      -9.175  12.548  67.830  1.00  0.00    -0.198 C  
HETATM    5  O   UNL     1      -5.585  11.964  68.181  1.00  0.00    -0.043 OA 
HETATM    6  CA  UNL     1      -7.999  11.853  67.824  1.00  0.00    -0.144 C  
HETATM    7  N   UNL     1      -8.020  10.488  67.908  1.00  0.00    -0.105 N  
HETATM    8  O   UNL     1      -6.023   9.490  68.535  1.00  0.00    -0.043 OA 
HETATM    9  C   UNL     1      -6.679  12.587  67.714  1.00  0.00    -0.123 C  
HETATM   10  CA  UNL     1      -8.350   8.443  68.120  1.00  0.00    -0.128 C  
HETATM   11  OXT UNL     1      -6.579  13.697  67.217  1.00  0.00    -0.254 OA 
HETATM   12  C   UNL     1      -7.189   9.477  68.217  1.00  0.00    -0.076 C  
ENDROOT
BRANCH   4  13
HETATM   13  C   UNL     1      -9.285  14.072  67.793  1.00  0.00    -0.195 C  
BRANCH  13  14
HETATM   14  S   UNL     1     -11.025  14.612  67.645  1.00  0.00    -0.303 SA 
BRANCH  14  15
HETATM   15  C   UNL     1     -10.821  16.312  67.901  1.00  0.00    -0.330 A  
HETATM   16  N   UNL     1     -10.873  17.237  66.970  1.00  0.00    -0.132 NA 
HETATM   17  N   UNL     1     -10.596  16.919  69.107  1.00  0.00    -0.338 NA 
HETATM   18  N   UNL     1     -10.714  18.436  67.615  1.00  0.00    -0.409 NA 
HETATM   19  N   UNL     1     -10.580  18.259  68.920  1.00  0.00    -0.000 NA 
BRANCH  17  20
HETATM   20  C   UNL     1     -10.538  16.363  70.440  1.00  0.00     0.089 C  
HETATM   21  O   UNL     1     -12.872  15.616  70.292  1.00  0.00    -0.351 OA 
HETATM   22  C   UNL     1     -11.864  16.031  71.087  1.00  0.00    -0.420 C  
HETATM   23  O   UNL     1     -12.002  16.049  72.305  1.00  0.00    -0.454 OA 
ENDBRANCH  17  20
ENDBRANCH  14  15
ENDBRANCH  13  14
ENDBRANCH   4  13
BRANCH  10  24
HETATM   24  N   UNL     1      -8.737   7.784  69.389  1.00  0.00    -0.135 N  
HETATM   25  C   UNL     1      -8.485   6.485  69.743  1.00  0.00    -0.131 C  
HETATM   26  O   UNL     1      -8.931   6.059  70.808  1.00  0.00    -0.146 OA 
HETATM   27  H   UNL     1      -9.242   8.355  70.067  1.00  0.00     0.000 HD 
BRANCH  25  28
HETATM   28  C   UNL     1      -7.676   5.613  68.795  1.00  0.00    -0.089 C  
BRANCH  28  29
HETATM   29  C   UNL     1      -8.204   4.204  68.635  1.00  0.00    -0.088 A  
HETATM   30  C   UNL     1      -9.230   3.871  67.723  1.00  0.00    -0.206 A  
HETATM   31  C   UNL     1      -9.644   2.526  67.642  1.00  0.00     0.004 A  
HETATM   32  C   UNL     1      -7.616   3.179  69.408  1.00  0.00    -0.047 A  
HETATM   33  C   UNL     1      -9.048   1.528  68.411  1.00  0.00    -0.186 A  
HETATM   34  C   UNL     1      -8.037   1.855  69.301  1.00  0.00    -0.060 A  
BRANCH  30  35
HETATM   35  C   UNL     1      -9.942   4.913  66.881  1.00  0.00    -0.217 C  
HETATM   36  N   UNL     1      -9.382   5.035  65.534  1.00  0.00    -0.200 NA 
HETATM   37  H1  UNL     1      -9.861   5.736  64.968  1.00  0.00     0.000 HD 
HETATM   38  H2  UNL     1      -9.368   4.131  65.062  1.00  0.00     0.000 HD 
ENDBRANCH  30  35
ENDBRANCH  28  29
ENDBRANCH  25  28
ENDBRANCH  10  24
TORSDOF 8
ENDMDL
MODEL      270
REMARK 921   NORMALIZED FREE ENERGY PREDICTED BY IDOCK:   -4.16 KCAL/MOL
REMARK 922        TOTAL FREE ENERGY PREDICTED BY IDOCK:   -6.92 KCAL/MOL
REMARK 923 INTER-LIGAND FREE ENERGY PREDICTED BY IDOCK:   -6.09 KCAL/MOL
REMARK 924 INTRA-LIGAND FREE ENERGY PREDICTED BY IDOCK:   -0.83 KCAL/MOL
REMARK 927      BINDING AFFINITY PREDICTED BY RF-SCORE:    0.00 PKD
ROOT
HETATM    1  C   UNL     1      -8.382  11.464  68.037  1.00  0.00    -0.143 C  
HETATM    2  S   UNL     1      -6.996  11.473  69.192  1.00  0.00    -0.097 SA 
HETATM    3  C   UNL     1      -6.870   9.672  69.261  1.00  0.00    -0.050 C  
HETATM    4  C   UNL     1      -8.197   8.937  69.408  1.00  0.00    -0.107 C  
HETATM    5  O   UNL     1     -11.814   9.413  69.626  1.00  0.00     0.184 OA 
HETATM    6  CA  UNL     1      -9.417   9.499  69.160  1.00  0.00    -0.163 C  
HETATM    7  N   UNL     1      -9.487  10.773  68.668  1.00  0.00    -0.180 N  
HETATM    8  O   UNL     1     -11.539  11.828  68.901  1.00  0.00    -0.256 OA 
HETATM    9  C   UNL     1     -10.686   8.714  69.417  1.00  0.00    -0.158 C  
HETATM   10  CA  UNL     1      -9.294  12.735  67.998  1.00  0.00    -0.213 C  
HETATM   11  OXT UNL     1     -10.717   7.494  69.431  1.00  0.00    -0.229 OA 
HETATM   12  C   UNL     1     -10.381  11.773  68.562  1.00  0.00    -0.217 C  
ENDROOT
BRANCH   4  13
HETATM   13  C   UNL     1      -7.985   7.546  70.004  1.00  0.00    -0.112 C  
BRANCH  13  14
HETATM   14  S   UNL     1      -6.998   6.485  68.888  1.00  0.00    -0.082 SA 
BRANCH  14  15
HETATM   15  C   UNL     1      -8.260   5.894  67.862  1.00  0.00    -0.108 A  
HETATM   16  N   UNL     1      -8.566   6.366  66.676  1.00  0.00    -0.117 NA 
HETATM   17  N   UNL     1      -9.095   4.845  68.143  1.00  0.00    -0.110 NA 
HETATM   18  N   UNL     1      -9.580   5.575  66.200  1.00  0.00    -0.156 NA 
HETATM   19  N   UNL     1      -9.887   4.625  67.069  1.00  0.00    -0.198 NA 
BRANCH  17  20
HETATM   20  C   UNL     1      -9.119   3.942  69.271  1.00  0.00    -0.132 C  
HETATM   21  O   UNL     1      -7.622   2.374  68.119  1.00  0.00    -0.054 OA 
HETATM   22  C   UNL     1      -8.615   2.539  69.017  1.00  0.00    -0.073 C  
HETATM   23  O   UNL     1      -9.027   1.585  69.669  1.00  0.00    -0.065 OA 
ENDBRANCH  17  20
ENDBRANCH  14  15
ENDBRANCH  13  14
ENDBRANCH   4  13
BRANCH  10  24
HETATM   24  N   UNL     1      -8.936  13.884  68.861  1.00  0.00    -0.385 N  
HETATM   25  C   UNL     1      -8.325  15.043  68.464  1.00  0.00    -0.161 C  
HETATM   26  O   UNL     1      -8.030  15.884  69.313  1.00  0.00    -0.222 OA 
HETATM   27  H   UNL     1      -9.168  13.804  69.852  1.00  0.00     0.000 HD 
BRANCH  25  28
HETATM   28  C   UNL     1      -8.021  15.240  66.987  1.00  0.00    -0.243 C  
BRANCH  28  29
HETATM   29  C   UNL     1      -9.244  15.417  66.112  1.00  0.00    -0.362 A  
HETATM   30  C   UNL     1      -9.927  16.649  65.994  1.00  0.00    -0.346 A  
HETATM   31  C   UNL     1     -11.050  16.713  65.145  1.00  0.00    -0.086 A  
HETATM   32  C   UNL     1      -9.693  14.310  65.360  1.00  0.00    -0.135 A  
HETATM   33  C   UNL     1     -11.475  15.609  64.407  1.00  0.00    -0.266 A  
HETATM   34  C   UNL     1     -10.800  14.403  64.520  1.00  0.00    -0.271 A  
BRANCH  30  35
HETATM   35  C   UNL     1      -9.536  17.878  66.793  1.00  0.00    -0.305 C  
HETATM   36  N   UNL     1      -8.463  18.648  66.163  1.00  0.00    -0.472 NA 
HETATM   37  H1  UNL     1      -8.200  19.475  66.701  1.00  0.00     0.000 HD 
HETATM   38  H2  UNL     1      -8.708  18.898  65.205  1.00  0.00     0.000 HD 
ENDBRANCH  30  35
ENDBRANCH  28  29
ENDBRANCH  25  28
ENDBRANCH  10  24
TORSDOF 8
ENDMDL
MODEL      271
REMARK 921   NORMALIZED FREE ENERGY PREDICTED BY IDOCK:   -4.13 KCAL/MOL
REMARK 922        TOTAL FREE ENERGY PREDICTED BY IDOCK:   -6.88 KCAL/MOL
REMARK 923 INTER-LIGAND FREE ENERGY PREDICTED BY IDOCK:   -7.96 KCAL/MOL
REMARK 924 INTRA-LIGAND FREE ENERGY PREDICTED BY IDOCK:    1.08 KCAL/MOL
REMARK 927      BINDING AFFINITY PREDICTED BY RF-SCORE:    0.00 PKD
ROOT
HETATM    1  C   UNL     1     -10.485   6.322  71.102  1.00  0.00    -0.223 C  
HETATM    2  S   UNL     1     -11.501   6.280  69.611  1.00  0.00    -0.178 SA 
HETATM    3  C   UNL     1     -10.095   6.052  68.500  1.00  0.00    -0.161 C  
HETATM    4  C   UNL     1      -8.896   6.950  68.782  1.00  0.00    -0.132 C  
HETATM    5  O   UNL     1      -7.623   9.533  71.031  1.00  0.00    -0.311 OA 
HETATM    6  CA  UNL     1      -8.702   7.625  69.954  1.00  0.00    -0.139 C  
HETATM    7  N   UNL     1      -9.574   7.442  70.991  1.00  0.00    -0.162 N  
HETATM    8  O   UNL     1      -9.533   9.075  72.637  1.00  0.00    -0.142 OA 
HETATM    9  C   UNL     1      -7.523   8.562  70.108  1.00  0.00    -0.060 C  
HETATM   10  CA  UNL     1     -11.086   7.029  72.361  1.00  0.00    -0.259 C  
HETATM   11  OXT UNL     1      -6.505   8.460  69.443  1.00  0.00    -0.037 OA 
HETATM   12  C   UNL     1      -9.940   8.057  72.130  1.00  0.00    -0.225 C  
ENDROOT
BRANCH   4  13
HETATM   13  C   UNL     1      -8.026   7.105  67.535  1.00  0.00    -0.113 C  
BRANCH  13  14
HETATM   14  S   UNL     1      -9.046   7.336  66.034  1.00  0.00    -0.012 SA 
BRANCH  14  15
HETATM   15  C   UNL     1      -8.331   6.134  65.014  1.00  0.00    -0.112 A  
HETATM   16  N   UNL     1      -7.387   6.347  64.126  1.00  0.00    -0.066 NA 
HETATM   17  N   UNL     1      -8.643   4.800  65.008  1.00  0.00    -0.137 NA 
HETATM   18  N   UNL     1      -7.084   5.122  63.591  1.00  0.00    -0.047 NA 
HETATM   19  N   UNL     1      -7.817   4.168  64.143  1.00  0.00    -0.083 NA 
BRANCH  17  20
HETATM   20  C   UNL     1      -9.547   4.045  65.845  1.00  0.00    -0.193 C  
HETATM   21  O   UNL     1      -7.714   3.405  67.347  1.00  0.00    -0.076 OA 
HETATM   22  C   UNL     1      -8.911   3.078  66.818  1.00  0.00    -0.159 C  
HETATM   23  O   UNL     1      -9.500   2.069  67.192  1.00  0.00    -0.043 OA 
ENDBRANCH  17  20
ENDBRANCH  14  15
ENDBRANCH  13  14
ENDBRANCH   4  13
BRANCH  10  24
HETATM   24  N   UNL     1     -12.464   7.566  72.276  1.00  0.00    -0.499 N  
HETATM   25  C   UNL     1     -12.849   8.730  71.666  1.00  0.00    -0.348 C  
HETATM   26  O   UNL     1     -14.028   9.080  71.737  1.00  0.00    -0.392 OA 
HETATM   27  H   UNL     1     -13.200   7.013  72.715  1.00  0.00     0.000 HD 
BRANCH  25  28
HETATM   28  C   UNL     1     -11.800   9.556  70.939  1.00  0.00    -0.385 C  
BRANCH  28  29
HETATM   29  C   UNL     1     -12.099  11.039  70.878  1.00  0.00    -0.444 A  
HETATM   30  C   UNL     1     -11.690  11.857  69.802  1.00  0.00    -0.403 A  
HETATM   31  C   UNL     1     -12.026  13.226  69.835  1.00  0.00    -0.400 A  
HETATM   32  C   UNL     1     -12.847  11.612  71.929  1.00  0.00    -0.354 A  
HETATM   33  C   UNL     1     -12.770  13.772  70.880  1.00  0.00    -0.394 A  
HETATM   34  C   UNL     1     -13.175  12.966  71.932  1.00  0.00    -0.521 A  
BRANCH  30  35
HETATM   35  C   UNL     1     -10.851  11.333  68.651  1.00  0.00    -0.204 C  
HETATM   36  N   UNL     1     -11.598  11.247  67.396  1.00  0.00    -0.554 NA 
HETATM   37  H1  UNL     1     -11.034  10.894  66.622  1.00  0.00     0.000 HD 
HETATM   38  H2  UNL     1     -12.020  12.146  67.161  1.00  0.00     0.000 HD 
ENDBRANCH  30  35
ENDBRANCH  28  29
ENDBRANCH  25  28
ENDBRANCH  10  24
TORSDOF 8
ENDMDL
MODEL      272
REMARK 921   NORMALIZED FREE ENERGY PREDICTED BY IDOCK:   -4.10 KCAL/MOL
REMARK 922        TOTAL FREE ENERGY PREDICTED BY IDOCK:   -6.84 KCAL/MOL
REMARK 923 INTER-LIGAND FREE ENERGY PREDICTED BY IDOCK:   -7.62 KCAL/MOL
REMARK 924 INTRA-LIGAND FREE ENERGY PREDICTED BY IDOCK:    0.78 KCAL/MOL
REMARK 927      BINDING AFFINITY PREDICTED BY RF-SCORE:    0.00 PKD
ROOT
HETATM    1  C   UNL     1     -10.816  10.867  67.842  1.00  0.00    -0.247 C  
HETATM    2  S   UNL     1      -9.673   9.589  68.405  1.00  0.00    -0.158 SA 
HETATM    3  C   UNL     1     -10.867   8.829  69.528  1.00  0.00    -0.142 C  
HETATM    4  C   UNL     1     -11.661   9.807  70.385  1.00  0.00    -0.301 C  
HETATM    5  O   UNL     1     -12.191  13.357  71.070  1.00  0.00    -0.344 OA 
HETATM    6  CA  UNL     1     -11.765  11.144  70.126  1.00  0.00    -0.353 C  
HETATM    7  N   UNL     1     -11.203  11.659  68.992  1.00  0.00    -0.242 N  
HETATM    8  O   UNL     1     -10.876  13.955  68.984  1.00  0.00    -0.245 OA 
HETATM    9  C   UNL     1     -12.507  12.052  71.085  1.00  0.00    -0.249 C  
HETATM   10  CA  UNL     1     -10.196  12.172  67.242  1.00  0.00    -0.202 C  
HETATM   11  OXT UNL     1     -13.370  11.645  71.847  1.00  0.00    -0.445 OA 
HETATM   12  C   UNL     1     -10.813  12.850  68.500  1.00  0.00    -0.257 C  
ENDROOT
BRANCH   4  13
HETATM   13  C   UNL     1     -12.200   9.119  71.639  1.00  0.00    -0.361 C  
BRANCH  13  14
HETATM   14  S   UNL     1     -12.057   7.300  71.515  1.00  0.00    -0.350 SA 
BRANCH  14  15
HETATM   15  C   UNL     1     -10.790   7.033  72.663  1.00  0.00    -0.270 A  
HETATM   16  N   UNL     1     -10.819   7.377  73.930  1.00  0.00    -0.120 NA 
HETATM   17  N   UNL     1      -9.595   6.413  72.407  1.00  0.00    -0.147 NA 
HETATM   18  N   UNL     1      -9.643   6.930  74.474  1.00  0.00    -0.234 NA 
HETATM   19  N   UNL     1      -8.905   6.312  73.566  1.00  0.00    -0.124 NA 
BRANCH  17  20
HETATM   20  C   UNL     1      -9.107   5.780  71.203  1.00  0.00    -0.146 C  
HETATM   21  O   UNL     1      -7.185   7.304  71.113  1.00  0.00    -0.070 OA 
HETATM   22  C   UNL     1      -8.057   6.540  70.424  1.00  0.00    -0.117 C  
HETATM   23  O   UNL     1      -7.937   6.401  69.211  1.00  0.00    -0.107 OA 
ENDBRANCH  17  20
ENDBRANCH  14  15
ENDBRANCH  13  14
ENDBRANCH   4  13
BRANCH  10  24
HETATM   24  N   UNL     1      -8.723  12.258  67.118  1.00  0.00    -0.186 N  
HETATM   25  C   UNL     1      -7.919  13.251  67.612  1.00  0.00    -0.176 C  
HETATM   26  O   UNL     1      -6.713  13.219  67.369  1.00  0.00    -0.167 OA 
HETATM   27  H   UNL     1      -8.260  11.502  66.613  1.00  0.00     0.000 HD 
BRANCH  25  28
HETATM   28  C   UNL     1      -8.554  14.364  68.430  1.00  0.00    -0.174 C  
BRANCH  28  29
HETATM   29  C   UNL     1      -7.685  15.592  68.599  1.00  0.00    -0.150 A  
HETATM   30  C   UNL     1      -7.609  16.614  67.626  1.00  0.00    -0.170 A  
HETATM   31  C   UNL     1      -6.777  17.723  67.883  1.00  0.00    -0.192 A  
HETATM   32  C   UNL     1      -6.950  15.731  69.796  1.00  0.00    -0.097 A  
HETATM   33  C   UNL     1      -6.063  17.844  69.074  1.00  0.00    -0.216 A  
HETATM   34  C   UNL     1      -6.143  16.843  70.030  1.00  0.00    -0.131 A  
BRANCH  30  35
HETATM   35  C   UNL     1      -8.335  16.530  66.296  1.00  0.00    -0.329 C  
HETATM   36  N   UNL     1      -8.761  17.838  65.798  1.00  0.00    -0.405 NA 
HETATM   37  H1  UNL     1      -9.249  17.781  64.903  1.00  0.00     0.000 HD 
HETATM   38  H2  UNL     1      -7.972  18.482  65.743  1.00  0.00     0.000 HD 
ENDBRANCH  30  35
ENDBRANCH  28  29
ENDBRANCH  25  28
ENDBRANCH  10  24
TORSDOF 8
ENDMDL
MODEL      273
REMARK 921   NORMALIZED FREE ENERGY PREDICTED BY IDOCK:   -4.06 KCAL/MOL
REMARK 922        TOTAL FREE ENERGY PREDICTED BY IDOCK:   -6.77 KCAL/MOL
REMARK 923 INTER-LIGAND FREE ENERGY PREDICTED BY IDOCK:   -7.97 KCAL/MOL
REMARK 924 INTRA-LIGAND FREE ENERGY PREDICTED BY IDOCK:    1.19 KCAL/MOL
REMARK 927      BINDING AFFINITY PREDICTED BY RF-SCORE:    0.00 PKD
ROOT
HETATM    1  C   UNL     1     -10.274   9.280  70.896  1.00  0.00    -0.301 C  
HETATM    2  S   UNL     1      -8.492   9.250  71.175  1.00  0.00     0.123 SA 
HETATM    3  C   UNL     1      -8.082   9.571  69.445  1.00  0.00    -0.116 C  
HETATM    4  C   UNL     1      -8.877   8.757  68.431  1.00  0.00    -0.138 C  
HETATM    5  O   UNL     1     -11.533   6.271  68.090  1.00  0.00    -0.150 OA 
HETATM    6  CA  UNL     1     -10.039   8.099  68.717  1.00  0.00    -0.199 C  
HETATM    7  N   UNL     1     -10.598   8.224  69.959  1.00  0.00    -0.233 N  
HETATM    8  O   UNL     1     -12.154   6.601  70.528  1.00  0.00    -0.390 OA 
HETATM    9  C   UNL     1     -10.712   7.245  67.664  1.00  0.00    -0.224 C  
HETATM   10  CA  UNL     1     -11.177   8.536  71.934  1.00  0.00    -0.327 C  
HETATM   11  OXT UNL     1     -10.543   7.415  66.467  1.00  0.00    -0.166 OA 
HETATM   12  C   UNL     1     -11.490   7.588  70.740  1.00  0.00    -0.284 C  
ENDROOT
BRANCH   4  13
HETATM   13  C   UNL     1      -8.126   8.660  67.103  1.00  0.00    -0.100 C  
BRANCH  13  14
HETATM   14  S   UNL     1      -8.902   9.705  65.820  1.00  0.00    -0.168 SA 
BRANCH  14  15
HETATM   15  C   UNL     1      -8.847  11.236  66.624  1.00  0.00    -0.175 A  
HETATM   16  N   UNL     1      -7.761  11.833  67.060  1.00  0.00    -0.161 NA 
HETATM   17  N   UNL     1      -9.923  12.037  66.899  1.00  0.00    -0.201 NA 
HETATM   18  N   UNL     1      -8.167  13.036  67.577  1.00  0.00    -0.170 NA 
HETATM   19  N   UNL     1      -9.477  13.187  67.453  1.00  0.00    -0.207 NA 
BRANCH  17  20
HETATM   20  C   UNL     1     -11.319  11.881  66.556  1.00  0.00    -0.341 C  
HETATM   21  O   UNL     1     -10.886  12.567  64.239  1.00  0.00    -0.315 OA 
HETATM   22  C   UNL     1     -11.767  12.517  65.260  1.00  0.00    -0.386 C  
HETATM   23  O   UNL     1     -12.922  12.898  65.101  1.00  0.00    -0.758 OA 
ENDBRANCH  17  20
ENDBRANCH  14  15
ENDBRANCH  13  14
ENDBRANCH   4  13
BRANCH  10  24
HETATM   24  N   UNL     1     -10.528   7.906  73.107  1.00  0.00    -0.339 N  
HETATM   25  C   UNL     1     -10.666   6.606  73.515  1.00  0.00    -0.276 C  
HETATM   26  O   UNL     1     -10.113   6.244  74.554  1.00  0.00    -0.313 OA 
HETATM   27  H   UNL     1      -9.916   8.500  73.667  1.00  0.00     0.000 HD 
BRANCH  25  28
HETATM   28  C   UNL     1     -11.512   5.663  72.675  1.00  0.00    -0.339 C  
BRANCH  28  29
HETATM   29  C   UNL     1     -11.022   4.231  72.653  1.00  0.00    -0.070 A  
HETATM   30  C   UNL     1      -9.992   3.789  71.794  1.00  0.00    -0.227 A  
HETATM   31  C   UNL     1      -9.600   2.436  71.856  1.00  0.00    -0.203 A  
HETATM   32  C   UNL     1     -11.600   3.313  73.557  1.00  0.00    -0.050 A  
HETATM   33  C   UNL     1     -10.180   1.547  72.759  1.00  0.00    -0.195 A  
HETATM   34  C   UNL     1     -11.187   1.984  73.607  1.00  0.00    -0.302 A  
BRANCH  30  35
HETATM   35  C   UNL     1      -9.342   4.697  70.766  1.00  0.00    -0.151 C  
HETATM   36  N   UNL     1      -8.188   5.422  71.297  1.00  0.00    -0.118 NA 
HETATM   37  H1  UNL     1      -7.750   6.033  70.606  1.00  0.00     0.000 HD 
HETATM   38  H2  UNL     1      -7.506   4.778  71.700  1.00  0.00     0.000 HD 
ENDBRANCH  30  35
ENDBRANCH  28  29
ENDBRANCH  25  28
ENDBRANCH  10  24
TORSDOF 8
ENDMDL
MODEL      274
REMARK 921   NORMALIZED FREE ENERGY PREDICTED BY IDOCK:   -4.00 KCAL/MOL
REMARK 922        TOTAL FREE ENERGY PREDICTED BY IDOCK:   -6.69 KCAL/MOL
REMARK 923 INTER-LIGAND FREE ENERGY PREDICTED BY IDOCK:   -7.70 KCAL/MOL
REMARK 924 INTRA-LIGAND FREE ENERGY PREDICTED BY IDOCK:    1.01 KCAL/MOL
REMARK 927      BINDING AFFINITY PREDICTED BY RF-SCORE:    0.00 PKD
ROOT
HETATM    1  C   UNL     1      -9.431  11.971  66.662  1.00  0.00    -0.217 C  
HETATM    2  S   UNL     1      -7.856  11.134  66.937  1.00  0.00    -0.157 SA 
HETATM    3  C   UNL     1      -8.620   9.572  67.425  1.00  0.00    -0.125 C  
HETATM    4  C   UNL     1      -9.786   9.699  68.397  1.00  0.00    -0.170 C  
HETATM    5  O   UNL     1     -11.846  12.105  70.220  1.00  0.00    -0.329 OA 
HETATM    6  CA  UNL     1     -10.463  10.862  68.636  1.00  0.00    -0.194 C  
HETATM    7  N   UNL     1     -10.157  11.982  67.915  1.00  0.00    -0.190 N  
HETATM    8  O   UNL     1     -10.877  13.990  68.825  1.00  0.00    -0.250 OA 
HETATM    9  C   UNL     1     -11.553  10.908  69.686  1.00  0.00    -0.322 C  
HETATM   10  CA  UNL     1      -9.436  13.534  66.729  1.00  0.00    -0.269 C  
HETATM   11  OXT UNL     1     -12.167   9.917  70.046  1.00  0.00    -0.061 OA 
HETATM   12  C   UNL     1     -10.320  13.315  67.991  1.00  0.00    -0.241 C  
ENDROOT
BRANCH   4  13
HETATM   13  C   UNL     1      -9.998   8.396  69.167  1.00  0.00    -0.196 C  
BRANCH  13  14
HETATM   14  S   UNL     1     -10.940   7.181  68.177  1.00  0.00     0.020 SA 
BRANCH  14  15
HETATM   15  C   UNL     1      -9.797   5.881  68.154  1.00  0.00    -0.133 A  
HETATM   16  N   UNL     1      -8.943   5.630  67.189  1.00  0.00    -0.113 NA 
HETATM   17  N   UNL     1      -9.620   4.953  69.145  1.00  0.00    -0.148 NA 
HETATM   18  N   UNL     1      -8.202   4.554  67.605  1.00  0.00    -0.099 NA 
HETATM   19  N   UNL     1      -8.581   4.155  68.808  1.00  0.00    -0.086 NA 
BRANCH  17  20
HETATM   20  C   UNL     1     -10.245   4.837  70.444  1.00  0.00    -0.191 C  
HETATM   21  O   UNL     1      -8.542   6.287  71.455  1.00  0.00    -0.130 OA 
HETATM   22  C   UNL     1      -9.413   5.272  71.629  1.00  0.00    -0.149 C  
HETATM   23  O   UNL     1      -9.583   4.784  72.741  1.00  0.00    -0.131 OA 
ENDBRANCH  17  20
ENDBRANCH  14  15
ENDBRANCH  13  14
ENDBRANCH   4  13
BRANCH  10  24
HETATM   24  N   UNL     1      -8.149  14.233  66.954  1.00  0.00    -0.382 N  
HETATM   25  C   UNL     1      -7.846  15.519  66.596  1.00  0.00    -0.027 C  
HETATM   26  O   UNL     1      -6.706  15.940  66.790  1.00  0.00    -0.249 OA 
HETATM   27  H   UNL     1      -7.415  13.702  67.423  1.00  0.00     0.000 HD 
BRANCH  25  28
HETATM   28  C   UNL     1      -8.928  16.373  65.955  1.00  0.00    -0.307 C  
BRANCH  28  29
HETATM   29  C   UNL     1      -9.415  17.520  66.816  1.00  0.00    -0.282 A  
HETATM   30  C   UNL     1      -8.902  17.777  68.107  1.00  0.00    -0.267 A  
HETATM   31  C   UNL     1      -9.416  18.876  68.825  1.00  0.00    -0.407 A  
HETATM   32  C   UNL     1     -10.397  18.383  66.284  1.00  0.00    -0.440 A  
HETATM   33  C   UNL     1     -10.382  19.720  68.281  1.00  0.00    -0.536 A  
HETATM   34  C   UNL     1     -10.880  19.470  67.011  1.00  0.00    -0.542 A  
BRANCH  30  35
HETATM   35  C   UNL     1      -7.874  16.879  68.770  1.00  0.00    -0.250 C  
HETATM   36  N   UNL     1      -8.481  15.837  69.600  1.00  0.00    -0.131 NA 
HETATM   37  H1  UNL     1      -7.789  15.233  70.046  1.00  0.00     0.000 HD 
HETATM   38  H2  UNL     1      -9.153  15.289  69.063  1.00  0.00     0.000 HD 
ENDBRANCH  30  35
ENDBRANCH  28  29
ENDBRANCH  25  28
ENDBRANCH  10  24
TORSDOF 8
ENDMDL
MODEL      275
REMARK 921   NORMALIZED FREE ENERGY PREDICTED BY IDOCK:   -3.97 KCAL/MOL
REMARK 922        TOTAL FREE ENERGY PREDICTED BY IDOCK:   -6.65 KCAL/MOL
REMARK 923 INTER-LIGAND FREE ENERGY PREDICTED BY IDOCK:   -7.04 KCAL/MOL
REMARK 924 INTRA-LIGAND FREE ENERGY PREDICTED BY IDOCK:    0.39 KCAL/MOL
REMARK 927      BINDING AFFINITY PREDICTED BY RF-SCORE:    0.00 PKD
ROOT
HETATM    1  C   UNL     1     -10.497   6.553  71.309  1.00  0.00    -0.215 C  
HETATM    2  S   UNL     1     -11.574   6.509  69.861  1.00  0.00    -0.262 SA 
HETATM    3  C   UNL     1     -10.350   5.697  68.810  1.00  0.00    -0.218 C  
HETATM    4  C   UNL     1      -8.939   6.268  68.901  1.00  0.00    -0.126 C  
HETATM    5  O   UNL     1      -6.887   8.778  70.586  1.00  0.00    -0.040 OA 
HETATM    6  CA  UNL     1      -8.502   7.073  69.915  1.00  0.00    -0.140 C  
HETATM    7  N   UNL     1      -9.327   7.337  70.972  1.00  0.00    -0.158 N  
HETATM    8  O   UNL     1      -8.750   9.177  72.261  1.00  0.00    -0.282 OA 
HETATM    9  C   UNL     1      -7.107   7.661  69.874  1.00  0.00    -0.063 C  
HETATM   10  CA  UNL     1     -10.810   7.623  72.405  1.00  0.00    -0.289 C  
HETATM   11  OXT UNL     1      -6.195   7.158  69.237  1.00  0.00    -0.032 OA 
HETATM   12  C   UNL     1      -9.446   8.233  71.969  1.00  0.00    -0.236 C  
ENDROOT
BRANCH   4  13
HETATM   13  C   UNL     1      -8.136   5.938  67.644  1.00  0.00    -0.102 C  
BRANCH  13  14
HETATM   14  S   UNL     1      -9.199   5.217  66.343  1.00  0.00    -0.150 SA 
BRANCH  14  15
HETATM   15  C   UNL     1      -8.356   3.730  66.074  1.00  0.00    -0.109 A  
HETATM   16  N   UNL     1      -7.510   3.495  65.097  1.00  0.00    -0.072 NA 
HETATM   17  N   UNL     1      -8.445   2.607  66.853  1.00  0.00    -0.096 NA 
HETATM   18  N   UNL     1      -7.042   2.222  65.296  1.00  0.00    -0.055 NA 
HETATM   19  N   UNL     1      -7.577   1.684  66.380  1.00  0.00    -0.061 NA 
BRANCH  17  20
HETATM   20  C   UNL     1      -9.165   2.375  68.084  1.00  0.00    -0.205 C  
HETATM   21  O   UNL     1      -7.297   3.257  69.411  1.00  0.00    -0.048 OA 
HETATM   22  C   UNL     1      -8.349   2.414  69.357  1.00  0.00    -0.049 C  
HETATM   23  O   UNL     1      -8.680   1.770  70.347  1.00  0.00    -0.053 OA 
ENDBRANCH  17  20
ENDBRANCH  14  15
ENDBRANCH  13  14
ENDBRANCH   4  13
BRANCH  10  24
HETATM   24  N   UNL     1     -11.995   8.492  72.223  1.00  0.00    -0.380 N  
HETATM   25  C   UNL     1     -12.076   9.604  71.428  1.00  0.00    -0.388 C  
HETATM   26  O   UNL     1     -13.114  10.266  71.431  1.00  0.00    -0.374 OA 
HETATM   27  H   UNL     1     -12.836   8.236  72.740  1.00  0.00     0.000 HD 
BRANCH  25  28
HETATM   28  C   UNL     1     -10.872   9.988  70.583  1.00  0.00    -0.367 C  
BRANCH  28  29
HETATM   29  C   UNL     1     -11.167  10.989  69.486  1.00  0.00    -0.343 A  
HETATM   30  C   UNL     1     -11.108  10.658  68.114  1.00  0.00    -0.343 A  
HETATM   31  C   UNL     1     -11.411  11.660  67.170  1.00  0.00    -0.373 A  
HETATM   32  C   UNL     1     -11.550  12.295  69.860  1.00  0.00    -0.278 A  
HETATM   33  C   UNL     1     -11.791  12.943  67.559  1.00  0.00    -0.407 A  
HETATM   34  C   UNL     1     -11.854  13.264  68.907  1.00  0.00    -0.367 A  
BRANCH  30  35
HETATM   35  C   UNL     1     -10.670   9.291  67.623  1.00  0.00    -0.209 C  
HETATM   36  N   UNL     1      -9.531   9.355  66.706  1.00  0.00    -0.156 NA 
HETATM   37  H1  UNL     1      -9.236   8.436  66.375  1.00  0.00     0.000 HD 
HETATM   38  H2  UNL     1      -8.751   9.860  67.127  1.00  0.00     0.000 HD 
ENDBRANCH  30  35
ENDBRANCH  28  29
ENDBRANCH  25  28
ENDBRANCH  10  24
TORSDOF 8
ENDMDL
MODEL      276
REMARK 921   NORMALIZED FREE ENERGY PREDICTED BY IDOCK:   -3.97 KCAL/MOL
REMARK 922        TOTAL FREE ENERGY PREDICTED BY IDOCK:   -6.65 KCAL/MOL
REMARK 923 INTER-LIGAND FREE ENERGY PREDICTED BY IDOCK:   -7.49 KCAL/MOL
REMARK 924 INTRA-LIGAND FREE ENERGY PREDICTED BY IDOCK:    0.85 KCAL/MOL
REMARK 927      BINDING AFFINITY PREDICTED BY RF-SCORE:    0.00 PKD
ROOT
HETATM    1  C   UNL     1      -9.230   4.847  67.166  1.00  0.00    -0.123 C  
HETATM    2  S   UNL     1     -10.770   5.575  67.760  1.00  0.00     0.011 SA 
HETATM    3  C   UNL     1     -10.649   7.029  66.695  1.00  0.00    -0.114 C  
HETATM    4  C   UNL     1      -9.273   7.681  66.646  1.00  0.00    -0.211 C  
HETATM    5  O   UNL     1      -5.843   7.404  67.875  1.00  0.00    -0.028 OA 
HETATM    6  CA  UNL     1      -8.120   7.073  67.057  1.00  0.00    -0.117 C  
HETATM    7  N   UNL     1      -8.154   5.769  67.467  1.00  0.00    -0.102 N  
HETATM    8  O   UNL     1      -6.337   5.065  68.724  1.00  0.00    -0.033 OA 
HETATM    9  C   UNL     1      -6.811   7.834  67.050  1.00  0.00    -0.069 C  
HETATM   10  CA  UNL     1      -8.513   3.819  68.101  1.00  0.00    -0.093 C  
HETATM   11  OXT UNL     1      -6.610   8.797  66.328  1.00  0.00    -0.064 OA 
HETATM   12  C   UNL     1      -7.406   4.910  68.183  1.00  0.00    -0.070 C  
ENDROOT
BRANCH   4  13
HETATM   13  C   UNL     1      -9.378   9.143  66.214  1.00  0.00    -0.216 C  
BRANCH  13  14
HETATM   14  S   UNL     1     -10.588  10.056  67.236  1.00  0.00    -0.240 SA 
BRANCH  14  15
HETATM   15  C   UNL     1      -9.912  11.646  67.131  1.00  0.00    -0.199 A  
HETATM   16  N   UNL     1      -9.071  12.179  67.988  1.00  0.00    -0.184 NA 
HETATM   17  N   UNL     1     -10.150  12.553  66.133  1.00  0.00    -0.246 NA 
HETATM   18  N   UNL     1      -8.756  13.418  67.494  1.00  0.00    -0.192 NA 
HETATM   19  N   UNL     1      -9.379  13.643  66.347  1.00  0.00    -0.230 NA 
BRANCH  17  20
HETATM   20  C   UNL     1     -10.926  12.429  64.920  1.00  0.00    -0.302 C  
HETATM   21  O   UNL     1     -12.727  13.805  65.864  1.00  0.00    -0.467 OA 
HETATM   22  C   UNL     1     -12.386  12.814  65.016  1.00  0.00    -0.499 C  
HETATM   23  O   UNL     1     -13.228  12.308  64.282  1.00  0.00    -0.785 OA 
ENDBRANCH  17  20
ENDBRANCH  14  15
ENDBRANCH  13  14
ENDBRANCH   4  13
BRANCH  10  24
HETATM   24  N   UNL     1      -9.164   3.460  69.382  1.00  0.00    -0.138 N  
HETATM   25  C   UNL     1      -9.331   4.277  70.469  1.00  0.00    -0.145 C  
HETATM   26  O   UNL     1      -9.834   3.814  71.493  1.00  0.00    -0.174 OA 
HETATM   27  H   UNL     1      -9.525   2.510  69.464  1.00  0.00     0.000 HD 
BRANCH  25  28
HETATM   28  C   UNL     1      -8.871   5.723  70.373  1.00  0.00    -0.146 C  
BRANCH  28  29
HETATM   29  C   UNL     1      -9.878   6.736  70.875  1.00  0.00    -0.197 A  
HETATM   30  C   UNL     1      -9.709   8.129  70.706  1.00  0.00    -0.189 A  
HETATM   31  C   UNL     1     -10.710   8.990  71.201  1.00  0.00    -0.358 A  
HETATM   32  C   UNL     1     -11.047   6.260  71.505  1.00  0.00    -0.333 A  
HETATM   33  C   UNL     1     -11.860   8.499  71.817  1.00  0.00    -0.395 A  
HETATM   34  C   UNL     1     -12.026   7.132  71.976  1.00  0.00    -0.332 A  
BRANCH  30  35
HETATM   35  C   UNL     1      -8.467   8.729  70.074  1.00  0.00    -0.133 C  
HETATM   36  N   UNL     1      -8.335  10.164  70.332  1.00  0.00    -0.378 NA 
HETATM   37  H1  UNL     1      -7.500  10.568  69.907  1.00  0.00     0.000 HD 
HETATM   38  H2  UNL     1      -8.367  10.359  71.333  1.00  0.00     0.000 HD 
ENDBRANCH  30  35
ENDBRANCH  28  29
ENDBRANCH  25  28
ENDBRANCH  10  24
TORSDOF 8
ENDMDL
MODEL      277
REMARK 921   NORMALIZED FREE ENERGY PREDICTED BY IDOCK:   -3.96 KCAL/MOL
REMARK 922        TOTAL FREE ENERGY PREDICTED BY IDOCK:   -6.63 KCAL/MOL
REMARK 923 INTER-LIGAND FREE ENERGY PREDICTED BY IDOCK:   -5.97 KCAL/MOL
REMARK 924 INTRA-LIGAND FREE ENERGY PREDICTED BY IDOCK:   -0.67 KCAL/MOL
REMARK 927      BINDING AFFINITY PREDICTED BY RF-SCORE:    0.00 PKD
ROOT
HETATM    1  C   UNL     1     -10.388   8.934  71.462  1.00  0.00    -0.324 C  
HETATM    2  S   UNL     1      -8.681   8.679  71.990  1.00  0.00    -0.102 SA 
HETATM    3  C   UNL     1      -7.977   9.179  70.403  1.00  0.00    -0.145 C  
HETATM    4  C   UNL     1      -8.667   8.594  69.177  1.00  0.00    -0.136 C  
HETATM    5  O   UNL     1     -11.437   6.471  68.095  1.00  0.00    -0.146 OA 
HETATM    6  CA  UNL     1      -9.912   8.032  69.192  1.00  0.00    -0.188 C  
HETATM    7  N   UNL     1     -10.648   8.051  70.344  1.00  0.00    -0.220 N  
HETATM    8  O   UNL     1     -12.406   6.541  70.439  1.00  0.00    -0.222 OA 
HETATM    9  C   UNL     1     -10.479   7.399  67.939  1.00  0.00    -0.205 C  
HETATM   10  CA  UNL     1     -11.504   8.161  72.239  1.00  0.00    -0.371 C  
HETATM   11  OXT UNL     1     -10.109   7.707  66.817  1.00  0.00    -0.243 OA 
HETATM   12  C   UNL     1     -11.703   7.416  70.887  1.00  0.00    -0.296 C  
ENDROOT
BRANCH   4  13
HETATM   13  C   UNL     1      -7.727   8.593  67.972  1.00  0.00    -0.102 C  
BRANCH  13  14
HETATM   14  S   UNL     1      -6.617   7.141  67.993  1.00  0.00    -0.051 SA 
BRANCH  14  15
HETATM   15  C   UNL     1      -6.968   6.488  66.429  1.00  0.00    -0.066 A  
HETATM   16  N   UNL     1      -6.825   7.119  65.286  1.00  0.00    -0.051 NA 
HETATM   17  N   UNL     1      -7.425   5.222  66.174  1.00  0.00    -0.082 NA 
HETATM   18  N   UNL     1      -7.162   6.220  64.308  1.00  0.00    -0.060 NA 
HETATM   19  N   UNL     1      -7.496   5.051  64.834  1.00  0.00    -0.074 NA 
BRANCH  17  20
HETATM   20  C   UNL     1      -7.664   4.113  67.069  1.00  0.00    -0.092 C  
HETATM   21  O   UNL     1     -10.054   4.104  66.513  1.00  0.00    -0.203 OA 
HETATM   22  C   UNL     1      -9.106   3.846  67.437  1.00  0.00    -0.156 C  
HETATM   23  O   UNL     1      -9.406   3.325  68.505  1.00  0.00    -0.164 OA 
ENDBRANCH  17  20
ENDBRANCH  14  15
ENDBRANCH  13  14
ENDBRANCH   4  13
BRANCH  10  24
HETATM   24  N   UNL     1     -11.104   7.317  73.389  1.00  0.00    -0.581 N  
HETATM   25  C   UNL     1     -10.743   5.997  73.346  1.00  0.00    -0.262 C  
HETATM   26  O   UNL     1     -10.500   5.409  74.400  1.00  0.00    -0.273 OA 
HETATM   27  H   UNL     1     -11.097   7.764  74.306  1.00  0.00     0.000 HD 
BRANCH  25  28
HETATM   28  C   UNL     1     -10.672   5.303  71.994  1.00  0.00    -0.261 C  
BRANCH  28  29
HETATM   29  C   UNL     1      -9.438   4.450  71.791  1.00  0.00    -0.206 A  
HETATM   30  C   UNL     1      -9.419   3.060  72.043  1.00  0.00    -0.204 A  
HETATM   31  C   UNL     1      -8.222   2.353  71.813  1.00  0.00    -0.059 A  
HETATM   32  C   UNL     1      -8.271   5.072  71.294  1.00  0.00    -0.116 A  
HETATM   33  C   UNL     1      -7.081   2.985  71.318  1.00  0.00    -0.033 A  
HETATM   34  C   UNL     1      -7.104   4.348  71.065  1.00  0.00    -0.037 A  
BRANCH  30  35
HETATM   35  C   UNL     1     -10.614   2.319  72.613  1.00  0.00    -0.095 C  
HETATM   36  N   UNL     1     -10.649   2.337  74.076  1.00  0.00    -0.142 NA 
HETATM   37  H1  UNL     1     -11.453   1.838  74.459  1.00  0.00     0.000 HD 
HETATM   38  H2  UNL     1     -10.609   3.293  74.430  1.00  0.00     0.000 HD 
ENDBRANCH  30  35
ENDBRANCH  28  29
ENDBRANCH  25  28
ENDBRANCH  10  24
TORSDOF 8
ENDMDL
MODEL      278
REMARK 921   NORMALIZED FREE ENERGY PREDICTED BY IDOCK:   -3.94 KCAL/MOL
REMARK 922        TOTAL FREE ENERGY PREDICTED BY IDOCK:   -6.60 KCAL/MOL
REMARK 923 INTER-LIGAND FREE ENERGY PREDICTED BY IDOCK:   -5.58 KCAL/MOL
REMARK 924 INTRA-LIGAND FREE ENERGY PREDICTED BY IDOCK:   -1.02 KCAL/MOL
REMARK 927      BINDING AFFINITY PREDICTED BY RF-SCORE:    0.00 PKD
ROOT
HETATM    1  C   UNL     1      -7.890  10.887  67.994  1.00  0.00    -0.107 C  
HETATM    2  S   UNL     1      -7.523  11.047  66.234  1.00  0.00    -0.061 SA 
HETATM    3  C   UNL     1      -7.731   9.285  65.895  1.00  0.00    -0.098 C  
HETATM    4  C   UNL     1      -7.068   8.351  66.900  1.00  0.00    -0.075 C  
HETATM    5  O   UNL     1      -5.132   8.263  69.998  1.00  0.00    -0.023 OA 
HETATM    6  CA  UNL     1      -6.650   8.734  68.143  1.00  0.00    -0.061 C  
HETATM    7  N   UNL     1      -6.900  10.006  68.578  1.00  0.00    -0.054 N  
HETATM    8  O   UNL     1      -5.615  10.726  70.369  1.00  0.00    -0.069 OA 
HETATM    9  C   UNL     1      -5.923   7.754  69.039  1.00  0.00    -0.034 C  
HETATM   10  CA  UNL     1      -7.350  12.005  68.945  1.00  0.00    -0.067 C  
HETATM   11  OXT UNL     1      -6.038   6.544  68.927  1.00  0.00    -0.023 OA 
HETATM   12  C   UNL     1      -6.460  10.863  69.517  1.00  0.00    -0.095 C  
ENDROOT
BRANCH   4  13
HETATM   13  C   UNL     1      -6.806   6.980  66.279  1.00  0.00    -0.061 C  
BRANCH  13  14
HETATM   14  S   UNL     1      -8.214   6.435  65.247  1.00  0.00    -0.123 SA 
BRANCH  14  15
HETATM   15  C   UNL     1      -9.394   6.174  66.487  1.00  0.00    -0.153 A  
HETATM   16  N   UNL     1     -10.439   6.935  66.721  1.00  0.00    -0.252 NA 
HETATM   17  N   UNL     1      -9.405   5.132  67.376  1.00  0.00    -0.116 NA 
HETATM   18  N   UNL     1     -11.125   6.335  67.745  1.00  0.00    -0.329 NA 
HETATM   19  N   UNL     1     -10.525   5.219  68.129  1.00  0.00    -0.117 NA 
BRANCH  17  20
HETATM   20  C   UNL     1      -8.533   3.984  67.485  1.00  0.00    -0.099 C  
HETATM   21  O   UNL     1      -9.570   2.937  65.522  1.00  0.00    -0.070 OA 
HETATM   22  C   UNL     1      -8.938   2.757  66.700  1.00  0.00    -0.151 C  
HETATM   23  O   UNL     1      -8.624   1.631  67.070  1.00  0.00    -0.087 OA 
ENDBRANCH  17  20
ENDBRANCH  14  15
ENDBRANCH  13  14
ENDBRANCH   4  13
BRANCH  10  24
HETATM   24  N   UNL     1      -6.627  13.151  68.345  1.00  0.00    -0.082 N  
HETATM   25  C   UNL     1      -7.185  14.301  67.855  1.00  0.00    -0.158 C  
HETATM   26  O   UNL     1      -6.457  15.139  67.323  1.00  0.00    -0.306 OA 
HETATM   27  H   UNL     1      -5.611  13.075  68.292  1.00  0.00     0.000 HD 
BRANCH  25  28
HETATM   28  C   UNL     1      -8.689  14.492  67.974  1.00  0.00    -0.167 C  
BRANCH  28  29
HETATM   29  C   UNL     1      -9.229  15.699  67.238  1.00  0.00    -0.214 A  
HETATM   30  C   UNL     1     -10.102  15.593  66.132  1.00  0.00    -0.333 A  
HETATM   31  C   UNL     1     -10.557  16.779  65.521  1.00  0.00    -0.243 A  
HETATM   32  C   UNL     1      -8.869  16.982  67.705  1.00  0.00    -0.223 A  
HETATM   33  C   UNL     1     -10.193  18.037  66.000  1.00  0.00    -0.304 A  
HETATM   34  C   UNL     1      -9.341  18.139  67.090  1.00  0.00    -0.263 A  
BRANCH  30  35
HETATM   35  C   UNL     1     -10.510  14.256  65.541  1.00  0.00    -0.346 C  
HETATM   36  N   UNL     1     -11.161  14.387  64.237  1.00  0.00    -0.611 NA 
HETATM   37  H1  UNL     1     -11.437  13.488  63.840  1.00  0.00     0.000 HD 
HETATM   38  H2  UNL     1     -10.574  14.910  63.587  1.00  0.00     0.000 HD 
ENDBRANCH  30  35
ENDBRANCH  28  29
ENDBRANCH  25  28
ENDBRANCH  10  24
TORSDOF 8
ENDMDL
MODEL      279
REMARK 921   NORMALIZED FREE ENERGY PREDICTED BY IDOCK:   -3.90 KCAL/MOL
REMARK 922        TOTAL FREE ENERGY PREDICTED BY IDOCK:   -6.54 KCAL/MOL
REMARK 923 INTER-LIGAND FREE ENERGY PREDICTED BY IDOCK:   -7.25 KCAL/MOL
REMARK 924 INTRA-LIGAND FREE ENERGY PREDICTED BY IDOCK:    0.71 KCAL/MOL
REMARK 927      BINDING AFFINITY PREDICTED BY RF-SCORE:    0.00 PKD
ROOT
HETATM    1  C   UNL     1      -8.868   6.322  66.554  1.00  0.00    -0.138 C  
HETATM    2  S   UNL     1     -10.468   7.089  66.884  1.00  0.00    -0.263 SA 
HETATM    3  C   UNL     1     -10.014   8.669  66.134  1.00  0.00    -0.134 C  
HETATM    4  C   UNL     1      -8.636   9.194  66.517  1.00  0.00    -0.136 C  
HETATM    5  O   UNL     1      -5.630   8.428  68.449  1.00  0.00    -0.033 OA 
HETATM    6  CA  UNL     1      -7.653   8.430  67.079  1.00  0.00    -0.092 C  
HETATM    7  N   UNL     1      -7.853   7.088  67.247  1.00  0.00    -0.109 N  
HETATM    8  O   UNL     1      -6.438   6.043  68.759  1.00  0.00    -0.045 OA 
HETATM    9  C   UNL     1      -6.344   9.062  67.504  1.00  0.00    -0.063 C  
HETATM   10  CA  UNL     1      -8.457   5.105  67.446  1.00  0.00    -0.105 C  
HETATM   11  OXT UNL     1      -5.923  10.100  67.020  1.00  0.00    -0.050 OA 
HETATM   12  C   UNL     1      -7.348   6.067  67.964  1.00  0.00    -0.084 C  
ENDROOT
BRANCH   4  13
HETATM   13  C   UNL     1      -8.556  10.708  66.322  1.00  0.00    -0.153 C  
BRANCH  13  14
HETATM   14  S   UNL     1     -10.070  11.359  65.531  1.00  0.00    -0.259 SA 
BRANCH  14  15
HETATM   15  C   UNL     1     -10.858  12.023  66.922  1.00  0.00    -0.259 A  
HETATM   16  N   UNL     1     -11.069  11.394  68.055  1.00  0.00    -0.236 NA 
HETATM   17  N   UNL     1     -11.349  13.297  67.033  1.00  0.00    -0.299 NA 
HETATM   18  N   UNL     1     -11.666  12.302  68.891  1.00  0.00    -0.313 NA 
HETATM   19  N   UNL     1     -11.810  13.474  68.292  1.00  0.00    -0.356 NA 
BRANCH  17  20
HETATM   20  C   UNL     1     -11.294  14.406  66.108  1.00  0.00    -0.350 C  
HETATM   21  O   UNL     1     -13.519  13.859  65.229  1.00  0.00    -0.612 OA 
HETATM   22  C   UNL     1     -12.305  14.394  64.984  1.00  0.00    -0.396 C  
HETATM   23  O   UNL     1     -12.071  14.934  63.908  1.00  0.00    -0.483 OA 
ENDBRANCH  17  20
ENDBRANCH  14  15
ENDBRANCH  13  14
ENDBRANCH   4  13
BRANCH  10  24
HETATM   24  N   UNL     1      -9.420   4.620  68.462  1.00  0.00    -0.138 N  
HETATM   25  C   UNL     1      -9.682   5.195  69.676  1.00  0.00    -0.185 C  
HETATM   26  O   UNL     1     -10.464   4.636  70.446  1.00  0.00    -0.136 OA 
HETATM   27  H   UNL     1      -9.940   3.773  68.233  1.00  0.00     0.000 HD 
BRANCH  25  28
HETATM   28  C   UNL     1      -8.983   6.497  70.035  1.00  0.00    -0.144 C  
BRANCH  28  29
HETATM   29  C   UNL     1      -8.875   6.763  71.521  1.00  0.00    -0.137 A  
HETATM   30  C   UNL     1      -9.357   7.947  72.122  1.00  0.00    -0.225 A  
HETATM   31  C   UNL     1      -9.217   8.095  73.517  1.00  0.00    -0.257 A  
HETATM   32  C   UNL     1      -8.299   5.766  72.338  1.00  0.00    -0.118 A  
HETATM   33  C   UNL     1      -8.649   7.097  74.307  1.00  0.00    -0.225 A  
HETATM   34  C   UNL     1      -8.183   5.933  73.716  1.00  0.00    -0.112 A  
BRANCH  30  35
HETATM   35  C   UNL     1      -9.955   9.086  71.317  1.00  0.00    -0.311 C  
HETATM   36  N   UNL     1     -11.415   9.025  71.245  1.00  0.00    -0.294 NA 
HETATM   37  H1  UNL     1     -11.817   9.790  70.703  1.00  0.00     0.000 HD 
HETATM   38  H2  UNL     1     -11.825   8.982  72.178  1.00  0.00     0.000 HD 
ENDBRANCH  30  35
ENDBRANCH  28  29
ENDBRANCH  25  28
ENDBRANCH  10  24
TORSDOF 8
ENDMDL
MODEL      280
REMARK 921   NORMALIZED FREE ENERGY PREDICTED BY IDOCK:   -3.83 KCAL/MOL
REMARK 922        TOTAL FREE ENERGY PREDICTED BY IDOCK:   -6.45 KCAL/MOL
REMARK 923 INTER-LIGAND FREE ENERGY PREDICTED BY IDOCK:   -7.01 KCAL/MOL
REMARK 924 INTRA-LIGAND FREE ENERGY PREDICTED BY IDOCK:    0.57 KCAL/MOL
REMARK 927      BINDING AFFINITY PREDICTED BY RF-SCORE:    0.00 PKD
ROOT
HETATM    1  C   UNL     1      -9.772   5.810  72.952  1.00  0.00    -0.155 C  
HETATM    2  S   UNL     1     -10.856   5.042  71.731  1.00  0.00     0.062 SA 
HETATM    3  C   UNL     1      -9.555   3.998  71.037  1.00  0.00    -0.179 C  
HETATM    4  C   UNL     1      -8.227   4.702  70.787  1.00  0.00    -0.088 C  
HETATM    5  O   UNL     1      -6.482   7.894  71.125  1.00  0.00    -0.037 OA 
HETATM    6  CA  UNL     1      -7.879   5.902  71.339  1.00  0.00    -0.112 C  
HETATM    7  N   UNL     1      -8.715   6.499  72.241  1.00  0.00    -0.130 N  
HETATM    8  O   UNL     1      -8.355   8.762  72.599  1.00  0.00    -0.407 OA 
HETATM    9  C   UNL     1      -6.570   6.564  70.962  1.00  0.00    -0.053 C  
HETATM   10  CA  UNL     1     -10.201   7.204  73.518  1.00  0.00    -0.351 C  
HETATM   11  OXT UNL     1      -5.612   5.940  70.535  1.00  0.00    -0.012 OA 
HETATM   12  C   UNL     1      -8.931   7.714  72.776  1.00  0.00    -0.161 C  
ENDROOT
BRANCH   4  13
HETATM   13  C   UNL     1      -7.407   3.959  69.733  1.00  0.00    -0.048 C  
BRANCH  13  14
HETATM   14  S   UNL     1      -8.478   2.972  68.628  1.00  0.00    -0.073 SA 
BRANCH  14  15
HETATM   15  C   UNL     1      -8.097   3.719  67.115  1.00  0.00    -0.091 A  
HETATM   16  N   UNL     1      -7.000   3.524  66.419  1.00  0.00    -0.057 NA 
HETATM   17  N   UNL     1      -8.894   4.600  66.433  1.00  0.00    -0.112 NA 
HETATM   18  N   UNL     1      -7.137   4.265  65.274  1.00  0.00    -0.062 NA 
HETATM   19  N   UNL     1      -8.300   4.897  65.255  1.00  0.00    -0.125 NA 
BRANCH  17  20
HETATM   20  C   UNL     1     -10.228   5.075  66.723  1.00  0.00    -0.248 C  
HETATM   21  O   UNL     1      -9.337   6.942  68.046  1.00  0.00    -0.125 OA 
HETATM   22  C   UNL     1     -10.353   6.076  67.850  1.00  0.00    -0.206 C  
HETATM   23  O   UNL     1     -11.381   6.167  68.512  1.00  0.00    -0.289 OA 
ENDBRANCH  17  20
ENDBRANCH  14  15
ENDBRANCH  13  14
ENDBRANCH   4  13
BRANCH  10  24
HETATM   24  N   UNL     1     -11.489   7.780  73.067  1.00  0.00    -0.595 N  
HETATM   25  C   UNL     1     -11.701   8.514  71.931  1.00  0.00    -0.341 C  
HETATM   26  O   UNL     1     -12.819   8.986  71.724  1.00  0.00    -0.329 OA 
HETATM   27  H   UNL     1     -12.300   7.613  73.663  1.00  0.00     0.000 HD 
BRANCH  25  28
HETATM   28  C   UNL     1     -10.538   8.733  70.975  1.00  0.00    -0.293 C  
BRANCH  28  29
HETATM   29  C   UNL     1     -10.676   9.952  70.089  1.00  0.00    -0.361 A  
HETATM   30  C   UNL     1      -9.613  10.446  69.299  1.00  0.00    -0.226 A  
HETATM   31  C   UNL     1      -9.845  11.583  68.499  1.00  0.00    -0.198 A  
HETATM   32  C   UNL     1     -11.931  10.595  70.027  1.00  0.00    -0.408 A  
HETATM   33  C   UNL     1     -11.093  12.202  68.449  1.00  0.00    -0.289 A  
HETATM   34  C   UNL     1     -12.137  11.711  69.219  1.00  0.00    -0.323 A  
BRANCH  30  35
HETATM   35  C   UNL     1      -8.222   9.840  69.333  1.00  0.00    -0.135 C  
HETATM   36  N   UNL     1      -7.308  10.564  70.217  1.00  0.00    -0.455 NA 
HETATM   37  H1  UNL     1      -6.373  10.157  70.240  1.00  0.00     0.000 HD 
HETATM   38  H2  UNL     1      -7.696  10.642  71.158  1.00  0.00     0.000 HD 
ENDBRANCH  30  35
ENDBRANCH  28  29
ENDBRANCH  25  28
ENDBRANCH  10  24
TORSDOF 8
ENDMDL
MODEL      281
REMARK 921   NORMALIZED FREE ENERGY PREDICTED BY IDOCK:   -3.80 KCAL/MOL
REMARK 922        TOTAL FREE ENERGY PREDICTED BY IDOCK:   -6.40 KCAL/MOL
REMARK 923 INTER-LIGAND FREE ENERGY PREDICTED BY IDOCK:   -7.31 KCAL/MOL
REMARK 924 INTRA-LIGAND FREE ENERGY PREDICTED BY IDOCK:    0.92 KCAL/MOL
REMARK 927      BINDING AFFINITY PREDICTED BY RF-SCORE:    0.00 PKD
ROOT
HETATM    1  C   UNL     1      -8.577   7.037  67.178  1.00  0.00    -0.121 C  
HETATM    2  S   UNL     1     -10.376   7.042  67.317  1.00  0.00    -0.296 SA 
HETATM    3  C   UNL     1     -10.518   8.834  67.142  1.00  0.00    -0.283 C  
HETATM    4  C   UNL     1      -9.521   9.644  67.964  1.00  0.00    -0.146 C  
HETATM    5  O   UNL     1      -6.701   9.367  70.270  1.00  0.00    -0.055 OA 
HETATM    6  CA  UNL     1      -8.383   9.127  68.516  1.00  0.00    -0.123 C  
HETATM    7  N   UNL     1      -8.042   7.827  68.268  1.00  0.00    -0.122 N  
HETATM    8  O   UNL     1      -6.506   6.895  69.735  1.00  0.00    -0.041 OA 
HETATM    9  C   UNL     1      -7.498   9.992  69.389  1.00  0.00    -0.113 C  
HETATM   10  CA  UNL     1      -7.813   5.814  67.784  1.00  0.00    -0.098 C  
HETATM   11  OXT UNL     1      -7.480  11.209  69.311  1.00  0.00    -0.123 OA 
HETATM   12  C   UNL     1      -7.253   6.867  68.785  1.00  0.00    -0.091 C  
ENDROOT
BRANCH   4  13
HETATM   13  C   UNL     1     -10.038  11.062  68.203  1.00  0.00    -0.179 C  
BRANCH  13  14
HETATM   14  S   UNL     1      -9.540  12.191  66.854  1.00  0.00    -0.211 SA 
BRANCH  14  15
HETATM   15  C   UNL     1     -10.485  13.577  67.276  1.00  0.00    -0.248 A  
HETATM   16  N   UNL     1     -11.789  13.681  67.152  1.00  0.00    -0.380 NA 
HETATM   17  N   UNL     1     -10.004  14.743  67.810  1.00  0.00    -0.222 NA 
HETATM   18  N   UNL     1     -12.122  14.914  67.650  1.00  0.00    -0.153 NA 
HETATM   19  N   UNL     1     -11.049  15.556  68.086  1.00  0.00    -0.311 NA 
BRANCH  17  20
HETATM   20  C   UNL     1      -8.665  15.105  68.216  1.00  0.00    -0.171 C  
HETATM   21  O   UNL     1      -8.254  16.225  66.071  1.00  0.00    -0.263 OA 
HETATM   22  C   UNL     1      -7.729  15.556  67.118  1.00  0.00    -0.222 C  
HETATM   23  O   UNL     1      -6.516  15.403  67.210  1.00  0.00    -0.292 OA 
ENDBRANCH  17  20
ENDBRANCH  14  15
ENDBRANCH  13  14
ENDBRANCH   4  13
BRANCH  10  24
HETATM   24  N   UNL     1      -8.606   4.714  68.379  1.00  0.00    -0.097 N  
HETATM   25  C   UNL     1      -9.015   4.615  69.682  1.00  0.00    -0.094 C  
HETATM   26  O   UNL     1      -9.613   3.602  70.045  1.00  0.00    -0.188 OA 
HETATM   27  H   UNL     1      -8.874   3.953  67.755  1.00  0.00     0.000 HD 
BRANCH  25  28
HETATM   28  C   UNL     1      -8.698   5.756  70.636  1.00  0.00    -0.137 C  
BRANCH  28  29
HETATM   29  C   UNL     1      -9.915   6.435  71.228  1.00  0.00    -0.204 A  
HETATM   30  C   UNL     1      -9.845   7.274  72.362  1.00  0.00    -0.188 A  
HETATM   31  C   UNL     1     -11.034   7.868  72.831  1.00  0.00    -0.452 A  
HETATM   32  C   UNL     1     -11.161   6.244  70.593  1.00  0.00    -0.401 A  
HETATM   33  C   UNL     1     -12.255   7.670  72.187  1.00  0.00    -0.301 A  
HETATM   34  C   UNL     1     -12.321   6.851  71.071  1.00  0.00    -0.401 A  
BRANCH  30  35
HETATM   35  C   UNL     1      -8.555   7.505  73.128  1.00  0.00    -0.150 C  
HETATM   36  N   UNL     1      -8.783   7.932  74.509  1.00  0.00    -0.437 NA 
HETATM   37  H1  UNL     1      -7.916   8.087  75.024  1.00  0.00     0.000 HD 
HETATM   38  H2  UNL     1      -9.387   7.273  75.000  1.00  0.00     0.000 HD 
ENDBRANCH  30  35
ENDBRANCH  28  29
ENDBRANCH  25  28
ENDBRANCH  10  24
TORSDOF 8
ENDMDL
MODEL      282
REMARK 921   NORMALIZED FREE ENERGY PREDICTED BY IDOCK:   -3.79 KCAL/MOL
REMARK 922        TOTAL FREE ENERGY PREDICTED BY IDOCK:   -6.38 KCAL/MOL
REMARK 923 INTER-LIGAND FREE ENERGY PREDICTED BY IDOCK:   -5.17 KCAL/MOL
REMARK 924 INTRA-LIGAND FREE ENERGY PREDICTED BY IDOCK:   -1.21 KCAL/MOL
REMARK 927      BINDING AFFINITY PREDICTED BY RF-SCORE:    0.00 PKD
ROOT
HETATM    1  C   UNL     1      -7.836  13.549  69.302  1.00  0.00     0.410 C  
HETATM    2  S   UNL     1      -9.099  13.872  68.054  1.00  0.00    -0.199 SA 
HETATM    3  C   UNL     1     -10.218  12.591  68.663  1.00  0.00    -0.154 C  
HETATM    4  C   UNL     1      -9.556  11.258  68.991  1.00  0.00    -0.048 C  
HETATM    5  O   UNL     1      -6.345   9.518  69.101  1.00  0.00    -0.041 OA 
HETATM    6  CA  UNL     1      -8.212  11.092  69.168  1.00  0.00     0.000 C  
HETATM    7  N   UNL     1      -7.387  12.181  69.139  1.00  0.00     0.001 N  
HETATM    8  O   UNL     1      -5.137  11.729  68.801  1.00  0.00    -0.047 OA 
HETATM    9  C   UNL     1      -7.639   9.711  69.406  1.00  0.00    -0.097 C  
HETATM   10  CA  UNL     1      -6.372  13.993  68.974  1.00  0.00    -0.097 C  
HETATM   11  OXT UNL     1      -8.297   8.791  69.865  1.00  0.00    -0.115 OA 
HETATM   12  C   UNL     1      -6.081  12.463  68.975  1.00  0.00    -0.077 C  
ENDROOT
BRANCH   4  13
HETATM   13  C   UNL     1     -10.576  10.120  68.950  1.00  0.00    -0.215 C  
BRANCH  13  14
HETATM   14  S   UNL     1     -11.239   9.878  67.264  1.00  0.00     0.488 SA 
BRANCH  14  15
HETATM   15  C   UNL     1      -9.835   9.221  66.495  1.00  0.00    -0.263 A  
HETATM   16  N   UNL     1      -9.218   8.116  66.844  1.00  0.00    -0.151 NA 
HETATM   17  N   UNL     1      -9.192   9.755  65.410  1.00  0.00    -0.208 NA 
HETATM   18  N   UNL     1      -8.201   7.944  65.940  1.00  0.00    -0.119 NA 
HETATM   19  N   UNL     1      -8.197   8.917  65.042  1.00  0.00    -0.143 NA 
BRANCH  17  20
HETATM   20  C   UNL     1      -9.518  10.908  64.601  1.00  0.00    -0.244 C  
HETATM   21  O   UNL     1      -9.659   9.522  62.580  1.00  0.00     0.025 OA 
HETATM   22  C   UNL     1      -9.390  10.735  63.104  1.00  0.00    -0.319 C  
HETATM   23  O   UNL     1      -9.139  11.686  62.371  1.00  0.00    -0.259 OA 
ENDBRANCH  17  20
ENDBRANCH  14  15
ENDBRANCH  13  14
ENDBRANCH   4  13
BRANCH  10  24
HETATM   24  N   UNL     1      -6.120  14.699  67.697  1.00  0.00    -0.112 N  
HETATM   25  C   UNL     1      -6.121  16.054  67.501  1.00  0.00    -0.159 C  
HETATM   26  O   UNL     1      -5.961  16.493  66.362  1.00  0.00    -0.237 OA 
HETATM   27  H   UNL     1      -5.926  14.117  66.882  1.00  0.00     0.000 HD 
BRANCH  25  28
HETATM   28  C   UNL     1      -6.338  16.966  68.698  1.00  0.00    -0.161 C  
BRANCH  28  29
HETATM   29  C   UNL     1      -7.584  17.821  68.619  1.00  0.00    -0.276 A  
HETATM   30  C   UNL     1      -7.539  19.223  68.451  1.00  0.00    -0.351 A  
HETATM   31  C   UNL     1      -8.757  19.929  68.379  1.00  0.00    -0.222 A  
HETATM   32  C   UNL     1      -8.840  17.179  68.681  1.00  0.00    -0.266 A  
HETATM   33  C   UNL     1      -9.987  19.275  68.438  1.00  0.00    -0.502 A  
HETATM   34  C   UNL     1     -10.029  17.899  68.597  1.00  0.00    -0.387 A  
BRANCH  30  35
HETATM   35  C   UNL     1      -6.235  19.998  68.412  1.00  0.00    -0.272 C  
HETATM   36  N   UNL     1      -5.862  20.547  69.716  1.00  0.00    -0.356 NA 
HETATM   37  H1  UNL     1      -4.985  21.069  69.691  1.00  0.00     0.000 HD 
HETATM   38  H2  UNL     1      -5.830  19.814  70.425  1.00  0.00     0.000 HD 
ENDBRANCH  30  35
ENDBRANCH  28  29
ENDBRANCH  25  28
ENDBRANCH  10  24
TORSDOF 8
ENDMDL
MODEL      283
REMARK 921   NORMALIZED FREE ENERGY PREDICTED BY IDOCK:   -3.74 KCAL/MOL
REMARK 922        TOTAL FREE ENERGY PREDICTED BY IDOCK:   -6.32 KCAL/MOL
REMARK 923 INTER-LIGAND FREE ENERGY PREDICTED BY IDOCK:   -8.87 KCAL/MOL
REMARK 924 INTRA-LIGAND FREE ENERGY PREDICTED BY IDOCK:    2.56 KCAL/MOL
REMARK 927      BINDING AFFINITY PREDICTED BY RF-SCORE:    0.00 PKD
ROOT
HETATM    1  C   UNL     1      -9.990   9.395  68.221  1.00  0.00    -0.174 C  
HETATM    2  S   UNL     1     -11.136  10.628  67.571  1.00  0.00    -0.248 SA 
HETATM    3  C   UNL     1      -9.844  11.593  66.757  1.00  0.00    -0.200 C  
HETATM    4  C   UNL     1      -8.595  11.837  67.595  1.00  0.00    -0.153 C  
HETATM    5  O   UNL     1      -7.036  11.131  70.823  1.00  0.00     0.259 OA 
HETATM    6  CA  UNL     1      -8.273  11.128  68.717  1.00  0.00    -0.135 C  
HETATM    7  N   UNL     1      -9.054  10.071  69.096  1.00  0.00    -0.172 N  
HETATM    8  O   UNL     1      -8.809   9.378  71.295  1.00  0.00    -0.287 OA 
HETATM    9  C   UNL     1      -7.053  11.501  69.533  1.00  0.00     0.018 C  
HETATM   10  CA  UNL     1     -10.451   8.573  69.470  1.00  0.00    -0.220 C  
HETATM   11  OXT UNL     1      -6.103  12.106  69.062  1.00  0.00    -0.064 OA 
HETATM   12  C   UNL     1      -9.295   9.327  70.190  1.00  0.00    -0.228 C  
ENDROOT
BRANCH   4  13
HETATM   13  C   UNL     1      -7.835  13.066  67.095  1.00  0.00    -0.063 C  
BRANCH  13  14
HETATM   14  S   UNL     1      -8.142  14.519  68.161  1.00  0.00    -0.149 SA 
BRANCH  14  15
HETATM   15  C   UNL     1      -7.076  15.657  67.410  1.00  0.00    -0.207 A  
HETATM   16  N   UNL     1      -5.764  15.580  67.392  1.00  0.00    -0.340 NA 
HETATM   17  N   UNL     1      -7.457  16.777  66.720  1.00  0.00    -0.216 NA 
HETATM   18  N   UNL     1      -5.330  16.648  66.649  1.00  0.00    -0.353 NA 
HETATM   19  N   UNL     1      -6.352  17.364  66.206  1.00  0.00    -0.225 NA 
BRANCH  17  20
HETATM   20  C   UNL     1      -8.774  17.265  66.380  1.00  0.00    -0.250 C  
HETATM   21  O   UNL     1      -9.002  18.346  68.572  1.00  0.00    -0.312 OA 
HETATM   22  C   UNL     1      -9.624  17.759  67.529  1.00  0.00    -0.268 C  
HETATM   23  O   UNL     1     -10.848  17.713  67.483  1.00  0.00    -0.325 OA 
ENDBRANCH  17  20
ENDBRANCH  14  15
ENDBRANCH  13  14
ENDBRANCH   4  13
BRANCH  10  24
HETATM   24  N   UNL     1     -11.811   8.811  70.005  1.00  0.00    -0.341 N  
HETATM   25  C   UNL     1     -12.339  10.015  70.387  1.00  0.00    -0.135 C  
HETATM   26  O   UNL     1     -13.467  10.045  70.878  1.00  0.00    -0.352 OA 
HETATM   27  H   UNL     1     -12.416   7.995  70.099  1.00  0.00     0.000 HD 
BRANCH  25  28
HETATM   28  C   UNL     1     -11.501  11.271  70.202  1.00  0.00    -0.336 C  
BRANCH  28  29
HETATM   29  C   UNL     1     -12.171  12.546  70.668  1.00  0.00    -0.365 A  
HETATM   30  C   UNL     1     -12.149  13.740  69.912  1.00  0.00    -0.412 A  
HETATM   31  C   UNL     1     -12.811  14.872  70.429  1.00  0.00    -0.327 A  
HETATM   32  C   UNL     1     -12.873  12.523  71.892  1.00  0.00    -0.311 A  
HETATM   33  C   UNL     1     -13.503  14.828  71.638  1.00  0.00    -0.468 A  
HETATM   34  C   UNL     1     -13.529  13.654  72.375  1.00  0.00    -0.685 A  
BRANCH  30  35
HETATM   35  C   UNL     1     -11.387  13.865  68.606  1.00  0.00    -0.278 C  
HETATM   36  N   UNL     1     -12.063  14.725  67.634  1.00  0.00    -0.548 NA 
HETATM   37  H1  UNL     1     -11.551  14.809  66.755  1.00  0.00     0.000 HD 
HETATM   38  H2  UNL     1     -12.256  15.644  68.034  1.00  0.00     0.000 HD 
ENDBRANCH  30  35
ENDBRANCH  28  29
ENDBRANCH  25  28
ENDBRANCH  10  24
TORSDOF 8
ENDMDL
MODEL      284
REMARK 921   NORMALIZED FREE ENERGY PREDICTED BY IDOCK:   -3.73 KCAL/MOL
REMARK 922        TOTAL FREE ENERGY PREDICTED BY IDOCK:   -6.30 KCAL/MOL
REMARK 923 INTER-LIGAND FREE ENERGY PREDICTED BY IDOCK:   -7.21 KCAL/MOL
REMARK 924 INTRA-LIGAND FREE ENERGY PREDICTED BY IDOCK:    0.91 KCAL/MOL
REMARK 927      BINDING AFFINITY PREDICTED BY RF-SCORE:    0.00 PKD
ROOT
HETATM    1  C   UNL     1     -10.831   6.308  71.992  1.00  0.00    -0.245 C  
HETATM    2  S   UNL     1     -11.579   6.398  70.353  1.00  0.00    -0.303 SA 
HETATM    3  C   UNL     1     -10.284   5.417  69.563  1.00  0.00    -0.266 C  
HETATM    4  C   UNL     1      -8.860   5.791  69.955  1.00  0.00    -0.139 C  
HETATM    5  O   UNL     1      -6.883   8.015  72.077  1.00  0.00    -0.061 OA 
HETATM    6  CA  UNL     1      -8.538   6.539  71.053  1.00  0.00    -0.134 C  
HETATM    7  N   UNL     1      -9.522   6.923  71.921  1.00  0.00    -0.142 N  
HETATM    8  O   UNL     1      -8.983   8.679  73.336  1.00  0.00    -0.252 OA 
HETATM    9  C   UNL     1      -7.099   6.932  71.313  1.00  0.00    -0.075 C  
HETATM   10  CA  UNL     1     -11.218   7.422  73.021  1.00  0.00    -0.297 C  
HETATM   11  OXT UNL     1      -6.151   6.304  70.870  1.00  0.00    -0.029 OA 
HETATM   12  C   UNL     1      -9.723   7.836  72.888  1.00  0.00    -0.249 C  
ENDROOT
BRANCH   4  13
HETATM   13  C   UNL     1      -7.865   5.344  68.886  1.00  0.00    -0.083 C  
BRANCH  13  14
HETATM   14  S   UNL     1      -7.662   6.616  67.588  1.00  0.00    -0.108 SA 
BRANCH  14  15
HETATM   15  C   UNL     1      -8.331   5.760  66.240  1.00  0.00    -0.115 A  
HETATM   16  N   UNL     1      -9.013   4.639  66.307  1.00  0.00    -0.116 NA 
HETATM   17  N   UNL     1      -8.253   6.145  64.928  1.00  0.00    -0.138 NA 
HETATM   18  N   UNL     1      -9.394   4.347  65.023  1.00  0.00    -0.159 NA 
HETATM   19  N   UNL     1      -8.967   5.274  64.180  1.00  0.00     0.047 NA 
BRANCH  17  20
HETATM   20  C   UNL     1      -7.689   7.335  64.333  1.00  0.00    -0.120 C  
HETATM   21  O   UNL     1      -9.380   8.747  65.414  1.00  0.00    -0.159 OA 
HETATM   22  C   UNL     1      -8.554   8.575  64.362  1.00  0.00    -0.007 C  
HETATM   23  O   UNL     1      -8.449   9.447  63.506  1.00  0.00    -0.177 OA 
ENDBRANCH  17  20
ENDBRANCH  14  15
ENDBRANCH  13  14
ENDBRANCH   4  13
BRANCH  10  24
HETATM   24  N   UNL     1     -12.211   8.442  72.613  1.00  0.00    -0.537 N  
HETATM   25  C   UNL     1     -11.989   9.512  71.788  1.00  0.00    -0.371 C  
HETATM   26  O   UNL     1     -12.901  10.316  71.594  1.00  0.00    -0.391 OA 
HETATM   27  H   UNL     1     -13.156   8.336  72.983  1.00  0.00     0.000 HD 
BRANCH  25  28
HETATM   28  C   UNL     1     -10.615   9.675  71.156  1.00  0.00    -0.327 C  
BRANCH  28  29
HETATM   29  C   UNL     1     -10.607  10.468  69.867  1.00  0.00    -0.261 A  
HETATM   30  C   UNL     1      -9.490  10.510  69.003  1.00  0.00    -0.211 A  
HETATM   31  C   UNL     1      -9.586  11.271  67.820  1.00  0.00    -0.181 A  
HETATM   32  C   UNL     1     -11.781  11.163  69.504  1.00  0.00    -0.405 A  
HETATM   33  C   UNL     1     -10.756  11.947  67.477  1.00  0.00    -0.263 A  
HETATM   34  C   UNL     1     -11.853  11.900  68.323  1.00  0.00    -0.343 A  
BRANCH  30  35
HETATM   35  C   UNL     1      -8.177   9.825  69.333  1.00  0.00    -0.135 C  
HETATM   36  N   UNL     1      -7.367  10.580  70.289  1.00  0.00    -0.455 NA 
HETATM   37  H1  UNL     1      -6.484  10.119  70.511  1.00  0.00     0.000 HD 
HETATM   38  H2  UNL     1      -7.897  10.783  71.137  1.00  0.00     0.000 HD 
ENDBRANCH  30  35
ENDBRANCH  28  29
ENDBRANCH  25  28
ENDBRANCH  10  24
TORSDOF 8
ENDMDL
MODEL      285
REMARK 921   NORMALIZED FREE ENERGY PREDICTED BY IDOCK:   -3.72 KCAL/MOL
REMARK 922        TOTAL FREE ENERGY PREDICTED BY IDOCK:   -6.28 KCAL/MOL
REMARK 923 INTER-LIGAND FREE ENERGY PREDICTED BY IDOCK:   -7.04 KCAL/MOL
REMARK 924 INTRA-LIGAND FREE ENERGY PREDICTED BY IDOCK:    0.76 KCAL/MOL
REMARK 927      BINDING AFFINITY PREDICTED BY RF-SCORE:    0.00 PKD
ROOT
HETATM    1  C   UNL     1     -10.672   7.257  71.770  1.00  0.00    -0.218 C  
HETATM    2  S   UNL     1      -9.631   8.715  71.988  1.00  0.00    -0.295 SA 
HETATM    3  C   UNL     1     -10.393   9.626  70.627  1.00  0.00    -0.297 C  
HETATM    4  C   UNL     1     -10.609   8.821  69.351  1.00  0.00    -0.218 C  
HETATM    5  O   UNL     1     -10.223   5.504  67.867  1.00  0.00    -0.165 OA 
HETATM    6  CA  UNL     1     -10.581   7.456  69.291  1.00  0.00    -0.213 C  
HETATM    7  N   UNL     1     -10.435   6.732  70.441  1.00  0.00    -0.202 N  
HETATM    8  O   UNL     1      -9.759   4.531  70.164  1.00  0.00    -0.182 OA 
HETATM    9  C   UNL     1     -10.720   6.748  67.960  1.00  0.00    -0.241 C  
HETATM   10  CA  UNL     1     -10.131   5.898  72.325  1.00  0.00    -0.182 C  
HETATM   11  OXT UNL     1     -11.267   7.257  66.995  1.00  0.00    -0.221 OA 
HETATM   12  C   UNL     1     -10.078   5.492  70.823  1.00  0.00    -0.212 C  
ENDROOT
BRANCH   4  13
HETATM   13  C   UNL     1     -10.715   9.743  68.137  1.00  0.00    -0.233 C  
BRANCH  13  14
HETATM   14  S   UNL     1     -10.430  11.489  68.599  1.00  0.00    -0.201 SA 
BRANCH  14  15
HETATM   15  C   UNL     1     -11.326  12.269  67.340  1.00  0.00    -0.325 A  
HETATM   16  N   UNL     1     -11.766  11.693  66.244  1.00  0.00    -0.406 NA 
HETATM   17  N   UNL     1     -11.710  13.583  67.326  1.00  0.00    -0.361 NA 
HETATM   18  N   UNL     1     -12.464  12.655  65.561  1.00  0.00    -0.648 NA 
HETATM   19  N   UNL     1     -12.467  13.800  66.226  1.00  0.00    -0.424 NA 
BRANCH  17  20
HETATM   20  C   UNL     1     -11.552  14.617  68.324  1.00  0.00    -0.326 C  
HETATM   21  O   UNL     1      -9.585  15.516  67.163  1.00  0.00    -0.217 OA 
HETATM   22  C   UNL     1     -10.223  15.337  68.338  1.00  0.00    -0.223 C  
HETATM   23  O   UNL     1      -9.774  15.828  69.369  1.00  0.00    -0.254 OA 
ENDBRANCH  17  20
ENDBRANCH  14  15
ENDBRANCH  13  14
ENDBRANCH   4  13
BRANCH  10  24
HETATM   24  N   UNL     1      -8.835   5.897  73.042  1.00  0.00    -0.123 N  
HETATM   25  C   UNL     1      -7.593   5.773  72.480  1.00  0.00    -0.101 C  
HETATM   26  O   UNL     1      -6.607   5.722  73.215  1.00  0.00    -0.069 OA 
HETATM   27  H   UNL     1      -8.872   5.998  74.056  1.00  0.00     0.000 HD 
BRANCH  25  28
HETATM   28  C   UNL     1      -7.481   5.689  70.966  1.00  0.00    -0.090 C  
BRANCH  28  29
HETATM   29  C   UNL     1      -6.846   6.899  70.314  1.00  0.00    -0.057 A  
HETATM   30  C   UNL     1      -6.660   7.005  68.918  1.00  0.00    -0.048 A  
HETATM   31  C   UNL     1      -6.067   8.178  68.408  1.00  0.00    -0.045 A  
HETATM   32  C   UNL     1      -6.459   7.976  71.140  1.00  0.00    -0.038 A  
HETATM   33  C   UNL     1      -5.695   9.232  69.240  1.00  0.00    -0.035 A  
HETATM   34  C   UNL     1      -5.885   9.129  70.610  1.00  0.00    -0.041 A  
BRANCH  30  35
HETATM   35  C   UNL     1      -7.011   5.881  67.960  1.00  0.00    -0.069 C  
HETATM   36  N   UNL     1      -6.857   6.262  66.556  1.00  0.00    -0.060 NA 
HETATM   37  H1  UNL     1      -7.093   5.507  65.912  1.00  0.00     0.000 HD 
HETATM   38  H2  UNL     1      -5.917   6.616  66.375  1.00  0.00     0.000 HD 
ENDBRANCH  30  35
ENDBRANCH  28  29
ENDBRANCH  25  28
ENDBRANCH  10  24
TORSDOF 8
ENDMDL
MODEL      286
REMARK 921   NORMALIZED FREE ENERGY PREDICTED BY IDOCK:   -3.66 KCAL/MOL
REMARK 922        TOTAL FREE ENERGY PREDICTED BY IDOCK:   -6.19 KCAL/MOL
REMARK 923 INTER-LIGAND FREE ENERGY PREDICTED BY IDOCK:   -5.66 KCAL/MOL
REMARK 924 INTRA-LIGAND FREE ENERGY PREDICTED BY IDOCK:   -0.53 KCAL/MOL
REMARK 927      BINDING AFFINITY PREDICTED BY RF-SCORE:    0.00 PKD
ROOT
HETATM    1  C   UNL     1     -10.274   8.818  71.598  1.00  0.00    -0.324 C  
HETATM    2  S   UNL     1      -8.588   8.459  72.132  1.00  0.00    -0.180 SA 
HETATM    3  C   UNL     1      -7.843   8.965  70.566  1.00  0.00    -0.112 C  
HETATM    4  C   UNL     1      -8.551   8.452  69.318  1.00  0.00    -0.130 C  
HETATM    5  O   UNL     1     -11.418   6.509  68.153  1.00  0.00    -0.146 OA 
HETATM    6  CA  UNL     1      -9.824   7.956  69.307  1.00  0.00    -0.177 C  
HETATM    7  N   UNL     1     -10.569   7.982  70.453  1.00  0.00    -0.220 N  
HETATM    8  O   UNL     1     -12.405   6.564  70.490  1.00  0.00    -0.259 OA 
HETATM    9  C   UNL     1     -10.412   7.389  68.032  1.00  0.00    -0.199 C  
HETATM   10  CA  UNL     1     -11.436   8.083  72.344  1.00  0.00    -0.389 C  
HETATM   11  OXT UNL     1     -10.015   7.708  66.922  1.00  0.00    -0.210 OA 
HETATM   12  C   UNL     1     -11.661   7.388  70.968  1.00  0.00    -0.297 C  
ENDROOT
BRANCH   4  13
HETATM   13  C   UNL     1      -7.601   8.435  68.121  1.00  0.00    -0.098 C  
BRANCH  13  14
HETATM   14  S   UNL     1      -6.364   7.098  68.270  1.00  0.00    -0.041 SA 
BRANCH  14  15
HETATM   15  C   UNL     1      -7.066   5.936  67.197  1.00  0.00    -0.070 A  
HETATM   16  N   UNL     1      -7.985   5.055  67.518  1.00  0.00    -0.095 NA 
HETATM   17  N   UNL     1      -6.769   5.791  65.868  1.00  0.00    -0.054 NA 
HETATM   18  N   UNL     1      -8.288   4.381  66.364  1.00  0.00    -0.106 NA 
HETATM   19  N   UNL     1      -7.580   4.843  65.345  1.00  0.00    -0.084 NA 
BRANCH  17  20
HETATM   20  C   UNL     1      -5.893   6.561  65.014  1.00  0.00    -0.030 C  
HETATM   21  O   UNL     1      -7.674   8.189  64.561  1.00  0.00    -0.105 OA 
HETATM   22  C   UNL     1      -6.559   7.576  64.112  1.00  0.00    -0.048 C  
HETATM   23  O   UNL     1      -6.057   7.906  63.043  1.00  0.00    -0.066 OA 
ENDBRANCH  17  20
ENDBRANCH  14  15
ENDBRANCH  13  14
ENDBRANCH   4  13
BRANCH  10  24
HETATM   24  N   UNL     1     -11.092   7.187  73.472  1.00  0.00    -0.547 N  
HETATM   25  C   UNL     1     -10.775   5.858  73.391  1.00  0.00    -0.267 C  
HETATM   26  O   UNL     1     -10.577   5.226  74.429  1.00  0.00    -0.272 OA 
HETATM   27  H   UNL     1     -11.092   7.603  74.404  1.00  0.00     0.000 HD 
BRANCH  25  28
HETATM   28  C   UNL     1     -10.695   5.208  72.018  1.00  0.00    -0.236 C  
BRANCH  28  29
HETATM   29  C   UNL     1      -9.430   4.414  71.772  1.00  0.00    -0.206 A  
HETATM   30  C   UNL     1      -9.354   3.018  71.971  1.00  0.00    -0.189 A  
HETATM   31  C   UNL     1      -8.131   2.368  71.704  1.00  0.00    -0.053 A  
HETATM   32  C   UNL     1      -8.294   5.100  71.290  1.00  0.00    -0.118 A  
HETATM   33  C   UNL     1      -7.022   3.063  71.224  1.00  0.00    -0.032 A  
HETATM   34  C   UNL     1      -7.101   4.433  71.023  1.00  0.00    -0.037 A  
BRANCH  30  35
HETATM   35  C   UNL     1     -10.513   2.208  72.522  1.00  0.00    -0.122 C  
HETATM   36  N   UNL     1     -10.571   2.221  73.984  1.00  0.00    -0.142 NA 
HETATM   37  H1  UNL     1     -11.351   1.676  74.354  1.00  0.00     0.000 HD 
HETATM   38  H2  UNL     1     -10.592   3.177  74.339  1.00  0.00     0.000 HD 
ENDBRANCH  30  35
ENDBRANCH  28  29
ENDBRANCH  25  28
ENDBRANCH  10  24
TORSDOF 8
ENDMDL
MODEL      287
REMARK 921   NORMALIZED FREE ENERGY PREDICTED BY IDOCK:   -3.58 KCAL/MOL
REMARK 922        TOTAL FREE ENERGY PREDICTED BY IDOCK:   -6.08 KCAL/MOL
REMARK 923 INTER-LIGAND FREE ENERGY PREDICTED BY IDOCK:   -6.75 KCAL/MOL
REMARK 924 INTRA-LIGAND FREE ENERGY PREDICTED BY IDOCK:    0.67 KCAL/MOL
REMARK 927      BINDING AFFINITY PREDICTED BY RF-SCORE:    0.00 PKD
ROOT
HETATM    1  C   UNL     1      -7.575   8.126  70.615  1.00  0.00    -0.073 C  
HETATM    2  S   UNL     1      -7.530   8.906  68.988  1.00  0.00    -0.075 SA 
HETATM    3  C   UNL     1      -9.093   9.783  69.219  1.00  0.00    -0.184 C  
HETATM    4  C   UNL     1     -10.219   8.949  69.818  1.00  0.00    -0.207 C  
HETATM    5  O   UNL     1     -11.050   5.642  71.132  1.00  0.00    -0.230 OA 
HETATM    6  CA  UNL     1     -10.033   7.761  70.466  1.00  0.00    -0.187 C  
HETATM    7  N   UNL     1      -8.764   7.301  70.682  1.00  0.00    -0.146 N  
HETATM    8  O   UNL     1      -8.585   5.043  71.181  1.00  0.00    -0.119 OA 
HETATM    9  C   UNL     1     -11.224   6.961  70.952  1.00  0.00    -0.289 C  
HETATM   10  CA  UNL     1      -6.743   6.815  70.806  1.00  0.00    -0.054 C  
HETATM   11  OXT UNL     1     -12.308   7.469  71.188  1.00  0.00    -0.320 OA 
HETATM   12  C   UNL     1      -8.138   6.147  70.978  1.00  0.00    -0.121 C  
ENDROOT
BRANCH   4  13
HETATM   13  C   UNL     1     -11.582   9.546  69.470  1.00  0.00     0.209 C  
BRANCH  13  14
HETATM   14  S   UNL     1     -11.740  11.257  70.093  1.00  0.00    -0.330 SA 
BRANCH  14  15
HETATM   15  C   UNL     1     -11.805  12.106  68.586  1.00  0.00    -0.306 A  
HETATM   16  N   UNL     1     -11.697  11.562  67.396  1.00  0.00    -0.609 NA 
HETATM   17  N   UNL     1     -11.994  13.454  68.433  1.00  0.00    -0.353 NA 
HETATM   18  N   UNL     1     -11.859  12.581  66.494  1.00  0.00    -0.520 NA 
HETATM   19  N   UNL     1     -12.075  13.731  67.112  1.00  0.00    -0.398 NA 
BRANCH  17  20
HETATM   20  C   UNL     1     -12.250  14.482  69.417  1.00  0.00    -0.247 C  
HETATM   21  O   UNL     1      -9.868  15.070  69.505  1.00  0.00    -0.199 OA 
HETATM   22  C   UNL     1     -11.045  15.012  70.161  1.00  0.00    -0.242 C  
HETATM   23  O   UNL     1     -11.145  15.464  71.297  1.00  0.00    -0.360 OA 
ENDBRANCH  17  20
ENDBRANCH  14  15
ENDBRANCH  13  14
ENDBRANCH   4  13
BRANCH  10  24
HETATM   24  N   UNL     1      -5.926   6.328  69.671  1.00  0.00    -0.017 N  
HETATM   25  C   UNL     1      -6.390   5.716  68.537  1.00  0.00    -0.041 C  
HETATM   26  O   UNL     1      -5.580   5.304  67.707  1.00  0.00    -0.011 OA 
HETATM   27  H   UNL     1      -4.917   6.462  69.740  1.00  0.00     0.000 HD 
BRANCH  25  28
HETATM   28  C   UNL     1      -7.891   5.554  68.355  1.00  0.00    -0.088 C  
BRANCH  28  29
HETATM   29  C   UNL     1      -8.291   4.661  67.201  1.00  0.00    -0.105 A  
HETATM   30  C   UNL     1      -8.296   5.103  65.859  1.00  0.00    -0.118 A  
HETATM   31  C   UNL     1      -8.676   4.190  64.854  1.00  0.00    -0.125 A  
HETATM   32  C   UNL     1      -8.639   3.322  67.482  1.00  0.00    -0.119 A  
HETATM   33  C   UNL     1      -9.012   2.870  65.152  1.00  0.00    -0.134 A  
HETATM   34  C   UNL     1      -9.001   2.437  66.469  1.00  0.00    -0.130 A  
BRANCH  30  35
HETATM   35  C   UNL     1      -7.973   6.533  65.470  1.00  0.00    -0.117 C  
HETATM   36  N   UNL     1      -9.142   7.412  65.517  1.00  0.00    -0.381 NA 
HETATM   37  H1  UNL     1      -8.925   8.375  65.256  1.00  0.00     0.000 HD 
HETATM   38  H2  UNL     1      -9.590   7.375  66.434  1.00  0.00     0.000 HD 
ENDBRANCH  30  35
ENDBRANCH  28  29
ENDBRANCH  25  28
ENDBRANCH  10  24
TORSDOF 8
ENDMDL
MODEL      288
REMARK 921   NORMALIZED FREE ENERGY PREDICTED BY IDOCK:   -3.52 KCAL/MOL
REMARK 922        TOTAL FREE ENERGY PREDICTED BY IDOCK:   -5.98 KCAL/MOL
REMARK 923 INTER-LIGAND FREE ENERGY PREDICTED BY IDOCK:   -6.33 KCAL/MOL
REMARK 924 INTRA-LIGAND FREE ENERGY PREDICTED BY IDOCK:    0.34 KCAL/MOL
REMARK 927      BINDING AFFINITY PREDICTED BY RF-SCORE:    0.00 PKD
ROOT
HETATM    1  C   UNL     1      -8.699   9.043  67.703  1.00  0.00    -0.124 C  
HETATM    2  S   UNL     1     -10.240   9.903  67.326  1.00  0.00    -0.237 SA 
HETATM    3  C   UNL     1      -9.418  11.420  66.792  1.00  0.00    -0.182 C  
HETATM    4  C   UNL     1      -8.287  11.895  67.696  1.00  0.00    -0.152 C  
HETATM    5  O   UNL     1      -6.394  11.077  70.713  1.00  0.00    -0.349 OA 
HETATM    6  CA  UNL     1      -7.672  11.111  68.631  1.00  0.00    -0.135 C  
HETATM    7  N   UNL     1      -8.010   9.791  68.734  1.00  0.00    -0.085 N  
HETATM    8  O   UNL     1      -7.410   8.752  70.719  1.00  0.00    -0.060 OA 
HETATM    9  C   UNL     1      -6.615  11.699  69.543  1.00  0.00    -0.111 C  
HETATM   10  CA  UNL     1      -8.770   7.852  68.714  1.00  0.00    -0.128 C  
HETATM   11  OXT UNL     1      -5.966  12.690  69.250  1.00  0.00    -0.079 OA 
HETATM   12  C   UNL     1      -7.911   8.783  69.620  1.00  0.00    -0.096 C  
ENDROOT
BRANCH   4  13
HETATM   13  C   UNL     1      -8.037  13.392  67.514  1.00  0.00    -0.181 C  
BRANCH  13  14
HETATM   14  S   UNL     1      -8.842  14.368  68.834  1.00  0.00     0.001 SA 
BRANCH  14  15
HETATM   15  C   UNL     1      -7.870  15.798  68.767  1.00  0.00    -0.180 A  
HETATM   16  N   UNL     1      -6.576  15.855  68.985  1.00  0.00    -0.133 NA 
HETATM   17  N   UNL     1      -8.316  17.056  68.462  1.00  0.00    -0.251 NA 
HETATM   18  N   UNL     1      -6.211  17.160  68.775  1.00  0.00    -0.159 NA 
HETATM   19  N   UNL     1      -7.255  17.894  68.422  1.00  0.00    -0.246 NA 
BRANCH  17  20
HETATM   20  C   UNL     1      -9.628  17.515  68.063  1.00  0.00    -0.282 C  
HETATM   21  O   UNL     1      -8.923  17.674  65.718  1.00  0.00    -0.509 OA 
HETATM   22  C   UNL     1      -9.732  18.141  66.691  1.00  0.00    -0.334 C  
HETATM   23  O   UNL     1     -10.585  18.984  66.437  1.00  0.00    -0.415 OA 
ENDBRANCH  17  20
ENDBRANCH  14  15
ENDBRANCH  13  14
ENDBRANCH   4  13
BRANCH  10  24
HETATM   24  N   UNL     1     -10.093   7.465  69.254  1.00  0.00    -0.181 N  
HETATM   25  C   UNL     1     -10.950   6.537  68.725  1.00  0.00    -0.305 C  
HETATM   26  O   UNL     1     -12.051   6.371  69.251  1.00  0.00     0.283 OA 
HETATM   27  H   UNL     1     -10.397   7.936  70.106  1.00  0.00     0.000 HD 
BRANCH  25  28
HETATM   28  C   UNL     1     -10.514   5.758  67.494  1.00  0.00    -0.310 C  
BRANCH  28  29
HETATM   29  C   UNL     1      -9.824   4.445  67.794  1.00  0.00    -0.152 A  
HETATM   30  C   UNL     1      -9.423   3.544  66.782  1.00  0.00    -0.190 A  
HETATM   31  C   UNL     1      -8.778   2.350  67.164  1.00  0.00    -0.140 A  
HETATM   32  C   UNL     1      -9.544   4.130  69.141  1.00  0.00    -0.243 A  
HETATM   33  C   UNL     1      -8.506   2.060  68.501  1.00  0.00    -0.086 A  
HETATM   34  C   UNL     1      -8.896   2.948  69.492  1.00  0.00    -0.151 A  
BRANCH  30  35
HETATM   35  C   UNL     1      -9.717   3.784  65.313  1.00  0.00    -0.167 C  
HETATM   36  N   UNL     1     -10.123   5.162  65.032  1.00  0.00    -0.261 NA 
HETATM   37  H1  UNL     1     -10.321   5.323  64.044  1.00  0.00     0.000 HD 
HETATM   38  H2  UNL     1      -9.428   5.824  65.379  1.00  0.00     0.000 HD 
ENDBRANCH  30  35
ENDBRANCH  28  29
ENDBRANCH  25  28
ENDBRANCH  10  24
TORSDOF 8
ENDMDL
MODEL      289
REMARK 921   NORMALIZED FREE ENERGY PREDICTED BY IDOCK:   -3.45 KCAL/MOL
REMARK 922        TOTAL FREE ENERGY PREDICTED BY IDOCK:   -5.88 KCAL/MOL
REMARK 923 INTER-LIGAND FREE ENERGY PREDICTED BY IDOCK:   -7.84 KCAL/MOL
REMARK 924 INTRA-LIGAND FREE ENERGY PREDICTED BY IDOCK:    1.96 KCAL/MOL
REMARK 927      BINDING AFFINITY PREDICTED BY RF-SCORE:    0.00 PKD
ROOT
HETATM    1  C   UNL     1     -10.780  16.886  66.283  1.00  0.00    -0.096 C  
HETATM    2  S   UNL     1      -9.760  15.551  65.622  1.00  0.00    -0.279 SA 
HETATM    3  C   UNL     1     -10.827  14.241  66.261  1.00  0.00    -0.310 C  
HETATM    4  C   UNL     1     -11.291  14.429  67.700  1.00  0.00    -0.348 C  
HETATM    5  O   UNL     1     -11.138  16.691  70.566  1.00  0.00    -0.260 OA 
HETATM    6  CA  UNL     1     -11.236  15.616  68.375  1.00  0.00    -0.352 C  
HETATM    7  N   UNL     1     -10.822  16.745  67.724  1.00  0.00    -0.322 N  
HETATM    8  O   UNL     1     -10.156  18.502  69.084  1.00  0.00    -0.347 OA 
HETATM    9  C   UNL     1     -11.640  15.685  69.832  1.00  0.00    -0.347 C  
HETATM   10  CA  UNL     1     -10.090  18.271  66.511  1.00  0.00    -0.385 C  
HETATM   11  OXT UNL     1     -12.399  14.879  70.347  1.00  0.00    -0.307 OA 
HETATM   12  C   UNL     1     -10.353  17.972  68.016  1.00  0.00    -0.387 C  
ENDROOT
BRANCH   4  13
HETATM   13  C   UNL     1     -11.687  13.092  68.324  1.00  0.00    -0.353 C  
BRANCH  13  14
HETATM   14  S   UNL     1     -10.232  12.009  68.560  1.00  0.00    -0.186 SA 
BRANCH  14  15
HETATM   15  C   UNL     1     -10.103  11.350  66.965  1.00  0.00    -0.208 A  
HETATM   16  N   UNL     1     -11.005  11.459  66.016  1.00  0.00    -0.264 NA 
HETATM   17  N   UNL     1      -9.037  10.644  66.474  1.00  0.00    -0.159 NA 
HETATM   18  N   UNL     1     -10.474  10.843  64.913  1.00  0.00    -0.305 NA 
HETATM   19  N   UNL     1      -9.263  10.374  65.168  1.00  0.00    -0.191 NA 
BRANCH  17  20
HETATM   20  C   UNL     1      -7.764  10.326  67.080  1.00  0.00    -0.092 C  
HETATM   21  O   UNL     1      -8.628   8.180  67.903  1.00  0.00    -0.130 OA 
HETATM   22  C   UNL     1      -7.765   9.200  68.090  1.00  0.00    -0.092 C  
HETATM   23  O   UNL     1      -6.948   9.161  69.003  1.00  0.00    -0.061 OA 
ENDBRANCH  17  20
ENDBRANCH  14  15
ENDBRANCH  13  14
ENDBRANCH   4  13
BRANCH  10  24
HETATM   24  N   UNL     1      -8.670  18.423  66.120  1.00  0.00    -0.178 N  
HETATM   25  C   UNL     1      -7.576  18.136  66.893  1.00  0.00    -0.217 C  
HETATM   26  O   UNL     1      -6.453  18.379  66.452  1.00  0.00    -0.178 OA 
HETATM   27  H   UNL     1      -8.488  18.777  65.181  1.00  0.00     0.000 HD 
BRANCH  25  28
HETATM   28  C   UNL     1      -7.794  17.542  68.275  1.00  0.00    -0.253 C  
BRANCH  28  29
HETATM   29  C   UNL     1      -6.935  16.334  68.582  1.00  0.00    -0.148 A  
HETATM   30  C   UNL     1      -5.952  16.333  69.597  1.00  0.00    -0.176 A  
HETATM   31  C   UNL     1      -5.210  15.153  69.811  1.00  0.00    -0.096 A  
HETATM   32  C   UNL     1      -7.156  15.152  67.842  1.00  0.00    -0.161 A  
HETATM   33  C   UNL     1      -5.447  13.995  69.072  1.00  0.00    -0.083 A  
HETATM   34  C   UNL     1      -6.416  13.996  68.081  1.00  0.00    -0.126 A  
BRANCH  30  35
HETATM   35  C   UNL     1      -5.623  17.568  70.414  1.00  0.00    -0.209 C  
HETATM   36  N   UNL     1      -5.723  18.805  69.639  1.00  0.00    -0.233 NA 
HETATM   37  H1  UNL     1      -5.501  19.637  70.188  1.00  0.00     0.000 HD 
HETATM   38  H2  UNL     1      -6.642  18.890  69.203  1.00  0.00     0.000 HD 
ENDBRANCH  30  35
ENDBRANCH  28  29
ENDBRANCH  25  28
ENDBRANCH  10  24
TORSDOF 8
ENDMDL
MODEL      290
REMARK 921   NORMALIZED FREE ENERGY PREDICTED BY IDOCK:   -3.18 KCAL/MOL
REMARK 922        TOTAL FREE ENERGY PREDICTED BY IDOCK:   -5.49 KCAL/MOL
REMARK 923 INTER-LIGAND FREE ENERGY PREDICTED BY IDOCK:   -6.19 KCAL/MOL
REMARK 924 INTRA-LIGAND FREE ENERGY PREDICTED BY IDOCK:    0.70 KCAL/MOL
REMARK 927      BINDING AFFINITY PREDICTED BY RF-SCORE:    0.00 PKD
ROOT
HETATM    1  C   UNL     1      -6.949   9.492  70.778  1.00  0.00    -0.102 C  
HETATM    2  S   UNL     1      -6.068   9.782  69.230  1.00  0.00    -0.036 SA 
HETATM    3  C   UNL     1      -7.121  11.164  68.735  1.00  0.00    -0.093 C  
HETATM    4  C   UNL     1      -8.616  10.937  68.924  1.00  0.00    -0.143 C  
HETATM    5  O   UNL     1     -11.096   8.544  70.138  1.00  0.00    -0.248 OA 
HETATM    6  CA  UNL     1      -9.149   9.957  69.712  1.00  0.00    -0.225 C  
HETATM    7  N   UNL     1      -8.322   9.163  70.456  1.00  0.00    -0.176 N  
HETATM    8  O   UNL     1      -9.250   7.177  71.214  1.00  0.00    -0.151 OA 
HETATM    9  C   UNL     1     -10.649   9.755  69.769  1.00  0.00    -0.257 C  
HETATM   10  CA  UNL     1      -6.832   8.069  71.415  1.00  0.00    -0.053 C  
HETATM   11  OXT UNL     1     -11.446  10.642  69.506  1.00  0.00    -0.250 OA 
HETATM   12  C   UNL     1      -8.352   7.977  71.091  1.00  0.00    -0.114 C  
ENDROOT
BRANCH   4  13
HETATM   13  C   UNL     1      -9.426  11.855  68.009  1.00  0.00    -0.197 C  
BRANCH  13  14
HETATM   14  S   UNL     1      -8.753  13.555  68.003  1.00  0.00    -0.188 SA 
BRANCH  14  15
HETATM   15  C   UNL     1      -9.835  14.288  66.869  1.00  0.00    -0.263 A  
HETATM   16  N   UNL     1      -9.487  14.858  65.738  1.00  0.00    -0.273 NA 
HETATM   17  N   UNL     1     -11.197  14.356  66.990  1.00  0.00    -0.317 NA 
HETATM   18  N   UNL     1     -10.653  15.251  65.134  1.00  0.00    -0.411 NA 
HETATM   19  N   UNL     1     -11.703  14.921  65.869  1.00  0.00    -0.243 NA 
BRANCH  17  20
HETATM   20  C   UNL     1     -12.077  13.810  67.998  1.00  0.00    -0.280 C  
HETATM   21  O   UNL     1     -11.784  15.796  69.412  1.00  0.00    -0.349 OA 
HETATM   22  C   UNL     1     -12.031  14.471  69.358  1.00  0.00    -0.322 C  
HETATM   23  O   UNL     1     -12.300  13.848  70.379  1.00  0.00    -0.332 OA 
ENDBRANCH  17  20
ENDBRANCH  14  15
ENDBRANCH  13  14
ENDBRANCH   4  13
BRANCH  10  24
HETATM   24  N   UNL     1      -5.967   7.068  70.749  1.00  0.00    -0.028 N  
HETATM   25  C   UNL     1      -6.260   6.366  69.611  1.00  0.00    -0.033 C  
HETATM   26  O   UNL     1      -5.465   5.514  69.213  1.00  0.00    -0.007 OA 
HETATM   27  H   UNL     1      -5.062   6.883  71.182  1.00  0.00     0.000 HD 
BRANCH  25  28
HETATM   28  C   UNL     1      -7.567   6.654  68.890  1.00  0.00    -0.101 C  
BRANCH  28  29
HETATM   29  C   UNL     1      -8.204   5.447  68.236  1.00  0.00    -0.095 A  
HETATM   30  C   UNL     1      -8.267   5.282  66.834  1.00  0.00    -0.108 A  
HETATM   31  C   UNL     1      -8.872   4.116  66.323  1.00  0.00    -0.118 A  
HETATM   32  C   UNL     1      -8.722   4.432  69.069  1.00  0.00    -0.116 A  
HETATM   33  C   UNL     1      -9.374   3.123  67.163  1.00  0.00    -0.197 A  
HETATM   34  C   UNL     1      -9.306   3.283  68.538  1.00  0.00    -0.237 A  
BRANCH  30  35
HETATM   35  C   UNL     1      -7.769   6.338  65.865  1.00  0.00    -0.093 C  
HETATM   36  N   UNL     1      -6.357   6.172  65.520  1.00  0.00    -0.037 NA 
HETATM   37  H1  UNL     1      -6.022   6.883  64.868  1.00  0.00     0.000 HD 
HETATM   38  H2  UNL     1      -6.177   5.234  65.161  1.00  0.00     0.000 HD 
ENDBRANCH  30  35
ENDBRANCH  28  29
ENDBRANCH  25  28
ENDBRANCH  10  24
TORSDOF 8
ENDMDL
MODEL      291
REMARK 921   NORMALIZED FREE ENERGY PREDICTED BY IDOCK:   -3.13 KCAL/MOL
REMARK 922        TOTAL FREE ENERGY PREDICTED BY IDOCK:   -5.41 KCAL/MOL
REMARK 923 INTER-LIGAND FREE ENERGY PREDICTED BY IDOCK:   -5.99 KCAL/MOL
REMARK 924 INTRA-LIGAND FREE ENERGY PREDICTED BY IDOCK:    0.57 KCAL/MOL
REMARK 927      BINDING AFFINITY PREDICTED BY RF-SCORE:    0.00 PKD
ROOT
HETATM    1  C   UNL     1     -10.977  18.093  66.357  1.00  0.00     0.254 C  
HETATM    2  S   UNL     1      -9.848  17.127  65.333  1.00  0.00     0.684 SA 
HETATM    3  C   UNL     1     -10.636  15.548  65.722  1.00  0.00    -0.356 C  
HETATM    4  C   UNL     1     -10.967  15.336  67.194  1.00  0.00    -0.331 C  
HETATM    5  O   UNL     1     -10.845  16.908  70.491  1.00  0.00    -0.014 OA 
HETATM    6  CA  UNL     1     -11.016  16.338  68.121  1.00  0.00    -0.343 C  
HETATM    7  N   UNL     1     -10.844  17.635  67.725  1.00  0.00    -0.319 N  
HETATM    8  O   UNL     1     -10.305  19.137  69.407  1.00  0.00    -0.086 OA 
HETATM    9  C   UNL     1     -11.269  16.017  69.579  1.00  0.00    -0.348 C  
HETATM   10  CA  UNL     1     -10.479  19.491  66.853  1.00  0.00    -0.477 C  
HETATM   11  OXT UNL     1     -11.842  15.002  69.943  1.00  0.00    -0.285 OA 
HETATM   12  C   UNL     1     -10.533  18.829  68.261  1.00  0.00    -0.266 C  
ENDROOT
BRANCH   4  13
HETATM   13  C   UNL     1     -11.092  13.847  67.515  1.00  0.00    -0.286 C  
BRANCH  13  14
HETATM   14  S   UNL     1     -10.039  12.836  66.414  1.00  0.00    -0.264 SA 
BRANCH  14  15
HETATM   15  C   UNL     1      -8.730  12.503  67.496  1.00  0.00    -0.182 A  
HETATM   16  N   UNL     1      -8.434  13.192  68.574  1.00  0.00    -0.110 NA 
HETATM   17  N   UNL     1      -7.840  11.468  67.381  1.00  0.00    -0.135 NA 
HETATM   18  N   UNL     1      -7.369  12.552  69.155  1.00  0.00     0.049 NA 
HETATM   19  N   UNL     1      -7.020  11.483  68.457  1.00  0.00    -0.076 NA 
BRANCH  17  20
HETATM   20  C   UNL     1      -7.781  10.384  66.428  1.00  0.00    -0.125 C  
HETATM   21  O   UNL     1      -6.030  11.530  65.145  1.00  0.00     0.480 OA 
HETATM   22  C   UNL     1      -7.073  10.675  65.124  1.00  0.00     0.064 C  
HETATM   23  O   UNL     1      -7.371  10.086  64.090  1.00  0.00    -0.131 OA 
ENDBRANCH  17  20
ENDBRANCH  14  15
ENDBRANCH  13  14
ENDBRANCH   4  13
BRANCH  10  24
HETATM   24  N   UNL     1      -9.146  19.961  66.410  1.00  0.00    -0.396 N  
HETATM   25  C   UNL     1      -8.032  20.110  67.193  1.00  0.00    -0.326 C  
HETATM   26  O   UNL     1      -7.009  20.577  66.693  1.00  0.00    -0.244 OA 
HETATM   27  H   UNL     1      -9.047  20.197  65.423  1.00  0.00     0.000 HD 
BRANCH  25  28
HETATM   28  C   UNL     1      -8.109  19.706  68.657  1.00  0.00    -0.324 C  
BRANCH  28  29
HETATM   29  C   UNL     1      -7.105  18.651  69.071  1.00  0.00    -0.300 A  
HETATM   30  C   UNL     1      -6.038  18.918  69.957  1.00  0.00    -0.200 A  
HETATM   31  C   UNL     1      -5.162  17.864  70.288  1.00  0.00    -0.246 A  
HETATM   32  C   UNL     1      -7.270  17.341  68.573  1.00  0.00    -0.224 A  
HETATM   33  C   UNL     1      -5.344  16.575  69.789  1.00  0.00    -0.157 A  
HETATM   34  C   UNL     1      -6.396  16.314  68.924  1.00  0.00    -0.139 A  
BRANCH  30  35
HETATM   35  C   UNL     1      -5.764  20.304  70.510  1.00  0.00    -0.332 C  
HETATM   36  N   UNL     1      -5.711  20.333  71.972  1.00  0.00    -0.498 NA 
HETATM   37  H1  UNL     1      -5.527  21.265  72.344  1.00  0.00     0.000 HD 
HETATM   38  H2  UNL     1      -5.033  19.657  72.326  1.00  0.00     0.000 HD 
ENDBRANCH  30  35
ENDBRANCH  28  29
ENDBRANCH  25  28
ENDBRANCH  10  24
TORSDOF 8
ENDMDL
MODEL      292
REMARK 921   NORMALIZED FREE ENERGY PREDICTED BY IDOCK:   -3.03 KCAL/MOL
REMARK 922        TOTAL FREE ENERGY PREDICTED BY IDOCK:   -5.27 KCAL/MOL
REMARK 923 INTER-LIGAND FREE ENERGY PREDICTED BY IDOCK:   -7.17 KCAL/MOL
REMARK 924 INTRA-LIGAND FREE ENERGY PREDICTED BY IDOCK:    1.90 KCAL/MOL
REMARK 927      BINDING AFFINITY PREDICTED BY RF-SCORE:    0.00 PKD
ROOT
HETATM    1  C   UNL     1      -9.626  15.378  69.576  1.00  0.00    -0.257 C  
HETATM    2  S   UNL     1      -8.439  14.042  69.329  1.00  0.00     0.540 SA 
HETATM    3  C   UNL     1      -7.124  15.138  68.754  1.00  0.00    -0.117 C  
HETATM    4  C   UNL     1      -7.557  16.194  67.744  1.00  0.00    -0.154 C  
HETATM    5  O   UNL     1     -10.441  17.525  65.938  1.00  0.00    -0.461 OA 
HETATM    6  CA  UNL     1      -8.856  16.557  67.524  1.00  0.00    -0.191 C  
HETATM    7  N   UNL     1      -9.848  16.022  68.298  1.00  0.00    -0.216 N  
HETATM    8  O   UNL     1     -11.995  16.194  67.438  1.00  0.00     0.462 OA 
HETATM    9  C   UNL     1      -9.195  17.555  66.437  1.00  0.00    -0.245 C  
HETATM   10  CA  UNL     1     -11.145  15.001  69.567  1.00  0.00    -0.277 C  
HETATM   11  OXT UNL     1      -8.393  18.374  66.017  1.00  0.00    -0.480 OA 
HETATM   12  C   UNL     1     -11.182  15.855  68.266  1.00  0.00    -0.354 C  
ENDROOT
BRANCH   4  13
HETATM   13  C   UNL     1      -6.366  16.679  66.919  1.00  0.00    -0.173 C  
BRANCH  13  14
HETATM   14  S   UNL     1      -5.128  17.524  67.966  1.00  0.00    -0.132 SA 
BRANCH  14  15
HETATM   15  C   UNL     1      -5.828  19.106  68.018  1.00  0.00    -0.203 A  
HETATM   16  N   UNL     1      -6.415  19.649  69.060  1.00  0.00    -0.298 NA 
HETATM   17  N   UNL     1      -5.849  20.007  66.987  1.00  0.00    -0.171 NA 
HETATM   18  N   UNL     1      -6.770  20.918  68.680  1.00  0.00    -0.009 NA 
HETATM   19  N   UNL     1      -6.400  21.159  67.432  1.00  0.00    -0.341 NA 
BRANCH  17  20
HETATM   20  C   UNL     1      -5.269  19.933  65.665  1.00  0.00    -0.159 C  
HETATM   21  O   UNL     1      -7.420  20.496  64.626  1.00  0.00     0.091 OA 
HETATM   22  C   UNL     1      -6.241  19.853  64.509  1.00  0.00    -0.246 C  
HETATM   23  O   UNL     1      -5.938  19.299  63.458  1.00  0.00    -0.424 OA 
ENDBRANCH  17  20
ENDBRANCH  14  15
ENDBRANCH  13  14
ENDBRANCH   4  13
BRANCH  10  24
HETATM   24  N   UNL     1     -11.515  13.575  69.417  1.00  0.00    -0.320 N  
HETATM   25  C   UNL     1     -11.341  12.801  68.301  1.00  0.00    -0.296 C  
HETATM   26  O   UNL     1     -11.763  11.644  68.304  1.00  0.00    -0.350 OA 
HETATM   27  H   UNL     1     -11.942  13.124  70.226  1.00  0.00     0.000 HD 
BRANCH  25  28
HETATM   28  C   UNL     1     -10.647  13.408  67.092  1.00  0.00    -0.259 C  
BRANCH  28  29
HETATM   29  C   UNL     1     -10.262  12.408  66.022  1.00  0.00    -0.267 A  
HETATM   30  C   UNL     1      -9.093  11.618  66.101  1.00  0.00    -0.209 A  
HETATM   31  C   UNL     1      -8.828  10.708  65.057  1.00  0.00    -0.212 A  
HETATM   32  C   UNL     1     -11.129  12.240  64.921  1.00  0.00    -0.356 A  
HETATM   33  C   UNL     1      -9.700  10.554  63.980  1.00  0.00    -0.383 A  
HETATM   34  C   UNL     1     -10.849  11.327  63.908  1.00  0.00    -0.427 A  
BRANCH  30  35
HETATM   35  C   UNL     1      -8.087  11.759  67.228  1.00  0.00    -0.164 C  
HETATM   36  N   UNL     1      -8.259  10.749  68.272  1.00  0.00    -0.118 NA 
HETATM   37  H1  UNL     1      -7.582  10.844  69.031  1.00  0.00     0.000 HD 
HETATM   38  H2  UNL     1      -8.236   9.808  67.878  1.00  0.00     0.000 HD 
ENDBRANCH  30  35
ENDBRANCH  28  29
ENDBRANCH  25  28
ENDBRANCH  10  24
TORSDOF 8
ENDMDL
MODEL      293
REMARK 921   NORMALIZED FREE ENERGY PREDICTED BY IDOCK:   -3.02 KCAL/MOL
REMARK 922        TOTAL FREE ENERGY PREDICTED BY IDOCK:   -5.25 KCAL/MOL
REMARK 923 INTER-LIGAND FREE ENERGY PREDICTED BY IDOCK:   -4.80 KCAL/MOL
REMARK 924 INTRA-LIGAND FREE ENERGY PREDICTED BY IDOCK:   -0.45 KCAL/MOL
REMARK 927      BINDING AFFINITY PREDICTED BY RF-SCORE:    0.00 PKD
ROOT
HETATM    1  C   UNL     1     -10.213   8.644  71.096  1.00  0.00    -0.230 C  
HETATM    2  S   UNL     1      -8.432   8.610  71.381  1.00  0.00    -0.191 SA 
HETATM    3  C   UNL     1      -8.051   9.657  69.959  1.00  0.00    -0.178 C  
HETATM    4  C   UNL     1      -8.794   9.301  68.676  1.00  0.00    -0.132 C  
HETATM    5  O   UNL     1     -11.279   7.033  67.252  1.00  0.00    -0.281 OA 
HETATM    6  CA  UNL     1      -9.909   8.513  68.630  1.00  0.00    -0.170 C  
HETATM    7  N   UNL     1     -10.470   8.066  69.793  1.00  0.00    -0.224 N  
HETATM    8  O   UNL     1     -11.911   6.261  69.585  1.00  0.00    -0.290 OA 
HETATM    9  C   UNL     1     -10.527   8.144  67.297  1.00  0.00    -0.309 C  
HETATM   10  CA  UNL     1     -11.060   7.476  71.701  1.00  0.00    -0.239 C  
HETATM   11  OXT UNL     1     -10.374   8.815  66.289  1.00  0.00    -0.231 OA 
HETATM   12  C   UNL     1     -11.314   7.105  70.210  1.00  0.00    -0.269 C  
ENDROOT
BRANCH   4  13
HETATM   13  C   UNL     1      -8.044   9.822  67.451  1.00  0.00    -0.114 C  
BRANCH  13  14
HETATM   14  S   UNL     1      -6.592   8.780  67.064  1.00  0.00    -0.062 SA 
BRANCH  14  15
HETATM   15  C   UNL     1      -7.109   8.116  65.552  1.00  0.00    -0.067 A  
HETATM   16  N   UNL     1      -6.933   8.668  64.373  1.00  0.00    -0.080 NA 
HETATM   17  N   UNL     1      -7.755   6.920  65.381  1.00  0.00    -0.100 NA 
HETATM   18  N   UNL     1      -7.444   7.784  63.458  1.00  0.00    -0.107 NA 
HETATM   19  N   UNL     1      -7.915   6.701  64.056  1.00  0.00    -0.113 NA 
BRANCH  17  20
HETATM   20  C   UNL     1      -8.106   5.899  66.342  1.00  0.00    -0.103 C  
HETATM   21  O   UNL     1      -6.084   4.616  65.802  1.00  0.00    -0.025 OA 
HETATM   22  C   UNL     1      -7.364   4.586  66.227  1.00  0.00    -0.081 C  
HETATM   23  O   UNL     1      -7.872   3.531  66.592  1.00  0.00    -0.080 OA 
ENDBRANCH  17  20
ENDBRANCH  14  15
ENDBRANCH  13  14
ENDBRANCH   4  13
BRANCH  10  24
HETATM   24  N   UNL     1     -10.365   6.450  72.513  1.00  0.00    -0.188 N  
HETATM   25  C   UNL     1      -9.677   5.364  72.042  1.00  0.00    -0.161 C  
HETATM   26  O   UNL     1      -9.208   4.559  72.846  1.00  0.00    -0.122 OA 
HETATM   27  H   UNL     1     -10.403   6.565  73.526  1.00  0.00     0.000 HD 
BRANCH  25  28
HETATM   28  C   UNL     1      -9.534   5.187  70.538  1.00  0.00    -0.229 C  
BRANCH  28  29
HETATM   29  C   UNL     1      -8.171   4.706  70.090  1.00  0.00    -0.068 A  
HETATM   30  C   UNL     1      -7.875   3.341  69.875  1.00  0.00    -0.050 A  
HETATM   31  C   UNL     1      -6.577   2.996  69.448  1.00  0.00    -0.033 A  
HETATM   32  C   UNL     1      -7.170   5.670  69.844  1.00  0.00    -0.069 A  
HETATM   33  C   UNL     1      -5.603   3.964  69.207  1.00  0.00    -0.017 A  
HETATM   34  C   UNL     1      -5.898   5.303  69.412  1.00  0.00    -0.020 A  
BRANCH  30  35
HETATM   35  C   UNL     1      -8.878   2.236  70.150  1.00  0.00    -0.078 C  
HETATM   36  N   UNL     1      -9.621   1.833  68.956  1.00  0.00    -0.092 NA 
HETATM   37  H1  UNL     1     -10.295   1.089  69.140  1.00  0.00     0.000 HD 
HETATM   38  H2  UNL     1      -8.985   1.570  68.202  1.00  0.00     0.000 HD 
ENDBRANCH  30  35
ENDBRANCH  28  29
ENDBRANCH  25  28
ENDBRANCH  10  24
TORSDOF 8
ENDMDL
MODEL      294
REMARK 921   NORMALIZED FREE ENERGY PREDICTED BY IDOCK:   -2.94 KCAL/MOL
REMARK 922        TOTAL FREE ENERGY PREDICTED BY IDOCK:   -5.13 KCAL/MOL
REMARK 923 INTER-LIGAND FREE ENERGY PREDICTED BY IDOCK:   -4.47 KCAL/MOL
REMARK 924 INTRA-LIGAND FREE ENERGY PREDICTED BY IDOCK:   -0.67 KCAL/MOL
REMARK 927      BINDING AFFINITY PREDICTED BY RF-SCORE:    0.00 PKD
ROOT
HETATM    1  C   UNL     1      -8.444  14.360  68.348  1.00  0.00    -0.165 C  
HETATM    2  S   UNL     1      -8.646  14.441  66.556  1.00  0.00     0.251 SA 
HETATM    3  C   UNL     1      -9.579  12.898  66.459  1.00  0.00    -0.259 C  
HETATM    4  C   UNL     1      -9.010  11.745  67.278  1.00  0.00    -0.172 C  
HETATM    5  O   UNL     1      -6.335  10.821  69.589  1.00  0.00    -0.063 OA 
HETATM    6  CA  UNL     1      -8.097  11.896  68.283  1.00  0.00    -0.154 C  
HETATM    7  N   UNL     1      -7.710  13.151  68.661  1.00  0.00    -0.110 N  
HETATM    8  O   UNL     1      -5.738  13.270  69.876  1.00  0.00    -0.103 OA 
HETATM    9  C   UNL     1      -7.525  10.681  68.983  1.00  0.00    -0.117 C  
HETATM   10  CA  UNL     1      -7.254  15.159  68.973  1.00  0.00    -0.149 C  
HETATM   11  OXT UNL     1      -8.103   9.607  69.020  1.00  0.00    -0.095 OA 
HETATM   12  C   UNL     1      -6.705  13.746  69.330  1.00  0.00    -0.101 C  
ENDROOT
BRANCH   4  13
HETATM   13  C   UNL     1      -9.486  10.400  66.729  1.00  0.00    -0.166 C  
BRANCH  13  14
HETATM   14  S   UNL     1     -10.871  10.611  65.555  1.00  0.00     0.192 SA 
BRANCH  14  15
HETATM   15  C   UNL     1      -9.975  10.816  64.088  1.00  0.00    -0.343 A  
HETATM   16  N   UNL     1      -9.727  11.962  63.496  1.00  0.00    -0.313 NA 
HETATM   17  N   UNL     1      -9.392   9.814  63.359  1.00  0.00    -0.193 NA 
HETATM   18  N   UNL     1      -8.948  11.669  62.407  1.00  0.00    -0.132 NA 
HETATM   19  N   UNL     1      -8.709  10.369  62.332  1.00  0.00    -0.204 NA 
BRANCH  17  20
HETATM   20  C   UNL     1      -9.300   8.396  63.621  1.00  0.00     1.750 C  
HETATM   21  O   UNL     1      -6.851   8.520  63.744  1.00  0.00    -0.082 OA 
HETATM   22  C   UNL     1      -7.934   7.770  63.452  1.00  0.00    -0.107 C  
HETATM   23  O   UNL     1      -7.806   6.589  63.147  1.00  0.00    -0.097 OA 
ENDBRANCH  17  20
ENDBRANCH  14  15
ENDBRANCH  13  14
ENDBRANCH   4  13
BRANCH  10  24
HETATM   24  N   UNL     1      -6.405  15.975  68.075  1.00  0.00    -0.121 N  
HETATM   25  C   UNL     1      -6.456  17.334  67.917  1.00  0.00    -0.153 C  
HETATM   26  O   UNL     1      -5.728  17.867  67.079  1.00  0.00    -0.129 OA 
HETATM   27  H   UNL     1      -5.712  15.475  67.519  1.00  0.00     0.000 HD 
BRANCH  25  28
HETATM   28  C   UNL     1      -7.425  18.133  68.775  1.00  0.00    -0.285 C  
BRANCH  28  29
HETATM   29  C   UNL     1      -8.659  18.617  68.043  1.00  0.00    -0.321 A  
HETATM   30  C   UNL     1      -8.770  19.923  67.514  1.00  0.00    -0.401 A  
HETATM   31  C   UNL     1      -9.958  20.273  66.840  1.00  0.00    -0.592 A  
HETATM   32  C   UNL     1      -9.723  17.709  67.856  1.00  0.00    -0.295 A  
HETATM   33  C   UNL     1     -10.997  19.360  66.662  1.00  0.00    -0.339 A  
HETATM   34  C   UNL     1     -10.883  18.078  67.177  1.00  0.00    -0.183 A  
BRANCH  30  35
HETATM   35  C   UNL     1      -7.692  20.973  67.701  1.00  0.00    -0.028 C  
HETATM   36  N   UNL     1      -6.940  21.240  66.474  1.00  0.00    -0.684 NA 
HETATM   37  H1  UNL     1      -6.214  21.947  66.600  1.00  0.00     0.000 HD 
HETATM   38  H2  UNL     1      -7.567  21.492  65.709  1.00  0.00     0.000 HD 
ENDBRANCH  30  35
ENDBRANCH  28  29
ENDBRANCH  25  28
ENDBRANCH  10  24
TORSDOF 8
ENDMDL
MODEL      295
REMARK 921   NORMALIZED FREE ENERGY PREDICTED BY IDOCK:   -2.90 KCAL/MOL
REMARK 922        TOTAL FREE ENERGY PREDICTED BY IDOCK:   -5.08 KCAL/MOL
REMARK 923 INTER-LIGAND FREE ENERGY PREDICTED BY IDOCK:   -4.93 KCAL/MOL
REMARK 924 INTRA-LIGAND FREE ENERGY PREDICTED BY IDOCK:   -0.14 KCAL/MOL
REMARK 927      BINDING AFFINITY PREDICTED BY RF-SCORE:    0.00 PKD
ROOT
HETATM    1  C   UNL     1      -9.429   8.089  71.190  1.00  0.00    -0.153 C  
HETATM    2  S   UNL     1      -7.689   7.629  71.314  1.00  0.00    -0.087 SA 
HETATM    3  C   UNL     1      -7.195   8.589  69.865  1.00  0.00    -0.051 C  
HETATM    4  C   UNL     1      -8.110   8.447  68.654  1.00  0.00    -0.122 C  
HETATM    5  O   UNL     1     -11.176   6.862  67.455  1.00  0.00    -0.280 OA 
HETATM    6  CA  UNL     1      -9.379   7.946  68.706  1.00  0.00    -0.146 C  
HETATM    7  N   UNL     1      -9.927   7.617  69.914  1.00  0.00    -0.188 N  
HETATM    8  O   UNL     1     -11.768   6.209  69.834  1.00  0.00    -0.339 OA 
HETATM    9  C   UNL     1     -10.180   7.763  67.434  1.00  0.00    -0.251 C  
HETATM   10  CA  UNL     1     -10.473   7.141  71.867  1.00  0.00    -0.197 C  
HETATM   11  OXT UNL     1      -9.961   8.402  66.417  1.00  0.00    -0.263 OA 
HETATM   12  C   UNL     1     -10.936   6.874  70.404  1.00  0.00    -0.274 C  
ENDROOT
BRANCH   4  13
HETATM   13  C   UNL     1      -7.367   8.803  67.366  1.00  0.00    -0.081 C  
BRANCH  13  14
HETATM   14  S   UNL     1      -6.197   7.484  66.884  1.00  0.00    -0.049 SA 
BRANCH  14  15
HETATM   15  C   UNL     1      -7.031   6.851  65.506  1.00  0.00    -0.060 A  
HETATM   16  N   UNL     1      -7.767   5.763  65.490  1.00  0.00    -0.087 NA 
HETATM   17  N   UNL     1      -7.049   7.407  64.254  1.00  0.00    -0.062 NA 
HETATM   18  N   UNL     1      -8.278   5.666  64.221  1.00  0.00    -0.130 NA 
HETATM   19  N   UNL     1      -7.876   6.679  63.470  1.00  0.00    -0.119 NA 
BRANCH  17  20
HETATM   20  C   UNL     1      -6.474   8.641  63.769  1.00  0.00    -0.080 C  
HETATM   21  O   UNL     1      -8.665   9.748  63.818  1.00  0.00    -0.189 OA 
HETATM   22  C   UNL     1      -7.446   9.673  63.244  1.00  0.00    -0.116 C  
HETATM   23  O   UNL     1      -7.115  10.483  62.385  1.00  0.00    -0.142 OA 
ENDBRANCH  17  20
ENDBRANCH  14  15
ENDBRANCH  13  14
ENDBRANCH   4  13
BRANCH  10  24
HETATM   24  N   UNL     1      -9.973   5.963  72.613  1.00  0.00    -0.175 N  
HETATM   25  C   UNL     1      -9.675   4.733  72.090  1.00  0.00    -0.166 C  
HETATM   26  O   UNL     1      -9.332   3.827  72.850  1.00  0.00    -0.104 OA 
HETATM   27  H   UNL     1      -9.837   6.079  73.617  1.00  0.00     0.000 HD 
BRANCH  25  28
HETATM   28  C   UNL     1      -9.796   4.528  70.588  1.00  0.00    -0.292 C  
BRANCH  28  29
HETATM   29  C   UNL     1      -8.526   4.057  69.913  1.00  0.00    -0.089 A  
HETATM   30  C   UNL     1      -8.494   3.601  68.577  1.00  0.00    -0.106 A  
HETATM   31  C   UNL     1      -7.257   3.193  68.037  1.00  0.00    -0.050 A  
HETATM   32  C   UNL     1      -7.321   4.113  70.647  1.00  0.00    -0.041 A  
HETATM   33  C   UNL     1      -6.077   3.259  68.777  1.00  0.00    -0.028 A  
HETATM   34  C   UNL     1      -6.109   3.713  70.086  1.00  0.00    -0.023 A  
BRANCH  30  35
HETATM   35  C   UNL     1      -9.746   3.473  67.729  1.00  0.00    -0.021 C  
HETATM   36  N   UNL     1      -9.453   3.208  66.320  1.00  0.00    -0.370 NA 
HETATM   37  H1  UNL     1     -10.294   3.121  65.749  1.00  0.00     0.000 HD 
HETATM   38  H2  UNL     1      -8.857   2.385  66.220  1.00  0.00     0.000 HD 
ENDBRANCH  30  35
ENDBRANCH  28  29
ENDBRANCH  25  28
ENDBRANCH  10  24
TORSDOF 8
ENDMDL
MODEL      296
REMARK 921   NORMALIZED FREE ENERGY PREDICTED BY IDOCK:   -2.89 KCAL/MOL
REMARK 922        TOTAL FREE ENERGY PREDICTED BY IDOCK:   -5.07 KCAL/MOL
REMARK 923 INTER-LIGAND FREE ENERGY PREDICTED BY IDOCK:   -5.23 KCAL/MOL
REMARK 924 INTRA-LIGAND FREE ENERGY PREDICTED BY IDOCK:    0.16 KCAL/MOL
REMARK 927      BINDING AFFINITY PREDICTED BY RF-SCORE:    0.00 PKD
ROOT
HETATM    1  C   UNL     1      -8.910   8.162  65.943  1.00  0.00    -0.158 C  
HETATM    2  S   UNL     1      -9.358   9.106  67.414  1.00  0.00    -0.136 SA 
HETATM    3  C   UNL     1     -10.699   9.998  66.596  1.00  0.00    -0.058 C  
HETATM    4  C   UNL     1     -10.364  10.540  65.211  1.00  0.00    -0.300 C  
HETATM    5  O   UNL     1      -7.741  10.700  62.673  1.00  0.00    -0.148 OA 
HETATM    6  CA  UNL     1      -9.301  10.123  64.461  1.00  0.00    -0.289 C  
HETATM    7  N   UNL     1      -8.515   9.099  64.913  1.00  0.00    -0.166 N  
HETATM    8  O   UNL     1      -6.428   8.922  63.917  1.00  0.00    -0.086 OA 
HETATM    9  C   UNL     1      -9.000  10.782  63.132  1.00  0.00    -0.237 C  
HETATM   10  CA  UNL     1      -7.458   7.585  65.874  1.00  0.00    -0.082 C  
HETATM   11  OXT UNL     1      -9.849  11.363  62.475  1.00  0.00    -0.140 OA 
HETATM   12  C   UNL     1      -7.290   8.587  64.694  1.00  0.00    -0.092 C  
ENDROOT
BRANCH   4  13
HETATM   13  C   UNL     1     -11.286  11.702  64.844  1.00  0.00    -0.222 C  
BRANCH  13  14
HETATM   14  S   UNL     1     -10.441  13.311  65.041  1.00  0.00    -0.358 SA 
BRANCH  14  15
HETATM   15  C   UNL     1      -9.690  13.056  66.579  1.00  0.00    -0.266 A  
HETATM   16  N   UNL     1      -8.455  12.653  66.771  1.00  0.00    -0.110 NA 
HETATM   17  N   UNL     1     -10.278  13.254  67.800  1.00  0.00    -0.224 NA 
HETATM   18  N   UNL     1      -8.264  12.639  68.128  1.00  0.00    -0.163 NA 
HETATM   19  N   UNL     1      -9.355  13.036  68.764  1.00  0.00     0.041 NA 
BRANCH  17  20
HETATM   20  C   UNL     1     -11.585  13.769  68.138  1.00  0.00    -0.335 C  
HETATM   21  O   UNL     1     -10.741  16.074  68.135  1.00  0.00    -0.287 OA 
HETATM   22  C   UNL     1     -11.636  15.197  68.634  1.00  0.00    -0.338 C  
HETATM   23  O   UNL     1     -12.519  15.577  69.397  1.00  0.00    -0.197 OA 
ENDBRANCH  17  20
ENDBRANCH  14  15
ENDBRANCH  13  14
ENDBRANCH   4  13
BRANCH  10  24
HETATM   24  N   UNL     1      -6.561   7.794  67.034  1.00  0.00    -0.061 N  
HETATM   25  C   UNL     1      -5.837   6.834  67.689  1.00  0.00    -0.020 C  
HETATM   26  O   UNL     1      -5.186   7.152  68.684  1.00  0.00    -0.016 OA 
HETATM   27  H   UNL     1      -6.474   8.750  67.380  1.00  0.00     0.000 HD 
BRANCH  25  28
HETATM   28  C   UNL     1      -5.880   5.405  67.169  1.00  0.00    -0.018 C  
BRANCH  28  29
HETATM   29  C   UNL     1      -7.272   4.824  67.045  1.00  0.00    -0.077 A  
HETATM   30  C   UNL     1      -8.055   4.470  68.167  1.00  0.00    -0.087 A  
HETATM   31  C   UNL     1      -9.344   3.945  67.945  1.00  0.00    -0.227 A  
HETATM   32  C   UNL     1      -7.816   4.664  65.753  1.00  0.00    -0.095 A  
HETATM   33  C   UNL     1      -9.865   3.798  66.660  1.00  0.00    -0.056 A  
HETATM   34  C   UNL     1      -9.098   4.152  65.561  1.00  0.00    -0.138 A  
BRANCH  30  35
HETATM   35  C   UNL     1      -7.536   4.573  69.589  1.00  0.00    -0.054 C  
HETATM   36  N   UNL     1      -6.661   3.460  69.956  1.00  0.00    -0.033 NA 
HETATM   37  H1  UNL     1      -6.311   3.529  70.913  1.00  0.00     0.000 HD 
HETATM   38  H2  UNL     1      -5.891   3.367  69.292  1.00  0.00     0.000 HD 
ENDBRANCH  30  35
ENDBRANCH  28  29
ENDBRANCH  25  28
ENDBRANCH  10  24
TORSDOF 8
ENDMDL
MODEL      297
REMARK 921   NORMALIZED FREE ENERGY PREDICTED BY IDOCK:   -2.86 KCAL/MOL
REMARK 922        TOTAL FREE ENERGY PREDICTED BY IDOCK:   -5.02 KCAL/MOL
REMARK 923 INTER-LIGAND FREE ENERGY PREDICTED BY IDOCK:   -5.09 KCAL/MOL
REMARK 924 INTRA-LIGAND FREE ENERGY PREDICTED BY IDOCK:    0.07 KCAL/MOL
REMARK 927      BINDING AFFINITY PREDICTED BY RF-SCORE:    0.00 PKD
ROOT
HETATM    1  C   UNL     1     -10.965   9.238  69.732  1.00  0.00    -0.196 C  
HETATM    2  S   UNL     1      -9.352  10.025  69.541  1.00  0.00    -0.219 SA 
HETATM    3  C   UNL     1      -9.269   9.726  67.762  1.00  0.00    -0.130 C  
HETATM    4  C   UNL     1      -9.675   8.324  67.322  1.00  0.00    -0.234 C  
HETATM    5  O   UNL     1     -10.910   5.106  68.535  1.00  0.00     0.064 OA 
HETATM    6  CA  UNL     1     -10.380   7.451  68.101  1.00  0.00    -0.192 C  
HETATM    7  N   UNL     1     -10.838   7.853  69.325  1.00  0.00    -0.130 N  
HETATM    8  O   UNL     1     -11.425   6.152  70.788  1.00  0.00    -0.324 OA 
HETATM    9  C   UNL     1     -10.663   6.047  67.609  1.00  0.00    -0.296 C  
HETATM   10  CA  UNL     1     -11.343   8.709  71.155  1.00  0.00    -0.275 C  
HETATM   11  OXT UNL     1     -10.683   5.753  66.424  1.00  0.00    -0.237 OA 
HETATM   12  C   UNL     1     -11.275   7.310  70.475  1.00  0.00    -0.279 C  
ENDROOT
BRANCH   4  13
HETATM   13  C   UNL     1      -9.068   7.982  65.963  1.00  0.00    -0.142 C  
BRANCH  13  14
HETATM   14  S   UNL     1      -7.249   7.828  66.064  1.00  0.00    -0.074 SA 
BRANCH  14  15
HETATM   15  C   UNL     1      -7.135   6.368  66.985  1.00  0.00    -0.073 A  
HETATM   16  N   UNL     1      -6.907   6.294  68.277  1.00  0.00    -0.068 NA 
HETATM   17  N   UNL     1      -7.284   5.098  66.495  1.00  0.00    -0.076 NA 
HETATM   18  N   UNL     1      -6.953   4.961  68.596  1.00  0.00    -0.052 NA 
HETATM   19  N   UNL     1      -7.216   4.226  67.527  1.00  0.00    -0.067 NA 
BRANCH  17  20
HETATM   20  C   UNL     1      -7.628   4.639  65.168  1.00  0.00    -0.077 C  
HETATM   21  O   UNL     1      -5.384   3.696  64.851  1.00  0.00    -0.009 OA 
HETATM   22  C   UNL     1      -6.474   4.245  64.275  1.00  0.00    -0.042 C  
HETATM   23  O   UNL     1      -6.552   4.333  63.054  1.00  0.00    -0.029 OA 
ENDBRANCH  17  20
ENDBRANCH  14  15
ENDBRANCH  13  14
ENDBRANCH   4  13
BRANCH  10  24
HETATM   24  N   UNL     1     -10.389   8.935  72.266  1.00  0.00    -0.252 N  
HETATM   25  C   UNL     1      -9.327   8.140  72.603  1.00  0.00    -0.272 C  
HETATM   26  O   UNL     1      -8.661   8.424  73.599  1.00  0.00    -0.265 OA 
HETATM   27  H   UNL     1     -10.539   9.767  72.836  1.00  0.00     0.000 HD 
BRANCH  25  28
HETATM   28  C   UNL     1      -9.021   6.925  71.742  1.00  0.00    -0.138 C  
BRANCH  28  29
HETATM   29  C   UNL     1      -8.381   5.773  72.486  1.00  0.00    -0.117 A  
HETATM   30  C   UNL     1      -9.105   4.936  73.365  1.00  0.00    -0.117 A  
HETATM   31  C   UNL     1      -8.419   3.882  74.003  1.00  0.00    -0.090 A  
HETATM   32  C   UNL     1      -7.013   5.508  72.259  1.00  0.00    -0.081 A  
HETATM   33  C   UNL     1      -7.068   3.635  73.763  1.00  0.00    -0.048 A  
HETATM   34  C   UNL     1      -6.362   4.454  72.895  1.00  0.00    -0.032 A  
BRANCH  30  35
HETATM   35  C   UNL     1     -10.567   5.170  73.695  1.00  0.00    -0.275 C  
HETATM   36  N   UNL     1     -11.387   3.969  73.526  1.00  0.00    -0.242 NA 
HETATM   37  H1  UNL     1     -12.370   4.126  73.748  1.00  0.00     0.000 HD 
HETATM   38  H2  UNL     1     -11.010   3.191  74.067  1.00  0.00     0.000 HD 
ENDBRANCH  30  35
ENDBRANCH  28  29
ENDBRANCH  25  28
ENDBRANCH  10  24
TORSDOF 8
ENDMDL
MODEL      298
REMARK 921   NORMALIZED FREE ENERGY PREDICTED BY IDOCK:   -2.85 KCAL/MOL
REMARK 922        TOTAL FREE ENERGY PREDICTED BY IDOCK:   -5.00 KCAL/MOL
REMARK 923 INTER-LIGAND FREE ENERGY PREDICTED BY IDOCK:   -5.79 KCAL/MOL
REMARK 924 INTRA-LIGAND FREE ENERGY PREDICTED BY IDOCK:    0.79 KCAL/MOL
REMARK 927      BINDING AFFINITY PREDICTED BY RF-SCORE:    0.00 PKD
ROOT
HETATM    1  C   UNL     1     -10.895  10.796  67.283  1.00  0.00    -0.288 C  
HETATM    2  S   UNL     1      -9.775   9.574  67.996  1.00  0.00    -0.151 SA 
HETATM    3  C   UNL     1     -10.927   9.082  69.298  1.00  0.00    -0.032 C  
HETATM    4  C   UNL     1     -11.622  10.234  70.014  1.00  0.00    -0.349 C  
HETATM    5  O   UNL     1     -11.954  13.872  70.097  1.00  0.00    -0.298 OA 
HETATM    6  CA  UNL     1     -11.684  11.511  69.532  1.00  0.00    -0.346 C  
HETATM    7  N   UNL     1     -11.173  11.793  68.296  1.00  0.00    -0.233 N  
HETATM    8  O   UNL     1     -10.749  14.033  67.870  1.00  0.00    -0.236 OA 
HETATM    9  C   UNL     1     -12.324  12.608  70.357  1.00  0.00    -0.237 C  
HETATM   10  CA  UNL     1     -10.259  11.943  66.431  1.00  0.00    -0.209 C  
HETATM   11  OXT UNL     1     -13.154  12.384  71.224  1.00  0.00    -0.274 OA 
HETATM   12  C   UNL     1     -10.765  12.859  67.584  1.00  0.00    -0.223 C  
ENDROOT
BRANCH   4  13
HETATM   13  C   UNL     1     -12.110   9.801  71.396  1.00  0.00    -0.400 C  
BRANCH  13  14
HETATM   14  S   UNL     1     -11.991   7.989  71.608  1.00  0.00    -0.312 SA 
BRANCH  14  15
HETATM   15  C   UNL     1     -10.404   7.882  72.290  1.00  0.00    -0.253 A  
HETATM   16  N   UNL     1      -9.970   8.560  73.327  1.00  0.00     0.234 NA 
HETATM   17  N   UNL     1      -9.397   7.066  71.850  1.00  0.00    -0.141 NA 
HETATM   18  N   UNL     1      -8.688   8.130  73.555  1.00  0.00    -0.258 NA 
HETATM   19  N   UNL     1      -8.340   7.196  72.684  1.00  0.00    -0.107 NA 
BRANCH  17  20
HETATM   20  C   UNL     1      -9.387   6.070  70.802  1.00  0.00    -0.154 C  
HETATM   21  O   UNL     1      -8.519   4.371  72.347  1.00  0.00    -0.106 OA 
HETATM   22  C   UNL     1      -8.586   4.817  71.076  1.00  0.00    -0.112 C  
HETATM   23  O   UNL     1      -8.086   4.168  70.163  1.00  0.00    -0.057 OA 
ENDBRANCH  17  20
ENDBRANCH  14  15
ENDBRANCH  13  14
ENDBRANCH   4  13
BRANCH  10  24
HETATM   24  N   UNL     1      -8.794  11.928  66.213  1.00  0.00    -0.339 N  
HETATM   25  C   UNL     1      -8.066  10.924  65.631  1.00  0.00    -0.060 C  
HETATM   26  O   UNL     1      -6.841  11.026  65.580  1.00  0.00     0.034 OA 
HETATM   27  H   UNL     1      -8.274  12.748  66.526  1.00  0.00     0.000 HD 
BRANCH  25  28
HETATM   28  C   UNL     1      -8.803   9.710  65.085  1.00  0.00    -0.215 C  
BRANCH  28  29
HETATM   29  C   UNL     1      -7.909   8.668  64.448  1.00  0.00    -0.138 A  
HETATM   30  C   UNL     1      -7.060   7.826  65.201  1.00  0.00    -0.060 A  
HETATM   31  C   UNL     1      -6.273   6.880  64.513  1.00  0.00    -0.036 A  
HETATM   32  C   UNL     1      -7.958   8.514  63.046  1.00  0.00    -0.163 A  
HETATM   33  C   UNL     1      -6.339   6.740  63.128  1.00  0.00    -0.043 A  
HETATM   34  C   UNL     1      -7.177   7.563  62.391  1.00  0.00    -0.083 A  
BRANCH  30  35
HETATM   35  C   UNL     1      -6.917   7.948  66.707  1.00  0.00    -0.073 C  
HETATM   36  N   UNL     1      -7.006   6.658  67.392  1.00  0.00    -0.076 NA 
HETATM   37  H1  UNL     1      -6.910   6.740  68.405  1.00  0.00     0.000 HD 
HETATM   38  H2  UNL     1      -6.329   5.996  67.013  1.00  0.00     0.000 HD 
ENDBRANCH  30  35
ENDBRANCH  28  29
ENDBRANCH  25  28
ENDBRANCH  10  24
TORSDOF 8
ENDMDL
MODEL      299
REMARK 921   NORMALIZED FREE ENERGY PREDICTED BY IDOCK:   -2.78 KCAL/MOL
REMARK 922        TOTAL FREE ENERGY PREDICTED BY IDOCK:   -4.91 KCAL/MOL
REMARK 923 INTER-LIGAND FREE ENERGY PREDICTED BY IDOCK:   -5.73 KCAL/MOL
REMARK 924 INTRA-LIGAND FREE ENERGY PREDICTED BY IDOCK:    0.83 KCAL/MOL
REMARK 927      BINDING AFFINITY PREDICTED BY RF-SCORE:    0.00 PKD
ROOT
HETATM    1  C   UNL     1      -7.723   8.906  70.587  1.00  0.00    -0.107 C  
HETATM    2  S   UNL     1      -6.460   9.794  69.653  1.00  0.00    -0.055 SA 
HETATM    3  C   UNL     1      -7.465  11.282  69.455  1.00  0.00     0.018 C  
HETATM    4  C   UNL     1      -8.914  11.035  69.054  1.00  0.00    -0.071 C  
HETATM    5  O   UNL     1     -11.363   8.418  68.345  1.00  0.00     0.466 OA 
HETATM    6  CA  UNL     1      -9.546   9.829  69.165  1.00  0.00    -0.188 C  
HETATM    7  N   UNL     1      -8.894   8.776  69.744  1.00  0.00    -0.138 N  
HETATM    8  O   UNL     1      -9.780   6.679  69.299  1.00  0.00    -0.146 OA 
HETATM    9  C   UNL     1     -10.963   9.661  68.659  1.00  0.00    -0.111 C  
HETATM   10  CA  UNL     1      -7.645   7.344  70.595  1.00  0.00    -0.086 C  
HETATM   11  OXT UNL     1     -11.738  10.596  68.541  1.00  0.00    -0.364 OA 
HETATM   12  C   UNL     1      -8.981   7.434  69.800  1.00  0.00    -0.141 C  
ENDROOT
BRANCH   4  13
HETATM   13  C   UNL     1      -9.512  12.272  68.383  1.00  0.00    -0.175 C  
BRANCH  13  14
HETATM   14  S   UNL     1      -8.877  12.480  66.681  1.00  0.00    -0.083 SA 
BRANCH  14  15
HETATM   15  C   UNL     1     -10.340  12.954  65.886  1.00  0.00    -0.285 A  
HETATM   16  N   UNL     1     -11.152  12.152  65.236  1.00  0.00    -0.312 NA 
HETATM   17  N   UNL     1     -10.853  14.222  65.842  1.00  0.00    -0.294 NA 
HETATM   18  N   UNL     1     -12.201  12.928  64.816  1.00  0.00    -0.418 NA 
HETATM   19  N   UNL     1     -12.048  14.183  65.209  1.00  0.00    -0.386 NA 
BRANCH  17  20
HETATM   20  C   UNL     1     -10.392  15.442  66.467  1.00  0.00    -0.289 C  
HETATM   21  O   UNL     1     -10.972  16.750  64.472  1.00  0.00    -0.921 OA 
HETATM   22  C   UNL     1     -10.170  16.623  65.549  1.00  0.00    -0.202 C  
HETATM   23  O   UNL     1      -9.348  17.493  65.816  1.00  0.00    -0.515 OA 
ENDBRANCH  17  20
ENDBRANCH  14  15
ENDBRANCH  13  14
ENDBRANCH   4  13
BRANCH  10  24
HETATM   24  N   UNL     1      -6.516   6.692  69.892  1.00  0.00    -0.042 N  
HETATM   25  C   UNL     1      -6.446   6.403  68.555  1.00  0.00    -0.049 C  
HETATM   26  O   UNL     1      -5.465   5.795  68.126  1.00  0.00    -0.007 OA 
HETATM   27  H   UNL     1      -5.710   6.432  70.460  1.00  0.00     0.000 HD 
BRANCH  25  28
HETATM   28  C   UNL     1      -7.593   6.832  67.654  1.00  0.00    -0.106 C  
BRANCH  28  29
HETATM   29  C   UNL     1      -7.969   5.821  66.592  1.00  0.00    -0.102 A  
HETATM   30  C   UNL     1      -7.470   5.879  65.271  1.00  0.00    -0.082 A  
HETATM   31  C   UNL     1      -7.874   4.883  64.359  1.00  0.00    -0.088 A  
HETATM   32  C   UNL     1      -8.827   4.760  66.954  1.00  0.00    -0.110 A  
HETATM   33  C   UNL     1      -8.719   3.841  64.737  1.00  0.00    -0.114 A  
HETATM   34  C   UNL     1      -9.202   3.783  66.036  1.00  0.00    -0.161 A  
BRANCH  30  35
HETATM   35  C   UNL     1      -6.575   7.003  64.786  1.00  0.00    -0.043 C  
HETATM   36  N   UNL     1      -5.152   6.717  64.973  1.00  0.00    -0.025 NA 
HETATM   37  H1  UNL     1      -4.549   7.473  64.647  1.00  0.00     0.000 HD 
HETATM   38  H2  UNL     1      -4.897   5.832  64.535  1.00  0.00     0.000 HD 
ENDBRANCH  30  35
ENDBRANCH  28  29
ENDBRANCH  25  28
ENDBRANCH  10  24
TORSDOF 8
ENDMDL
MODEL      300
REMARK 921   NORMALIZED FREE ENERGY PREDICTED BY IDOCK:   -2.78 KCAL/MOL
REMARK 922        TOTAL FREE ENERGY PREDICTED BY IDOCK:   -4.90 KCAL/MOL
REMARK 923 INTER-LIGAND FREE ENERGY PREDICTED BY IDOCK:   -5.27 KCAL/MOL
REMARK 924 INTRA-LIGAND FREE ENERGY PREDICTED BY IDOCK:    0.37 KCAL/MOL
REMARK 927      BINDING AFFINITY PREDICTED BY RF-SCORE:    0.00 PKD
ROOT
HETATM    1  C   UNL     1      -7.310  15.005  66.965  1.00  0.00     0.083 C  
HETATM    2  S   UNL     1      -6.950  14.679  68.703  1.00  0.00    -0.120 SA 
HETATM    3  C   UNL     1      -6.745  12.900  68.464  1.00  0.00    -0.091 C  
HETATM    4  C   UNL     1      -7.808  12.238  67.597  1.00  0.00    -0.156 C  
HETATM    5  O   UNL     1     -10.800  12.890  65.602  1.00  0.00    -0.269 OA 
HETATM    6  CA  UNL     1      -8.651  12.918  66.763  1.00  0.00    -0.063 C  
HETATM    7  N   UNL     1      -8.506  14.268  66.610  1.00  0.00    -0.015 N  
HETATM    8  O   UNL     1     -10.337  15.381  65.723  1.00  0.00    -0.310 OA 
HETATM    9  C   UNL     1      -9.734  12.179  66.005  1.00  0.00    -0.244 C  
HETATM   10  CA  UNL     1      -8.102  16.311  66.628  1.00  0.00    -0.288 C  
HETATM   11  OXT UNL     1      -9.665  10.989  65.746  1.00  0.00    -0.204 OA 
HETATM   12  C   UNL     1      -9.219  15.324  66.178  1.00  0.00    -0.310 C  
ENDROOT
BRANCH   4  13
HETATM   13  C   UNL     1      -7.898  10.741  67.892  1.00  0.00    -0.109 C  
BRANCH  13  14
HETATM   14  S   UNL     1      -8.424  10.432  69.616  1.00  0.00     0.046 SA 
BRANCH  14  15
HETATM   15  C   UNL     1     -10.130  10.668  69.441  1.00  0.00    -0.174 A  
HETATM   16  N   UNL     1     -10.714  11.782  69.062  1.00  0.00    -0.200 NA 
HETATM   17  N   UNL     1     -11.096   9.722  69.659  1.00  0.00    -0.235 NA 
HETATM   18  N   UNL     1     -12.056  11.510  69.008  1.00  0.00    -0.382 NA 
HETATM   19  N   UNL     1     -12.298  10.250  69.335  1.00  0.00     0.019 NA 
BRANCH  17  20
HETATM   20  C   UNL     1     -10.977   8.323  70.004  1.00  0.00    -0.197 C  
HETATM   21  O   UNL     1     -11.477   8.804  72.359  1.00  0.00    -0.350 OA 
HETATM   22  C   UNL     1     -10.842   8.005  71.476  1.00  0.00    -0.232 C  
HETATM   23  O   UNL     1     -10.252   7.002  71.861  1.00  0.00    -0.188 OA 
ENDBRANCH  17  20
ENDBRANCH  14  15
ENDBRANCH  13  14
ENDBRANCH   4  13
BRANCH  10  24
HETATM   24  N   UNL     1      -8.456  17.226  67.738  1.00  0.00    -0.214 N  
HETATM   25  C   UNL     1      -9.217  16.921  68.835  1.00  0.00    -0.229 C  
HETATM   26  O   UNL     1      -9.483  17.810  69.644  1.00  0.00     0.365 OA 
HETATM   27  H   UNL     1      -8.096  18.178  67.680  1.00  0.00     0.000 HD 
BRANCH  25  28
HETATM   28  C   UNL     1      -9.721  15.496  69.001  1.00  0.00    -0.237 C  
BRANCH  28  29
HETATM   29  C   UNL     1     -10.909  15.354  69.928  1.00  0.00    -0.305 A  
HETATM   30  C   UNL     1     -12.238  15.264  69.458  1.00  0.00    -0.273 A  
HETATM   31  C   UNL     1     -13.275  15.124  70.403  1.00  0.00    -0.169 A  
HETATM   32  C   UNL     1     -10.667  15.274  71.317  1.00  0.00     0.077 A  
HETATM   33  C   UNL     1     -13.015  15.043  71.770  1.00  0.00    -0.429 A  
HETATM   34  C   UNL     1     -11.710  15.125  72.229  1.00  0.00    -0.496 A  
BRANCH  30  35
HETATM   35  C   UNL     1     -12.592  15.379  67.987  1.00  0.00     1.163 C  
HETATM   36  N   UNL     1     -12.466  14.109  67.272  1.00  0.00    -0.532 NA 
HETATM   37  H1  UNL     1     -12.704  14.185  66.282  1.00  0.00     0.000 HD 
HETATM   38  H2  UNL     1     -13.017  13.379  67.725  1.00  0.00     0.000 HD 
ENDBRANCH  30  35
ENDBRANCH  28  29
ENDBRANCH  25  28
ENDBRANCH  10  24
TORSDOF 8
ENDMDL
MODEL      301
REMARK 921   NORMALIZED FREE ENERGY PREDICTED BY IDOCK:   -2.76 KCAL/MOL
REMARK 922        TOTAL FREE ENERGY PREDICTED BY IDOCK:   -4.88 KCAL/MOL
REMARK 923 INTER-LIGAND FREE ENERGY PREDICTED BY IDOCK:   -4.82 KCAL/MOL
REMARK 924 INTRA-LIGAND FREE ENERGY PREDICTED BY IDOCK:   -0.06 KCAL/MOL
REMARK 927      BINDING AFFINITY PREDICTED BY RF-SCORE:    0.00 PKD
ROOT
HETATM    1  C   UNL     1      -9.606   9.124  71.024  1.00  0.00    -0.280 C  
HETATM    2  S   UNL     1      -7.850   8.706  71.026  1.00  0.00    -0.123 SA 
HETATM    3  C   UNL     1      -7.653   8.957  69.247  1.00  0.00    -0.082 C  
HETATM    4  C   UNL     1      -8.752   8.349  68.384  1.00  0.00    -0.136 C  
HETATM    5  O   UNL     1     -11.902   6.501  68.504  1.00  0.00     0.324 OA 
HETATM    6  CA  UNL     1      -9.971   7.954  68.859  1.00  0.00    -0.190 C  
HETATM    7  N   UNL     1     -10.290   8.178  70.169  1.00  0.00    -0.211 N  
HETATM    8  O   UNL     1     -12.052   6.920  71.002  1.00  0.00    -0.354 OA 
HETATM    9  C   UNL     1     -10.966   7.280  67.938  1.00  0.00    -0.040 C  
HETATM   10  CA  UNL     1     -10.475   8.578  72.204  1.00  0.00    -0.342 C  
HETATM   11  OXT UNL     1     -10.952   7.428  66.727  1.00  0.00    -0.249 OA 
HETATM   12  C   UNL     1     -11.167   7.738  71.090  1.00  0.00    -0.264 C  
ENDROOT
BRANCH   4  13
HETATM   13  C   UNL     1      -8.255   8.111  66.958  1.00  0.00    -0.115 C  
BRANCH  13  14
HETATM   14  S   UNL     1      -7.360   6.524  66.819  1.00  0.00    -0.080 SA 
BRANCH  14  15
HETATM   15  C   UNL     1      -8.369   5.725  65.662  1.00  0.00    -0.138 A  
HETATM   16  N   UNL     1      -8.384   5.957  64.370  1.00  0.00    -0.094 NA 
HETATM   17  N   UNL     1      -9.273   4.733  65.937  1.00  0.00    -0.142 NA 
HETATM   18  N   UNL     1      -9.283   5.072  63.833  1.00  0.00     0.089 NA 
HETATM   19  N   UNL     1      -9.805   4.298  64.772  1.00  0.00    -0.176 NA 
BRANCH  17  20
HETATM   20  C   UNL     1      -9.577   4.060  67.180  1.00  0.00    -0.196 C  
HETATM   21  O   UNL     1      -7.992   2.260  66.658  1.00  0.00    -0.074 OA 
HETATM   22  C   UNL     1      -9.128   2.621  67.290  1.00  0.00    -0.164 C  
HETATM   23  O   UNL     1      -9.722   1.820  68.004  1.00  0.00    -0.144 OA 
ENDBRANCH  17  20
ENDBRANCH  14  15
ENDBRANCH  13  14
ENDBRANCH   4  13
BRANCH  10  24
HETATM   24  N   UNL     1      -9.803   7.805  73.274  1.00  0.00    -0.292 N  
HETATM   25  C   UNL     1      -9.437   6.487  73.221  1.00  0.00    -0.143 C  
HETATM   26  O   UNL     1      -8.945   5.963  74.220  1.00  0.00    -0.121 OA 
HETATM   27  H   UNL     1      -9.592   8.305  74.138  1.00  0.00     0.000 HD 
BRANCH  25  28
HETATM   28  C   UNL     1      -9.668   5.716  71.931  1.00  0.00    -0.191 C  
BRANCH  28  29
HETATM   29  C   UNL     1      -9.974   4.246  72.124  1.00  0.00    -0.246 A  
HETATM   30  C   UNL     1      -9.127   3.220  71.651  1.00  0.00    -0.168 A  
HETATM   31  C   UNL     1      -9.497   1.881  71.890  1.00  0.00    -0.177 A  
HETATM   32  C   UNL     1     -11.140   3.896  72.839  1.00  0.00    -0.068 A  
HETATM   33  C   UNL     1     -10.650   1.556  72.602  1.00  0.00    -0.233 A  
HETATM   34  C   UNL     1     -11.478   2.564  73.072  1.00  0.00     0.073 A  
BRANCH  30  35
HETATM   35  C   UNL     1      -7.875   3.505  70.841  1.00  0.00    -0.047 C  
HETATM   36  N   UNL     1      -6.672   3.598  71.669  1.00  0.00    -0.025 NA 
HETATM   37  H1  UNL     1      -5.830   3.789  71.125  1.00  0.00     0.000 HD 
HETATM   38  H2  UNL     1      -6.556   2.759  72.240  1.00  0.00     0.000 HD 
ENDBRANCH  30  35
ENDBRANCH  28  29
ENDBRANCH  25  28
ENDBRANCH  10  24
TORSDOF 8
ENDMDL
MODEL      302
REMARK 921   NORMALIZED FREE ENERGY PREDICTED BY IDOCK:   -2.66 KCAL/MOL
REMARK 922        TOTAL FREE ENERGY PREDICTED BY IDOCK:   -4.73 KCAL/MOL
REMARK 923 INTER-LIGAND FREE ENERGY PREDICTED BY IDOCK:   -6.54 KCAL/MOL
REMARK 924 INTRA-LIGAND FREE ENERGY PREDICTED BY IDOCK:    1.81 KCAL/MOL
REMARK 927      BINDING AFFINITY PREDICTED BY RF-SCORE:    0.00 PKD
ROOT
HETATM    1  C   UNL     1      -7.432   7.918  70.207  1.00  0.00    -0.077 C  
HETATM    2  S   UNL     1      -7.462   9.240  68.979  1.00  0.00    -0.074 SA 
HETATM    3  C   UNL     1      -9.066   9.878  69.512  1.00  0.00    -0.223 C  
HETATM    4  C   UNL     1     -10.133   8.819  69.762  1.00  0.00    -0.198 C  
HETATM    5  O   UNL     1     -10.753   5.218  69.775  1.00  0.00    -0.286 OA 
HETATM    6  CA  UNL     1      -9.868   7.489  69.931  1.00  0.00    -0.187 C  
HETATM    7  N   UNL     1      -8.571   7.057  69.967  1.00  0.00    -0.140 N  
HETATM    8  O   UNL     1      -8.259   4.788  69.605  1.00  0.00    -0.071 OA 
HETATM    9  C   UNL     1     -11.003   6.500  70.089  1.00  0.00    -0.317 C  
HETATM   10  CA  UNL     1      -6.525   6.680  69.908  1.00  0.00    -0.044 C  
HETATM   11  OXT UNL     1     -12.109   6.821  70.493  1.00  0.00    -0.386 OA 
HETATM   12  C   UNL     1      -7.877   5.914  69.821  1.00  0.00    -0.100 C  
ENDROOT
BRANCH   4  13
HETATM   13  C   UNL     1     -11.533   9.420  69.655  1.00  0.00     0.102 C  
BRANCH  13  14
HETATM   14  S   UNL     1     -11.900  10.516  71.072  1.00  0.00    -0.298 SA 
BRANCH  14  15
HETATM   15  C   UNL     1     -12.031  12.028  70.240  1.00  0.00    -0.314 A  
HETATM   16  N   UNL     1     -11.646  12.258  69.005  1.00  0.00    -0.293 NA 
HETATM   17  N   UNL     1     -12.569  13.179  70.750  1.00  0.00    -0.300 NA 
HETATM   18  N   UNL     1     -11.984  13.559  68.736  1.00  0.00    -0.350 NA 
HETATM   19  N   UNL     1     -12.577  14.120  69.778  1.00  0.00    -0.216 NA 
BRANCH  17  20
HETATM   20  C   UNL     1     -13.205  13.432  72.023  1.00  0.00    -0.438 C  
HETATM   21  O   UNL     1     -13.571  15.788  71.437  1.00  0.00    -0.526 OA 
HETATM   22  C   UNL     1     -13.365  14.884  72.416  1.00  0.00    -0.404 C  
HETATM   23  O   UNL     1     -13.399  15.226  73.594  1.00  0.00    -0.416 OA 
ENDBRANCH  17  20
ENDBRANCH  14  15
ENDBRANCH  13  14
ENDBRANCH   4  13
BRANCH  10  24
HETATM   24  N   UNL     1      -5.705   6.690  68.674  1.00  0.00    -0.016 N  
HETATM   25  C   UNL     1      -6.159   6.524  67.393  1.00  0.00    -0.028 C  
HETATM   26  O   UNL     1      -5.345   6.489  66.470  1.00  0.00    -0.012 OA 
HETATM   27  H   UNL     1      -4.702   6.834  68.790  1.00  0.00     0.000 HD 
BRANCH  25  28
HETATM   28  C   UNL     1      -7.655   6.374  67.161  1.00  0.00    -0.096 C  
BRANCH  28  29
HETATM   29  C   UNL     1      -8.023   5.667  65.874  1.00  0.00    -0.107 A  
HETATM   30  C   UNL     1      -8.481   4.330  65.841  1.00  0.00    -0.113 A  
HETATM   31  C   UNL     1      -8.807   3.765  64.592  1.00  0.00    -0.120 A  
HETATM   32  C   UNL     1      -7.935   6.391  64.666  1.00  0.00    -0.118 A  
HETATM   33  C   UNL     1      -8.718   4.498  63.410  1.00  0.00    -0.131 A  
HETATM   34  C   UNL     1      -8.275   5.811  63.445  1.00  0.00    -0.074 A  
BRANCH  30  35
HETATM   35  C   UNL     1      -8.569   3.468  67.086  1.00  0.00    -0.110 C  
HETATM   36  N   UNL     1      -7.285   2.872  67.457  1.00  0.00    -0.053 NA 
HETATM   37  H1  UNL     1      -7.345   2.291  68.294  1.00  0.00     0.000 HD 
HETATM   38  H2  UNL     1      -6.566   3.589  67.559  1.00  0.00     0.000 HD 
ENDBRANCH  30  35
ENDBRANCH  28  29
ENDBRANCH  25  28
ENDBRANCH  10  24
TORSDOF 8
ENDMDL
MODEL      303
REMARK 921   NORMALIZED FREE ENERGY PREDICTED BY IDOCK:   -2.66 KCAL/MOL
REMARK 922        TOTAL FREE ENERGY PREDICTED BY IDOCK:   -4.72 KCAL/MOL
REMARK 923 INTER-LIGAND FREE ENERGY PREDICTED BY IDOCK:   -6.36 KCAL/MOL
REMARK 924 INTRA-LIGAND FREE ENERGY PREDICTED BY IDOCK:    1.64 KCAL/MOL
REMARK 927      BINDING AFFINITY PREDICTED BY RF-SCORE:    0.00 PKD
ROOT
HETATM    1  C   UNL     1      -7.453  15.020  67.224  1.00  0.00    -0.181 C  
HETATM    2  S   UNL     1      -7.199  15.191  69.002  1.00  0.00    -0.164 SA 
HETATM    3  C   UNL     1      -6.798  13.446  69.246  1.00  0.00    -0.036 C  
HETATM    4  C   UNL     1      -7.718  12.465  68.530  1.00  0.00    -0.120 C  
HETATM    5  O   UNL     1     -10.595  12.234  66.288  1.00  0.00    -0.241 OA 
HETATM    6  CA  UNL     1      -8.557  12.808  67.507  1.00  0.00    -0.187 C  
HETATM    7  N   UNL     1      -8.537  14.083  67.014  1.00  0.00    -0.203 N  
HETATM    8  O   UNL     1     -10.395  14.711  65.777  1.00  0.00    -0.296 OA 
HETATM    9  C   UNL     1      -9.498  11.779  66.915  1.00  0.00    -0.193 C  
HETATM   10  CA  UNL     1      -8.343  16.096  66.519  1.00  0.00    -0.317 C  
HETATM   11  OXT UNL     1      -9.289  10.578  66.979  1.00  0.00    -0.153 OA 
HETATM   12  C   UNL     1      -9.316  14.903  66.286  1.00  0.00    -0.296 C  
ENDROOT
BRANCH   4  13
HETATM   13  C   UNL     1      -7.680  11.093  69.201  1.00  0.00    -0.076 C  
BRANCH  13  14
HETATM   14  S   UNL     1      -5.999  10.374  69.155  1.00  0.00    -0.037 SA 
BRANCH  14  15
HETATM   15  C   UNL     1      -5.648  10.358  70.849  1.00  0.00    -0.092 A  
HETATM   16  N   UNL     1      -5.224  11.383  71.553  1.00  0.00    -0.311 NA 
HETATM   17  N   UNL     1      -5.780   9.280  71.684  1.00  0.00    -0.071 NA 
HETATM   18  N   UNL     1      -5.128  10.943  72.848  1.00  0.00    -0.313 NA 
HETATM   19  N   UNL     1      -5.497   9.675  72.947  1.00  0.00    -0.290 NA 
BRANCH  17  20
HETATM   20  C   UNL     1      -6.286   7.951  71.427  1.00  0.00    -0.035 C  
HETATM   21  O   UNL     1      -8.575   8.657  71.959  1.00  0.00    -0.243 OA 
HETATM   22  C   UNL     1      -7.677   7.652  71.938  1.00  0.00    -0.087 C  
HETATM   23  O   UNL     1      -8.013   6.512  72.242  1.00  0.00    -0.101 OA 
ENDBRANCH  17  20
ENDBRANCH  14  15
ENDBRANCH  13  14
ENDBRANCH   4  13
BRANCH  10  24
HETATM   24  N   UNL     1      -8.873  17.214  67.333  1.00  0.00    -0.210 N  
HETATM   25  C   UNL     1      -9.514  17.113  68.538  1.00  0.00    -0.282 C  
HETATM   26  O   UNL     1      -9.959  18.132  69.066  1.00  0.00    -0.358 OA 
HETATM   27  H   UNL     1      -8.747  18.154  66.958  1.00  0.00     0.000 HD 
BRANCH  25  28
HETATM   28  C   UNL     1      -9.665  15.739  69.173  1.00  0.00    -0.250 C  
BRANCH  28  29
HETATM   29  C   UNL     1     -10.811  15.624  70.155  1.00  0.00    -0.356 A  
HETATM   30  C   UNL     1     -12.114  15.240  69.768  1.00  0.00    -0.357 A  
HETATM   31  C   UNL     1     -13.110  15.153  70.761  1.00  0.00    -0.450 A  
HETATM   32  C   UNL     1     -10.548  15.877  71.519  1.00  0.00     0.829 A  
HETATM   33  C   UNL     1     -12.830  15.404  72.104  1.00  0.00    -0.466 A  
HETATM   34  C   UNL     1     -11.549  15.773  72.483  1.00  0.00    -0.474 A  
BRANCH  30  35
HETATM   35  C   UNL     1     -12.493  14.986  68.321  1.00  0.00     0.442 C  
HETATM   36  N   UNL     1     -12.277  13.597  67.913  1.00  0.00    -0.382 NA 
HETATM   37  H1  UNL     1     -12.532  13.426  66.939  1.00  0.00     0.000 HD 
HETATM   38  H2  UNL     1     -12.764  12.954  68.537  1.00  0.00     0.000 HD 
ENDBRANCH  30  35
ENDBRANCH  28  29
ENDBRANCH  25  28
ENDBRANCH  10  24
TORSDOF 8
ENDMDL
MODEL      304
REMARK 921   NORMALIZED FREE ENERGY PREDICTED BY IDOCK:   -2.64 KCAL/MOL
REMARK 922        TOTAL FREE ENERGY PREDICTED BY IDOCK:   -4.70 KCAL/MOL
REMARK 923 INTER-LIGAND FREE ENERGY PREDICTED BY IDOCK:   -5.04 KCAL/MOL
REMARK 924 INTRA-LIGAND FREE ENERGY PREDICTED BY IDOCK:    0.34 KCAL/MOL
REMARK 927      BINDING AFFINITY PREDICTED BY RF-SCORE:    0.00 PKD
ROOT
HETATM    1  C   UNL     1     -10.021   6.039  71.407  1.00  0.00    -0.186 C  
HETATM    2  S   UNL     1     -10.860   5.706  69.844  1.00  0.00    -0.220 SA 
HETATM    3  C   UNL     1      -9.774   4.333  69.401  1.00  0.00    -0.187 C  
HETATM    4  C   UNL     1      -8.287   4.587  69.621  1.00  0.00    -0.079 C  
HETATM    5  O   UNL     1      -5.875   7.043  70.847  1.00  0.00    -0.027 OA 
HETATM    6  CA  UNL     1      -7.789   5.591  70.402  1.00  0.00    -0.101 C  
HETATM    7  N   UNL     1      -8.646   6.385  71.112  1.00  0.00    -0.127 N  
HETATM    8  O   UNL     1      -7.768   8.399  71.853  1.00  0.00    -0.109 OA 
HETATM    9  C   UNL     1      -6.294   5.818  70.491  1.00  0.00    -0.032 C  
HETATM   10  CA  UNL     1     -10.175   7.472  72.014  1.00  0.00    -0.196 C  
HETATM   11  OXT UNL     1      -5.477   4.940  70.263  1.00  0.00    -0.010 OA 
HETATM   12  C   UNL     1      -8.650   7.582  71.724  1.00  0.00    -0.115 C  
ENDROOT
BRANCH   4  13
HETATM   13  C   UNL     1      -7.441   3.667  68.742  1.00  0.00    -0.053 C  
BRANCH  13  14
HETATM   14  S   UNL     1      -8.465   2.376  67.948  1.00  0.00    -0.085 SA 
BRANCH  14  15
HETATM   15  C   UNL     1      -7.855   2.480  66.332  1.00  0.00    -0.080 A  
HETATM   16  N   UNL     1      -6.751   1.920  65.893  1.00  0.00    -0.034 NA 
HETATM   17  N   UNL     1      -8.450   3.144  65.293  1.00  0.00    -0.099 NA 
HETATM   18  N   UNL     1      -6.682   2.211  64.555  1.00  0.00    -0.030 NA 
HETATM   19  N   UNL     1      -7.727   2.926  64.170  1.00  0.00    -0.075 NA 
BRANCH  17  20
HETATM   20  C   UNL     1      -9.712   3.846  65.229  1.00  0.00    -0.187 C  
HETATM   21  O   UNL     1      -8.632   5.962  65.846  1.00  0.00    -0.135 OA 
HETATM   22  C   UNL     1      -9.753   5.213  65.874  1.00  0.00    -0.140 C  
HETATM   23  O   UNL     1     -10.794   5.671  66.332  1.00  0.00    -0.253 OA 
ENDBRANCH  17  20
ENDBRANCH  14  15
ENDBRANCH  13  14
ENDBRANCH   4  13
BRANCH  10  24
HETATM   24  N   UNL     1     -11.040   8.446  71.309  1.00  0.00    -0.246 N  
HETATM   25  C   UNL     1     -10.786   9.037  70.101  1.00  0.00    -0.233 C  
HETATM   26  O   UNL     1     -11.571   9.882  69.671  1.00  0.00    -0.163 OA 
HETATM   27  H   UNL     1     -11.913   8.702  71.770  1.00  0.00     0.000 HD 
BRANCH  25  28
HETATM   28  C   UNL     1      -9.530   8.637  69.342  1.00  0.00    -0.161 C  
BRANCH  28  29
HETATM   29  C   UNL     1      -9.317   9.383  68.042  1.00  0.00    -0.140 A  
HETATM   30  C   UNL     1      -8.268  10.311  67.856  1.00  0.00    -0.109 A  
HETATM   31  C   UNL     1      -8.150  10.947  66.604  1.00  0.00    -0.147 A  
HETATM   32  C   UNL     1     -10.187   9.108  66.964  1.00  0.00    -0.333 A  
HETATM   33  C   UNL     1      -9.017  10.659  65.551  1.00  0.00    -0.209 A  
HETATM   34  C   UNL     1     -10.041   9.743  65.733  1.00  0.00    -0.308 A  
BRANCH  30  35
HETATM   35  C   UNL     1      -7.312  10.695  68.970  1.00  0.00    -0.108 C  
HETATM   36  N   UNL     1      -7.444  12.094  69.376  1.00  0.00    -0.321 NA 
HETATM   37  H1  UNL     1      -6.801  12.352  70.125  1.00  0.00     0.000 HD 
HETATM   38  H2  UNL     1      -8.408  12.311  69.631  1.00  0.00     0.000 HD 
ENDBRANCH  30  35
ENDBRANCH  28  29
ENDBRANCH  25  28
ENDBRANCH  10  24
TORSDOF 8
ENDMDL
MODEL      305
REMARK 921   NORMALIZED FREE ENERGY PREDICTED BY IDOCK:   -2.49 KCAL/MOL
REMARK 922        TOTAL FREE ENERGY PREDICTED BY IDOCK:   -4.48 KCAL/MOL
REMARK 923 INTER-LIGAND FREE ENERGY PREDICTED BY IDOCK:   -5.15 KCAL/MOL
REMARK 924 INTRA-LIGAND FREE ENERGY PREDICTED BY IDOCK:    0.67 KCAL/MOL
REMARK 927      BINDING AFFINITY PREDICTED BY RF-SCORE:    0.00 PKD
ROOT
HETATM    1  C   UNL     1     -10.992   9.269  69.711  1.00  0.00    -0.196 C  
HETATM    2  S   UNL     1      -9.431  10.161  69.561  1.00  0.00    -0.188 SA 
HETATM    3  C   UNL     1      -9.285   9.875  67.783  1.00  0.00    -0.130 C  
HETATM    4  C   UNL     1      -9.589   8.452  67.331  1.00  0.00    -0.202 C  
HETATM    5  O   UNL     1     -10.640   5.155  68.504  1.00  0.00    -0.083 OA 
HETATM    6  CA  UNL     1     -10.254   7.531  68.090  1.00  0.00    -0.189 C  
HETATM    7  N   UNL     1     -10.766   7.898  69.303  1.00  0.00    -0.182 N  
HETATM    8  O   UNL     1     -11.276   6.156  70.747  1.00  0.00    -0.302 OA 
HETATM    9  C   UNL     1     -10.433   6.114  67.587  1.00  0.00    -0.234 C  
HETATM   10  CA  UNL     1     -11.369   8.711  71.123  1.00  0.00    -0.275 C  
HETATM   11  OXT UNL     1     -10.406   5.825  66.402  1.00  0.00    -0.196 OA 
HETATM   12  C   UNL     1     -11.194   7.322  70.441  1.00  0.00    -0.276 C  
ENDROOT
BRANCH   4  13
HETATM   13  C   UNL     1      -8.929   8.156  65.985  1.00  0.00    -0.171 C  
BRANCH  13  14
HETATM   14  S   UNL     1      -7.127   8.461  66.044  1.00  0.00    -0.069 SA 
BRANCH  14  15
HETATM   15  C   UNL     1      -6.726   7.537  67.452  1.00  0.00    -0.067 A  
HETATM   16  N   UNL     1      -6.865   6.237  67.579  1.00  0.00    -0.061 NA 
HETATM   17  N   UNL     1      -6.196   8.034  68.612  1.00  0.00    -0.043 NA 
HETATM   18  N   UNL     1      -6.379   5.921  68.822  1.00  0.00    -0.035 NA 
HETATM   19  N   UNL     1      -5.937   7.002  69.447  1.00  0.00    -0.025 NA 
BRANCH  17  20
HETATM   20  C   UNL     1      -5.778   9.376  68.953  1.00  0.00    -0.039 C  
HETATM   21  O   UNL     1      -5.881   8.861  71.351  1.00  0.00    -0.043 OA 
HETATM   22  C   UNL     1      -5.989   9.800  70.388  1.00  0.00    -0.069 C  
HETATM   23  O   UNL     1      -6.164  10.977  70.687  1.00  0.00    -0.308 OA 
ENDBRANCH  17  20
ENDBRANCH  14  15
ENDBRANCH  13  14
ENDBRANCH   4  13
BRANCH  10  24
HETATM   24  N   UNL     1     -10.459   8.994  72.257  1.00  0.00    -0.161 N  
HETATM   25  C   UNL     1      -9.438   8.197  72.702  1.00  0.00    -0.276 C  
HETATM   26  O   UNL     1      -8.808   8.537  73.703  1.00  0.00    -0.249 OA 
HETATM   27  H   UNL     1     -10.607   9.871  72.757  1.00  0.00     0.000 HD 
BRANCH  25  28
HETATM   28  C   UNL     1      -9.132   6.913  71.948  1.00  0.00    -0.143 C  
BRANCH  28  29
HETATM   29  C   UNL     1      -8.319   5.904  72.730  1.00  0.00    -0.118 A  
HETATM   30  C   UNL     1      -8.911   4.917  73.551  1.00  0.00    -0.105 A  
HETATM   31  C   UNL     1      -8.066   4.017  74.231  1.00  0.00    -0.091 A  
HETATM   32  C   UNL     1      -6.914   5.935  72.602  1.00  0.00    -0.080 A  
HETATM   33  C   UNL     1      -6.680   4.061  74.088  1.00  0.00    -0.057 A  
HETATM   34  C   UNL     1      -6.102   5.026  73.278  1.00  0.00    -0.037 A  
BRANCH  30  35
HETATM   35  C   UNL     1     -10.409   4.834  73.775  1.00  0.00    -0.220 C  
HETATM   36  N   UNL     1     -10.932   3.476  73.624  1.00  0.00    -0.231 NA 
HETATM   37  H1  UNL     1     -11.940   3.420  73.775  1.00  0.00     0.000 HD 
HETATM   38  H2  UNL     1     -10.435   2.824  74.232  1.00  0.00     0.000 HD 
ENDBRANCH  30  35
ENDBRANCH  28  29
ENDBRANCH  25  28
ENDBRANCH  10  24
TORSDOF 8
ENDMDL
MODEL      306
REMARK 921   NORMALIZED FREE ENERGY PREDICTED BY IDOCK:   -2.48 KCAL/MOL
REMARK 922        TOTAL FREE ENERGY PREDICTED BY IDOCK:   -4.45 KCAL/MOL
REMARK 923 INTER-LIGAND FREE ENERGY PREDICTED BY IDOCK:   -4.84 KCAL/MOL
REMARK 924 INTRA-LIGAND FREE ENERGY PREDICTED BY IDOCK:    0.38 KCAL/MOL
REMARK 927      BINDING AFFINITY PREDICTED BY RF-SCORE:    0.00 PKD
ROOT
HETATM    1  C   UNL     1     -10.965   9.065  69.670  1.00  0.00    -0.136 C  
HETATM    2  S   UNL     1      -9.425   9.993  69.525  1.00  0.00    -0.219 SA 
HETATM    3  C   UNL     1      -9.288   9.745  67.741  1.00  0.00    -0.134 C  
HETATM    4  C   UNL     1      -9.565   8.324  67.263  1.00  0.00    -0.215 C  
HETATM    5  O   UNL     1     -10.532   4.983  68.381  1.00  0.00    -0.076 OA 
HETATM    6  CA  UNL     1     -10.202   7.375  68.010  1.00  0.00    -0.191 C  
HETATM    7  N   UNL     1     -10.712   7.707  69.234  1.00  0.00    -0.200 N  
HETATM    8  O   UNL     1     -11.170   5.927  70.648  1.00  0.00    -0.294 OA 
HETATM    9  C   UNL     1     -10.354   5.964  67.481  1.00  0.00    -0.215 C  
HETATM   10  CA  UNL     1     -11.317   8.471  71.074  1.00  0.00    -0.271 C  
HETATM   11  OXT UNL     1     -10.331   5.698  66.291  1.00  0.00    -0.182 OA 
HETATM   12  C   UNL     1     -11.117   7.100  70.364  1.00  0.00    -0.280 C  
ENDROOT
BRANCH   4  13
HETATM   13  C   UNL     1      -8.909   8.069  65.907  1.00  0.00    -0.153 C  
BRANCH  13  14
HETATM   14  S   UNL     1      -7.175   7.523  66.096  1.00  0.00    -0.075 SA 
BRANCH  14  15
HETATM   15  C   UNL     1      -6.863   6.992  64.478  1.00  0.00    -0.050 A  
HETATM   16  N   UNL     1      -7.353   5.909  63.920  1.00  0.00    -0.056 NA 
HETATM   17  N   UNL     1      -6.078   7.638  63.560  1.00  0.00    -0.053 NA 
HETATM   18  N   UNL     1      -6.895   5.905  62.628  1.00  0.00    -0.039 NA 
HETATM   19  N   UNL     1      -6.147   6.970  62.386  1.00  0.00    -0.044 NA 
BRANCH  17  20
HETATM   20  C   UNL     1      -5.386   8.904  63.645  1.00  0.00    -0.062 C  
HETATM   21  O   UNL     1      -7.448  10.132  63.130  1.00  0.00    -0.139 OA 
HETATM   22  C   UNL     1      -6.102  10.101  63.059  1.00  0.00    -0.137 C  
HETATM   23  O   UNL     1      -5.481  11.061  62.614  1.00  0.00    -0.166 OA 
ENDBRANCH  17  20
ENDBRANCH  14  15
ENDBRANCH  13  14
ENDBRANCH   4  13
BRANCH  10  24
HETATM   24  N   UNL     1     -10.404   8.753  72.206  1.00  0.00    -0.306 N  
HETATM   25  C   UNL     1      -9.233   8.102  72.491  1.00  0.00    -0.251 C  
HETATM   26  O   UNL     1      -8.613   8.406  73.510  1.00  0.00    -0.304 OA 
HETATM   27  H   UNL     1     -10.674   9.508  72.837  1.00  0.00     0.000 HD 
BRANCH  25  28
HETATM   28  C   UNL     1      -8.752   7.015  71.542  1.00  0.00    -0.121 C  
BRANCH  28  29
HETATM   29  C   UNL     1      -7.921   5.933  72.197  1.00  0.00    -0.107 A  
HETATM   30  C   UNL     1      -6.509   5.923  72.156  1.00  0.00    -0.054 A  
HETATM   31  C   UNL     1      -5.826   4.875  72.806  1.00  0.00    -0.017 A  
HETATM   32  C   UNL     1      -8.592   4.914  72.907  1.00  0.00    -0.118 A  
HETATM   33  C   UNL     1      -6.507   3.880  73.505  1.00  0.00    -0.040 A  
HETATM   34  C   UNL     1      -7.893   3.894  73.550  1.00  0.00    -0.083 A  
BRANCH  30  35
HETATM   35  C   UNL     1      -5.708   6.957  71.386  1.00  0.00    -0.036 C  
HETATM   36  N   UNL     1      -5.433   6.551  70.007  1.00  0.00    -0.014 NA 
HETATM   37  H1  UNL     1      -4.895   7.246  69.489  1.00  0.00     0.000 HD 
HETATM   38  H2  UNL     1      -6.297   6.317  69.516  1.00  0.00     0.000 HD 
ENDBRANCH  30  35
ENDBRANCH  28  29
ENDBRANCH  25  28
ENDBRANCH  10  24
TORSDOF 8
ENDMDL
MODEL      307
REMARK 921   NORMALIZED FREE ENERGY PREDICTED BY IDOCK:   -2.33 KCAL/MOL
REMARK 922        TOTAL FREE ENERGY PREDICTED BY IDOCK:   -4.24 KCAL/MOL
REMARK 923 INTER-LIGAND FREE ENERGY PREDICTED BY IDOCK:   -5.54 KCAL/MOL
REMARK 924 INTRA-LIGAND FREE ENERGY PREDICTED BY IDOCK:    1.30 KCAL/MOL
REMARK 927      BINDING AFFINITY PREDICTED BY RF-SCORE:    0.00 PKD
ROOT
HETATM    1  C   UNL     1     -11.950  12.095  68.493  1.00  0.00    -0.217 C  
HETATM    2  S   UNL     1     -11.404  13.373  69.644  1.00  0.00    -0.072 SA 
HETATM    3  C   UNL     1     -10.304  14.165  68.450  1.00  0.00    -0.249 C  
HETATM    4  C   UNL     1      -9.434  13.211  67.640  1.00  0.00    -0.207 C  
HETATM    5  O   UNL     1      -8.686   9.680  67.073  1.00  0.00    -0.127 OA 
HETATM    6  CA  UNL     1      -9.668  11.870  67.526  1.00  0.00    -0.181 C  
HETATM    7  N   UNL     1     -10.789  11.329  68.091  1.00  0.00    -0.202 N  
HETATM    8  O   UNL     1     -10.751   9.030  68.396  1.00  0.00    -0.186 OA 
HETATM    9  C   UNL     1      -8.697  10.988  66.769  1.00  0.00    -0.152 C  
HETATM   10  CA  UNL     1     -12.521  10.774  69.104  1.00  0.00     0.289 C  
HETATM   11  OXT UNL     1      -7.950  11.417  65.905  1.00  0.00    -0.002 OA 
HETATM   12  C   UNL     1     -11.255  10.125  68.472  1.00  0.00    -0.168 C  
ENDROOT
BRANCH   4  13
HETATM   13  C   UNL     1      -8.197  13.928  67.100  1.00  0.00    -0.109 C  
BRANCH  13  14
HETATM   14  S   UNL     1      -7.891  15.494  67.992  1.00  0.00    -0.132 SA 
BRANCH  14  15
HETATM   15  C   UNL     1      -8.883  16.558  67.054  1.00  0.00    -0.195 A  
HETATM   16  N   UNL     1      -9.122  16.445  65.768  1.00  0.00    -0.466 NA 
HETATM   17  N   UNL     1      -9.563  17.647  67.531  1.00  0.00    -0.263 NA 
HETATM   18  N   UNL     1      -9.992  17.457  65.452  1.00  0.00    -0.342 NA 
HETATM   19  N   UNL     1     -10.295  18.173  66.523  1.00  0.00    -0.385 NA 
BRANCH  17  20
HETATM   20  C   UNL     1      -9.699  18.150  68.879  1.00  0.00    -0.271 C  
HETATM   21  O   UNL     1     -10.075  20.430  68.050  1.00  0.00    -0.369 OA 
HETATM   22  C   UNL     1      -9.608  19.650  69.047  1.00  0.00    -0.309 C  
HETATM   23  O   UNL     1      -9.208  20.152  70.092  1.00  0.00     0.618 OA 
ENDBRANCH  17  20
ENDBRANCH  14  15
ENDBRANCH  13  14
ENDBRANCH   4  13
BRANCH  10  24
HETATM   24  N   UNL     1     -12.634  10.671  70.578  1.00  0.00    -0.350 N  
HETATM   25  C   UNL     1     -12.506   9.533  71.328  1.00  0.00    -0.346 C  
HETATM   26  O   UNL     1     -12.693   9.594  72.543  1.00  0.00    -0.258 OA 
HETATM   27  H   UNL     1     -12.827  11.535  71.084  1.00  0.00     0.000 HD 
BRANCH  25  28
HETATM   28  C   UNL     1     -12.150   8.231  70.627  1.00  0.00     0.039 C  
BRANCH  28  29
HETATM   29  C   UNL     1     -11.810   7.088  71.559  1.00  0.00    -0.351 A  
HETATM   30  C   UNL     1     -10.506   6.872  72.059  1.00  0.00    -0.229 A  
HETATM   31  C   UNL     1     -10.294   5.784  72.929  1.00  0.00    -0.226 A  
HETATM   32  C   UNL     1     -12.852   6.228  71.968  1.00  0.00     0.123 A  
HETATM   33  C   UNL     1     -11.337   4.948  73.325  1.00  0.00    -0.408 A  
HETATM   34  C   UNL     1     -12.617   5.166  72.838  1.00  0.00     0.604 A  
BRANCH  30  35
HETATM   35  C   UNL     1      -9.322   7.724  71.642  1.00  0.00    -0.140 C  
HETATM   36  N   UNL     1      -9.564   9.157  71.814  1.00  0.00    -0.305 NA 
HETATM   37  H1  UNL     1      -8.767   9.730  71.534  1.00  0.00     0.000 HD 
HETATM   38  H2  UNL     1      -9.846   9.366  72.772  1.00  0.00     0.000 HD 
ENDBRANCH  30  35
ENDBRANCH  28  29
ENDBRANCH  25  28
ENDBRANCH  10  24
TORSDOF 8
ENDMDL
MODEL      308
REMARK 921   NORMALIZED FREE ENERGY PREDICTED BY IDOCK:   -2.08 KCAL/MOL
REMARK 922        TOTAL FREE ENERGY PREDICTED BY IDOCK:   -3.88 KCAL/MOL
REMARK 923 INTER-LIGAND FREE ENERGY PREDICTED BY IDOCK:   -4.73 KCAL/MOL
REMARK 924 INTRA-LIGAND FREE ENERGY PREDICTED BY IDOCK:    0.85 KCAL/MOL
REMARK 927      BINDING AFFINITY PREDICTED BY RF-SCORE:    0.00 PKD
ROOT
HETATM    1  C   UNL     1      -9.137   6.361  65.488  1.00  0.00     0.139 C  
HETATM    2  S   UNL     1      -9.213   5.950  67.244  1.00  0.00    -0.114 SA 
HETATM    3  C   UNL     1     -10.405   7.250  67.633  1.00  0.00    -0.227 C  
HETATM    4  C   UNL     1     -10.106   8.609  67.009  1.00  0.00    -0.342 C  
HETATM    5  O   UNL     1      -7.788  10.391  64.818  1.00  0.00    -0.146 OA 
HETATM    6  CA  UNL     1      -9.242   8.801  65.968  1.00  0.00    -0.222 C  
HETATM    7  N   UNL     1      -8.656   7.722  65.368  1.00  0.00    -0.112 N  
HETATM    8  O   UNL     1      -6.772   8.181  64.096  1.00  0.00    -0.065 OA 
HETATM    9  C   UNL     1      -8.944  10.201  65.473  1.00  0.00    -0.172 C  
HETATM   10  CA  UNL     1      -7.860   5.917  64.701  1.00  0.00    -0.114 C  
HETATM   11  OXT UNL     1      -9.709  11.137  65.638  1.00  0.00    -0.205 OA 
HETATM   12  C   UNL     1      -7.601   7.447  64.579  1.00  0.00    -0.110 C  
ENDROOT
BRANCH   4  13
HETATM   13  C   UNL     1     -10.785   9.730  67.795  1.00  0.00    -0.272 C  
BRANCH  13  14
HETATM   14  S   UNL     1      -9.559  10.784  68.649  1.00  0.00    -0.192 SA 
BRANCH  14  15
HETATM   15  C   UNL     1      -8.693   9.567  69.523  1.00  0.00    -0.174 A  
HETATM   16  N   UNL     1      -7.452   9.198  69.296  1.00  0.00    -0.073 NA 
HETATM   17  N   UNL     1      -9.178   8.839  70.576  1.00  0.00    -0.173 NA 
HETATM   18  N   UNL     1      -7.154   8.256  70.246  1.00  0.00    -0.040 NA 
HETATM   19  N   UNL     1      -8.184   8.054  71.052  1.00  0.00    -0.100 NA 
BRANCH  17  20
HETATM   20  C   UNL     1     -10.445   8.918  71.266  1.00  0.00    -0.287 C  
HETATM   21  O   UNL     1      -9.351   8.578  73.437  1.00  0.00    -0.109 OA 
HETATM   22  C   UNL     1     -10.465   8.419  72.693  1.00  0.00    -0.247 C  
HETATM   23  O   UNL     1     -11.488   7.965  73.196  1.00  0.00    -0.323 OA 
ENDBRANCH  17  20
ENDBRANCH  14  15
ENDBRANCH  13  14
ENDBRANCH   4  13
BRANCH  10  24
HETATM   24  N   UNL     1      -6.825   5.140  65.420  1.00  0.00    -0.059 N  
HETATM   25  C   UNL     1      -6.300   3.933  65.041  1.00  0.00    -0.028 C  
HETATM   26  O   UNL     1      -5.490   3.375  65.781  1.00  0.00    -0.012 OA 
HETATM   27  H   UNL     1      -6.465   5.545  66.285  1.00  0.00     0.000 HD 
BRANCH  25  28
HETATM   28  C   UNL     1      -6.753   3.321  63.725  1.00  0.00    -0.038 C  
BRANCH  28  29
HETATM   29  C   UNL     1      -8.255   3.276  63.537  1.00  0.00    -0.085 A  
HETATM   30  C   UNL     1      -9.099   2.459  64.322  1.00  0.00    -0.115 A  
HETATM   31  C   UNL     1     -10.486   2.497  64.075  1.00  0.00     0.023 A  
HETATM   32  C   UNL     1      -8.830   4.115  62.558  1.00  0.00    -0.103 A  
HETATM   33  C   UNL     1     -11.036   3.335  63.106  1.00  0.00    -0.109 A  
HETATM   34  C   UNL     1     -10.206   4.141  62.341  1.00  0.00    -0.152 A  
BRANCH  30  35
HETATM   35  C   UNL     1      -8.563   1.501  65.369  1.00  0.00    -0.106 C  
HETATM   36  N   UNL     1      -9.161   1.709  66.689  1.00  0.00    -0.264 NA 
HETATM   37  H1  UNL     1      -8.800   1.064  67.393  1.00  0.00     0.000 HD 
HETATM   38  H2  UNL     1     -10.179   1.664  66.639  1.00  0.00     0.000 HD 
ENDBRANCH  30  35
ENDBRANCH  28  29
ENDBRANCH  25  28
ENDBRANCH  10  24
TORSDOF 8
ENDMDL
MODEL      309
REMARK 921   NORMALIZED FREE ENERGY PREDICTED BY IDOCK:   -1.87 KCAL/MOL
REMARK 922        TOTAL FREE ENERGY PREDICTED BY IDOCK:   -3.57 KCAL/MOL
REMARK 923 INTER-LIGAND FREE ENERGY PREDICTED BY IDOCK:   -4.76 KCAL/MOL
REMARK 924 INTRA-LIGAND FREE ENERGY PREDICTED BY IDOCK:    1.19 KCAL/MOL
REMARK 927      BINDING AFFINITY PREDICTED BY RF-SCORE:    0.00 PKD
ROOT
HETATM    1  C   UNL     1     -11.070  14.874  67.833  1.00  0.00    -0.298 C  
HETATM    2  S   UNL     1     -12.493  13.766  67.898  1.00  0.00     0.540 SA 
HETATM    3  C   UNL     1     -12.175  13.048  66.271  1.00  0.00    -0.320 C  
HETATM    4  C   UNL     1     -11.829  14.052  65.178  1.00  0.00    -0.370 C  
HETATM    5  O   UNL     1     -11.282  17.604  64.515  1.00  0.00    -0.811 OA 
HETATM    6  CA  UNL     1     -11.433  15.338  65.415  1.00  0.00    -0.184 C  
HETATM    7  N   UNL     1     -11.245  15.761  66.702  1.00  0.00    -0.094 N  
HETATM    8  O   UNL     1     -11.218  18.059  67.010  1.00  0.00     0.094 OA 
HETATM    9  C   UNL     1     -11.194  16.288  64.261  1.00  0.00     0.052 C  
HETATM   10  CA  UNL     1     -11.108  16.146  68.743  1.00  0.00    -0.354 C  
HETATM   11  OXT UNL     1     -10.920  15.905  63.135  1.00  0.00     1.798 OA 
HETATM   12  C   UNL     1     -11.160  16.914  67.390  1.00  0.00     0.036 C  
ENDROOT
BRANCH   4  13
HETATM   13  C   UNL     1     -12.123  13.474  63.794  1.00  0.00    -0.425 C  
BRANCH  13  14
HETATM   14  S   UNL     1     -12.399  11.668  63.870  1.00  0.00     0.002 SA 
BRANCH  14  15
HETATM   15  C   UNL     1     -10.774  11.119  63.642  1.00  0.00    -0.308 A  
HETATM   16  N   UNL     1     -10.112  11.138  62.507  1.00  0.00     0.051 NA 
HETATM   17  N   UNL     1      -9.957  10.608  64.614  1.00  0.00    -0.313 NA 
HETATM   18  N   UNL     1      -8.856  10.667  62.790  1.00  0.00    -0.230 NA 
HETATM   19  N   UNL     1      -8.738  10.374  64.075  1.00  0.00    -0.186 NA 
BRANCH  17  20
HETATM   20  C   UNL     1     -10.173  10.454  66.035  1.00  0.00    -0.228 C  
HETATM   21  O   UNL     1      -8.739  12.386  66.521  1.00  0.00    -0.164 OA 
HETATM   22  C   UNL     1      -9.221  11.199  66.943  1.00  0.00    -0.169 C  
HETATM   23  O   UNL     1      -8.961  10.789  68.069  1.00  0.00    -0.133 OA 
ENDBRANCH  17  20
ENDBRANCH  14  15
ENDBRANCH  13  14
ENDBRANCH   4  13
BRANCH  10  24
HETATM   24  N   UNL     1     -12.272  16.335  69.640  1.00  0.00    -0.294 N  
HETATM   25  C   UNL     1     -12.557  15.614  70.769  1.00  0.00    -0.431 C  
HETATM   26  O   UNL     1     -13.602  15.844  71.377  1.00  0.00    -0.475 OA 
HETATM   27  H   UNL     1     -12.926  17.077  69.393  1.00  0.00     0.000 HD 
BRANCH  25  28
HETATM   28  C   UNL     1     -11.576  14.542  71.219  1.00  0.00    -0.174 C  
BRANCH  28  29
HETATM   29  C   UNL     1     -12.132  13.134  71.199  1.00  0.00     0.003 A  
HETATM   30  C   UNL     1     -13.209  12.727  72.018  1.00  0.00    -0.538 A  
HETATM   31  C   UNL     1     -13.659  11.395  71.919  1.00  0.00    -0.099 A  
HETATM   32  C   UNL     1     -11.568  12.206  70.298  1.00  0.00    -0.105 A  
HETATM   33  C   UNL     1     -13.092  10.494  71.019  1.00  0.00    -0.419 A  
HETATM   34  C   UNL     1     -12.039  10.898  70.212  1.00  0.00    -0.440 A  
BRANCH  30  35
HETATM   35  C   UNL     1     -13.849  13.647  73.041  1.00  0.00     0.557 C  
HETATM   36  N   UNL     1     -12.868  14.431  73.792  1.00  0.00    -0.328 NA 
HETATM   37  H1  UNL     1     -13.299  15.050  74.480  1.00  0.00     0.000 HD 
HETATM   38  H2  UNL     1     -12.258  14.953  73.162  1.00  0.00     0.000 HD 
ENDBRANCH  30  35
ENDBRANCH  28  29
ENDBRANCH  25  28
ENDBRANCH  10  24
TORSDOF 8
ENDMDL
MODEL      310
REMARK 921   NORMALIZED FREE ENERGY PREDICTED BY IDOCK:   -1.81 KCAL/MOL
REMARK 922        TOTAL FREE ENERGY PREDICTED BY IDOCK:   -3.47 KCAL/MOL
REMARK 923 INTER-LIGAND FREE ENERGY PREDICTED BY IDOCK:   -5.78 KCAL/MOL
REMARK 924 INTRA-LIGAND FREE ENERGY PREDICTED BY IDOCK:    2.31 KCAL/MOL
REMARK 927      BINDING AFFINITY PREDICTED BY RF-SCORE:    0.00 PKD
ROOT
HETATM    1  C   UNL     1      -9.342   9.493  69.848  1.00  0.00    -0.223 C  
HETATM    2  S   UNL     1      -9.343   9.136  71.617  1.00  0.00     0.105 SA 
HETATM    3  C   UNL     1      -7.778   8.235  71.572  1.00  0.00    -0.098 C  
HETATM    4  C   UNL     1      -7.637   7.242  70.424  1.00  0.00    -0.088 C  
HETATM    5  O   UNL     1      -9.318   5.911  67.466  1.00  0.00    -0.112 OA 
HETATM    6  CA  UNL     1      -8.425   7.243  69.308  1.00  0.00    -0.133 C  
HETATM    7  N   UNL     1      -9.354   8.231  69.137  1.00  0.00    -0.151 N  
HETATM    8  O   UNL     1     -11.027   7.781  67.595  1.00  0.00    -0.118 OA 
HETATM    9  C   UNL     1      -8.265   6.161  68.261  1.00  0.00    -0.114 C  
HETATM   10  CA  UNL     1     -10.720   9.802  69.177  1.00  0.00    -0.221 C  
HETATM   11  OXT UNL     1      -7.230   5.531  68.113  1.00  0.00    -0.069 OA 
HETATM   12  C   UNL     1     -10.468   8.466  68.419  1.00  0.00    -0.164 C  
ENDROOT
BRANCH   4  13
HETATM   13  C   UNL     1      -6.601   6.170  70.757  1.00  0.00    -0.045 C  
BRANCH  13  14
HETATM   14  S   UNL     1      -6.474   5.900  72.561  1.00  0.00    -0.067 SA 
BRANCH  14  15
HETATM   15  C   UNL     1      -7.907   4.963  72.812  1.00  0.00    -0.094 A  
HETATM   16  N   UNL     1      -9.139   5.390  72.653  1.00  0.00    -0.135 NA 
HETATM   17  N   UNL     1      -7.948   3.648  73.194  1.00  0.00    -0.074 NA 
HETATM   18  N   UNL     1      -9.951   4.314  72.903  1.00  0.00    -0.142 NA 
HETATM   19  N   UNL     1      -9.237   3.240  73.200  1.00  0.00    -0.090 NA 
BRANCH  17  20
HETATM   20  C   UNL     1      -6.877   2.703  73.414  1.00  0.00    -0.023 C  
HETATM   21  O   UNL     1      -5.497   3.776  71.691  1.00  0.00    -0.007 OA 
HETATM   22  C   UNL     1      -5.808   2.639  72.347  1.00  0.00    -0.009 C  
HETATM   23  O   UNL     1      -5.173   1.610  72.140  1.00  0.00     0.000 OA 
ENDBRANCH  17  20
ENDBRANCH  14  15
ENDBRANCH  13  14
ENDBRANCH   4  13
BRANCH  10  24
HETATM   24  N   UNL     1     -11.928   9.842  70.034  1.00  0.00    -0.462 N  
HETATM   25  C   UNL     1     -12.692  10.942  70.315  1.00  0.00    -0.214 C  
HETATM   26  O   UNL     1     -13.632  10.832  71.102  1.00  0.00    -0.001 OA 
HETATM   27  H   UNL     1     -12.219   8.961  70.457  1.00  0.00     0.000 HD 
BRANCH  25  28
HETATM   28  C   UNL     1     -12.339  12.265  69.653  1.00  0.00    -0.050 C  
BRANCH  28  29
HETATM   29  C   UNL     1     -12.549  13.482  70.530  1.00  0.00    -0.311 A  
HETATM   30  C   UNL     1     -11.804  14.673  70.374  1.00  0.00    -0.365 A  
HETATM   31  C   UNL     1     -12.082  15.753  71.236  1.00  0.00    -0.487 A  
HETATM   32  C   UNL     1     -13.555  13.427  71.518  1.00  0.00    -0.207 A  
HETATM   33  C   UNL     1     -13.083  15.681  72.203  1.00  0.00    -0.540 A  
HETATM   34  C   UNL     1     -13.817  14.513  72.350  1.00  0.00    -0.587 A  
BRANCH  30  35
HETATM   35  C   UNL     1     -10.680  14.806  69.364  1.00  0.00    -0.239 C  
HETATM   36  N   UNL     1     -10.161  16.170  69.269  1.00  0.00    -0.246 NA 
HETATM   37  H1  UNL     1      -9.404  16.260  68.590  1.00  0.00     0.000 HD 
HETATM   38  H2  UNL     1      -9.872  16.516  70.185  1.00  0.00     0.000 HD 
ENDBRANCH  30  35
ENDBRANCH  28  29
ENDBRANCH  25  28
ENDBRANCH  10  24
TORSDOF 8
ENDMDL
MODEL      311
REMARK 921   NORMALIZED FREE ENERGY PREDICTED BY IDOCK:   -1.78 KCAL/MOL
REMARK 922        TOTAL FREE ENERGY PREDICTED BY IDOCK:   -3.43 KCAL/MOL
REMARK 923 INTER-LIGAND FREE ENERGY PREDICTED BY IDOCK:   -5.93 KCAL/MOL
REMARK 924 INTRA-LIGAND FREE ENERGY PREDICTED BY IDOCK:    2.50 KCAL/MOL
REMARK 927      BINDING AFFINITY PREDICTED BY RF-SCORE:    0.00 PKD
ROOT
HETATM    1  C   UNL     1     -10.812  15.939  69.102  1.00  0.00    -0.268 C  
HETATM    2  S   UNL     1      -9.937  14.713  70.096  1.00  0.00     0.747 SA 
HETATM    3  C   UNL     1      -8.432  15.704  70.233  1.00  0.00     1.035 C  
HETATM    4  C   UNL     1      -7.966  16.353  68.935  1.00  0.00    -0.236 C  
HETATM    5  O   UNL     1      -8.788  16.780  65.401  1.00  0.00    -0.102 OA 
HETATM    6  CA  UNL     1      -8.751  16.503  67.827  1.00  0.00    -0.196 C  
HETATM    7  N   UNL     1     -10.067  16.136  67.877  1.00  0.00    -0.240 N  
HETATM    8  O   UNL     1     -11.101  15.826  65.824  1.00  0.00    -0.248 OA 
HETATM    9  C   UNL     1      -8.171  17.083  66.554  1.00  0.00    -0.279 C  
HETATM   10  CA  UNL     1     -11.996  15.431  68.215  1.00  0.00    -0.086 C  
HETATM   11  OXT UNL     1      -7.189  17.808  66.545  1.00  0.00    -0.200 OA 
HETATM   12  C   UNL     1     -11.070  15.838  67.032  1.00  0.00    -0.152 C  
ENDROOT
BRANCH   4  13
HETATM   13  C   UNL     1      -6.473  16.676  68.994  1.00  0.00    -0.190 C  
BRANCH  13  14
HETATM   14  S   UNL     1      -5.572  15.925  67.591  1.00  0.00    -0.103 SA 
BRANCH  14  15
HETATM   15  C   UNL     1      -5.531  14.279  68.124  1.00  0.00    -0.122 A  
HETATM   16  N   UNL     1      -5.595  13.222  67.347  1.00  0.00    -0.353 NA 
HETATM   17  N   UNL     1      -5.411  13.860  69.422  1.00  0.00    -0.082 NA 
HETATM   18  N   UNL     1      -5.474  12.134  68.172  1.00  0.00    -0.050 NA 
HETATM   19  N   UNL     1      -5.327  12.510  69.433  1.00  0.00    -0.070 NA 
BRANCH  17  20
HETATM   20  C   UNL     1      -5.223  14.618  70.638  1.00  0.00    -0.124 C  
HETATM   21  O   UNL     1      -5.462  12.593  72.005  1.00  0.00    -0.385 OA 
HETATM   22  C   UNL     1      -5.620  13.930  71.925  1.00  0.00    -0.189 C  
HETATM   23  O   UNL     1      -5.988  14.571  72.904  1.00  0.00     0.078 OA 
ENDBRANCH  17  20
ENDBRANCH  14  15
ENDBRANCH  13  14
ENDBRANCH   4  13
BRANCH  10  24
HETATM   24  N   UNL     1     -12.365  13.999  68.286  1.00  0.00    -0.508 N  
HETATM   25  C   UNL     1     -11.753  12.966  67.628  1.00  0.00    -0.370 C  
HETATM   26  O   UNL     1     -12.217  11.831  67.734  1.00  0.00    -0.536 OA 
HETATM   27  H   UNL     1     -13.154  13.757  68.886  1.00  0.00     0.000 HD 
BRANCH  25  28
HETATM   28  C   UNL     1     -10.530  13.265  66.775  1.00  0.00    -0.270 C  
BRANCH  28  29
HETATM   29  C   UNL     1     -10.431  12.444  65.508  1.00  0.00    -0.304 A  
HETATM   30  C   UNL     1      -9.485  11.409  65.340  1.00  0.00    -0.240 A  
HETATM   31  C   UNL     1      -9.481  10.695  64.123  1.00  0.00    -0.327 A  
HETATM   32  C   UNL     1     -11.350  12.707  64.469  1.00  0.00    -0.378 A  
HETATM   33  C   UNL     1     -10.400  10.968  63.111  1.00  0.00    -0.251 A  
HETATM   34  C   UNL     1     -11.332  11.980  63.281  1.00  0.00    -0.396 A  
BRANCH  30  35
HETATM   35  C   UNL     1      -8.437  11.083  66.388  1.00  0.00    -0.164 C  
HETATM   36  N   UNL     1      -7.073  11.123  65.859  1.00  0.00    -0.368 NA 
HETATM   37  H1  UNL     1      -6.368  10.905  66.564  1.00  0.00     0.000 HD 
HETATM   38  H2  UNL     1      -6.880  12.022  65.415  1.00  0.00     0.000 HD 
ENDBRANCH  30  35
ENDBRANCH  28  29
ENDBRANCH  25  28
ENDBRANCH  10  24
TORSDOF 8
ENDMDL
MODEL      312
REMARK 921   NORMALIZED FREE ENERGY PREDICTED BY IDOCK:   -1.61 KCAL/MOL
REMARK 922        TOTAL FREE ENERGY PREDICTED BY IDOCK:   -3.18 KCAL/MOL
REMARK 923 INTER-LIGAND FREE ENERGY PREDICTED BY IDOCK:   -5.12 KCAL/MOL
REMARK 924 INTRA-LIGAND FREE ENERGY PREDICTED BY IDOCK:    1.93 KCAL/MOL
REMARK 927      BINDING AFFINITY PREDICTED BY RF-SCORE:    0.00 PKD
ROOT
HETATM    1  C   UNL     1     -11.119   5.968  68.234  1.00  0.00    -0.160 C  
HETATM    2  S   UNL     1      -9.901   4.969  69.114  1.00  0.00    -0.193 SA 
HETATM    3  C   UNL     1     -10.648   5.248  70.735  1.00  0.00    -0.186 C  
HETATM    4  C   UNL     1     -11.048   6.690  71.023  1.00  0.00    -0.330 C  
HETATM    5  O   UNL     1     -11.161  10.050  69.592  1.00  0.00    -0.244 OA 
HETATM    6  CA  UNL     1     -11.184   7.654  70.064  1.00  0.00    -0.134 C  
HETATM    7  N   UNL     1     -11.041   7.321  68.746  1.00  0.00     0.013 N  
HETATM    8  O   UNL     1     -10.650   9.091  67.300  1.00  0.00    -0.276 OA 
HETATM    9  C   UNL     1     -11.502   9.081  70.457  1.00  0.00    -0.212 C  
HETATM   10  CA  UNL     1     -10.702   6.548  66.842  1.00  0.00    -0.333 C  
HETATM   11  OXT UNL     1     -12.053   9.371  71.506  1.00  0.00    -0.329 OA 
HETATM   12  C   UNL     1     -10.806   7.923  67.566  1.00  0.00    -0.082 C  
ENDROOT
BRANCH   4  13
HETATM   13  C   UNL     1     -11.133   6.942  72.528  1.00  0.00    -0.266 C  
BRANCH  13  14
HETATM   14  S   UNL     1      -9.777   8.026  73.100  1.00  0.00    -0.220 SA 
BRANCH  14  15
HETATM   15  C   UNL     1      -8.686   6.826  73.707  1.00  0.00    -0.138 A  
HETATM   16  N   UNL     1      -8.889   5.529  73.689  1.00  0.00    -0.125 NA 
HETATM   17  N   UNL     1      -7.462   7.068  74.270  1.00  0.00    -0.105 NA 
HETATM   18  N   UNL     1      -7.759   4.958  74.214  1.00  0.00    -0.093 NA 
HETATM   19  N   UNL     1      -6.869   5.883  74.540  1.00  0.00    -0.076 NA 
BRANCH  17  20
HETATM   20  C   UNL     1      -6.739   8.308  74.446  1.00  0.00    -0.139 C  
HETATM   21  O   UNL     1      -6.867   8.789  72.042  1.00  0.00    -0.168 OA 
HETATM   22  C   UNL     1      -6.178   8.940  73.192  1.00  0.00     0.034 C  
HETATM   23  O   UNL     1      -5.177   9.648  73.227  1.00  0.00    -0.189 OA 
ENDBRANCH  17  20
ENDBRANCH  14  15
ENDBRANCH  13  14
ENDBRANCH   4  13
BRANCH  10  24
HETATM   24  N   UNL     1      -9.366   6.198  66.306  1.00  0.00    -0.205 N  
HETATM   25  C   UNL     1      -8.229   6.957  66.390  1.00  0.00    -0.117 C  
HETATM   26  O   UNL     1      -7.205   6.561  65.834  1.00  0.00    -0.071 OA 
HETATM   27  H   UNL     1      -9.285   5.302  65.826  1.00  0.00     0.000 HD 
BRANCH  25  28
HETATM   28  C   UNL     1      -8.282   8.270  67.155  1.00  0.00    -0.119 C  
BRANCH  28  29
HETATM   29  C   UNL     1      -7.201   9.260  66.779  1.00  0.00    -0.083 A  
HETATM   30  C   UNL     1      -6.567  10.095  67.725  1.00  0.00    -0.067 A  
HETATM   31  C   UNL     1      -5.564  10.978  67.275  1.00  0.00    -0.048 A  
HETATM   32  C   UNL     1      -6.791   9.320  65.429  1.00  0.00    -0.074 A  
HETATM   33  C   UNL     1      -5.170  11.019  65.938  1.00  0.00    -0.139 A  
HETATM   34  C   UNL     1      -5.790  10.194  65.012  1.00  0.00    -0.120 A  
BRANCH  30  35
HETATM   35  C   UNL     1      -6.970  10.124  69.188  1.00  0.00    -0.062 C  
HETATM   36  N   UNL     1      -5.877  10.533  70.070  1.00  0.00    -0.060 NA 
HETATM   37  H1  UNL     1      -6.148  10.552  71.054  1.00  0.00     0.000 HD 
HETATM   38  H2  UNL     1      -5.491  11.432  69.780  1.00  0.00     0.000 HD 
ENDBRANCH  30  35
ENDBRANCH  28  29
ENDBRANCH  25  28
ENDBRANCH  10  24
TORSDOF 8
ENDMDL
MODEL      313
REMARK 921   NORMALIZED FREE ENERGY PREDICTED BY IDOCK:   -1.52 KCAL/MOL
REMARK 922        TOTAL FREE ENERGY PREDICTED BY IDOCK:   -3.06 KCAL/MOL
REMARK 923 INTER-LIGAND FREE ENERGY PREDICTED BY IDOCK:   -5.52 KCAL/MOL
REMARK 924 INTRA-LIGAND FREE ENERGY PREDICTED BY IDOCK:    2.47 KCAL/MOL
REMARK 927      BINDING AFFINITY PREDICTED BY RF-SCORE:    0.00 PKD
ROOT
HETATM    1  C   UNL     1      -7.166   8.252  72.204  1.00  0.00    -0.096 C  
HETATM    2  S   UNL     1      -5.938   8.290  70.883  1.00  0.00    -0.033 SA 
HETATM    3  C   UNL     1      -6.448   9.913  70.275  1.00  0.00    -0.103 C  
HETATM    4  C   UNL     1      -7.954  10.111  70.149  1.00  0.00    -0.029 C  
HETATM    5  O   UNL     1     -11.187   8.499  70.697  1.00  0.00    -0.252 OA 
HETATM    6  CA  UNL     1      -8.886   9.315  70.753  1.00  0.00    -0.225 C  
HETATM    7  N   UNL     1      -8.479   8.319  71.597  1.00  0.00    -0.135 N  
HETATM    8  O   UNL     1     -10.048   6.668  72.033  1.00  0.00    -0.184 OA 
HETATM    9  C   UNL     1     -10.361   9.539  70.499  1.00  0.00    -0.288 C  
HETATM   10  CA  UNL     1      -7.576   6.850  72.764  1.00  0.00    -0.089 C  
HETATM   11  OXT UNL     1     -10.814  10.614  70.138  1.00  0.00    -0.261 OA 
HETATM   12  C   UNL     1      -8.962   7.187  72.139  1.00  0.00    -0.129 C  
ENDROOT
BRANCH   4  13
HETATM   13  C   UNL     1      -8.276  11.221  69.149  1.00  0.00     0.054 C  
BRANCH  13  14
HETATM   14  S   UNL     1      -8.440  10.563  67.451  1.00  0.00    -0.121 SA 
BRANCH  14  15
HETATM   15  C   UNL     1      -9.873  11.399  66.957  1.00  0.00    -0.191 A  
HETATM   16  N   UNL     1     -10.779  10.938  66.125  1.00  0.00    -0.204 NA 
HETATM   17  N   UNL     1     -10.260  12.643  67.378  1.00  0.00    -0.216 NA 
HETATM   18  N   UNL     1     -11.759  11.895  66.061  1.00  0.00    -0.466 NA 
HETATM   19  N   UNL     1     -11.472  12.921  66.845  1.00  0.00    -0.323 NA 
BRANCH  17  20
HETATM   20  C   UNL     1      -9.662  13.532  68.348  1.00  0.00    -0.207 C  
HETATM   21  O   UNL     1     -11.194  15.343  67.718  1.00  0.00    -0.316 OA 
HETATM   22  C   UNL     1      -9.980  15.002  68.196  1.00  0.00    -0.220 C  
HETATM   23  O   UNL     1      -9.199  15.867  68.579  1.00  0.00    -0.188 OA 
ENDBRANCH  17  20
ENDBRANCH  14  15
ENDBRANCH  13  14
ENDBRANCH   4  13
BRANCH  10  24
HETATM   24  N   UNL     1      -6.896   5.650  72.223  1.00  0.00    -0.070 N  
HETATM   25  C   UNL     1      -7.144   5.046  71.019  1.00  0.00    -0.055 C  
HETATM   26  O   UNL     1      -6.542   4.010  70.735  1.00  0.00    -0.029 OA 
HETATM   27  H   UNL     1      -6.171   5.232  72.805  1.00  0.00     0.000 HD 
BRANCH  25  28
HETATM   28  C   UNL     1      -8.169   5.671  70.085  1.00  0.00    -0.114 C  
BRANCH  28  29
HETATM   29  C   UNL     1      -8.704   4.734  69.024  1.00  0.00    -0.108 A  
HETATM   30  C   UNL     1      -8.951   5.146  67.695  1.00  0.00    -0.112 A  
HETATM   31  C   UNL     1      -9.441   4.194  66.778  1.00  0.00    -0.211 A  
HETATM   32  C   UNL     1      -8.931   3.386  69.376  1.00  0.00    -0.178 A  
HETATM   33  C   UNL     1      -9.654   2.866  67.144  1.00  0.00     0.036 A  
HETATM   34  C   UNL     1      -9.406   2.462  68.447  1.00  0.00    -0.262 A  
BRANCH  30  35
HETATM   35  C   UNL     1      -8.771   6.582  67.240  1.00  0.00    -0.110 C  
HETATM   36  N   UNL     1      -7.547   6.783  66.463  1.00  0.00    -0.088 NA 
HETATM   37  H1  UNL     1      -7.426   7.749  66.157  1.00  0.00     0.000 HD 
HETATM   38  H2  UNL     1      -7.508   6.141  65.671  1.00  0.00     0.000 HD 
ENDBRANCH  30  35
ENDBRANCH  28  29
ENDBRANCH  25  28
ENDBRANCH  10  24
TORSDOF 8
ENDMDL
MODEL      314
REMARK 921   NORMALIZED FREE ENERGY PREDICTED BY IDOCK:   -1.43 KCAL/MOL
REMARK 922        TOTAL FREE ENERGY PREDICTED BY IDOCK:   -2.93 KCAL/MOL
REMARK 923 INTER-LIGAND FREE ENERGY PREDICTED BY IDOCK:   -2.79 KCAL/MOL
REMARK 924 INTRA-LIGAND FREE ENERGY PREDICTED BY IDOCK:   -0.13 KCAL/MOL
REMARK 927      BINDING AFFINITY PREDICTED BY RF-SCORE:    0.00 PKD
ROOT
HETATM    1  C   UNL     1      -9.577   9.863  67.616  1.00  0.00    -0.148 C  
HETATM    2  S   UNL     1      -8.410  10.605  68.776  1.00  0.00    -0.150 SA 
HETATM    3  C   UNL     1      -7.098   9.413  68.424  1.00  0.00    -0.072 C  
HETATM    4  C   UNL     1      -7.547   7.958  68.361  1.00  0.00    -0.108 C  
HETATM    5  O   UNL     1     -10.463   5.768  68.593  1.00  0.00    -0.198 OA 
HETATM    6  CA  UNL     1      -8.847   7.562  68.220  1.00  0.00    -0.125 C  
HETATM    7  N   UNL     1      -9.824   8.500  68.040  1.00  0.00    -0.163 N  
HETATM    8  O   UNL     1     -11.991   7.789  68.461  1.00  0.00     1.784 OA 
HETATM    9  C   UNL     1      -9.204   6.091  68.255  1.00  0.00    -0.117 C  
HETATM   10  CA  UNL     1     -11.098  10.137  67.853  1.00  0.00    -0.238 C  
HETATM   11  OXT UNL     1      -8.404   5.210  67.981  1.00  0.00    -0.098 OA 
HETATM   12  C   UNL     1     -11.161   8.609  68.148  1.00  0.00     0.341 C  
ENDROOT
BRANCH   4  13
HETATM   13  C   UNL     1      -6.373   7.015  68.619  1.00  0.00    -0.035 C  
BRANCH  13  14
HETATM   14  S   UNL     1      -5.225   7.703  69.864  1.00  0.00    -0.023 SA 
BRANCH  14  15
HETATM   15  C   UNL     1      -6.239   7.624  71.265  1.00  0.00    -0.035 A  
HETATM   16  N   UNL     1      -7.084   8.553  71.651  1.00  0.00    -0.088 NA 
HETATM   17  N   UNL     1      -6.309   6.578  72.146  1.00  0.00    -0.049 NA 
HETATM   18  N   UNL     1      -7.712   8.058  72.765  1.00  0.00    -0.119 NA 
HETATM   19  N   UNL     1      -7.274   6.844  73.056  1.00  0.00    -0.075 NA 
BRANCH  17  20
HETATM   20  C   UNL     1      -5.652   5.291  72.126  1.00  0.00    -0.017 C  
HETATM   21  O   UNL     1      -7.646   4.224  71.171  1.00  0.00    -0.062 OA 
HETATM   22  C   UNL     1      -6.545   4.085  71.938  1.00  0.00    -0.018 C  
HETATM   23  O   UNL     1      -6.237   2.987  72.389  1.00  0.00    -0.012 OA 
ENDBRANCH  17  20
ENDBRANCH  14  15
ENDBRANCH  13  14
ENDBRANCH   4  13
BRANCH  10  24
HETATM   24  N   UNL     1     -11.487  11.028  68.970  1.00  0.00    -0.272 N  
HETATM   25  C   UNL     1     -11.495  12.397  68.956  1.00  0.00    -0.300 C  
HETATM   26  O   UNL     1     -11.780  13.004  69.989  1.00  0.00    -0.289 OA 
HETATM   27  H   UNL     1     -11.778  10.577  69.837  1.00  0.00     0.000 HD 
BRANCH  25  28
HETATM   28  C   UNL     1     -11.134  13.117  67.666  1.00  0.00    -0.295 C  
BRANCH  28  29
HETATM   29  C   UNL     1      -9.981  14.090  67.790  1.00  0.00    -0.236 A  
HETATM   30  C   UNL     1      -9.525  14.876  66.709  1.00  0.00    -0.269 A  
HETATM   31  C   UNL     1      -8.449  15.760  66.930  1.00  0.00    -0.281 A  
HETATM   32  C   UNL     1      -9.365  14.237  69.052  1.00  0.00     0.025 A  
HETATM   33  C   UNL     1      -7.856  15.893  68.185  1.00  0.00    -0.134 A  
HETATM   34  C   UNL     1      -8.310  15.126  69.246  1.00  0.00    -0.211 A  
BRANCH  30  35
HETATM   35  C   UNL     1     -10.103  14.755  65.311  1.00  0.00    -0.354 C  
HETATM   36  N   UNL     1     -11.560  14.610  65.310  1.00  0.00    -0.351 NA 
HETATM   37  H1  UNL     1     -11.949  14.529  64.370  1.00  0.00     0.000 HD 
HETATM   38  H2  UNL     1     -12.002  15.372  65.825  1.00  0.00     0.000 HD 
ENDBRANCH  30  35
ENDBRANCH  28  29
ENDBRANCH  25  28
ENDBRANCH  10  24
TORSDOF 8
ENDMDL
MODEL      315
REMARK 921   NORMALIZED FREE ENERGY PREDICTED BY IDOCK:   -1.37 KCAL/MOL
REMARK 922        TOTAL FREE ENERGY PREDICTED BY IDOCK:   -2.83 KCAL/MOL
REMARK 923 INTER-LIGAND FREE ENERGY PREDICTED BY IDOCK:   -6.77 KCAL/MOL
REMARK 924 INTRA-LIGAND FREE ENERGY PREDICTED BY IDOCK:    3.94 KCAL/MOL
REMARK 927      BINDING AFFINITY PREDICTED BY RF-SCORE:    0.00 PKD
ROOT
HETATM    1  C   UNL     1      -7.790   9.940  69.222  1.00  0.00    -0.117 C  
HETATM    2  S   UNL     1      -6.614  10.893  68.238  1.00  0.00    -0.059 SA 
HETATM    3  C   UNL     1      -7.318  12.491  68.702  1.00  0.00    -0.099 C  
HETATM    4  C   UNL     1      -8.840  12.564  68.658  1.00  0.00     0.045 C  
HETATM    5  O   UNL     1     -11.859  10.614  67.997  1.00  0.00    -0.494 OA 
HETATM    6  CA  UNL     1      -9.660  11.472  68.626  1.00  0.00    -0.152 C  
HETATM    7  N   UNL     1      -9.121  10.219  68.722  1.00  0.00    -0.151 N  
HETATM    8  O   UNL     1     -10.485   8.482  68.016  1.00  0.00    -0.221 OA 
HETATM    9  C   UNL     1     -11.158  11.646  68.495  1.00  0.00    -0.235 C  
HETATM   10  CA  UNL     1      -8.027   8.449  68.813  1.00  0.00    -0.120 C  
HETATM   11  OXT UNL     1     -11.737  12.667  68.831  1.00  0.00    -0.290 OA 
HETATM   12  C   UNL     1      -9.460   8.944  68.457  1.00  0.00    -0.147 C  
ENDROOT
BRANCH   4  13
HETATM   13  C   UNL     1      -9.311  14.010  68.509  1.00  0.00    -0.182 C  
BRANCH  13  14
HETATM   14  S   UNL     1     -11.025  14.092  67.877  1.00  0.00    -0.253 SA 
BRANCH  14  15
HETATM   15  C   UNL     1     -10.793  15.189  66.559  1.00  0.00    -0.317 A  
HETATM   16  N   UNL     1     -11.273  15.039  65.345  1.00  0.00    -0.354 NA 
HETATM   17  N   UNL     1     -10.094  16.365  66.609  1.00  0.00    -0.273 NA 
HETATM   18  N   UNL     1     -10.897  16.157  64.646  1.00  0.00    -0.644 NA 
HETATM   19  N   UNL     1     -10.209  16.987  65.413  1.00  0.00    -0.617 NA 
BRANCH  17  20
HETATM   20  C   UNL     1      -9.448  17.025  67.721  1.00  0.00    -0.245 C  
HETATM   21  O   UNL     1     -11.261  18.674  67.868  1.00  0.00    -0.057 OA 
HETATM   22  C   UNL     1      -9.953  18.409  68.064  1.00  0.00    -0.351 C  
HETATM   23  O   UNL     1      -9.223  19.242  68.591  1.00  0.00    -0.360 OA 
ENDBRANCH  17  20
ENDBRANCH  14  15
ENDBRANCH  13  14
ENDBRANCH   4  13
BRANCH  10  24
HETATM   24  N   UNL     1      -7.237   7.894  67.690  1.00  0.00    -0.086 N  
HETATM   25  C   UNL     1      -7.423   6.679  67.085  1.00  0.00    -0.088 C  
HETATM   26  O   UNL     1      -6.639   6.325  66.204  1.00  0.00    -0.045 OA 
HETATM   27  H   UNL     1      -6.478   8.474  67.331  1.00  0.00     0.000 HD 
BRANCH  25  28
HETATM   28  C   UNL     1      -8.583   5.807  67.537  1.00  0.00    -0.105 C  
BRANCH  28  29
HETATM   29  C   UNL     1      -8.418   4.334  67.231  1.00  0.00    -0.100 A  
HETATM   30  C   UNL     1      -8.625   3.794  65.942  1.00  0.00    -0.113 A  
HETATM   31  C   UNL     1      -8.436   2.409  65.757  1.00  0.00    -0.099 A  
HETATM   32  C   UNL     1      -8.006   3.477  68.274  1.00  0.00    -0.072 A  
HETATM   33  C   UNL     1      -8.025   1.580  66.800  1.00  0.00    -0.071 A  
HETATM   34  C   UNL     1      -7.816   2.113  68.063  1.00  0.00    -0.058 A  
BRANCH  30  35
HETATM   35  C   UNL     1      -9.105   4.634  64.773  1.00  0.00    -0.149 C  
HETATM   36  N   UNL     1      -8.024   5.001  63.857  1.00  0.00    -0.095 NA 
HETATM   37  H1  UNL     1      -8.347   5.567  63.070  1.00  0.00     0.000 HD 
HETATM   38  H2  UNL     1      -7.525   4.173  63.531  1.00  0.00     0.000 HD 
ENDBRANCH  30  35
ENDBRANCH  28  29
ENDBRANCH  25  28
ENDBRANCH  10  24
TORSDOF 8
ENDMDL
MODEL      316
REMARK 921   NORMALIZED FREE ENERGY PREDICTED BY IDOCK:   -0.90 KCAL/MOL
REMARK 922        TOTAL FREE ENERGY PREDICTED BY IDOCK:   -2.14 KCAL/MOL
REMARK 923 INTER-LIGAND FREE ENERGY PREDICTED BY IDOCK:   -4.45 KCAL/MOL
REMARK 924 INTRA-LIGAND FREE ENERGY PREDICTED BY IDOCK:    2.31 KCAL/MOL
REMARK 927      BINDING AFFINITY PREDICTED BY RF-SCORE:    0.00 PKD
ROOT
HETATM    1  C   UNL     1      -7.683   7.831  70.167  1.00  0.00    -0.090 C  
HETATM    2  S   UNL     1      -7.489   9.331  69.184  1.00  0.00    -0.074 SA 
HETATM    3  C   UNL     1      -9.130   9.969  69.589  1.00  0.00    -0.210 C  
HETATM    4  C   UNL     1     -10.257   8.947  69.510  1.00  0.00    -0.204 C  
HETATM    5  O   UNL     1     -10.998   5.432  68.837  1.00  0.00    -0.082 OA 
HETATM    6  CA  UNL     1     -10.067   7.594  69.490  1.00  0.00    -0.192 C  
HETATM    7  N   UNL     1      -8.805   7.087  69.631  1.00  0.00    -0.141 N  
HETATM    8  O   UNL     1      -8.522   4.890  68.944  1.00  0.00    -0.083 OA 
HETATM    9  C   UNL     1     -11.246   6.660  69.323  1.00  0.00    -0.266 C  
HETATM   10  CA  UNL     1      -6.786   6.605  69.794  1.00  0.00    -0.050 C  
HETATM   11  OXT UNL     1     -12.388   6.976  69.618  1.00  0.00     0.380 OA 
HETATM   12  C   UNL     1      -8.137   5.944  69.395  1.00  0.00    -0.109 C  
ENDROOT
BRANCH   4  13
HETATM   13  C   UNL     1     -11.606   9.638  69.311  1.00  0.00     0.247 C  
BRANCH  13  14
HETATM   14  S   UNL     1     -12.019  10.715  70.730  1.00  0.00    -0.381 SA 
BRANCH  14  15
HETATM   15  C   UNL     1     -11.795  12.263  69.990  1.00  0.00    -0.296 A  
HETATM   16  N   UNL     1     -10.919  12.544  69.052  1.00  0.00    -0.218 NA 
HETATM   17  N   UNL     1     -12.511  13.397  70.271  1.00  0.00    -0.260 NA 
HETATM   18  N   UNL     1     -11.122  13.859  68.722  1.00  0.00    -0.255 NA 
HETATM   19  N   UNL     1     -12.111  14.379  69.432  1.00  0.00    -0.311 NA 
BRANCH  17  20
HETATM   20  C   UNL     1     -13.635  13.599  71.156  1.00  0.00     0.034 C  
HETATM   21  O   UNL     1     -13.287  16.029  71.135  1.00  0.00    -0.352 OA 
HETATM   22  C   UNL     1     -13.730  14.955  71.820  1.00  0.00    -0.437 C  
HETATM   23  O   UNL     1     -14.276  15.095  72.909  1.00  0.00    -0.328 OA 
ENDBRANCH  17  20
ENDBRANCH  14  15
ENDBRANCH  13  14
ENDBRANCH   4  13
BRANCH  10  24
HETATM   24  N   UNL     1      -5.796   6.765  68.704  1.00  0.00    -0.017 N  
HETATM   25  C   UNL     1      -6.061   7.108  67.405  1.00  0.00    -0.037 C  
HETATM   26  O   UNL     1      -5.136   7.136  66.594  1.00  0.00    -0.020 OA 
HETATM   27  H   UNL     1      -4.818   6.602  68.945  1.00  0.00     0.000 HD 
BRANCH  25  28
HETATM   28  C   UNL     1      -7.495   7.428  67.012  1.00  0.00    -0.098 C  
BRANCH  28  29
HETATM   29  C   UNL     1      -7.635   8.179  65.706  1.00  0.00    -0.082 A  
HETATM   30  C   UNL     1      -8.097   7.567  64.519  1.00  0.00    -0.086 A  
HETATM   31  C   UNL     1      -8.201   8.356  63.355  1.00  0.00    -0.114 A  
HETATM   32  C   UNL     1      -7.323   9.556  65.690  1.00  0.00    -0.094 A  
HETATM   33  C   UNL     1      -7.892   9.716  63.361  1.00  0.00    -0.138 A  
HETATM   34  C   UNL     1      -7.446  10.316  64.529  1.00  0.00    -0.088 A  
BRANCH  30  35
HETATM   35  C   UNL     1      -8.418   6.087  64.436  1.00  0.00     0.051 C  
HETATM   36  N   UNL     1      -7.446   5.338  63.639  1.00  0.00    -0.052 NA 
HETATM   37  H1  UNL     1      -7.662   4.342  63.583  1.00  0.00     0.000 HD 
HETATM   38  H2  UNL     1      -6.498   5.488  63.985  1.00  0.00     0.000 HD 
ENDBRANCH  30  35
ENDBRANCH  28  29
ENDBRANCH  25  28
ENDBRANCH  10  24
TORSDOF 8
ENDMDL
MODEL      317
REMARK 921   NORMALIZED FREE ENERGY PREDICTED BY IDOCK:   -0.72 KCAL/MOL
REMARK 922        TOTAL FREE ENERGY PREDICTED BY IDOCK:   -1.87 KCAL/MOL
REMARK 923 INTER-LIGAND FREE ENERGY PREDICTED BY IDOCK:   -4.21 KCAL/MOL
REMARK 924 INTRA-LIGAND FREE ENERGY PREDICTED BY IDOCK:    2.34 KCAL/MOL
REMARK 927      BINDING AFFINITY PREDICTED BY RF-SCORE:    0.00 PKD
ROOT
HETATM    1  C   UNL     1     -10.217   4.535  68.188  1.00  0.00     0.131 C  
HETATM    2  S   UNL     1      -8.545   4.044  68.655  1.00  0.00    -0.098 SA 
HETATM    3  C   UNL     1      -8.808   4.340  70.418  1.00  0.00    -0.085 C  
HETATM    4  C   UNL     1      -9.521   5.644  70.754  1.00  0.00    -0.203 C  
HETATM    5  O   UNL     1     -11.087   8.602  69.288  1.00  0.00    -0.048 OA 
HETATM    6  CA  UNL     1     -10.232   6.385  69.852  1.00  0.00    -0.183 C  
HETATM    7  N   UNL     1     -10.404   5.916  68.580  1.00  0.00    -0.192 N  
HETATM    8  O   UNL     1     -11.034   7.497  67.004  1.00  0.00    -0.306 OA 
HETATM    9  C   UNL     1     -10.834   7.713  70.261  1.00  0.00    -0.246 C  
HETATM   10  CA  UNL     1     -10.444   4.998  66.711  1.00  0.00    -0.219 C  
HETATM   11  OXT UNL     1     -11.099   7.990  71.420  1.00  0.00    -0.234 OA 
HETATM   12  C   UNL     1     -10.736   6.382  67.362  1.00  0.00    -0.336 C  
ENDROOT
BRANCH   4  13
HETATM   13  C   UNL     1      -9.214   6.079  72.187  1.00  0.00    -0.145 C  
BRANCH  13  14
HETATM   14  S   UNL     1      -8.641   7.814  72.251  1.00  0.00    -0.145 SA 
BRANCH  14  15
HETATM   15  C   UNL     1      -7.078   7.626  71.533  1.00  0.00    -0.062 A  
HETATM   16  N   UNL     1      -6.438   6.489  71.379  1.00  0.00    -0.049 NA 
HETATM   17  N   UNL     1      -6.308   8.633  71.015  1.00  0.00    -0.043 NA 
HETATM   18  N   UNL     1      -5.273   6.794  70.723  1.00  0.00    -0.022 NA 
HETATM   19  N   UNL     1      -5.198   8.090  70.465  1.00  0.00    -0.023 NA 
BRANCH  17  20
HETATM   20  C   UNL     1      -6.588  10.043  70.862  1.00  0.00     0.032 C  
HETATM   21  O   UNL     1      -7.776   9.637  68.753  1.00  0.00    -0.078 OA 
HETATM   22  C   UNL     1      -7.039  10.493  69.491  1.00  0.00    -0.124 C  
HETATM   23  O   UNL     1      -6.825  11.632  69.090  1.00  0.00    -0.098 OA 
ENDBRANCH  17  20
ENDBRANCH  14  15
ENDBRANCH  13  14
ENDBRANCH   4  13
BRANCH  10  24
HETATM   24  N   UNL     1      -9.297   4.953  65.775  1.00  0.00    -0.156 N  
HETATM   25  C   UNL     1      -8.404   5.962  65.530  1.00  0.00    -0.145 C  
HETATM   26  O   UNL     1      -7.538   5.797  64.670  1.00  0.00    -0.073 OA 
HETATM   27  H   UNL     1      -9.158   4.082  65.263  1.00  0.00     0.000 HD 
BRANCH  25  28
HETATM   28  C   UNL     1      -8.528   7.255  66.320  1.00  0.00    -0.135 C  
BRANCH  28  29
HETATM   29  C   UNL     1      -7.657   8.385  65.814  1.00  0.00    -0.085 A  
HETATM   30  C   UNL     1      -8.188   9.591  65.306  1.00  0.00    -0.131 A  
HETATM   31  C   UNL     1      -7.292  10.587  64.868  1.00  0.00     0.019 A  
HETATM   32  C   UNL     1      -6.255   8.233  65.891  1.00  0.00    -0.048 A  
HETATM   33  C   UNL     1      -5.911  10.420  64.956  1.00  0.00    -0.134 A  
HETATM   34  C   UNL     1      -5.391   9.238  65.462  1.00  0.00    -0.037 A  
BRANCH  30  35
HETATM   35  C   UNL     1      -9.680   9.824  65.153  1.00  0.00    -0.268 C  
HETATM   36  N   UNL     1     -10.110  11.118  65.685  1.00  0.00    -0.242 NA 
HETATM   37  H1  UNL     1     -11.113  11.275  65.582  1.00  0.00     0.000 HD 
HETATM   38  H2  UNL     1      -9.576  11.880  65.267  1.00  0.00     0.000 HD 
ENDBRANCH  30  35
ENDBRANCH  28  29
ENDBRANCH  25  28
ENDBRANCH  10  24
TORSDOF 8
ENDMDL
MODEL      318
REMARK 921   NORMALIZED FREE ENERGY PREDICTED BY IDOCK:   -0.20 KCAL/MOL
REMARK 922        TOTAL FREE ENERGY PREDICTED BY IDOCK:   -1.11 KCAL/MOL
REMARK 923 INTER-LIGAND FREE ENERGY PREDICTED BY IDOCK:   -3.82 KCAL/MOL
REMARK 924 INTRA-LIGAND FREE ENERGY PREDICTED BY IDOCK:    2.71 KCAL/MOL
REMARK 927      BINDING AFFINITY PREDICTED BY RF-SCORE:    0.00 PKD
ROOT
HETATM    1  C   UNL     1      -8.331   4.355  67.970  1.00  0.00    -0.094 C  
HETATM    2  S   UNL     1      -6.736   4.802  67.256  1.00  0.00    -0.056 SA 
HETATM    3  C   UNL     1      -6.079   5.464  68.803  1.00  0.00    -0.022 C  
HETATM    4  C   UNL     1      -7.035   6.364  69.578  1.00  0.00    -0.071 C  
HETATM    5  O   UNL     1     -10.410   7.764  69.572  1.00  0.00    -0.209 OA 
HETATM    6  CA  UNL     1      -8.383   6.417  69.362  1.00  0.00    -0.122 C  
HETATM    7  N   UNL     1      -8.957   5.566  68.460  1.00  0.00    -0.110 N  
HETATM    8  O   UNL     1     -11.068   6.169  67.712  1.00  0.00    -0.326 OA 
HETATM    9  C   UNL     1      -9.239   7.407  70.124  1.00  0.00    -0.151 C  
HETATM   10  CA  UNL     1      -9.542   4.212  66.990  1.00  0.00    -0.201 C  
HETATM   11  OXT UNL     1      -8.910   7.872  71.203  1.00  0.00    -0.132 OA 
HETATM   12  C   UNL     1     -10.093   5.456  67.747  1.00  0.00    -0.171 C  
ENDROOT
BRANCH   4  13
HETATM   13  C   UNL     1      -6.267   7.292  70.518  1.00  0.00    -0.031 C  
BRANCH  13  14
HETATM   14  S   UNL     1      -6.973   8.979  70.514  1.00  0.00    -0.080 SA 
BRANCH  14  15
HETATM   15  C   UNL     1      -6.250   9.589  69.065  1.00  0.00    -0.042 A  
HETATM   16  N   UNL     1      -5.446   8.921  68.270  1.00  0.00    -0.038 NA 
HETATM   17  N   UNL     1      -6.434  10.842  68.544  1.00  0.00    -0.053 NA 
HETATM   18  N   UNL     1      -5.158   9.760  67.225  1.00  0.00    -0.035 NA 
HETATM   19  N   UNL     1      -5.781  10.920  67.362  1.00  0.00    -0.044 NA 
BRANCH  17  20
HETATM   20  C   UNL     1      -7.285  11.925  68.985  1.00  0.00    -0.068 C  
HETATM   21  O   UNL     1      -9.259  10.853  67.997  1.00  0.00    -0.148 OA 
HETATM   22  C   UNL     1      -8.653  12.006  68.347  1.00  0.00    -0.147 C  
HETATM   23  O   UNL     1      -9.241  13.076  68.231  1.00  0.00    -0.207 OA 
ENDBRANCH  17  20
ENDBRANCH  14  15
ENDBRANCH  13  14
ENDBRANCH   4  13
BRANCH  10  24
HETATM   24  N   UNL     1      -9.299   4.392  65.540  1.00  0.00    -0.152 N  
HETATM   25  C   UNL     1      -8.910   5.547  64.916  1.00  0.00    -0.012 C  
HETATM   26  O   UNL     1      -8.813   5.560  63.689  1.00  0.00     0.048 OA 
HETATM   27  H   UNL     1      -9.435   3.574  64.946  1.00  0.00     0.000 HD 
BRANCH  25  28
HETATM   28  C   UNL     1      -8.628   6.777  65.764  1.00  0.00    -0.144 C  
BRANCH  28  29
HETATM   29  C   UNL     1      -7.871   7.875  65.048  1.00  0.00    -0.120 A  
HETATM   30  C   UNL     1      -8.422   9.153  64.808  1.00  0.00    -0.194 A  
HETATM   31  C   UNL     1      -7.631  10.110  64.141  1.00  0.00    -0.125 A  
HETATM   32  C   UNL     1      -6.546   7.612  64.637  1.00  0.00    -0.044 A  
HETATM   33  C   UNL     1      -6.323   9.833  63.746  1.00  0.00    -0.118 A  
HETATM   34  C   UNL     1      -5.781   8.580  63.988  1.00  0.00    -0.066 A  
BRANCH  30  35
HETATM   35  C   UNL     1      -9.849   9.509  65.182  1.00  0.00    -0.031 C  
HETATM   36  N   UNL     1     -10.179  10.906  64.900  1.00  0.00    -0.300 NA 
HETATM   37  H1  UNL     1     -11.139  11.146  65.151  1.00  0.00     0.000 HD 
HETATM   38  H2  UNL     1      -9.988  11.136  63.924  1.00  0.00     0.000 HD 
ENDBRANCH  30  35
ENDBRANCH  28  29
ENDBRANCH  25  28
ENDBRANCH  10  24
TORSDOF 8
ENDMDL
MODEL      319
REMARK 921   NORMALIZED FREE ENERGY PREDICTED BY IDOCK:   -0.19 KCAL/MOL
REMARK 922        TOTAL FREE ENERGY PREDICTED BY IDOCK:   -1.10 KCAL/MOL
REMARK 923 INTER-LIGAND FREE ENERGY PREDICTED BY IDOCK:   -4.00 KCAL/MOL
REMARK 924 INTRA-LIGAND FREE ENERGY PREDICTED BY IDOCK:    2.90 KCAL/MOL
REMARK 927      BINDING AFFINITY PREDICTED BY RF-SCORE:    0.00 PKD
ROOT
HETATM    1  C   UNL     1      -8.379   3.363  69.384  1.00  0.00    -0.059 C  
HETATM    2  S   UNL     1      -6.845   3.528  68.450  1.00  0.00    -0.046 SA 
HETATM    3  C   UNL     1      -5.869   4.030  69.885  1.00  0.00    -0.018 C  
HETATM    4  C   UNL     1      -6.527   5.072  70.781  1.00  0.00    -0.031 C  
HETATM    5  O   UNL     1      -9.558   7.060  71.243  1.00  0.00    -0.165 OA 
HETATM    6  CA  UNL     1      -7.859   5.373  70.757  1.00  0.00    -0.095 C  
HETATM    7  N   UNL     1      -8.700   4.657  69.951  1.00  0.00    -0.083 N  
HETATM    8  O   UNL     1     -10.749   5.647  69.505  1.00  0.00    -0.302 OA 
HETATM    9  C   UNL     1      -8.406   6.486  71.627  1.00  0.00    -0.120 C  
HETATM   10  CA  UNL     1      -9.721   3.461  68.586  1.00  0.00     0.066 C  
HETATM   11  OXT UNL     1      -7.850   6.862  72.646  1.00  0.00    -0.097 OA 
HETATM   12  C   UNL     1      -9.925   4.769  69.406  1.00  0.00    -0.199 C  
ENDROOT
BRANCH   4  13
HETATM   13  C   UNL     1      -5.479   5.827  71.598  1.00  0.00    -0.021 C  
BRANCH  13  14
HETATM   14  S   UNL     1      -5.746   7.634  71.518  1.00  0.00    -0.035 SA 
BRANCH  14  15
HETATM   15  C   UNL     1      -5.456   7.893  69.832  1.00  0.00    -0.023 A  
HETATM   16  N   UNL     1      -5.435   6.960  68.907  1.00  0.00    -0.017 NA 
HETATM   17  N   UNL     1      -5.228   9.104  69.235  1.00  0.00    -0.036 NA 
HETATM   18  N   UNL     1      -5.228   7.608  67.717  1.00  0.00    -0.029 NA 
HETATM   19  N   UNL     1      -5.135   8.916  67.899  1.00  0.00    -0.034 NA 
BRANCH  17  20
HETATM   20  C   UNL     1      -5.232  10.438  69.790  1.00  0.00    -0.038 C  
HETATM   21  O   UNL     1      -7.647  10.317  70.211  1.00  0.00    -0.201 OA 
HETATM   22  C   UNL     1      -6.584  11.100  69.936  1.00  0.00    -0.129 C  
HETATM   23  O   UNL     1      -6.705  12.320  69.897  1.00  0.00     0.013 OA 
ENDBRANCH  17  20
ENDBRANCH  14  15
ENDBRANCH  13  14
ENDBRANCH   4  13
BRANCH  10  24
HETATM   24  N   UNL     1      -9.654   3.623  67.115  1.00  0.00    -0.291 N  
HETATM   25  C   UNL     1      -9.449   4.792  66.432  1.00  0.00    -0.158 C  
HETATM   26  O   UNL     1      -9.486   4.780  65.202  1.00  0.00    -0.156 OA 
HETATM   27  H   UNL     1      -9.773   2.779  66.555  1.00  0.00     0.000 HD 
BRANCH  25  28
HETATM   28  C   UNL     1      -9.199   6.067  67.223  1.00  0.00    -0.114 C  
BRANCH  28  29
HETATM   29  C   UNL     1      -9.174   7.329  66.389  1.00  0.00    -0.201 A  
HETATM   30  C   UNL     1      -9.893   8.493  66.742  1.00  0.00    -0.327 A  
HETATM   31  C   UNL     1      -9.796   9.621  65.902  1.00  0.00    -0.358 A  
HETATM   32  C   UNL     1      -8.367   7.348  65.230  1.00  0.00    -0.110 A  
HETATM   33  C   UNL     1      -8.991   9.621  64.764  1.00  0.00    -0.268 A  
HETATM   34  C   UNL     1      -8.280   8.480  64.423  1.00  0.00    -0.153 A  
BRANCH  30  35
HETATM   35  C   UNL     1     -10.813   8.549  67.947  1.00  0.00     0.024 C  
HETATM   36  N   UNL     1     -10.112   8.909  69.180  1.00  0.00    -0.191 NA 
HETATM   37  H1  UNL     1     -10.730   8.947  69.991  1.00  0.00     0.000 HD 
HETATM   38  H2  UNL     1      -9.603   9.787  69.067  1.00  0.00     0.000 HD 
ENDBRANCH  30  35
ENDBRANCH  28  29
ENDBRANCH  25  28
ENDBRANCH  10  24
TORSDOF 8
ENDMDL
MODEL      320
REMARK 921   NORMALIZED FREE ENERGY PREDICTED BY IDOCK:    0.55 KCAL/MOL
REMARK 922        TOTAL FREE ENERGY PREDICTED BY IDOCK:   -0.01 KCAL/MOL
REMARK 923 INTER-LIGAND FREE ENERGY PREDICTED BY IDOCK:   -1.07 KCAL/MOL
REMARK 924 INTRA-LIGAND FREE ENERGY PREDICTED BY IDOCK:    1.06 KCAL/MOL
REMARK 927      BINDING AFFINITY PREDICTED BY RF-SCORE:    0.00 PKD
ROOT
HETATM    1  C   UNL     1      -9.807   9.857  67.323  1.00  0.00    -0.182 C  
HETATM    2  S   UNL     1      -8.970  10.838  68.585  1.00  0.00    -0.166 SA 
HETATM    3  C   UNL     1      -7.351  10.099  68.275  1.00  0.00    -0.081 C  
HETATM    4  C   UNL     1      -7.351   8.582  68.126  1.00  0.00    -0.092 C  
HETATM    5  O   UNL     1      -9.508   5.633  68.080  1.00  0.00    -0.107 OA 
HETATM    6  CA  UNL     1      -8.469   7.835  67.885  1.00  0.00    -0.122 C  
HETATM    7  N   UNL     1      -9.667   8.460  67.676  1.00  0.00    -0.153 N  
HETATM    8  O   UNL     1     -11.551   7.130  67.926  1.00  0.00     0.387 OA 
HETATM    9  C   UNL     1      -8.382   6.324  67.838  1.00  0.00    -0.118 C  
HETATM   10  CA  UNL     1     -11.353   9.665  67.470  1.00  0.00     0.528 C  
HETATM   11  OXT UNL     1      -7.347   5.729  67.584  1.00  0.00    -0.074 OA 
HETATM   12  C   UNL     1     -10.981   8.171  67.700  1.00  0.00     0.136 C  
ENDROOT
BRANCH   4  13
HETATM   13  C   UNL     1      -5.968   8.006  68.424  1.00  0.00    -0.040 C  
BRANCH  13  14
HETATM   14  S   UNL     1      -5.125   8.943  69.749  1.00  0.00    -0.030 SA 
BRANCH  14  15
HETATM   15  C   UNL     1      -6.212   8.628  71.059  1.00  0.00    -0.042 A  
HETATM   16  N   UNL     1      -7.224   9.387  71.413  1.00  0.00    -0.330 NA 
HETATM   17  N   UNL     1      -6.172   7.540  71.889  1.00  0.00    -0.039 NA 
HETATM   18  N   UNL     1      -7.841   8.740  72.452  1.00  0.00    -0.368 NA 
HETATM   19  N   UNL     1      -7.230   7.598  72.729  1.00  0.00    -0.072 NA 
BRANCH  17  20
HETATM   20  C   UNL     1      -5.312   6.378  71.870  1.00  0.00    -0.027 C  
HETATM   21  O   UNL     1      -7.166   4.947  71.136  1.00  0.00    -0.053 OA 
HETATM   22  C   UNL     1      -6.002   5.034  71.812  1.00  0.00    -0.020 C  
HETATM   23  O   UNL     1      -5.481   4.028  72.283  1.00  0.00     0.000 OA 
ENDBRANCH  17  20
ENDBRANCH  14  15
ENDBRANCH  13  14
ENDBRANCH   4  13
BRANCH  10  24
HETATM   24  N   UNL     1     -12.042  10.342  68.592  1.00  0.00    -0.186 N  
HETATM   25  C   UNL     1     -12.079   9.925  69.896  1.00  0.00     0.127 C  
HETATM   26  O   UNL     1     -12.753  10.560  70.708  1.00  0.00    -0.344 OA 
HETATM   27  H   UNL     1     -12.540  11.205  68.372  1.00  0.00     0.000 HD 
BRANCH  25  28
HETATM   28  C   UNL     1     -11.296   8.682  70.288  1.00  0.00    -0.146 C  
BRANCH  28  29
HETATM   29  C   UNL     1     -12.058   7.710  71.164  1.00  0.00    -0.322 A  
HETATM   30  C   UNL     1     -11.538   6.452  71.542  1.00  0.00    -0.364 A  
HETATM   31  C   UNL     1     -12.323   5.623  72.368  1.00  0.00     0.201 A  
HETATM   32  C   UNL     1     -13.327   8.099  71.646  1.00  0.00    -0.358 A  
HETATM   33  C   UNL     1     -13.572   6.027  72.838  1.00  0.00     1.484 A  
HETATM   34  C   UNL     1     -14.078   7.264  72.470  1.00  0.00     0.301 A  
BRANCH  30  35
HETATM   35  C   UNL     1     -10.201   5.938  71.040  1.00  0.00    -0.211 C  
HETATM   36  N   UNL     1     -10.129   4.477  71.009  1.00  0.00    -0.184 NA 
HETATM   37  H1  UNL     1      -9.230   4.131  70.672  1.00  0.00     0.000 HD 
HETATM   38  H2  UNL     1     -10.899   4.085  70.466  1.00  0.00     0.000 HD 
ENDBRANCH  30  35
ENDBRANCH  28  29
ENDBRANCH  25  28
ENDBRANCH  10  24
TORSDOF 8
ENDMDL
MODEL      321
REMARK 921   NORMALIZED FREE ENERGY PREDICTED BY IDOCK:    4.13 KCAL/MOL
REMARK 922        TOTAL FREE ENERGY PREDICTED BY IDOCK:    5.25 KCAL/MOL
REMARK 923 INTER-LIGAND FREE ENERGY PREDICTED BY IDOCK:   -4.52 KCAL/MOL
REMARK 924 INTRA-LIGAND FREE ENERGY PREDICTED BY IDOCK:    9.76 KCAL/MOL
REMARK 927      BINDING AFFINITY PREDICTED BY RF-SCORE:    0.00 PKD
ROOT
HETATM    1  C   UNL     1      -6.996  11.939  67.458  1.00  0.00    -0.123 C  
HETATM    2  S   UNL     1      -6.384  12.052  69.152  1.00  0.00    -0.101 SA 
HETATM    3  C   UNL     1      -5.610  10.420  69.122  1.00  0.00    -0.037 C  
HETATM    4  C   UNL     1      -6.462   9.312  68.514  1.00  0.00    -0.053 C  
HETATM    5  O   UNL     1      -9.671   8.614  66.911  1.00  0.00    -0.176 OA 
HETATM    6  CA  UNL     1      -7.560   9.531  67.731  1.00  0.00    -0.087 C  
HETATM    7  N   UNL     1      -7.898  10.808  67.382  1.00  0.00    -0.109 N  
HETATM    8  O   UNL     1     -10.073  11.104  66.634  1.00  0.00    -0.204 OA 
HETATM    9  C   UNL     1      -8.394   8.364  67.244  1.00  0.00    -0.123 C  
HETATM   10  CA  UNL     1      -8.213  12.843  67.072  1.00  0.00    -0.080 C  
HETATM   11  OXT UNL     1      -7.949   7.233  67.136  1.00  0.00    -0.107 OA 
HETATM   12  C   UNL     1      -8.965  11.488  66.924  1.00  0.00    -0.179 C  
ENDROOT
BRANCH   4  13
HETATM   13  C   UNL     1      -6.009   7.941  69.015  1.00  0.00    -0.038 C  
BRANCH  13  14
HETATM   14  S   UNL     1      -5.236   8.055  70.667  1.00  0.00    -0.022 SA 
BRANCH  14  15
HETATM   15  C   UNL     1      -6.615   7.708  71.654  1.00  0.00    -0.042 A  
HETATM   16  N   UNL     1      -7.464   8.595  72.122  1.00  0.00    -0.283 NA 
HETATM   17  N   UNL     1      -7.014   6.464  72.064  1.00  0.00    -0.072 NA 
HETATM   18  N   UNL     1      -8.422   7.885  72.799  1.00  0.00    -0.142 NA 
HETATM   19  N   UNL     1      -8.178   6.585  72.742  1.00  0.00    -0.109 NA 
BRANCH  17  20
HETATM   20  C   UNL     1      -6.477   5.158  71.755  1.00  0.00    -0.036 C  
HETATM   21  O   UNL     1      -5.789   5.907  69.521  1.00  0.00    -0.018 OA 
HETATM   22  C   UNL     1      -6.190   4.879  70.297  1.00  0.00    -0.022 C  
HETATM   23  O   UNL     1      -6.229   3.740  69.845  1.00  0.00    -0.026 OA 
ENDBRANCH  17  20
ENDBRANCH  14  15
ENDBRANCH  13  14
ENDBRANCH   4  13
BRANCH  10  24
HETATM   24  N   UNL     1      -8.750  13.773  68.091  1.00  0.00    -0.177 N  
HETATM   25  C   UNL     1      -8.405  15.088  68.259  1.00  0.00    -0.145 C  
HETATM   26  O   UNL     1      -8.890  15.718  69.198  1.00  0.00    -0.219 OA 
HETATM   27  H   UNL     1      -9.448  13.397  68.734  1.00  0.00     0.000 HD 
BRANCH  25  28
HETATM   28  C   UNL     1      -7.420  15.714  67.284  1.00  0.00    -0.257 C  
BRANCH  28  29
HETATM   29  C   UNL     1      -7.253  17.211  67.434  1.00  0.00    -0.178 A  
HETATM   30  C   UNL     1      -7.890  17.952  68.456  1.00  0.00    -0.301 A  
HETATM   31  C   UNL     1      -7.663  19.342  68.516  1.00  0.00    -0.380 A  
HETATM   32  C   UNL     1      -6.397  17.882  66.534  1.00  0.00    -0.232 A  
HETATM   33  C   UNL     1      -6.810  19.985  67.620  1.00  0.00    -0.281 A  
HETATM   34  C   UNL     1      -6.182  19.255  66.622  1.00  0.00    -0.184 A  
BRANCH  30  35
HETATM   35  C   UNL     1      -8.854  17.319  69.441  1.00  0.00     0.364 C  
HETATM   36  N   UNL     1     -10.228  17.268  68.939  1.00  0.00    -0.338 NA 
HETATM   37  H1  UNL     1     -10.877  16.843  69.602  1.00  0.00     0.000 HD 
HETATM   38  H2  UNL     1     -10.268  16.796  68.035  1.00  0.00     0.000 HD 
ENDBRANCH  30  35
ENDBRANCH  28  29
ENDBRANCH  25  28
ENDBRANCH  10  24
TORSDOF 8
ENDMDL
MODEL      322
REMARK 921   NORMALIZED FREE ENERGY PREDICTED BY IDOCK:    8.29 KCAL/MOL
REMARK 922        TOTAL FREE ENERGY PREDICTED BY IDOCK:   11.34 KCAL/MOL
REMARK 923 INTER-LIGAND FREE ENERGY PREDICTED BY IDOCK:    0.85 KCAL/MOL
REMARK 924 INTRA-LIGAND FREE ENERGY PREDICTED BY IDOCK:   10.49 KCAL/MOL
REMARK 927      BINDING AFFINITY PREDICTED BY RF-SCORE:    0.00 PKD
ROOT
HETATM    1  C   UNL     1     -10.981  11.264  67.139  1.00  0.00    -0.291 C  
HETATM    2  S   UNL     1     -10.698   9.813  68.175  1.00  0.00    -0.211 SA 
HETATM    3  C   UNL     1     -12.156  10.098  69.202  1.00  0.00     0.372 C  
HETATM    4  C   UNL     1     -12.355  11.539  69.657  1.00  0.00    -0.207 C  
HETATM    5  O   UNL     1     -10.976  14.914  69.416  1.00  0.00    -0.252 OA 
HETATM    6  CA  UNL     1     -11.733  12.615  69.089  1.00  0.00    -0.321 C  
HETATM    7  N   UNL     1     -10.941  12.436  67.990  1.00  0.00    -0.214 N  
HETATM    8  O   UNL     1      -9.462  14.160  67.525  1.00  0.00    -0.201 OA 
HETATM    9  C   UNL     1     -11.928  14.001  69.667  1.00  0.00    -0.339 C  
HETATM   10  CA  UNL     1      -9.747  11.859  66.384  1.00  0.00    -0.221 C  
HETATM   11  OXT UNL     1     -12.905  14.310  70.330  1.00  0.00    -0.315 OA 
HETATM   12  C   UNL     1      -9.968  13.082  67.323  1.00  0.00    -0.232 C  
ENDROOT
BRANCH   4  13
HETATM   13  C   UNL     1     -13.222  11.599  70.914  1.00  0.00     0.292 C  
BRANCH  13  14
HETATM   14  S   UNL     1     -13.037  10.087  71.925  1.00  0.00    -0.449 SA 
BRANCH  14  15
HETATM   15  C   UNL     1     -11.410   9.664  71.514  1.00  0.00    -0.350 A  
HETATM   16  N   UNL     1     -10.488  10.495  71.085  1.00  0.00     1.136 NA 
HETATM   17  N   UNL     1     -10.862   8.411  71.598  1.00  0.00    -0.249 NA 
HETATM   18  N   UNL     1      -9.345   9.754  70.936  1.00  0.00    -0.038 NA 
HETATM   19  N   UNL     1      -9.550   8.492  71.278  1.00  0.00    -0.184 NA 
BRANCH  17  20
HETATM   20  C   UNL     1     -11.424   7.173  72.088  1.00  0.00    -0.269 C  
HETATM   21  O   UNL     1      -9.276   6.527  73.085  1.00  0.00    -0.129 OA 
HETATM   22  C   UNL     1     -10.437   6.118  72.532  1.00  0.00    -0.201 C  
HETATM   23  O   UNL     1     -10.712   4.924  72.479  1.00  0.00    -0.210 OA 
ENDBRANCH  17  20
ENDBRANCH  14  15
ENDBRANCH  13  14
ENDBRANCH   4  13
BRANCH  10  24
HETATM   24  N   UNL     1      -8.443  11.170  66.514  1.00  0.00    -0.161 N  
HETATM   25  C   UNL     1      -7.571  11.266  67.566  1.00  0.00    -0.110 C  
HETATM   26  O   UNL     1      -6.489  10.683  67.500  1.00  0.00    -0.057 OA 
HETATM   27  H   UNL     1      -8.166  10.562  65.743  1.00  0.00     0.000 HD 
BRANCH  25  28
HETATM   28  C   UNL     1      -7.969  12.106  68.770  1.00  0.00     0.007 C  
BRANCH  28  29
HETATM   29  C   UNL     1      -6.970  13.179  69.144  1.00  0.00    -0.028 A  
HETATM   30  C   UNL     1      -6.056  13.730  68.217  1.00  0.00    -0.111 A  
HETATM   31  C   UNL     1      -5.172  14.733  68.663  1.00  0.00    -0.095 A  
HETATM   32  C   UNL     1      -6.982  13.670  70.468  1.00  0.00     0.992 A  
HETATM   33  C   UNL     1      -5.202  15.207  69.974  1.00  0.00    -0.105 A  
HETATM   34  C   UNL     1      -6.104  14.670  70.880  1.00  0.00    -0.071 A  
BRANCH  30  35
HETATM   35  C   UNL     1      -5.949  13.237  66.787  1.00  0.00     1.589 C  
HETATM   36  N   UNL     1      -7.212  13.341  66.054  1.00  0.00     2.086 NA 
HETATM   37  H1  UNL     1      -7.140  13.009  65.091  1.00  0.00     0.000 HD 
HETATM   38  H2  UNL     1      -7.574  14.295  66.086  1.00  0.00     0.000 HD 
ENDBRANCH  30  35
ENDBRANCH  28  29
ENDBRANCH  25  28
ENDBRANCH  10  24
TORSDOF 8
ENDMDL
MODEL      323
REMARK 921   NORMALIZED FREE ENERGY PREDICTED BY IDOCK:   10.63 KCAL/MOL
REMARK 922        TOTAL FREE ENERGY PREDICTED BY IDOCK:   14.78 KCAL/MOL
REMARK 923 INTER-LIGAND FREE ENERGY PREDICTED BY IDOCK:    8.72 KCAL/MOL
REMARK 924 INTRA-LIGAND FREE ENERGY PREDICTED BY IDOCK:    6.06 KCAL/MOL
REMARK 927      BINDING AFFINITY PREDICTED BY RF-SCORE:    0.00 PKD
ROOT
HETATM    1  C   UNL     1     -10.649  14.389  67.312  1.00  0.00    -0.279 C  
HETATM    2  S   UNL     1     -12.080  13.422  67.836  1.00  0.00    -0.146 SA 
HETATM    3  C   UNL     1     -12.006  12.300  66.422  1.00  0.00    -0.209 C  
HETATM    4  C   UNL     1     -11.785  12.975  65.073  1.00  0.00    -0.376 C  
HETATM    5  O   UNL     1     -11.236  16.205  63.457  1.00  0.00    -0.100 OA 
HETATM    6  CA  UNL     1     -11.325  14.252  64.921  1.00  0.00    -0.372 C  
HETATM    7  N   UNL     1     -10.952  14.972  66.021  1.00  0.00    -0.331 N  
HETATM    8  O   UNL     1     -10.820  17.268  65.723  1.00  0.00    -0.216 OA 
HETATM    9  C   UNL     1     -11.219  14.865  63.540  1.00  0.00     1.901 C  
HETATM   10  CA  UNL     1     -10.528  15.848  67.862  1.00  0.00    -0.288 C  
HETATM   11  OXT UNL     1     -11.112  14.196  62.526  1.00  0.00     3.446 OA 
HETATM   12  C   UNL     1     -10.743  16.253  66.374  1.00  0.00    -0.182 C  
ENDROOT
BRANCH   4  13
HETATM   13  C   UNL     1     -12.280  12.086  63.932  1.00  0.00    -0.453 C  
BRANCH  13  14
HETATM   14  S   UNL     1     -12.557  10.369  64.496  1.00  0.00     7.809 SA 
BRANCH  14  15
HETATM   15  C   UNL     1     -11.123  10.141  65.438  1.00  0.00     1.178 A  
HETATM   16  N   UNL     1     -11.087   9.861  66.721  1.00  0.00     0.090 NA 
HETATM   17  N   UNL     1      -9.838  10.205  64.969  1.00  0.00    -0.315 NA 
HETATM   18  N   UNL     1      -9.762   9.713  67.041  1.00  0.00    -0.172 NA 
HETATM   19  N   UNL     1      -8.994   9.886  65.977  1.00  0.00    -0.144 NA 
BRANCH  17  20
HETATM   20  C   UNL     1      -9.338  10.398  63.627  1.00  0.00    -0.291 C  
HETATM   21  O   UNL     1      -7.019  10.154  64.393  1.00  0.00    -0.130 OA 
HETATM   22  C   UNL     1      -7.864  10.706  63.498  1.00  0.00     0.082 C  
HETATM   23  O   UNL     1      -7.429  11.362  62.557  1.00  0.00     0.186 OA 
ENDBRANCH  17  20
ENDBRANCH  14  15
ENDBRANCH  13  14
ENDBRANCH   4  13
BRANCH  10  24
HETATM   24  N   UNL     1     -11.553  16.327  68.818  1.00  0.00    -0.302 N  
HETATM   25  C   UNL     1     -11.968  15.689  69.956  1.00  0.00    -0.368 C  
HETATM   26  O   UNL     1     -12.881  16.181  70.618  1.00  0.00    -0.219 OA 
HETATM   27  H   UNL     1     -11.994  17.223  68.608  1.00  0.00     0.000 HD 
BRANCH  25  28
HETATM   28  C   UNL     1     -11.293  14.385  70.350  1.00  0.00    -0.148 C  
BRANCH  28  29
HETATM   29  C   UNL     1     -12.203  13.389  71.037  1.00  0.00    -0.312 A  
HETATM   30  C   UNL     1     -12.878  13.677  72.244  1.00  0.00    -0.332 A  
HETATM   31  C   UNL     1     -13.711  12.685  72.799  1.00  0.00     0.385 A  
HETATM   32  C   UNL     1     -12.407  12.135  70.421  1.00  0.00    -0.315 A  
HETATM   33  C   UNL     1     -13.903  11.454  72.172  1.00  0.00     0.279 A  
HETATM   34  C   UNL     1     -13.244  11.176  70.985  1.00  0.00    -0.051 A  
BRANCH  30  35
HETATM   35  C   UNL     1     -12.688  14.983  72.993  1.00  0.00    -0.456 C  
HETATM   36  N   UNL     1     -13.925  15.474  73.602  1.00  0.00    -0.128 NA 
HETATM   37  H1  UNL     1     -13.797  16.352  74.106  1.00  0.00     0.000 HD 
HETATM   38  H2  UNL     1     -14.342  14.764  74.205  1.00  0.00     0.000 HD 
ENDBRANCH  30  35
ENDBRANCH  28  29
ENDBRANCH  25  28
ENDBRANCH  10  24
TORSDOF 8
ENDMDL
MODEL      324
REMARK 921   NORMALIZED FREE ENERGY PREDICTED BY IDOCK:   12.36 KCAL/MOL
REMARK 922        TOTAL FREE ENERGY PREDICTED BY IDOCK:   17.32 KCAL/MOL
REMARK 923 INTER-LIGAND FREE ENERGY PREDICTED BY IDOCK:   16.25 KCAL/MOL
REMARK 924 INTRA-LIGAND FREE ENERGY PREDICTED BY IDOCK:    1.07 KCAL/MOL
REMARK 927      BINDING AFFINITY PREDICTED BY RF-SCORE:    0.00 PKD
ROOT
HETATM    1  C   UNL     1     -10.303  10.428  70.315  1.00  0.00     0.031 C  
HETATM    2  S   UNL     1     -10.062  10.307  72.099  1.00  0.00     6.095 SA 
HETATM    3  C   UNL     1      -8.848   8.975  71.979  1.00  0.00     0.177 C  
HETATM    4  C   UNL     1      -9.213   7.854  71.013  1.00  0.00    -0.164 C  
HETATM    5  O   UNL     1     -11.736   6.746  68.613  1.00  0.00     0.166 OA 
HETATM    6  CA  UNL     1     -10.170   7.958  70.043  1.00  0.00    -0.208 C  
HETATM    7  N   UNL     1     -10.803   9.153  69.844  1.00  0.00    -0.232 N  
HETATM    8  O   UNL     1     -12.799   9.049  68.669  1.00  0.00     4.610 OA 
HETATM    9  C   UNL     1     -10.522   6.760  69.187  1.00  0.00    -0.216 C  
HETATM   10  CA  UNL     1     -11.644  11.058  69.812  1.00  0.00    -0.325 C  
HETATM   11  OXT UNL     1      -9.751   5.832  68.999  1.00  0.00    -0.129 OA 
HETATM   12  C   UNL     1     -11.924   9.626  69.269  1.00  0.00     0.686 C  
ENDROOT
BRANCH   4  13
HETATM   13  C   UNL     1      -8.471   6.566  71.369  1.00  0.00    -0.125 C  
BRANCH  13  14
HETATM   14  S   UNL     1      -8.900   5.992  73.051  1.00  0.00    -0.120 SA 
BRANCH  14  15
HETATM   15  C   UNL     1     -10.487   5.372  72.747  1.00  0.00    -0.213 A  
HETATM   16  N   UNL     1     -11.605   6.056  72.833  1.00  0.00    -0.150 NA 
HETATM   17  N   UNL     1     -10.787   4.093  72.361  1.00  0.00     0.020 NA 
HETATM   18  N   UNL     1     -12.607   5.198  72.459  1.00  0.00     0.601 NA 
HETATM   19  N   UNL     1     -12.118   4.011  72.136  1.00  0.00     2.331 NA 
BRANCH  17  20
HETATM   20  C   UNL     1      -9.919   2.981  72.046  1.00  0.00    -0.154 C  
HETATM   21  O   UNL     1      -9.576   3.820  69.765  1.00  0.00    -0.191 OA 
HETATM   22  C   UNL     1      -9.634   2.747  70.579  1.00  0.00    -0.088 C  
HETATM   23  O   UNL     1      -9.371   1.628  70.151  1.00  0.00    -0.094 OA 
ENDBRANCH  17  20
ENDBRANCH  14  15
ENDBRANCH  13  14
ENDBRANCH   4  13
BRANCH  10  24
HETATM   24  N   UNL     1     -12.603  11.567  70.819  1.00  0.00    -0.325 N  
HETATM   25  C   UNL     1     -12.832  12.879  71.137  1.00  0.00    -0.238 C  
HETATM   26  O   UNL     1     -13.616  13.145  72.048  1.00  0.00    -0.475 OA 
HETATM   27  H   UNL     1     -13.149  10.870  71.327  1.00  0.00     0.000 HD 
BRANCH  25  28
HETATM   28  C   UNL     1     -12.094  13.958  70.361  1.00  0.00    -0.421 C  
BRANCH  28  29
HETATM   29  C   UNL     1     -11.918  15.262  71.110  1.00  0.00    -0.400 A  
HETATM   30  C   UNL     1     -10.774  16.077  70.967  1.00  0.00     0.242 A  
HETATM   31  C   UNL     1     -10.710  17.278  71.702  1.00  0.00     2.364 A  
HETATM   32  C   UNL     1     -12.962  15.690  71.959  1.00  0.00    -0.530 A  
HETATM   33  C   UNL     1     -11.753  17.686  72.532  1.00  0.00     2.072 A  
HETATM   34  C   UNL     1     -12.878  16.887  72.667  1.00  0.00     1.613 A  
BRANCH  30  35
HETATM   35  C   UNL     1      -9.590  15.677  70.106  1.00  0.00     0.242 C  
HETATM   36  N   UNL     1      -9.968  15.374  68.725  1.00  0.00    -0.201 NA 
HETATM   37  H1  UNL     1      -9.172  15.105  68.146  1.00  0.00     0.000 HD 
HETATM   38  H2  UNL     1     -10.477  16.154  68.307  1.00  0.00     0.000 HD 
ENDBRANCH  30  35
ENDBRANCH  28  29
ENDBRANCH  25  28
ENDBRANCH  10  24
TORSDOF 8
ENDMDL
MODEL      325
REMARK 921   NORMALIZED FREE ENERGY PREDICTED BY IDOCK:   37.62 KCAL/MOL
REMARK 922        TOTAL FREE ENERGY PREDICTED BY IDOCK:   54.39 KCAL/MOL
REMARK 923 INTER-LIGAND FREE ENERGY PREDICTED BY IDOCK:   25.60 KCAL/MOL
REMARK 924 INTRA-LIGAND FREE ENERGY PREDICTED BY IDOCK:   28.79 KCAL/MOL
REMARK 927      BINDING AFFINITY PREDICTED BY RF-SCORE:    0.00 PKD
ROOT
HETATM    1  C   UNL     1     -10.461   8.807  67.127  1.00  0.00    -0.283 C  
HETATM    2  S   UNL     1      -9.779   9.612  68.591  1.00  0.00    -0.159 SA 
HETATM    3  C   UNL     1      -8.360   8.499  68.705  1.00  0.00    -0.123 C  
HETATM    4  C   UNL     1      -8.682   7.020  68.522  1.00  0.00    -0.122 C  
HETATM    5  O   UNL     1     -11.388   4.665  67.827  1.00  0.00     2.106 OA 
HETATM    6  CA  UNL     1      -9.841   6.550  67.973  1.00  0.00    -0.123 C  
HETATM    7  N   UNL     1     -10.757   7.431  67.469  1.00  0.00    -0.255 N  
HETATM    8  O   UNL     1     -12.900   6.595  67.174  1.00  0.00     6.054 OA 
HETATM    9  C   UNL     1     -10.108   5.061  67.912  1.00  0.00    -0.113 C  
HETATM   10  CA  UNL     1     -11.989   8.992  66.852  1.00  0.00     5.449 C  
HETATM   11  OXT UNL     1      -9.215   4.228  67.928  1.00  0.00    -0.124 OA 
HETATM   12  C   UNL     1     -12.060   7.463  67.134  1.00  0.00     4.181 C  
ENDROOT
BRANCH   4  13
HETATM   13  C   UNL     1      -7.606   6.145  69.163  1.00  0.00    -0.095 C  
BRANCH  13  14
HETATM   14  S   UNL     1      -6.773   7.013  70.540  1.00  0.00    -0.054 SA 
BRANCH  14  15
HETATM   15  C   UNL     1      -8.143   7.783  71.265  1.00  0.00    -0.095 A  
HETATM   16  N   UNL     1      -8.756   8.849  70.803  1.00  0.00    -0.186 NA 
HETATM   17  N   UNL     1      -8.780   7.375  72.406  1.00  0.00    -0.118 NA 
HETATM   18  N   UNL     1      -9.809   9.080  71.649  1.00  0.00    -0.314 NA 
HETATM   19  N   UNL     1      -9.855   8.170  72.609  1.00  0.00    -0.277 NA 
BRANCH  17  20
HETATM   20  C   UNL     1      -8.555   6.218  73.243  1.00  0.00    -0.122 C  
HETATM   21  O   UNL     1     -10.677   5.214  72.527  1.00  0.00    -0.215 OA 
HETATM   22  C   UNL     1      -9.753   5.333  73.503  1.00  0.00    -0.150 C  
HETATM   23  O   UNL     1      -9.846   4.669  74.529  1.00  0.00    -0.147 OA 
ENDBRANCH  17  20
ENDBRANCH  14  15
ENDBRANCH  13  14
ENDBRANCH   4  13
BRANCH  10  24
HETATM   24  N   UNL     1     -12.770   9.856  67.767  1.00  0.00     5.307 N  
HETATM   25  C   UNL     1     -12.761   9.811  69.136  1.00  0.00     2.305 C  
HETATM   26  O   UNL     1     -13.518  10.552  69.763  1.00  0.00     0.203 OA 
HETATM   27  H   UNL     1     -13.374  10.555  67.335  1.00  0.00     0.000 HD 
BRANCH  25  28
HETATM   28  C   UNL     1     -11.826   8.833  69.829  1.00  0.00     0.616 C  
BRANCH  28  29
HETATM   29  C   UNL     1     -12.407   8.174  71.061  1.00  0.00    -0.152 A  
HETATM   30  C   UNL     1     -11.930   6.944  71.567  1.00  0.00    -0.386 A  
HETATM   31  C   UNL     1     -12.533   6.417  72.727  1.00  0.00     0.531 A  
HETATM   32  C   UNL     1     -13.446   8.839  71.747  1.00  0.00    -0.436 A  
HETATM   33  C   UNL     1     -13.555   7.092  73.393  1.00  0.00     3.289 A  
HETATM   34  C   UNL     1     -14.018   8.302  72.898  1.00  0.00     0.237 A  
BRANCH  30  35
HETATM   35  C   UNL     1     -10.843   6.143  70.873  1.00  0.00    -0.281 C  
HETATM   36  N   UNL     1     -11.004   6.109  69.419  1.00  0.00    -0.352 NA 
HETATM   37  H1  UNL     1     -10.273   5.571  68.952  1.00  0.00     0.000 HD 
HETATM   38  H2  UNL     1     -11.064   7.053  69.037  1.00  0.00     0.000 HD 
ENDBRANCH  30  35
ENDBRANCH  28  29
ENDBRANCH  25  28
ENDBRANCH  10  24
TORSDOF 8
ENDMDL
