MODEL        1
REMARK 921   NORMALIZED FREE ENERGY PREDICTED BY IDOCK:   -6.82 KCAL/MOL
REMARK 922        TOTAL FREE ENERGY PREDICTED BY IDOCK:  -11.07 KCAL/MOL
REMARK 923 INTER-LIGAND FREE ENERGY PREDICTED BY IDOCK:   -9.62 KCAL/MOL
REMARK 924 INTRA-LIGAND FREE ENERGY PREDICTED BY IDOCK:   -1.45 KCAL/MOL
REMARK 927      BINDING AFFINITY PREDICTED BY RF-SCORE:    0.00 PKD
ROOT
HETATM    1  C   UNL     1      -8.990  11.185  66.842  1.00  0.00    -0.161 C  
HETATM    2  S   UNL     1      -7.466  11.663  67.700  1.00  0.00    -0.126 SA 
HETATM    3  C   UNL     1      -7.502  10.221  68.794  1.00  0.00    -0.089 C  
HETATM    4  C   UNL     1      -8.842   9.986  69.481  1.00  0.00    -0.209 C  
HETATM    5  C   UNL     1      -9.790  12.355  66.103  1.00  0.00    -0.252 C  
HETATM    6  C   UNL     1     -10.043  10.413  68.984  1.00  0.00    -0.213 C  
HETATM    7  N   UNL     1     -10.070  11.130  67.814  1.00  0.00    -0.176 N  
HETATM    8  C   UNL     1     -11.326  10.119  69.754  1.00  0.00    -0.256 C  
HETATM    9  O   UNL     1     -11.350   9.492  70.804  1.00  0.00    -0.273 OA 
HETATM   10  O   UNL     1     -12.491  10.511  69.216  1.00  0.00    -0.232 OA 
HETATM   11  O   UNL     1     -12.142  11.998  67.257  1.00  0.00    -0.572 OA 
HETATM   12  C   UNL     1     -10.950  11.859  67.094  1.00  0.00    -0.269 C  
ENDROOT
BRANCH   4  13
HETATM   13  C   UNL     1      -8.642   9.290  70.831  1.00  0.00    -0.162 C  
BRANCH  13  14
HETATM   14  S   UNL     1      -7.891   7.651  70.614  1.00  0.00    -0.099 SA 
BRANCH  14  15
HETATM   15  C   UNL     1      -9.206   6.813  69.868  1.00  0.00    -0.147 A  
HETATM   16  N   UNL     1      -9.378   6.638  68.578  1.00  0.00    -0.126 NA 
HETATM   17  C   UNL     1     -10.542   6.165  71.933  1.00  0.00    -0.220 C  
HETATM   18  N   UNL     1     -10.579   5.979  68.445  1.00  0.00    -0.235 NA 
HETATM   19  N   UNL     1     -10.268   6.262  70.527  1.00  0.00    -0.188 NA 
HETATM   20  N   UNL     1     -11.127   5.743  69.630  1.00  0.00    -0.338 NA 
ENDBRANCH  14  15
ENDBRANCH  13  14
ENDBRANCH   4  13
BRANCH   5  21
HETATM   21  N   UNL     1      -9.206  13.711  66.318  1.00  0.00    -0.478 N  
HETATM   22  O   UNL     1     -11.040  14.913  65.731  1.00  0.00    -0.331 OA 
HETATM   23  H   UNL     1      -8.243  13.758  66.649  1.00  0.00     0.000 HD 
HETATM   24  C   UNL     1      -9.863  14.907  66.107  1.00  0.00    -0.308 C  
BRANCH  24  25
HETATM   25  C   UNL     1      -9.040  16.215  66.397  1.00  0.00    -0.304 C  
HETATM   26  S   UNL     1     -10.044  17.753  66.486  1.00  0.00    -0.370 SA 
HETATM   27  C   UNL     1      -8.682  18.037  67.561  1.00  0.00    -0.248 C  
HETATM   28  C   UNL     1      -7.976  19.155  67.854  1.00  0.00    -0.318 C  
HETATM   29  S   UNL     1      -8.636  16.395  68.175  1.00  0.00    -0.199 SA 
HETATM   30  O   UNL     1      -6.179  20.235  69.024  1.00  0.00    -0.308 OA 
HETATM   31  C   UNL     1      -6.851  19.074  68.831  1.00  0.00    -0.314 C  
HETATM   32  O   UNL     1      -6.524  18.073  69.447  1.00  0.00    -0.254 OA 
BRANCH  28  33
HETATM   33  C   UNL     1      -8.277  20.446  67.172  1.00  0.00    -0.320 C  
HETATM   34  O   UNL     1      -9.412  20.919  67.230  1.00  0.00    -0.405 OA 
HETATM   35  N   UNL     1      -7.331  21.083  66.443  1.00  0.00    -0.515 N  
HETATM   36  H1  UNL     1      -7.537  21.966  65.977  1.00  0.00     0.000 HD 
HETATM   37  H2  UNL     1      -6.400  20.673  66.358  1.00  0.00     0.000 HD 
ENDBRANCH  28  33
ENDBRANCH  24  25
ENDBRANCH   5  21
BRANCH   5  38
HETATM   38  O   UNL     1     -10.069  12.106  64.697  1.00  0.00    -0.275 OA 
HETATM   39  C   UNL     1      -9.799  10.782  64.240  1.00  0.00    -0.326 C  
ENDBRANCH   5  38
TORSDOF 7
ENDMDL
MODEL        2
REMARK 921   NORMALIZED FREE ENERGY PREDICTED BY IDOCK:   -6.71 KCAL/MOL
REMARK 922        TOTAL FREE ENERGY PREDICTED BY IDOCK:  -10.91 KCAL/MOL
REMARK 923 INTER-LIGAND FREE ENERGY PREDICTED BY IDOCK:   -9.38 KCAL/MOL
REMARK 924 INTRA-LIGAND FREE ENERGY PREDICTED BY IDOCK:   -1.53 KCAL/MOL
REMARK 927      BINDING AFFINITY PREDICTED BY RF-SCORE:    0.00 PKD
ROOT
HETATM    1  C   UNL     1      -8.984  11.308  66.790  1.00  0.00    -0.171 C  
HETATM    2  S   UNL     1      -7.429  11.738  67.619  1.00  0.00    -0.134 SA 
HETATM    3  C   UNL     1      -7.467  10.276  68.685  1.00  0.00    -0.086 C  
HETATM    4  C   UNL     1      -8.794  10.054  69.402  1.00  0.00    -0.200 C  
HETATM    5  C   UNL     1      -9.778  12.508  66.095  1.00  0.00    -0.254 C  
HETATM    6  C   UNL     1      -9.998  10.515  68.944  1.00  0.00    -0.204 C  
HETATM    7  N   UNL     1     -10.040  11.255  67.789  1.00  0.00    -0.177 N  
HETATM    8  C   UNL     1     -11.267  10.231  69.740  1.00  0.00    -0.282 C  
HETATM    9  O   UNL     1     -11.278   9.585  70.778  1.00  0.00    -0.265 OA 
HETATM   10  O   UNL     1     -12.437  10.656  69.239  1.00  0.00    -0.304 OA 
HETATM   11  O   UNL     1     -12.107  12.174  67.301  1.00  0.00    -0.565 OA 
HETATM   12  C   UNL     1     -10.922  12.015  67.105  1.00  0.00    -0.270 C  
ENDROOT
BRANCH   4  13
HETATM   13  C   UNL     1      -8.575   9.328  70.733  1.00  0.00    -0.203 C  
BRANCH  13  14
HETATM   14  S   UNL     1      -7.979   7.635  70.461  1.00  0.00    -0.101 SA 
BRANCH  14  15
HETATM   15  C   UNL     1      -9.487   6.798  70.349  1.00  0.00    -0.166 A  
HETATM   16  N   UNL     1     -10.126   6.222  71.340  1.00  0.00    -0.189 NA 
HETATM   17  C   UNL     1      -9.932   7.028  67.855  1.00  0.00    -0.154 C  
HETATM   18  N   UNL     1     -11.236   5.632  70.780  1.00  0.00    -0.135 NA 
HETATM   19  N   UNL     1     -10.189   6.586  69.196  1.00  0.00    -0.170 NA 
HETATM   20  N   UNL     1     -11.284   5.852  69.473  1.00  0.00    -0.346 NA 
ENDBRANCH  14  15
ENDBRANCH  13  14
ENDBRANCH   4  13
BRANCH   5  21
HETATM   21  N   UNL     1      -9.161  13.847  66.321  1.00  0.00    -0.489 N  
HETATM   22  O   UNL     1     -10.974  15.097  65.772  1.00  0.00    -0.336 OA 
HETATM   23  H   UNL     1      -8.193  13.869  66.641  1.00  0.00     0.000 HD 
HETATM   24  C   UNL     1      -9.794  15.061  66.134  1.00  0.00    -0.301 C  
BRANCH  24  25
HETATM   25  C   UNL     1      -8.938  16.346  66.431  1.00  0.00    -0.305 C  
HETATM   26  S   UNL     1      -9.895  17.915  66.467  1.00  0.00    -0.350 SA 
HETATM   27  C   UNL     1      -8.558  18.172  67.580  1.00  0.00    -0.251 C  
HETATM   28  C   UNL     1      -7.826  19.272  67.880  1.00  0.00    -0.324 C  
HETATM   29  S   UNL     1      -8.583  16.538  68.218  1.00  0.00    -0.208 SA 
HETATM   30  O   UNL     1      -6.031  20.312  69.090  1.00  0.00    -0.284 OA 
HETATM   31  C   UNL     1      -6.734  19.169  68.893  1.00  0.00    -0.301 C  
HETATM   32  O   UNL     1      -6.458  18.167  69.532  1.00  0.00    -0.250 OA 
BRANCH  28  33
HETATM   33  C   UNL     1      -8.064  20.561  67.172  1.00  0.00    -0.302 C  
HETATM   34  O   UNL     1      -9.078  21.216  67.416  1.00  0.00    -0.158 OA 
HETATM   35  N   UNL     1      -7.205  21.000  66.221  1.00  0.00    -0.515 N  
HETATM   36  H1  UNL     1      -7.369  21.883  65.737  1.00  0.00     0.000 HD 
HETATM   37  H2  UNL     1      -6.385  20.441  65.987  1.00  0.00     0.000 HD 
ENDBRANCH  28  33
ENDBRANCH  24  25
ENDBRANCH   5  21
BRANCH   5  38
HETATM   38  O   UNL     1     -10.097  12.292  64.692  1.00  0.00    -0.282 OA 
HETATM   39  C   UNL     1     -10.126  10.930  64.268  1.00  0.00    -0.351 C  
ENDBRANCH   5  38
TORSDOF 7
ENDMDL
MODEL        3
REMARK 921   NORMALIZED FREE ENERGY PREDICTED BY IDOCK:   -6.65 KCAL/MOL
REMARK 922        TOTAL FREE ENERGY PREDICTED BY IDOCK:  -10.82 KCAL/MOL
REMARK 923 INTER-LIGAND FREE ENERGY PREDICTED BY IDOCK:   -9.29 KCAL/MOL
REMARK 924 INTRA-LIGAND FREE ENERGY PREDICTED BY IDOCK:   -1.53 KCAL/MOL
REMARK 927      BINDING AFFINITY PREDICTED BY RF-SCORE:    0.00 PKD
ROOT
HETATM    1  C   UNL     1      -9.477  10.960  66.776  1.00  0.00    -0.177 C  
HETATM    2  S   UNL     1      -7.882  11.782  67.033  1.00  0.00    -0.144 SA 
HETATM    3  C   UNL     1      -7.246  10.457  68.088  1.00  0.00    -0.087 C  
HETATM    4  C   UNL     1      -8.190  10.036  69.209  1.00  0.00    -0.147 C  
HETATM    5  C   UNL     1     -10.702  11.895  66.351  1.00  0.00    -0.266 C  
HETATM    6  C   UNL     1      -9.549  10.190  69.163  1.00  0.00    -0.212 C  
HETATM    7  N   UNL     1     -10.122  10.788  68.068  1.00  0.00    -0.171 N  
HETATM    8  C   UNL     1     -10.401   9.729  70.340  1.00  0.00    -0.293 C  
HETATM    9  O   UNL     1      -9.935   9.200  71.339  1.00  0.00    -0.302 OA 
HETATM   10  O   UNL     1     -11.733   9.852  70.244  1.00  0.00    -0.253 OA 
HETATM   11  O   UNL     1     -12.389  11.207  68.268  1.00  0.00    -0.532 OA 
HETATM   12  C   UNL     1     -11.324  11.278  67.695  1.00  0.00    -0.282 C  
ENDROOT
BRANCH   4  13
HETATM   13  C   UNL     1      -7.401   9.506  70.410  1.00  0.00    -0.141 C  
BRANCH  13  14
HETATM   14  S   UNL     1      -6.594   7.929  70.014  1.00  0.00    -0.037 SA 
BRANCH  14  15
HETATM   15  C   UNL     1      -7.952   6.865  70.098  1.00  0.00    -0.115 A  
HETATM   16  N   UNL     1      -8.689   6.471  69.084  1.00  0.00    -0.129 NA 
HETATM   17  C   UNL     1      -8.017   6.431  72.603  1.00  0.00    -0.104 C  
HETATM   18  N   UNL     1      -9.685   5.690  69.625  1.00  0.00    -0.159 NA 
HETATM   19  N   UNL     1      -8.467   6.329  71.244  1.00  0.00    -0.124 NA 
HETATM   20  N   UNL     1      -9.555   5.595  70.942  1.00  0.00    -0.165 NA 
ENDBRANCH  14  15
ENDBRANCH  13  14
ENDBRANCH   4  13
BRANCH   5  21
HETATM   21  N   UNL     1     -10.368  13.349  66.328  1.00  0.00    -0.285 N  
HETATM   22  O   UNL     1     -12.496  14.135  66.379  1.00  0.00    -0.461 OA 
HETATM   23  H   UNL     1      -9.381  13.602  66.308  1.00  0.00     0.000 HD 
HETATM   24  C   UNL     1     -11.287  14.380  66.330  1.00  0.00    -0.350 C  
BRANCH  24  25
HETATM   25  C   UNL     1     -10.698  15.838  66.296  1.00  0.00    -0.282 C  
HETATM   26  S   UNL     1     -10.644  16.685  67.926  1.00  0.00    -0.340 SA 
HETATM   27  C   UNL     1      -9.295  17.357  67.020  1.00  0.00    -0.260 C  
HETATM   28  C   UNL     1      -8.748  18.595  66.994  1.00  0.00    -0.285 C  
HETATM   29  S   UNL     1      -8.867  15.840  66.250  1.00  0.00    -0.311 SA 
HETATM   30  O   UNL     1      -7.133  20.139  66.114  1.00  0.00    -0.256 OA 
HETATM   31  C   UNL     1      -7.581  18.860  66.102  1.00  0.00    -0.261 C  
HETATM   32  O   UNL     1      -7.025  18.027  65.404  1.00  0.00    -0.481 OA 
BRANCH  28  33
HETATM   33  C   UNL     1      -9.330  19.702  67.803  1.00  0.00    -0.337 C  
HETATM   34  O   UNL     1      -9.340  19.624  69.032  1.00  0.00    -0.352 OA 
HETATM   35  N   UNL     1      -9.900  20.775  67.204  1.00  0.00    -0.591 N  
HETATM   36  H1  UNL     1     -10.299  21.532  67.758  1.00  0.00     0.000 HD 
HETATM   37  H2  UNL     1      -9.931  20.825  66.186  1.00  0.00     0.000 HD 
ENDBRANCH  28  33
ENDBRANCH  24  25
ENDBRANCH   5  21
BRANCH   5  38
HETATM   38  O   UNL     1     -11.391  11.480  65.139  1.00  0.00    -0.208 OA 
HETATM   39  C   UNL     1     -10.617  11.533  63.941  1.00  0.00    -0.391 C  
ENDBRANCH   5  38
TORSDOF 7
ENDMDL
MODEL        4
REMARK 921   NORMALIZED FREE ENERGY PREDICTED BY IDOCK:   -6.57 KCAL/MOL
REMARK 922        TOTAL FREE ENERGY PREDICTED BY IDOCK:  -10.71 KCAL/MOL
REMARK 923 INTER-LIGAND FREE ENERGY PREDICTED BY IDOCK:   -9.14 KCAL/MOL
REMARK 924 INTRA-LIGAND FREE ENERGY PREDICTED BY IDOCK:   -1.57 KCAL/MOL
REMARK 927      BINDING AFFINITY PREDICTED BY RF-SCORE:    0.00 PKD
ROOT
HETATM    1  C   UNL     1     -10.322  11.843  67.671  1.00  0.00    -0.200 C  
HETATM    2  S   UNL     1      -8.557  12.230  67.532  1.00  0.00    -0.185 SA 
HETATM    3  C   UNL     1      -8.044  10.544  67.948  1.00  0.00    -0.107 C  
HETATM    4  C   UNL     1      -8.707   9.974  69.196  1.00  0.00    -0.168 C  
HETATM    5  C   UNL     1     -11.304  13.074  67.942  1.00  0.00    -0.288 C  
HETATM    6  C   UNL     1      -9.922  10.384  69.673  1.00  0.00    -0.174 C  
HETATM    7  N   UNL     1     -10.592  11.393  69.027  1.00  0.00    -0.208 N  
HETATM    8  C   UNL     1     -10.495   9.741  70.930  1.00  0.00    -0.228 C  
HETATM    9  O   UNL     1      -9.931   8.846  71.543  1.00  0.00    -0.267 OA 
HETATM   10  O   UNL     1     -11.710  10.133  71.344  1.00  0.00    -0.360 OA 
HETATM   11  O   UNL     1     -12.495  12.140  70.111  1.00  0.00    -0.160 OA 
HETATM   12  C   UNL     1     -11.663  12.190  69.232  1.00  0.00    -0.328 C  
ENDROOT
BRANCH   4  13
HETATM   13  C   UNL     1      -7.789   8.954  69.878  1.00  0.00    -0.092 C  
BRANCH  13  14
HETATM   14  S   UNL     1      -7.552   7.490  68.831  1.00  0.00    -0.107 SA 
BRANCH  14  15
HETATM   15  C   UNL     1      -9.059   6.684  69.093  1.00  0.00    -0.137 A  
HETATM   16  N   UNL     1      -9.316   5.819  70.047  1.00  0.00    -0.145 NA 
HETATM   17  C   UNL     1     -10.411   7.640  67.162  1.00  0.00    -0.315 C  
HETATM   18  N   UNL     1     -10.607   5.395  69.831  1.00  0.00    -0.312 NA 
HETATM   19  N   UNL     1     -10.169   6.809  68.308  1.00  0.00    -0.164 NA 
HETATM   20  N   UNL     1     -11.136   5.995  68.774  1.00  0.00    -0.322 NA 
ENDBRANCH  14  15
ENDBRANCH  13  14
ENDBRANCH   4  13
BRANCH   5  21
HETATM   21  N   UNL     1     -10.597  14.372  68.147  1.00  0.00    -0.233 N  
HETATM   22  O   UNL     1     -12.160  15.346  69.474  1.00  0.00    -0.333 OA 
HETATM   23  H   UNL     1      -9.687  14.484  67.702  1.00  0.00     0.000 HD 
HETATM   24  C   UNL     1     -11.075  15.433  68.891  1.00  0.00    -0.275 C  
BRANCH  24  25
HETATM   25  C   UNL     1     -10.154  16.706  68.959  1.00  0.00    -0.293 C  
HETATM   26  S   UNL     1      -8.350  16.355  68.904  1.00  0.00    -0.220 SA 
HETATM   27  C   UNL     1      -8.527  17.941  68.166  1.00  0.00    -0.267 C  
HETATM   28  C   UNL     1      -7.738  19.041  68.181  1.00  0.00    -0.326 C  
HETATM   29  S   UNL     1     -10.024  17.551  67.339  1.00  0.00    -0.328 SA 
HETATM   30  O   UNL     1      -7.335  21.323  67.551  1.00  0.00    -0.452 OA 
HETATM   31  C   UNL     1      -8.171  20.262  67.438  1.00  0.00    -0.338 C  
HETATM   32  O   UNL     1      -9.180  20.351  66.757  1.00  0.00    -0.330 OA 
BRANCH  28  33
HETATM   33  C   UNL     1      -6.476  19.062  68.972  1.00  0.00    -0.277 C  
HETATM   34  O   UNL     1      -5.524  18.361  68.626  1.00  0.00    -0.177 OA 
HETATM   35  N   UNL     1      -6.376  19.802  70.101  1.00  0.00    -0.311 N  
HETATM   36  H1  UNL     1      -5.512  19.816  70.643  1.00  0.00     0.000 HD 
HETATM   37  H2  UNL     1      -7.176  20.353  70.415  1.00  0.00     0.000 HD 
ENDBRANCH  28  33
ENDBRANCH  24  25
ENDBRANCH   5  21
BRANCH   5  38
HETATM   38  O   UNL     1     -12.398  13.200  66.992  1.00  0.00    -0.282 OA 
HETATM   39  C   UNL     1     -12.065  13.813  65.747  1.00  0.00    -0.429 C  
ENDBRANCH   5  38
TORSDOF 7
ENDMDL
MODEL        5
REMARK 921   NORMALIZED FREE ENERGY PREDICTED BY IDOCK:   -6.54 KCAL/MOL
REMARK 922        TOTAL FREE ENERGY PREDICTED BY IDOCK:  -10.68 KCAL/MOL
REMARK 923 INTER-LIGAND FREE ENERGY PREDICTED BY IDOCK:   -9.20 KCAL/MOL
REMARK 924 INTRA-LIGAND FREE ENERGY PREDICTED BY IDOCK:   -1.47 KCAL/MOL
REMARK 927      BINDING AFFINITY PREDICTED BY RF-SCORE:    0.00 PKD
ROOT
HETATM    1  C   UNL     1     -10.267   8.467  69.103  1.00  0.00    -0.211 C  
HETATM    2  S   UNL     1     -10.656   8.698  67.347  1.00  0.00    -0.154 SA 
HETATM    3  C   UNL     1      -9.853   7.153  66.854  1.00  0.00    -0.208 C  
HETATM    4  C   UNL     1      -8.445   6.971  67.409  1.00  0.00    -0.122 C  
HETATM    5  C   UNL     1     -10.250   9.783  70.010  1.00  0.00    -0.263 C  
HETATM    6  C   UNL     1      -7.991   7.563  68.556  1.00  0.00    -0.123 C  
HETATM    7  N   UNL     1      -8.822   8.406  69.252  1.00  0.00    -0.141 N  
HETATM    8  C   UNL     1      -6.563   7.308  69.024  1.00  0.00    -0.037 C  
HETATM    9  O   UNL     1      -5.785   6.573  68.432  1.00  0.00    -0.014 OA 
HETATM   10  O   UNL     1      -6.165   7.866  70.176  1.00  0.00    -0.032 OA 
HETATM   11  O   UNL     1      -7.816   9.523  71.011  1.00  0.00    -0.316 OA 
HETATM   12  C   UNL     1      -8.745   9.291  70.269  1.00  0.00    -0.219 C  
ENDROOT
BRANCH   4  13
HETATM   13  C   UNL     1      -7.598   6.112  66.464  1.00  0.00    -0.094 C  
BRANCH  13  14
HETATM   14  S   UNL     1      -7.689   6.737  64.761  1.00  0.00    -0.116 SA 
BRANCH  14  15
HETATM   15  C   UNL     1      -6.950   8.286  64.968  1.00  0.00    -0.074 A  
HETATM   16  N   UNL     1      -5.704   8.507  65.319  1.00  0.00    -0.043 NA 
HETATM   17  C   UNL     1      -8.933   9.791  64.446  1.00  0.00    -0.245 C  
HETATM   18  N   UNL     1      -5.579   9.873  65.420  1.00  0.00    -0.057 NA 
HETATM   19  N   UNL     1      -7.585   9.488  64.836  1.00  0.00    -0.107 NA 
HETATM   20  N   UNL     1      -6.721  10.480  65.124  1.00  0.00    -0.074 NA 
ENDBRANCH  14  15
ENDBRANCH  13  14
ENDBRANCH   4  13
BRANCH   5  21
HETATM   21  N   UNL     1     -10.460  11.044  69.242  1.00  0.00    -0.332 N  
HETATM   22  O   UNL     1     -12.729  10.998  69.226  1.00  0.00    -0.280 OA 
HETATM   23  H   UNL     1      -9.630  11.562  68.956  1.00  0.00     0.000 HD 
HETATM   24  C   UNL     1     -11.688  11.568  68.886  1.00  0.00    -0.339 C  
BRANCH  24  25
HETATM   25  C   UNL     1     -11.661  12.911  68.069  1.00  0.00    -0.356 C  
HETATM   26  S   UNL     1      -9.999  13.678  67.901  1.00  0.00    -0.251 SA 
HETATM   27  C   UNL     1     -10.868  14.155  66.449  1.00  0.00    -0.304 C  
HETATM   28  C   UNL     1     -10.842  15.288  65.708  1.00  0.00    -0.363 C  
HETATM   29  S   UNL     1     -11.692  12.618  66.260  1.00  0.00    -0.400 SA 
HETATM   30  O   UNL     1     -11.649  16.582  63.852  1.00  0.00    -1.175 OA 
HETATM   31  C   UNL     1     -11.714  15.393  64.501  1.00  0.00    -0.277 C  
HETATM   32  O   UNL     1     -12.439  14.508  64.077  1.00  0.00    -0.778 OA 
BRANCH  28  33
HETATM   33  C   UNL     1      -9.995  16.445  66.115  1.00  0.00    -0.339 C  
HETATM   34  O   UNL     1      -8.781  16.416  65.913  1.00  0.00    -0.425 OA 
HETATM   35  N   UNL     1     -10.535  17.509  66.754  1.00  0.00    -0.303 N  
HETATM   36  H1  UNL     1      -9.955  18.301  67.032  1.00  0.00     0.000 HD 
HETATM   37  H2  UNL     1     -11.534  17.520  66.959  1.00  0.00     0.000 HD 
ENDBRANCH  28  33
ENDBRANCH  24  25
ENDBRANCH   5  21
BRANCH   5  38
HETATM   38  O   UNL     1     -11.101   9.720  71.187  1.00  0.00    -0.343 OA 
HETATM   39  C   UNL     1     -11.599   8.425  71.521  1.00  0.00    -0.284 C  
ENDBRANCH   5  38
TORSDOF 7
ENDMDL
MODEL        6
REMARK 921   NORMALIZED FREE ENERGY PREDICTED BY IDOCK:   -6.49 KCAL/MOL
REMARK 922        TOTAL FREE ENERGY PREDICTED BY IDOCK:  -10.60 KCAL/MOL
REMARK 923 INTER-LIGAND FREE ENERGY PREDICTED BY IDOCK:   -9.16 KCAL/MOL
REMARK 924 INTRA-LIGAND FREE ENERGY PREDICTED BY IDOCK:   -1.44 KCAL/MOL
REMARK 927      BINDING AFFINITY PREDICTED BY RF-SCORE:    0.00 PKD
ROOT
HETATM    1  C   UNL     1     -10.323  11.176  67.563  1.00  0.00    -0.196 C  
HETATM    2  S   UNL     1      -8.527  11.376  67.412  1.00  0.00    -0.149 SA 
HETATM    3  C   UNL     1      -8.177   9.751  68.129  1.00  0.00    -0.109 C  
HETATM    4  C   UNL     1      -8.907   9.469  69.437  1.00  0.00    -0.172 C  
HETATM    5  C   UNL     1     -11.191  12.517  67.588  1.00  0.00    -0.282 C  
HETATM    6  C   UNL     1     -10.086  10.061  69.799  1.00  0.00    -0.248 C  
HETATM    7  N   UNL     1     -10.652  10.996  68.968  1.00  0.00    -0.216 N  
HETATM    8  C   UNL     1     -10.734   9.702  71.131  1.00  0.00    -0.294 C  
HETATM    9  O   UNL     1     -10.262   8.882  71.907  1.00  0.00    -0.324 OA 
HETATM   10  O   UNL     1     -11.912  10.265  71.435  1.00  0.00    -0.368 OA 
HETATM   11  O   UNL     1     -12.493  12.087  69.849  1.00  0.00    -0.101 OA 
HETATM   12  C   UNL     1     -11.648  11.908  69.000  1.00  0.00    -0.317 C  
ENDROOT
BRANCH   4  13
HETATM   13  C   UNL     1      -8.096   8.507  70.312  1.00  0.00    -0.106 C  
BRANCH  13  14
HETATM   14  S   UNL     1      -8.022   6.854  69.566  1.00  0.00    -0.127 SA 
BRANCH  14  15
HETATM   15  C   UNL     1      -8.969   5.965  70.706  1.00  0.00    -0.149 A  
HETATM   16  N   UNL     1      -8.515   5.342  71.769  1.00  0.00    -0.125 NA 
HETATM   17  C   UNL     1     -11.276   6.240  69.670  1.00  0.00    -0.437 C  
HETATM   18  N   UNL     1      -9.606   4.725  72.338  1.00  0.00    -0.141 NA 
HETATM   19  N   UNL     1     -10.317   5.756  70.622  1.00  0.00    -0.229 NA 
HETATM   20  N   UNL     1     -10.710   4.976  71.647  1.00  0.00    -0.119 NA 
ENDBRANCH  14  15
ENDBRANCH  13  14
ENDBRANCH   4  13
BRANCH   5  21
HETATM   21  N   UNL     1     -10.371  13.763  67.586  1.00  0.00    -0.237 N  
HETATM   22  O   UNL     1     -11.910  15.124  68.550  1.00  0.00    -0.329 OA 
HETATM   23  H   UNL     1      -9.427  13.701  67.206  1.00  0.00     0.000 HD 
HETATM   24  C   UNL     1     -10.786  14.994  68.056  1.00  0.00    -0.270 C  
BRANCH  24  25
HETATM   25  C   UNL     1      -9.747  16.169  67.943  1.00  0.00    -0.225 C  
HETATM   26  S   UNL     1      -8.725  16.150  66.415  1.00  0.00    -0.342 SA 
HETATM   27  C   UNL     1      -8.862  17.848  66.849  1.00  0.00    -0.253 C  
HETATM   28  C   UNL     1      -7.999  18.886  66.735  1.00  0.00    -0.269 C  
HETATM   29  S   UNL     1     -10.529  17.729  67.384  1.00  0.00    -0.340 SA 
HETATM   30  O   UNL     1      -7.469  21.201  67.086  1.00  0.00    -0.380 OA 
HETATM   31  C   UNL     1      -8.418  20.240  67.202  1.00  0.00    -0.339 C  
HETATM   32  O   UNL     1      -9.518  20.522  67.650  1.00  0.00    -0.371 OA 
BRANCH  28  33
HETATM   33  C   UNL     1      -6.624  18.676  66.200  1.00  0.00    -0.225 C  
HETATM   34  O   UNL     1      -5.779  18.103  66.889  1.00  0.00    -0.137 OA 
HETATM   35  N   UNL     1      -6.272  19.156  64.984  1.00  0.00    -0.283 N  
HETATM   36  H1  UNL     1      -5.331  19.013  64.618  1.00  0.00     0.000 HD 
HETATM   37  H2  UNL     1      -6.956  19.668  64.427  1.00  0.00     0.000 HD 
ENDBRANCH  28  33
ENDBRANCH  24  25
ENDBRANCH   5  21
BRANCH   5  38
HETATM   38  O   UNL     1     -12.255  12.570  66.598  1.00  0.00    -0.552 OA 
HETATM   39  C   UNL     1     -11.840  12.441  65.238  1.00  0.00    -0.399 C  
ENDBRANCH   5  38
TORSDOF 7
ENDMDL
MODEL        7
REMARK 921   NORMALIZED FREE ENERGY PREDICTED BY IDOCK:   -6.38 KCAL/MOL
REMARK 922        TOTAL FREE ENERGY PREDICTED BY IDOCK:  -10.44 KCAL/MOL
REMARK 923 INTER-LIGAND FREE ENERGY PREDICTED BY IDOCK:   -9.13 KCAL/MOL
REMARK 924 INTRA-LIGAND FREE ENERGY PREDICTED BY IDOCK:   -1.31 KCAL/MOL
REMARK 927      BINDING AFFINITY PREDICTED BY RF-SCORE:    0.00 PKD
ROOT
HETATM    1  C   UNL     1     -10.330  11.653  67.772  1.00  0.00    -0.182 C  
HETATM    2  S   UNL     1      -8.569  12.082  67.713  1.00  0.00    -0.167 SA 
HETATM    3  C   UNL     1      -8.038  10.422  68.201  1.00  0.00    -0.111 C  
HETATM    4  C   UNL     1      -8.750   9.869  69.430  1.00  0.00    -0.186 C  
HETATM    5  C   UNL     1     -11.354  12.866  67.959  1.00  0.00    -0.292 C  
HETATM    6  C   UNL     1      -9.998  10.260  69.832  1.00  0.00    -0.135 C  
HETATM    7  N   UNL     1     -10.658  11.234  69.125  1.00  0.00    -0.211 N  
HETATM    8  C   UNL     1     -10.620   9.636  71.077  1.00  0.00    -0.292 C  
HETATM    9  O   UNL     1     -10.066   8.773  71.742  1.00  0.00    -0.277 OA 
HETATM   10  O   UNL     1     -11.863  10.008  71.417  1.00  0.00    -0.370 OA 
HETATM   11  O   UNL     1     -12.633  11.961  70.090  1.00  0.00    -0.105 OA 
HETATM   12  C   UNL     1     -11.757  12.008  69.253  1.00  0.00    -0.330 C  
ENDROOT
BRANCH   4  13
HETATM   13  C   UNL     1      -7.844   8.891  70.185  1.00  0.00    -0.097 C  
BRANCH  13  14
HETATM   14  S   UNL     1      -6.097   9.185  69.789  1.00  0.00    -0.039 SA 
BRANCH  14  15
HETATM   15  C   UNL     1      -5.634  10.141  71.152  1.00  0.00    -0.074 A  
HETATM   16  N   UNL     1      -5.472   9.707  72.381  1.00  0.00    -0.237 NA 
HETATM   17  C   UNL     1      -5.451  12.424  70.045  1.00  0.00    -0.112 C  
HETATM   18  N   UNL     1      -5.169  10.818  73.135  1.00  0.00    -0.243 NA 
HETATM   19  N   UNL     1      -5.422  11.491  71.136  1.00  0.00    -0.329 NA 
HETATM   20  N   UNL     1      -5.134  11.910  72.382  1.00  0.00    -0.340 NA 
ENDBRANCH  14  15
ENDBRANCH  13  14
ENDBRANCH   4  13
BRANCH   5  21
HETATM   21  N   UNL     1     -10.691  14.187  68.163  1.00  0.00    -0.240 N  
HETATM   22  O   UNL     1     -12.356  15.166  69.353  1.00  0.00    -0.232 OA 
HETATM   23  H   UNL     1      -9.757  14.306  67.772  1.00  0.00     0.000 HD 
HETATM   24  C   UNL     1     -11.238  15.260  68.837  1.00  0.00    -0.285 C  
BRANCH  24  25
HETATM   25  C   UNL     1     -10.352  16.557  68.920  1.00  0.00    -0.292 C  
HETATM   26  S   UNL     1      -8.540  16.255  68.859  1.00  0.00    -0.257 SA 
HETATM   27  C   UNL     1      -8.760  17.844  68.139  1.00  0.00    -0.268 C  
HETATM   28  C   UNL     1      -8.000  18.965  68.166  1.00  0.00    -0.330 C  
HETATM   29  S   UNL     1     -10.247  17.423  67.309  1.00  0.00    -0.331 SA 
HETATM   30  O   UNL     1      -7.660  21.264  67.562  1.00  0.00    -0.373 OA 
HETATM   31  C   UNL     1      -8.467  20.181  67.438  1.00  0.00    -0.339 C  
HETATM   32  O   UNL     1      -9.478  20.251  66.759  1.00  0.00    -0.385 OA 
BRANCH  28  33
HETATM   33  C   UNL     1      -6.738  19.010  68.957  1.00  0.00    -0.299 C  
HETATM   34  O   UNL     1      -5.891  18.128  68.811  1.00  0.00    -0.185 OA 
HETATM   35  N   UNL     1      -6.529  19.982  69.876  1.00  0.00    -0.352 N  
HETATM   36  H1  UNL     1      -5.665  20.013  70.417  1.00  0.00     0.000 HD 
HETATM   37  H2  UNL     1      -7.246  20.692  70.029  1.00  0.00     0.000 HD 
ENDBRANCH  28  33
ENDBRANCH  24  25
ENDBRANCH   5  21
BRANCH   5  38
HETATM   38  O   UNL     1     -12.400  12.939  66.951  1.00  0.00    -0.384 OA 
HETATM   39  C   UNL     1     -11.997  12.621  65.619  1.00  0.00    -0.452 C  
ENDBRANCH   5  38
TORSDOF 7
ENDMDL
MODEL        8
REMARK 921   NORMALIZED FREE ENERGY PREDICTED BY IDOCK:   -6.36 KCAL/MOL
REMARK 922        TOTAL FREE ENERGY PREDICTED BY IDOCK:  -10.41 KCAL/MOL
REMARK 923 INTER-LIGAND FREE ENERGY PREDICTED BY IDOCK:   -8.63 KCAL/MOL
REMARK 924 INTRA-LIGAND FREE ENERGY PREDICTED BY IDOCK:   -1.78 KCAL/MOL
REMARK 927      BINDING AFFINITY PREDICTED BY RF-SCORE:    0.00 PKD
ROOT
HETATM    1  C   UNL     1     -11.238   6.810  71.054  1.00  0.00    -0.290 C  
HETATM    2  S   UNL     1     -11.240   6.198  69.348  1.00  0.00    -0.301 SA 
HETATM    3  C   UNL     1     -10.167   4.793  69.735  1.00  0.00    -0.148 C  
HETATM    4  C   UNL     1      -8.912   5.157  70.520  1.00  0.00    -0.165 C  
HETATM    5  C   UNL     1     -11.584   8.357  71.259  1.00  0.00    -0.283 C  
HETATM    6  C   UNL     1      -8.806   6.255  71.328  1.00  0.00    -0.139 C  
HETATM    7  N   UNL     1      -9.868   7.119  71.433  1.00  0.00    -0.176 N  
HETATM    8  C   UNL     1      -7.502   6.522  72.072  1.00  0.00    -0.092 C  
HETATM    9  O   UNL     1      -6.528   5.786  72.003  1.00  0.00    -0.049 OA 
HETATM   10  O   UNL     1      -7.447   7.581  72.893  1.00  0.00    -0.075 OA 
HETATM   11  O   UNL     1      -9.430   9.053  72.626  1.00  0.00    -0.142 OA 
HETATM   12  C   UNL     1     -10.130   8.343  71.938  1.00  0.00    -0.267 C  
ENDROOT
BRANCH   4  13
HETATM   13  C   UNL     1      -7.776   4.178  70.206  1.00  0.00    -0.048 C  
BRANCH  13  14
HETATM   14  S   UNL     1      -7.502   4.052  68.415  1.00  0.00    -0.059 SA 
BRANCH  14  15
HETATM   15  C   UNL     1      -7.198   5.711  68.038  1.00  0.00    -0.072 A  
HETATM   16  N   UNL     1      -6.281   6.473  68.589  1.00  0.00    -0.028 NA 
HETATM   17  C   UNL     1      -8.989   6.096  66.274  1.00  0.00    -0.154 C  
HETATM   18  N   UNL     1      -6.445   7.720  68.032  1.00  0.00    -0.053 NA 
HETATM   19  N   UNL     1      -7.909   6.462  67.146  1.00  0.00    -0.106 NA 
HETATM   20  N   UNL     1      -7.434   7.722  67.148  1.00  0.00    -0.094 NA 
ENDBRANCH  14  15
ENDBRANCH  13  14
ENDBRANCH   4  13
BRANCH   5  21
HETATM   21  N   UNL     1     -11.762   9.106  69.981  1.00  0.00    -0.451 N  
HETATM   22  O   UNL     1     -11.724  11.197  70.865  1.00  0.00    -0.246 OA 
HETATM   23  H   UNL     1     -11.837   8.559  69.124  1.00  0.00     0.000 HD 
HETATM   24  C   UNL     1     -11.834  10.481  69.864  1.00  0.00    -0.282 C  
BRANCH  24  25
HETATM   25  C   UNL     1     -12.031  11.047  68.410  1.00  0.00    -0.086 C  
HETATM   26  S   UNL     1     -11.715  12.849  68.237  1.00  0.00    -0.346 SA 
HETATM   27  C   UNL     1     -11.301  12.163  66.672  1.00  0.00    -0.350 C  
HETATM   28  C   UNL     1     -11.430  12.639  65.411  1.00  0.00    -0.373 C  
HETATM   29  S   UNL     1     -10.587  10.705  67.336  1.00  0.00    -0.275 SA 
HETATM   30  O   UNL     1     -11.185  12.346  63.040  1.00  0.00    -0.272 OA 
HETATM   31  C   UNL     1     -10.973  11.801  64.263  1.00  0.00    -0.359 C  
HETATM   32  O   UNL     1     -10.435  10.710  64.358  1.00  0.00    -0.350 OA 
BRANCH  28  33
HETATM   33  C   UNL     1     -12.068  13.961  65.157  1.00  0.00    -0.403 C  
HETATM   34  O   UNL     1     -13.280  14.100  65.327  1.00  0.00    -0.760 OA 
HETATM   35  N   UNL     1     -11.342  15.005  64.691  1.00  0.00    -0.574 N  
HETATM   36  H1  UNL     1     -11.779  15.910  64.518  1.00  0.00     0.000 HD 
HETATM   37  H2  UNL     1     -10.345  14.884  64.511  1.00  0.00     0.000 HD 
ENDBRANCH  28  33
ENDBRANCH  24  25
ENDBRANCH   5  21
BRANCH   5  38
HETATM   38  O   UNL     1     -12.668   8.618  72.193  1.00  0.00    -0.347 OA 
HETATM   39  C   UNL     1     -13.972   8.249  71.744  1.00  0.00    -0.410 C  
ENDBRANCH   5  38
TORSDOF 7
ENDMDL
MODEL        9
REMARK 921   NORMALIZED FREE ENERGY PREDICTED BY IDOCK:   -6.31 KCAL/MOL
REMARK 922        TOTAL FREE ENERGY PREDICTED BY IDOCK:  -10.35 KCAL/MOL
REMARK 923 INTER-LIGAND FREE ENERGY PREDICTED BY IDOCK:   -9.44 KCAL/MOL
REMARK 924 INTRA-LIGAND FREE ENERGY PREDICTED BY IDOCK:   -0.91 KCAL/MOL
REMARK 927      BINDING AFFINITY PREDICTED BY RF-SCORE:    0.00 PKD
ROOT
HETATM    1  C   UNL     1     -10.108   8.513  69.141  1.00  0.00    -0.203 C  
HETATM    2  S   UNL     1     -10.507   8.737  67.386  1.00  0.00    -0.244 SA 
HETATM    3  C   UNL     1      -9.680   7.204  66.892  1.00  0.00    -0.186 C  
HETATM    4  C   UNL     1      -8.267   7.045  67.443  1.00  0.00    -0.119 C  
HETATM    5  C   UNL     1     -10.109   9.830  70.046  1.00  0.00    -0.257 C  
HETATM    6  C   UNL     1      -7.820   7.646  68.587  1.00  0.00    -0.121 C  
HETATM    7  N   UNL     1      -8.662   8.476  69.285  1.00  0.00    -0.133 N  
HETATM    8  C   UNL     1      -6.386   7.414  69.051  1.00  0.00    -0.039 C  
HETATM    9  O   UNL     1      -5.598   6.692  68.457  1.00  0.00    -0.015 OA 
HETATM   10  O   UNL     1      -5.993   7.980  70.201  1.00  0.00    -0.026 OA 
HETATM   11  O   UNL     1      -7.668   9.611  71.040  1.00  0.00    -0.323 OA 
HETATM   12  C   UNL     1      -8.596   9.363  70.301  1.00  0.00    -0.221 C  
ENDROOT
BRANCH   4  13
HETATM   13  C   UNL     1      -7.410   6.200  66.495  1.00  0.00    -0.081 C  
BRANCH  13  14
HETATM   14  S   UNL     1      -8.362   5.692  65.035  1.00  0.00    -0.135 SA 
BRANCH  14  15
HETATM   15  C   UNL     1      -8.646   4.032  65.422  1.00  0.00    -0.114 A  
HETATM   16  N   UNL     1      -8.293   3.426  66.532  1.00  0.00    -0.100 NA 
HETATM   17  C   UNL     1      -9.820   3.280  63.294  1.00  0.00    -0.121 C  
HETATM   18  N   UNL     1      -8.663   2.110  66.376  1.00  0.00    -0.116 NA 
HETATM   19  N   UNL     1      -9.239   3.118  64.598  1.00  0.00    -0.137 NA 
HETATM   20  N   UNL     1      -9.245   1.914  65.200  1.00  0.00    -0.111 NA 
ENDBRANCH  14  15
ENDBRANCH  13  14
ENDBRANCH   4  13
BRANCH   5  21
HETATM   21  N   UNL     1     -10.343  11.087  69.278  1.00  0.00    -0.361 N  
HETATM   22  O   UNL     1     -12.611  11.004  69.268  1.00  0.00    -0.361 OA 
HETATM   23  H   UNL     1      -9.522  11.619  68.989  1.00  0.00     0.000 HD 
HETATM   24  C   UNL     1     -11.580  11.590  68.925  1.00  0.00    -0.320 C  
BRANCH  24  25
HETATM   25  C   UNL     1     -11.578  12.933  68.106  1.00  0.00    -0.336 C  
HETATM   26  S   UNL     1      -9.926  13.716  67.915  1.00  0.00    -0.251 SA 
HETATM   27  C   UNL     1     -10.819  14.183  66.475  1.00  0.00    -0.298 C  
HETATM   28  C   UNL     1     -10.815  15.316  65.732  1.00  0.00    -0.363 C  
HETATM   29  S   UNL     1     -11.631  12.638  66.299  1.00  0.00    -0.403 SA 
HETATM   30  O   UNL     1     -11.661  16.600  63.888  1.00  0.00    -1.204 OA 
HETATM   31  C   UNL     1     -11.705  15.411  64.538  1.00  0.00    -0.277 C  
HETATM   32  O   UNL     1     -12.427  14.518  64.125  1.00  0.00    -0.707 OA 
BRANCH  28  33
HETATM   33  C   UNL     1      -9.974  16.481  66.127  1.00  0.00    -0.343 C  
HETATM   34  O   UNL     1      -8.779  16.502  65.831  1.00  0.00    -0.456 OA 
HETATM   35  N   UNL     1     -10.493  17.497  66.855  1.00  0.00    -0.315 N  
HETATM   36  H1  UNL     1      -9.918  18.295  67.125  1.00  0.00     0.000 HD 
HETATM   37  H2  UNL     1     -11.473  17.465  67.138  1.00  0.00     0.000 HD 
ENDBRANCH  28  33
ENDBRANCH  24  25
ENDBRANCH   5  21
BRANCH   5  38
HETATM   38  O   UNL     1     -10.956   9.755  71.227  1.00  0.00    -0.351 OA 
HETATM   39  C   UNL     1     -11.561   8.486  71.472  1.00  0.00    -0.292 C  
ENDBRANCH   5  38
TORSDOF 7
ENDMDL
MODEL       10
REMARK 921   NORMALIZED FREE ENERGY PREDICTED BY IDOCK:   -6.31 KCAL/MOL
REMARK 922        TOTAL FREE ENERGY PREDICTED BY IDOCK:  -10.34 KCAL/MOL
REMARK 923 INTER-LIGAND FREE ENERGY PREDICTED BY IDOCK:   -8.64 KCAL/MOL
REMARK 924 INTRA-LIGAND FREE ENERGY PREDICTED BY IDOCK:   -1.70 KCAL/MOL
REMARK 927      BINDING AFFINITY PREDICTED BY RF-SCORE:    0.00 PKD
ROOT
HETATM    1  C   UNL     1     -10.669  10.648  66.029  1.00  0.00    -0.057 C  
HETATM    2  S   UNL     1      -8.917  10.671  65.563  1.00  0.00    -0.196 SA 
HETATM    3  C   UNL     1      -8.677   8.922  65.960  1.00  0.00    -0.160 C  
HETATM    4  C   UNL     1      -9.200   8.510  67.332  1.00  0.00    -0.163 C  
HETATM    5  C   UNL     1     -11.325  12.054  66.412  1.00  0.00    -0.354 C  
HETATM    6  C   UNL     1     -10.203   9.161  67.996  1.00  0.00    -0.211 C  
HETATM    7  N   UNL     1     -10.769  10.277  67.432  1.00  0.00    -0.275 N  
HETATM    8  C   UNL     1     -10.652   8.660  69.364  1.00  0.00    -0.199 C  
HETATM    9  O   UNL     1     -10.171   7.676  69.909  1.00  0.00    -0.205 OA 
HETATM   10  O   UNL     1     -11.669   9.292  69.967  1.00  0.00    -0.073 OA 
HETATM   11  O   UNL     1     -12.259  11.403  68.799  1.00  0.00    -0.502 OA 
HETATM   12  C   UNL     1     -11.608  11.275  67.785  1.00  0.00    -0.230 C  
ENDROOT
BRANCH   4  13
HETATM   13  C   UNL     1      -8.390   7.334  67.888  1.00  0.00    -0.119 C  
BRANCH  13  14
HETATM   14  S   UNL     1      -6.631   7.763  68.027  1.00  0.00    -0.057 SA 
BRANCH  14  15
HETATM   15  C   UNL     1      -6.685   8.818  69.395  1.00  0.00    -0.049 A  
HETATM   16  N   UNL     1      -6.880   8.456  70.642  1.00  0.00    -0.037 NA 
HETATM   17  C   UNL     1      -6.335  11.056  68.237  1.00  0.00    -0.056 C  
HETATM   18  N   UNL     1      -6.908   9.623  71.372  1.00  0.00    -0.321 NA 
HETATM   19  N   UNL     1      -6.578  10.179  69.348  1.00  0.00    -0.049 NA 
HETATM   20  N   UNL     1      -6.722  10.679  70.590  1.00  0.00    -0.296 NA 
ENDBRANCH  14  15
ENDBRANCH  13  14
ENDBRANCH   4  13
BRANCH   5  21
HETATM   21  N   UNL     1     -10.352  13.186  66.427  1.00  0.00    -0.281 N  
HETATM   22  O   UNL     1     -11.666  14.682  67.517  1.00  0.00    -0.365 OA 
HETATM   23  H   UNL     1      -9.439  13.024  66.004  1.00  0.00     0.000 HD 
HETATM   24  C   UNL     1     -10.588  14.435  66.968  1.00  0.00    -0.274 C  
BRANCH  24  25
HETATM   25  C   UNL     1      -9.412  15.473  66.861  1.00  0.00    -0.228 C  
HETATM   26  S   UNL     1      -9.838  17.030  65.981  1.00  0.00    -0.196 SA 
HETATM   27  C   UNL     1      -8.602  17.489  67.145  1.00  0.00    -0.225 C  
HETATM   28  C   UNL     1      -7.601  18.400  67.092  1.00  0.00    -0.232 C  
HETATM   29  S   UNL     1      -9.191  16.426  68.410  1.00  0.00    -0.225 SA 
HETATM   30  O   UNL     1      -5.701  19.465  68.103  1.00  0.00    -0.196 OA 
HETATM   31  C   UNL     1      -6.698  18.562  68.270  1.00  0.00    -0.224 C  
HETATM   32  O   UNL     1      -6.808  17.966  69.329  1.00  0.00    -0.250 OA 
BRANCH  28  33
HETATM   33  C   UNL     1      -7.360  19.197  65.856  1.00  0.00    -0.252 C  
HETATM   34  O   UNL     1      -6.728  18.703  64.922  1.00  0.00    -0.501 OA 
HETATM   35  N   UNL     1      -7.783  20.479  65.764  1.00  0.00    -0.527 N  
HETATM   36  H1  UNL     1      -7.619  21.025  64.918  1.00  0.00     0.000 HD 
HETATM   37  H2  UNL     1      -8.273  20.906  66.552  1.00  0.00     0.000 HD 
ENDBRANCH  28  33
ENDBRANCH  24  25
ENDBRANCH   5  21
BRANCH   5  38
HETATM   38  O   UNL     1     -12.528  12.388  65.665  1.00  0.00    -0.640 OA 
HETATM   39  C   UNL     1     -12.440  12.224  64.250  1.00  0.00    -0.413 C  
ENDBRANCH   5  38
TORSDOF 7
ENDMDL
MODEL       11
REMARK 921   NORMALIZED FREE ENERGY PREDICTED BY IDOCK:   -6.29 KCAL/MOL
REMARK 922        TOTAL FREE ENERGY PREDICTED BY IDOCK:  -10.32 KCAL/MOL
REMARK 923 INTER-LIGAND FREE ENERGY PREDICTED BY IDOCK:   -9.05 KCAL/MOL
REMARK 924 INTRA-LIGAND FREE ENERGY PREDICTED BY IDOCK:   -1.27 KCAL/MOL
REMARK 927      BINDING AFFINITY PREDICTED BY RF-SCORE:    0.00 PKD
ROOT
HETATM    1  C   UNL     1      -7.913   9.640  68.011  1.00  0.00    -0.097 C  
HETATM    2  S   UNL     1      -7.981  10.581  69.559  1.00  0.00    -0.056 SA 
HETATM    3  C   UNL     1      -8.115   9.095  70.583  1.00  0.00    -0.172 C  
HETATM    4  C   UNL     1      -9.184   8.109  70.126  1.00  0.00    -0.155 C  
HETATM    5  C   UNL     1      -8.333  10.421  66.682  1.00  0.00    -0.127 C  
HETATM    6  C   UNL     1      -9.636   8.014  68.838  1.00  0.00    -0.152 C  
HETATM    7  N   UNL     1      -9.139   8.868  67.885  1.00  0.00    -0.139 N  
HETATM    8  C   UNL     1     -10.707   6.987  68.488  1.00  0.00    -0.179 C  
HETATM    9  O   UNL     1     -11.185   6.211  69.304  1.00  0.00    -0.387 OA 
HETATM   10  O   UNL     1     -11.094   6.887  67.208  1.00  0.00    -0.339 OA 
HETATM   11  O   UNL     1     -10.198   8.749  65.830  1.00  0.00    -0.049 OA 
HETATM   12  C   UNL     1      -9.407   9.231  66.612  1.00  0.00    -0.170 C  
ENDROOT
BRANCH   4  13
HETATM   13  C   UNL     1      -9.732   7.315  71.316  1.00  0.00    -0.166 C  
BRANCH  13  14
HETATM   14  S   UNL     1     -10.576   8.409  72.494  1.00  0.00    -0.229 SA 
BRANCH  14  15
HETATM   15  C   UNL     1     -12.223   8.074  72.090  1.00  0.00    -0.331 A  
HETATM   16  N   UNL     1     -12.765   6.883  71.982  1.00  0.00    -0.250 NA 
HETATM   17  C   UNL     1     -13.090  10.446  71.780  1.00  0.00    -0.462 C  
HETATM   18  N   UNL     1     -14.066   7.097  71.586  1.00  0.00    -0.385 NA 
HETATM   19  N   UNL     1     -13.168   9.012  71.784  1.00  0.00    -0.364 NA 
HETATM   20  N   UNL     1     -14.321   8.393  71.466  1.00  0.00    -0.436 NA 
ENDBRANCH  14  15
ENDBRANCH  13  14
ENDBRANCH   4  13
BRANCH   5  21
HETATM   21  N   UNL     1      -8.826  11.807  66.929  1.00  0.00    -0.185 N  
HETATM   22  O   UNL     1     -10.242  11.931  65.160  1.00  0.00    -0.259 OA 
HETATM   23  H   UNL     1      -8.457  12.296  67.744  1.00  0.00     0.000 HD 
HETATM   24  C   UNL     1      -9.741  12.482  66.146  1.00  0.00    -0.254 C  
BRANCH  24  25
HETATM   25  C   UNL     1     -10.106  13.942  66.601  1.00  0.00    -0.273 C  
HETATM   26  S   UNL     1      -8.831  14.766  67.637  1.00  0.00    -0.188 SA 
HETATM   27  C   UNL     1      -9.628  16.073  66.773  1.00  0.00    -0.232 C  
HETATM   28  C   UNL     1      -9.925  17.346  67.127  1.00  0.00    -0.291 C  
HETATM   29  S   UNL     1      -9.805  15.172  65.278  1.00  0.00    -0.103 SA 
HETATM   30  O   UNL     1     -10.914  19.473  66.613  1.00  0.00    -0.418 OA 
HETATM   31  C   UNL     1     -10.620  18.234  66.149  1.00  0.00    -0.303 C  
HETATM   32  O   UNL     1     -10.914  17.927  65.005  1.00  0.00    -0.776 OA 
BRANCH  28  33
HETATM   33  C   UNL     1      -9.616  17.847  68.496  1.00  0.00    -0.326 C  
HETATM   34  O   UNL     1     -10.330  17.520  69.444  1.00  0.00    -0.288 OA 
HETATM   35  N   UNL     1      -8.588  18.703  68.706  1.00  0.00    -0.301 N  
HETATM   36  H1  UNL     1      -8.376  19.046  69.643  1.00  0.00     0.000 HD 
HETATM   37  H2  UNL     1      -8.019  19.009  67.916  1.00  0.00     0.000 HD 
ENDBRANCH  28  33
ENDBRANCH  24  25
ENDBRANCH   5  21
BRANCH   5  38
HETATM   38  O   UNL     1      -7.343  10.383  65.616  1.00  0.00    -0.143 OA 
HETATM   39  C   UNL     1      -6.342   9.375  65.740  1.00  0.00    -0.068 C  
ENDBRANCH   5  38
TORSDOF 7
ENDMDL
MODEL       12
REMARK 921   NORMALIZED FREE ENERGY PREDICTED BY IDOCK:   -6.27 KCAL/MOL
REMARK 922        TOTAL FREE ENERGY PREDICTED BY IDOCK:  -10.30 KCAL/MOL
REMARK 923 INTER-LIGAND FREE ENERGY PREDICTED BY IDOCK:   -9.06 KCAL/MOL
REMARK 924 INTRA-LIGAND FREE ENERGY PREDICTED BY IDOCK:   -1.24 KCAL/MOL
REMARK 927      BINDING AFFINITY PREDICTED BY RF-SCORE:    0.00 PKD
ROOT
HETATM    1  C   UNL     1     -10.760  11.461  67.300  1.00  0.00    -0.241 C  
HETATM    2  S   UNL     1     -11.730  11.258  68.818  1.00  0.00    -0.335 SA 
HETATM    3  C   UNL     1     -12.020  13.035  69.000  1.00  0.00    -0.267 C  
HETATM    4  C   UNL     1     -10.765  13.893  68.885  1.00  0.00    -0.256 C  
HETATM    5  C   UNL     1      -9.754  10.276  66.931  1.00  0.00    -0.186 C  
HETATM    6  C   UNL     1      -9.641  13.519  68.200  1.00  0.00    -0.215 C  
HETATM    7  N   UNL     1      -9.600  12.286  67.598  1.00  0.00    -0.186 N  
HETATM    8  C   UNL     1      -8.442  14.458  68.146  1.00  0.00    -0.160 C  
HETATM    9  O   UNL     1      -8.430  15.561  68.674  1.00  0.00    -0.155 OA 
HETATM   10  O   UNL     1      -7.374  14.081  67.428  1.00  0.00    -0.177 OA 
HETATM   11  O   UNL     1      -7.541  11.708  66.714  1.00  0.00    -0.150 OA 
HETATM   12  C   UNL     1      -8.694  11.477  67.008  1.00  0.00    -0.169 C  
ENDROOT
BRANCH   4  13
HETATM   13  C   UNL     1     -10.911  15.177  69.709  1.00  0.00    -0.284 C  
BRANCH  13  14
HETATM   14  S   UNL     1     -12.646  15.471  70.154  1.00  0.00    -0.159 SA 
BRANCH  14  15
HETATM   15  C   UNL     1     -12.523  15.456  71.878  1.00  0.00    -0.377 A  
HETATM   16  N   UNL     1     -11.970  16.387  72.621  1.00  0.00    -0.549 NA 
HETATM   17  C   UNL     1     -13.630  13.221  72.378  1.00  0.00    -0.594 C  
HETATM   18  N   UNL     1     -12.043  15.927  73.916  1.00  0.00    -0.453 NA 
HETATM   19  N   UNL     1     -12.946  14.444  72.692  1.00  0.00    -0.433 NA 
HETATM   20  N   UNL     1     -12.640  14.743  73.969  1.00  0.00    -0.480 NA 
ENDBRANCH  14  15
ENDBRANCH  13  14
ENDBRANCH   4  13
BRANCH   5  21
HETATM   21  N   UNL     1      -9.685   9.203  67.965  1.00  0.00    -0.151 N  
HETATM   22  O   UNL     1      -7.668   8.353  67.367  1.00  0.00    -0.096 OA 
HETATM   23  H   UNL     1     -10.466   9.131  68.617  1.00  0.00     0.000 HD 
HETATM   24  C   UNL     1      -8.652   8.298  68.111  1.00  0.00    -0.132 C  
BRANCH  24  25
HETATM   25  C   UNL     1      -8.803   7.250  69.273  1.00  0.00    -0.136 C  
HETATM   26  S   UNL     1     -10.238   7.535  70.385  1.00  0.00    -0.205 SA 
HETATM   27  C   UNL     1      -9.991   5.794  70.400  1.00  0.00    -0.198 C  
HETATM   28  C   UNL     1     -10.143   4.864  71.373  1.00  0.00    -0.268 C  
HETATM   29  S   UNL     1      -9.576   5.691  68.698  1.00  0.00    -0.137 SA 
HETATM   30  O   UNL     1      -9.989   2.587  72.119  1.00  0.00    -0.149 OA 
HETATM   31  C   UNL     1      -9.850   3.432  71.069  1.00  0.00    -0.066 C  
HETATM   32  O   UNL     1      -9.518   2.998  69.978  1.00  0.00    -0.157 OA 
BRANCH  28  33
HETATM   33  C   UNL     1     -10.547   5.263  72.750  1.00  0.00    -0.230 C  
HETATM   34  O   UNL     1      -9.702   5.692  73.537  1.00  0.00    -0.148 OA 
HETATM   35  N   UNL     1     -11.826   5.112  73.170  1.00  0.00    -0.504 N  
HETATM   36  H1  UNL     1     -12.102   5.386  74.113  1.00  0.00     0.000 HD 
HETATM   37  H2  UNL     1     -12.521   4.720  72.535  1.00  0.00     0.000 HD 
ENDBRANCH  28  33
ENDBRANCH  24  25
ENDBRANCH   5  21
BRANCH   5  38
HETATM   38  O   UNL     1      -9.926   9.726  65.595  1.00  0.00    -0.301 OA 
HETATM   39  C   UNL     1     -10.116  10.684  64.554  1.00  0.00    -0.353 C  
ENDBRANCH   5  38
TORSDOF 7
ENDMDL
MODEL       13
REMARK 921   NORMALIZED FREE ENERGY PREDICTED BY IDOCK:   -6.26 KCAL/MOL
REMARK 922        TOTAL FREE ENERGY PREDICTED BY IDOCK:  -10.27 KCAL/MOL
REMARK 923 INTER-LIGAND FREE ENERGY PREDICTED BY IDOCK:   -9.38 KCAL/MOL
REMARK 924 INTRA-LIGAND FREE ENERGY PREDICTED BY IDOCK:   -0.89 KCAL/MOL
REMARK 927      BINDING AFFINITY PREDICTED BY RF-SCORE:    0.00 PKD
ROOT
HETATM    1  C   UNL     1     -10.537  12.967  67.434  1.00  0.00    -0.233 C  
HETATM    2  S   UNL     1      -8.727  13.058  67.418  1.00  0.00    -0.215 SA 
HETATM    3  C   UNL     1      -8.711  14.863  67.284  1.00  0.00    -0.207 C  
HETATM    4  C   UNL     1      -9.613  15.421  66.189  1.00  0.00    -0.362 C  
HETATM    5  C   UNL     1     -11.186  11.574  66.996  1.00  0.00    -0.300 C  
HETATM    6  C   UNL     1     -10.718  14.777  65.706  1.00  0.00    -0.326 C  
HETATM    7  N   UNL     1     -11.040  13.534  66.193  1.00  0.00    -0.290 N  
HETATM    8  C   UNL     1     -11.554  15.429  64.610  1.00  0.00    -0.311 C  
HETATM    9  O   UNL     1     -11.302  16.529  64.139  1.00  0.00    -1.060 OA 
HETATM   10  O   UNL     1     -12.658  14.792  64.192  1.00  0.00    -0.784 OA 
HETATM   11  O   UNL     1     -12.776  12.478  65.085  1.00  0.00    -0.659 OA 
HETATM   12  C   UNL     1     -11.881  12.519  65.901  1.00  0.00    -0.430 C  
ENDROOT
BRANCH   4  13
HETATM   13  C   UNL     1      -9.060  16.747  65.656  1.00  0.00     0.291 C  
BRANCH  13  14
HETATM   14  S   UNL     1      -7.921  17.504  66.851  1.00  0.00    -0.242 SA 
BRANCH  14  15
HETATM   15  C   UNL     1      -8.872  18.852  67.363  1.00  0.00    -0.273 A  
HETATM   16  N   UNL     1      -8.757  20.087  66.933  1.00  0.00    -0.330 NA 
HETATM   17  C   UNL     1     -10.364  17.710  69.079  1.00  0.00    -0.272 C  
HETATM   18  N   UNL     1      -9.666  20.824  67.657  1.00  0.00    -0.332 NA 
HETATM   19  N   UNL     1      -9.843  18.815  68.324  1.00  0.00    -0.352 NA 
HETATM   20  N   UNL     1     -10.335  20.055  68.506  1.00  0.00    -0.401 NA 
ENDBRANCH  14  15
ENDBRANCH  13  14
ENDBRANCH   4  13
BRANCH   5  21
HETATM   21  N   UNL     1     -10.188  10.567  66.531  1.00  0.00    -0.224 N  
HETATM   22  O   UNL     1      -9.638   9.740  68.572  1.00  0.00    -0.146 OA 
HETATM   23  H   UNL     1     -10.026  10.498  65.527  1.00  0.00     0.000 HD 
HETATM   24  C   UNL     1      -9.466   9.720  67.349  1.00  0.00    -0.152 C  
BRANCH  24  25
HETATM   25  C   UNL     1      -8.464   8.744  66.631  1.00  0.00    -0.108 C  
HETATM   26  S   UNL     1      -9.072   7.020  66.442  1.00  0.00    -0.143 SA 
HETATM   27  C   UNL     1      -8.002   7.278  65.070  1.00  0.00    -0.129 C  
HETATM   28  C   UNL     1      -7.155   6.450  64.412  1.00  0.00    -0.057 C  
HETATM   29  S   UNL     1      -8.497   8.940  64.810  1.00  0.00    -0.157 SA 
HETATM   30  O   UNL     1      -5.516   6.085  62.696  1.00  0.00    -0.020 OA 
HETATM   31  C   UNL     1      -6.367   6.977  63.259  1.00  0.00    -0.044 C  
HETATM   32  O   UNL     1      -6.450   8.107  62.807  1.00  0.00    -0.084 OA 
BRANCH  28  33
HETATM   33  C   UNL     1      -6.963   5.043  64.862  1.00  0.00    -0.054 C  
HETATM   34  O   UNL     1      -6.296   4.807  65.870  1.00  0.00    -0.037 OA 
HETATM   35  N   UNL     1      -7.470   4.011  64.147  1.00  0.00    -0.069 N  
HETATM   36  H1  UNL     1      -7.339   3.047  64.456  1.00  0.00     0.000 HD 
HETATM   37  H2  UNL     1      -7.989   4.199  63.290  1.00  0.00     0.000 HD 
ENDBRANCH  28  33
ENDBRANCH  24  25
ENDBRANCH   5  21
BRANCH   5  38
HETATM   38  O   UNL     1     -12.115  11.006  67.960  1.00  0.00    -0.615 OA 
HETATM   39  C   UNL     1     -12.142  11.640  69.238  1.00  0.00    -0.259 C  
ENDBRANCH   5  38
TORSDOF 7
ENDMDL
MODEL       14
REMARK 921   NORMALIZED FREE ENERGY PREDICTED BY IDOCK:   -6.25 KCAL/MOL
REMARK 922        TOTAL FREE ENERGY PREDICTED BY IDOCK:  -10.26 KCAL/MOL
REMARK 923 INTER-LIGAND FREE ENERGY PREDICTED BY IDOCK:   -9.09 KCAL/MOL
REMARK 924 INTRA-LIGAND FREE ENERGY PREDICTED BY IDOCK:   -1.16 KCAL/MOL
REMARK 927      BINDING AFFINITY PREDICTED BY RF-SCORE:    0.00 PKD
ROOT
HETATM    1  C   UNL     1     -10.084   8.499  69.119  1.00  0.00    -0.203 C  
HETATM    2  S   UNL     1     -10.506   8.725  67.370  1.00  0.00    -0.244 SA 
HETATM    3  C   UNL     1      -9.677   7.198  66.861  1.00  0.00    -0.186 C  
HETATM    4  C   UNL     1      -8.257   7.045  67.394  1.00  0.00    -0.119 C  
HETATM    5  C   UNL     1     -10.080   9.813  70.028  1.00  0.00    -0.257 C  
HETATM    6  C   UNL     1      -7.798   7.645  68.534  1.00  0.00    -0.121 C  
HETATM    7  N   UNL     1      -8.635   8.468  69.245  1.00  0.00    -0.128 N  
HETATM    8  C   UNL     1      -6.357   7.419  68.979  1.00  0.00    -0.039 C  
HETATM    9  O   UNL     1      -5.573   6.702  68.373  1.00  0.00    -0.015 OA 
HETATM   10  O   UNL     1      -5.953   7.984  70.126  1.00  0.00    -0.026 OA 
HETATM   11  O   UNL     1      -7.625   9.604  70.991  1.00  0.00    -0.326 OA 
HETATM   12  C   UNL     1      -8.561   9.353  70.263  1.00  0.00    -0.221 C  
ENDROOT
BRANCH   4  13
HETATM   13  C   UNL     1      -7.407   6.207  66.433  1.00  0.00    -0.085 C  
BRANCH  13  14
HETATM   14  S   UNL     1      -8.019   4.500  66.343  1.00  0.00    -0.103 SA 
BRANCH  14  15
HETATM   15  C   UNL     1      -7.502   3.912  67.884  1.00  0.00    -0.067 A  
HETATM   16  N   UNL     1      -6.311   3.440  68.171  1.00  0.00    -0.035 NA 
HETATM   17  C   UNL     1      -9.649   4.218  69.214  1.00  0.00    -0.190 C  
HETATM   18  N   UNL     1      -6.374   3.035  69.485  1.00  0.00    -0.028 NA 
HETATM   19  N   UNL     1      -8.288   3.818  68.998  1.00  0.00    -0.071 NA 
HETATM   20  N   UNL     1      -7.575   3.264  69.998  1.00  0.00    -0.044 NA 
ENDBRANCH  14  15
ENDBRANCH  13  14
ENDBRANCH   4  13
BRANCH   5  21
HETATM   21  N   UNL     1     -10.330  11.071  69.267  1.00  0.00    -0.361 N  
HETATM   22  O   UNL     1     -12.597  10.968  69.273  1.00  0.00    -0.361 OA 
HETATM   23  H   UNL     1      -9.515  11.610  68.975  1.00  0.00     0.000 HD 
HETATM   24  C   UNL     1     -11.573  11.565  68.925  1.00  0.00    -0.320 C  
BRANCH  24  25
HETATM   25  C   UNL     1     -11.589  12.911  68.112  1.00  0.00    -0.336 C  
HETATM   26  S   UNL     1      -9.947  13.717  67.926  1.00  0.00    -0.251 SA 
HETATM   27  C   UNL     1     -10.845  14.178  66.486  1.00  0.00    -0.298 C  
HETATM   28  C   UNL     1     -10.854  15.314  65.749  1.00  0.00    -0.363 C  
HETATM   29  S   UNL     1     -11.635  12.622  66.303  1.00  0.00    -0.403 SA 
HETATM   30  O   UNL     1     -11.715  16.593  63.907  1.00  0.00    -1.153 OA 
HETATM   31  C   UNL     1     -11.744  15.401  64.553  1.00  0.00    -0.277 C  
HETATM   32  O   UNL     1     -12.453  14.500  64.135  1.00  0.00    -0.707 OA 
BRANCH  28  33
HETATM   33  C   UNL     1     -10.030  16.489  66.149  1.00  0.00    -0.343 C  
HETATM   34  O   UNL     1      -8.950  16.697  65.596  1.00  0.00    -0.463 OA 
HETATM   35  N   UNL     1     -10.427  17.305  67.154  1.00  0.00    -0.319 N  
HETATM   36  H1  UNL     1      -9.863  18.109  67.428  1.00  0.00     0.000 HD 
HETATM   37  H2  UNL     1     -11.302  17.112  67.643  1.00  0.00     0.000 HD 
ENDBRANCH  28  33
ENDBRANCH  24  25
ENDBRANCH   5  21
BRANCH   5  38
HETATM   38  O   UNL     1     -10.911   9.730  71.220  1.00  0.00    -0.351 OA 
HETATM   39  C   UNL     1     -11.458   8.443  71.502  1.00  0.00    -0.278 C  
ENDBRANCH   5  38
TORSDOF 7
ENDMDL
MODEL       15
REMARK 921   NORMALIZED FREE ENERGY PREDICTED BY IDOCK:   -6.24 KCAL/MOL
REMARK 922        TOTAL FREE ENERGY PREDICTED BY IDOCK:  -10.24 KCAL/MOL
REMARK 923 INTER-LIGAND FREE ENERGY PREDICTED BY IDOCK:   -8.99 KCAL/MOL
REMARK 924 INTRA-LIGAND FREE ENERGY PREDICTED BY IDOCK:   -1.25 KCAL/MOL
REMARK 927      BINDING AFFINITY PREDICTED BY RF-SCORE:    0.00 PKD
ROOT
HETATM    1  C   UNL     1      -9.098   9.095  70.082  1.00  0.00    -0.206 C  
HETATM    2  S   UNL     1      -8.946   9.404  68.302  1.00  0.00    -0.127 SA 
HETATM    3  C   UNL     1      -9.473  11.129  68.446  1.00  0.00    -0.189 C  
HETATM    4  C   UNL     1     -10.752  11.332  69.251  1.00  0.00    -0.221 C  
HETATM    5  C   UNL     1      -9.283   7.571  70.528  1.00  0.00    -0.157 C  
HETATM    6  C   UNL     1     -11.193  10.469  70.217  1.00  0.00    -0.313 C  
HETATM    7  N   UNL     1     -10.479   9.325  70.474  1.00  0.00    -0.233 N  
HETATM    8  C   UNL     1     -12.487  10.771  70.965  1.00  0.00    -0.420 C  
HETATM    9  O   UNL     1     -13.160  11.772  70.763  1.00  0.00    -0.038 OA 
HETATM   10  O   UNL     1     -12.867   9.929  71.938  1.00  0.00    -0.395 OA 
HETATM   11  O   UNL     1     -11.501   7.855  71.942  1.00  0.00    -0.257 OA 
HETATM   12  C   UNL     1     -10.625   8.175  71.167  1.00  0.00    -0.204 C  
ENDROOT
BRANCH   4  13
HETATM   13  C   UNL     1     -11.504  12.575  68.767  1.00  0.00    -0.310 C  
BRANCH  13  14
HETATM   14  S   UNL     1     -10.528  13.488  67.538  1.00  0.00    -0.238 SA 
BRANCH  14  15
HETATM   15  C   UNL     1     -11.569  13.355  66.165  1.00  0.00    -0.346 A  
HETATM   16  N   UNL     1     -12.405  12.372  65.922  1.00  0.00    -0.577 NA 
HETATM   17  C   UNL     1     -10.931  15.480  64.921  1.00  0.00    -0.436 C  
HETATM   18  N   UNL     1     -12.971  12.652  64.699  1.00  0.00    -0.844 NA 
HETATM   19  N   UNL     1     -11.623  14.238  65.124  1.00  0.00    -0.340 NA 
HETATM   20  N   UNL     1     -12.501  13.791  64.207  1.00  0.00    -0.671 NA 
ENDBRANCH  14  15
ENDBRANCH  13  14
ENDBRANCH   4  13
BRANCH   5  21
HETATM   21  N   UNL     1      -9.408   6.621  69.385  1.00  0.00    -0.147 N  
HETATM   22  O   UNL     1     -10.456   4.951  70.510  1.00  0.00    -0.216 OA 
HETATM   23  H   UNL     1      -9.044   6.925  68.483  1.00  0.00     0.000 HD 
HETATM   24  C   UNL     1      -9.975   5.363  69.449  1.00  0.00    -0.210 C  
BRANCH  24  25
HETATM   25  C   UNL     1      -9.988   4.536  68.112  1.00  0.00    -0.031 C  
HETATM   26  S   UNL     1     -10.373   5.516  66.605  1.00  0.00    -0.281 SA 
HETATM   27  C   UNL     1      -9.326   4.217  66.048  1.00  0.00    -0.164 C  
HETATM   28  C   UNL     1      -9.294   3.510  64.893  1.00  0.00    -0.153 C  
HETATM   29  S   UNL     1      -8.299   4.238  67.470  1.00  0.00    -0.099 SA 
HETATM   30  O   UNL     1      -8.339   1.769  63.544  1.00  0.00    -0.071 OA 
HETATM   31  C   UNL     1      -8.260   2.449  64.714  1.00  0.00    -0.087 C  
HETATM   32  O   UNL     1      -7.382   2.178  65.517  1.00  0.00    -0.062 OA 
BRANCH  28  33
HETATM   33  C   UNL     1     -10.310   3.745  63.828  1.00  0.00    -0.236 C  
HETATM   34  O   UNL     1     -11.391   3.158  63.872  1.00  0.00    -0.152 OA 
HETATM   35  N   UNL     1     -10.041   4.559  62.780  1.00  0.00    -0.386 N  
HETATM   36  H1  UNL     1     -10.736   4.720  62.052  1.00  0.00     0.000 HD 
HETATM   37  H2  UNL     1      -9.131   5.016  62.718  1.00  0.00     0.000 HD 
ENDBRANCH  28  33
ENDBRANCH  24  25
ENDBRANCH   5  21
BRANCH   5  38
HETATM   38  O   UNL     1      -8.320   7.106  71.514  1.00  0.00    -0.110 OA 
HETATM   39  C   UNL     1      -7.004   6.858  71.021  1.00  0.00    -0.066 C  
ENDBRANCH   5  38
TORSDOF 7
ENDMDL
MODEL       16
REMARK 921   NORMALIZED FREE ENERGY PREDICTED BY IDOCK:   -6.24 KCAL/MOL
REMARK 922        TOTAL FREE ENERGY PREDICTED BY IDOCK:  -10.24 KCAL/MOL
REMARK 923 INTER-LIGAND FREE ENERGY PREDICTED BY IDOCK:   -9.00 KCAL/MOL
REMARK 924 INTRA-LIGAND FREE ENERGY PREDICTED BY IDOCK:   -1.24 KCAL/MOL
REMARK 927      BINDING AFFINITY PREDICTED BY RF-SCORE:    0.00 PKD
ROOT
HETATM    1  C   UNL     1     -10.326  10.187  68.834  1.00  0.00    -0.206 C  
HETATM    2  S   UNL     1      -8.554  10.488  69.074  1.00  0.00    -0.145 SA 
HETATM    3  C   UNL     1      -8.276   8.879  69.856  1.00  0.00    -0.118 C  
HETATM    4  C   UNL     1      -9.254   8.546  70.976  1.00  0.00    -0.227 C  
HETATM    5  C   UNL     1     -11.252  11.478  68.665  1.00  0.00    -0.248 C  
HETATM    6  C   UNL     1     -10.515   9.069  71.072  1.00  0.00    -0.269 C  
HETATM    7  N   UNL     1     -10.939   9.978  70.135  1.00  0.00    -0.288 N  
HETATM    8  C   UNL     1     -11.414   8.663  72.235  1.00  0.00    -0.353 C  
HETATM    9  O   UNL     1     -11.076   7.865  73.097  1.00  0.00    -0.382 OA 
HETATM   10  O   UNL     1     -12.660   9.158  72.274  1.00  0.00    -0.376 OA 
HETATM   11  O   UNL     1     -12.986  10.957  70.593  1.00  0.00    -0.292 OA 
HETATM   12  C   UNL     1     -11.968  10.833  69.948  1.00  0.00    -0.342 C  
ENDROOT
BRANCH   4  13
HETATM   13  C   UNL     1      -8.599   7.625  72.010  1.00  0.00    -0.110 C  
BRANCH  13  14
HETATM   14  S   UNL     1      -8.324   5.967  71.321  1.00  0.00    -0.125 SA 
BRANCH  14  15
HETATM   15  C   UNL     1      -9.249   5.021  72.433  1.00  0.00    -0.133 A  
HETATM   16  N   UNL     1     -10.513   4.690  72.301  1.00  0.00    -0.193 NA 
HETATM   17  C   UNL     1      -7.488   4.595  74.219  1.00  0.00    -0.078 C  
HETATM   18  N   UNL     1     -10.841   3.997  73.443  1.00  0.00    -0.216 NA 
HETATM   19  N   UNL     1      -8.793   4.531  73.624  1.00  0.00    -0.105 NA 
HETATM   20  N   UNL     1      -9.797   3.892  74.254  1.00  0.00    -0.117 NA 
ENDBRANCH  14  15
ENDBRANCH  13  14
ENDBRANCH   4  13
BRANCH   5  21
HETATM   21  N   UNL     1     -10.523  12.768  68.835  1.00  0.00    -0.416 N  
HETATM   22  O   UNL     1     -12.314  14.042  69.398  1.00  0.00    -0.333 OA 
HETATM   23  H   UNL     1      -9.514  12.758  68.685  1.00  0.00     0.000 HD 
HETATM   24  C   UNL     1     -11.101  13.974  69.179  1.00  0.00    -0.259 C  
BRANCH  24  25
HETATM   25  C   UNL     1     -10.129  15.205  69.293  1.00  0.00    -0.246 C  
HETATM   26  S   UNL     1      -8.532  15.010  68.405  1.00  0.00    -0.160 SA 
HETATM   27  C   UNL     1      -8.859  16.737  68.377  1.00  0.00    -0.237 C  
HETATM   28  C   UNL     1      -8.042  17.816  68.442  1.00  0.00    -0.297 C  
HETATM   29  S   UNL     1     -10.588  16.555  68.142  1.00  0.00    -0.341 SA 
HETATM   30  O   UNL     1      -7.740  20.197  68.507  1.00  0.00    -0.198 OA 
HETATM   31  C   UNL     1      -8.635  19.185  68.391  1.00  0.00    -0.352 C  
HETATM   32  O   UNL     1      -9.820  19.435  68.245  1.00  0.00    -0.356 OA 
BRANCH  28  33
HETATM   33  C   UNL     1      -6.572  17.648  68.617  1.00  0.00    -0.209 C  
HETATM   34  O   UNL     1      -5.872  17.332  67.654  1.00  0.00    -0.121 OA 
HETATM   35  N   UNL     1      -5.997  17.787  69.835  1.00  0.00    -0.242 N  
HETATM   36  H1  UNL     1      -4.991  17.673  69.954  1.00  0.00     0.000 HD 
HETATM   37  H2  UNL     1      -6.579  18.009  70.643  1.00  0.00     0.000 HD 
ENDBRANCH  28  33
ENDBRANCH  24  25
ENDBRANCH   5  21
BRANCH   5  38
HETATM   38  O   UNL     1     -12.079  11.480  67.468  1.00  0.00    -0.614 OA 
HETATM   39  C   UNL     1     -11.434  11.919  66.273  1.00  0.00    -0.301 C  
ENDBRANCH   5  38
TORSDOF 7
ENDMDL
MODEL       17
REMARK 921   NORMALIZED FREE ENERGY PREDICTED BY IDOCK:   -6.20 KCAL/MOL
REMARK 922        TOTAL FREE ENERGY PREDICTED BY IDOCK:  -10.19 KCAL/MOL
REMARK 923 INTER-LIGAND FREE ENERGY PREDICTED BY IDOCK:   -9.37 KCAL/MOL
REMARK 924 INTRA-LIGAND FREE ENERGY PREDICTED BY IDOCK:   -0.83 KCAL/MOL
REMARK 927      BINDING AFFINITY PREDICTED BY RF-SCORE:    0.00 PKD
ROOT
HETATM    1  C   UNL     1     -10.318  12.686  68.054  1.00  0.00    -0.228 C  
HETATM    2  S   UNL     1      -8.514  12.507  68.022  1.00  0.00    -0.180 SA 
HETATM    3  C   UNL     1      -8.232  14.289  67.865  1.00  0.00    -0.156 C  
HETATM    4  C   UNL     1      -9.052  14.962  66.771  1.00  0.00    -0.295 C  
HETATM    5  C   UNL     1     -11.170  11.399  67.638  1.00  0.00    -0.283 C  
HETATM    6  C   UNL     1     -10.246  14.482  66.304  1.00  0.00    -0.297 C  
HETATM    7  N   UNL     1     -10.743  13.307  66.810  1.00  0.00    -0.275 N  
HETATM    8  C   UNL     1     -10.986  15.239  65.207  1.00  0.00    -0.393 C  
HETATM    9  O   UNL     1     -10.577  16.284  64.720  1.00  0.00    -0.658 OA 
HETATM   10  O   UNL     1     -12.175  14.768  64.805  1.00  0.00    -0.408 OA 
HETATM   11  O   UNL     1     -12.626  12.507  65.729  1.00  0.00    -0.569 OA 
HETATM   12  C   UNL     1     -11.728  12.424  66.537  1.00  0.00    -0.379 C  
ENDROOT
BRANCH   4  13
HETATM   13  C   UNL     1      -8.314  16.184  66.216  1.00  0.00    -0.287 C  
BRANCH  13  14
HETATM   14  S   UNL     1      -7.792  17.292  67.557  1.00  0.00    -0.183 SA 
BRANCH  14  15
HETATM   15  C   UNL     1      -9.016  18.506  67.439  1.00  0.00    -0.272 A  
HETATM   16  N   UNL     1     -10.313  18.299  67.437  1.00  0.00    -0.375 NA 
HETATM   17  C   UNL     1      -7.558  20.582  67.250  1.00  0.00    -0.342 C  
HETATM   18  N   UNL     1     -10.891  19.535  67.262  1.00  0.00    -0.491 NA 
HETATM   19  N   UNL     1      -8.789  19.845  67.284  1.00  0.00    -0.321 NA 
HETATM   20  N   UNL     1      -9.969  20.485  67.171  1.00  0.00    -0.437 NA 
ENDBRANCH  14  15
ENDBRANCH  13  14
ENDBRANCH   4  13
BRANCH   5  21
HETATM   21  N   UNL     1     -10.337  10.250  67.178  1.00  0.00    -0.225 N  
HETATM   22  O   UNL     1      -9.881   9.386  69.227  1.00  0.00    -0.163 OA 
HETATM   23  H   UNL     1     -10.202  10.142  66.174  1.00  0.00     0.000 HD 
HETATM   24  C   UNL     1      -9.732   9.321  68.002  1.00  0.00    -0.150 C  
BRANCH  24  25
HETATM   25  C   UNL     1      -8.894   8.197  67.289  1.00  0.00    -0.130 C  
HETATM   26  S   UNL     1      -9.863   6.719  66.783  1.00  0.00    -0.162 SA 
HETATM   27  C   UNL     1      -8.558   6.831  65.610  1.00  0.00    -0.117 C  
HETATM   28  C   UNL     1      -7.842   5.884  64.957  1.00  0.00    -0.106 C  
HETATM   29  S   UNL     1      -8.588   8.583  65.524  1.00  0.00    -0.174 SA 
HETATM   30  O   UNL     1      -6.088   5.285  63.430  1.00  0.00    -0.021 OA 
HETATM   31  C   UNL     1      -6.777   6.305  63.999  1.00  0.00    -0.037 C  
HETATM   32  O   UNL     1      -6.511   7.458  63.703  1.00  0.00    -0.051 OA 
BRANCH  28  33
HETATM   33  C   UNL     1      -8.071   4.437  65.225  1.00  0.00    -0.102 C  
HETATM   34  O   UNL     1      -7.726   3.951  66.303  1.00  0.00    -0.087 OA 
HETATM   35  N   UNL     1      -8.607   3.631  64.278  1.00  0.00    -0.093 N  
HETATM   36  H1  UNL     1      -8.764   2.641  64.462  1.00  0.00     0.000 HD 
HETATM   37  H2  UNL     1      -8.858   4.021  63.369  1.00  0.00     0.000 HD 
ENDBRANCH  28  33
ENDBRANCH  24  25
ENDBRANCH   5  21
BRANCH   5  38
HETATM   38  O   UNL     1     -12.164  10.986  68.616  1.00  0.00    -0.571 OA 
HETATM   39  C   UNL     1     -12.030  11.565  69.914  1.00  0.00    -0.351 C  
ENDBRANCH   5  38
TORSDOF 7
ENDMDL
MODEL       18
REMARK 921   NORMALIZED FREE ENERGY PREDICTED BY IDOCK:   -6.17 KCAL/MOL
REMARK 922        TOTAL FREE ENERGY PREDICTED BY IDOCK:  -10.15 KCAL/MOL
REMARK 923 INTER-LIGAND FREE ENERGY PREDICTED BY IDOCK:   -8.85 KCAL/MOL
REMARK 924 INTRA-LIGAND FREE ENERGY PREDICTED BY IDOCK:   -1.30 KCAL/MOL
REMARK 927      BINDING AFFINITY PREDICTED BY RF-SCORE:    0.00 PKD
ROOT
HETATM    1  C   UNL     1     -10.683  11.729  66.999  1.00  0.00    -0.246 C  
HETATM    2  S   UNL     1     -11.880  11.517  68.345  1.00  0.00    -0.216 SA 
HETATM    3  C   UNL     1     -11.970  13.291  68.690  1.00  0.00    -0.310 C  
HETATM    4  C   UNL     1     -10.615  13.973  68.841  1.00  0.00    -0.241 C  
HETATM    5  C   UNL     1      -9.790  10.456  66.631  1.00  0.00    -0.202 C  
HETATM    6  C   UNL     1      -9.459  13.513  68.270  1.00  0.00    -0.212 C  
HETATM    7  N   UNL     1      -9.485  12.350  67.541  1.00  0.00    -0.182 N  
HETATM    8  C   UNL     1      -8.157  14.276  68.483  1.00  0.00    -0.147 C  
HETATM    9  O   UNL     1      -8.083  15.310  69.131  1.00  0.00    -0.193 OA 
HETATM   10  O   UNL     1      -7.051  13.825  67.871  1.00  0.00    -0.121 OA 
HETATM   11  O   UNL     1      -7.408  11.579  66.873  1.00  0.00    -0.140 OA 
HETATM   12  C   UNL     1      -8.611  11.484  66.985  1.00  0.00    -0.161 C  
ENDROOT
BRANCH   4  13
HETATM   13  C   UNL     1     -10.717  15.178  69.781  1.00  0.00    -0.274 C  
BRANCH  13  14
HETATM   14  S   UNL     1     -12.451  15.571  70.148  1.00  0.00    -0.232 SA 
BRANCH  14  15
HETATM   15  C   UNL     1     -12.423  15.476  71.874  1.00  0.00    -0.400 A  
HETATM   16  N   UNL     1     -11.875  16.349  72.687  1.00  0.00    -0.531 NA 
HETATM   17  C   UNL     1     -13.648  13.272  72.211  1.00  0.00    -0.605 C  
HETATM   18  N   UNL     1     -12.038  15.836  73.954  1.00  0.00    -0.473 NA 
HETATM   19  N   UNL     1     -12.932  14.448  72.617  1.00  0.00    -0.433 NA 
HETATM   20  N   UNL     1     -12.685  14.678  73.921  1.00  0.00    -0.450 NA 
ENDBRANCH  14  15
ENDBRANCH  13  14
ENDBRANCH   4  13
BRANCH   5  21
HETATM   21  N   UNL     1     -10.007   9.288  67.535  1.00  0.00    -0.189 N  
HETATM   22  O   UNL     1      -8.099   8.170  67.025  1.00  0.00    -0.106 OA 
HETATM   23  H   UNL     1     -10.854   9.286  68.101  1.00  0.00     0.000 HD 
HETATM   24  C   UNL     1      -9.154   8.210  67.666  1.00  0.00    -0.134 C  
BRANCH  24  25
HETATM   25  C   UNL     1      -9.596   7.092  68.679  1.00  0.00    -0.138 C  
HETATM   26  S   UNL     1      -8.229   6.374  69.677  1.00  0.00    -0.127 SA 
HETATM   27  C   UNL     1      -9.654   6.250  70.701  1.00  0.00    -0.172 C  
HETATM   28  C   UNL     1     -10.044   5.318  71.603  1.00  0.00    -0.259 C  
HETATM   29  S   UNL     1     -10.323   7.794  70.207  1.00  0.00    -0.219 SA 
HETATM   30  O   UNL     1     -11.657   4.492  73.178  1.00  0.00    -0.243 OA 
HETATM   31  C   UNL     1     -11.334   5.500  72.331  1.00  0.00    -0.234 C  
HETATM   32  O   UNL     1     -12.075   6.463  72.221  1.00  0.00    -0.292 OA 
BRANCH  28  33
HETATM   33  C   UNL     1      -9.227   4.093  71.834  1.00  0.00    -0.126 C  
HETATM   34  O   UNL     1      -9.259   3.172  71.018  1.00  0.00    -0.104 OA 
HETATM   35  N   UNL     1      -8.486   3.955  72.959  1.00  0.00    -0.094 N  
HETATM   36  H1  UNL     1      -7.927   3.117  73.117  1.00  0.00     0.000 HD 
HETATM   37  H2  UNL     1      -8.488   4.698  73.658  1.00  0.00     0.000 HD 
ENDBRANCH  28  33
ENDBRANCH  24  25
ENDBRANCH   5  21
BRANCH   5  38
HETATM   38  O   UNL     1      -9.833  10.068  65.230  1.00  0.00    -0.291 OA 
HETATM   39  C   UNL     1     -10.481  10.990  64.355  1.00  0.00    -0.354 C  
ENDBRANCH   5  38
TORSDOF 7
ENDMDL
MODEL       19
REMARK 921   NORMALIZED FREE ENERGY PREDICTED BY IDOCK:   -6.16 KCAL/MOL
REMARK 922        TOTAL FREE ENERGY PREDICTED BY IDOCK:  -10.14 KCAL/MOL
REMARK 923 INTER-LIGAND FREE ENERGY PREDICTED BY IDOCK:   -9.00 KCAL/MOL
REMARK 924 INTRA-LIGAND FREE ENERGY PREDICTED BY IDOCK:   -1.14 KCAL/MOL
REMARK 927      BINDING AFFINITY PREDICTED BY RF-SCORE:    0.00 PKD
ROOT
HETATM    1  C   UNL     1     -10.637  10.778  66.098  1.00  0.00    -0.175 C  
HETATM    2  S   UNL     1      -8.885  10.850  65.637  1.00  0.00    -0.176 SA 
HETATM    3  C   UNL     1      -8.606   9.100  66.003  1.00  0.00    -0.146 C  
HETATM    4  C   UNL     1      -9.122   8.650  67.364  1.00  0.00    -0.148 C  
HETATM    5  C   UNL     1     -11.326  12.162  66.506  1.00  0.00    -0.350 C  
HETATM    6  C   UNL     1     -10.142   9.265  68.038  1.00  0.00    -0.193 C  
HETATM    7  N   UNL     1     -10.732  10.378  67.493  1.00  0.00    -0.266 N  
HETATM    8  C   UNL     1     -10.582   8.728  69.395  1.00  0.00    -0.209 C  
HETATM    9  O   UNL     1     -10.080   7.746  69.923  1.00  0.00    -0.196 OA 
HETATM   10  O   UNL     1     -11.615   9.326  70.007  1.00  0.00    -0.134 OA 
HETATM   11  O   UNL     1     -12.251  11.444  68.877  1.00  0.00    -0.458 OA 
HETATM   12  C   UNL     1     -11.594  11.350  67.863  1.00  0.00    -0.266 C  
ENDROOT
BRANCH   4  13
HETATM   13  C   UNL     1      -8.287   7.483  67.901  1.00  0.00    -0.123 C  
BRANCH  13  14
HETATM   14  S   UNL     1      -7.451   6.605  66.548  1.00  0.00    -0.079 SA 
BRANCH  14  15
HETATM   15  C   UNL     1      -8.744   5.599  65.997  1.00  0.00    -0.144 A  
HETATM   16  N   UNL     1      -9.806   5.257  66.690  1.00  0.00    -0.161 NA 
HETATM   17  C   UNL     1      -7.911   5.057  63.656  1.00  0.00    -0.088 C  
HETATM   18  N   UNL     1     -10.523   4.405  65.881  1.00  0.00    -0.218 NA 
HETATM   19  N   UNL     1      -8.804   4.987  64.777  1.00  0.00    -0.150 NA 
HETATM   20  N   UNL     1      -9.921   4.237  64.711  1.00  0.00    -0.175 NA 
ENDBRANCH  14  15
ENDBRANCH  13  14
ENDBRANCH   4  13
BRANCH   5  21
HETATM   21  N   UNL     1     -10.380  13.315  66.545  1.00  0.00    -0.280 N  
HETATM   22  O   UNL     1     -11.750  14.776  67.611  1.00  0.00    -0.349 OA 
HETATM   23  H   UNL     1      -9.455  13.175  66.140  1.00  0.00     0.000 HD 
HETATM   24  C   UNL     1     -10.655  14.556  67.084  1.00  0.00    -0.274 C  
BRANCH  24  25
HETATM   25  C   UNL     1      -9.501  15.621  67.005  1.00  0.00    -0.224 C  
HETATM   26  S   UNL     1     -10.022  17.277  66.402  1.00  0.00    -0.312 SA 
HETATM   27  C   UNL     1      -8.675  17.593  67.486  1.00  0.00    -0.234 C  
HETATM   28  C   UNL     1      -7.688  18.520  67.461  1.00  0.00    -0.236 C  
HETATM   29  S   UNL     1      -9.125  16.352  68.642  1.00  0.00    -0.241 SA 
HETATM   30  O   UNL     1      -5.697  19.469  68.412  1.00  0.00    -0.198 OA 
HETATM   31  C   UNL     1      -6.668  18.532  68.551  1.00  0.00    -0.255 C  
HETATM   32  O   UNL     1      -6.665  17.792  69.521  1.00  0.00    -0.215 OA 
BRANCH  28  33
HETATM   33  C   UNL     1      -7.580  19.486  66.332  1.00  0.00    -0.281 C  
HETATM   34  O   UNL     1      -7.223  19.093  65.220  1.00  0.00    -0.455 OA 
HETATM   35  N   UNL     1      -7.820  20.805  66.522  1.00  0.00    -0.531 N  
HETATM   36  H1  UNL     1      -7.747  21.466  65.749  1.00  0.00     0.000 HD 
HETATM   37  H2  UNL     1      -8.076  21.141  67.450  1.00  0.00     0.000 HD 
ENDBRANCH  28  33
ENDBRANCH  24  25
ENDBRANCH   5  21
BRANCH   5  38
HETATM   38  O   UNL     1     -12.534  12.481  65.761  1.00  0.00    -0.626 OA 
HETATM   39  C   UNL     1     -12.440  12.346  64.344  1.00  0.00    -0.433 C  
ENDBRANCH   5  38
TORSDOF 7
ENDMDL
MODEL       20
REMARK 921   NORMALIZED FREE ENERGY PREDICTED BY IDOCK:   -6.12 KCAL/MOL
REMARK 922        TOTAL FREE ENERGY PREDICTED BY IDOCK:  -10.07 KCAL/MOL
REMARK 923 INTER-LIGAND FREE ENERGY PREDICTED BY IDOCK:   -9.25 KCAL/MOL
REMARK 924 INTRA-LIGAND FREE ENERGY PREDICTED BY IDOCK:   -0.82 KCAL/MOL
REMARK 927      BINDING AFFINITY PREDICTED BY RF-SCORE:    0.00 PKD
ROOT
HETATM    1  C   UNL     1     -10.467  12.658  68.009  1.00  0.00    -0.224 C  
HETATM    2  S   UNL     1      -8.669  12.427  67.979  1.00  0.00    -0.191 SA 
HETATM    3  C   UNL     1      -8.335  14.203  67.873  1.00  0.00    -0.162 C  
HETATM    4  C   UNL     1      -9.130  14.930  66.794  1.00  0.00    -0.295 C  
HETATM    5  C   UNL     1     -11.354  11.408  67.555  1.00  0.00    -0.292 C  
HETATM    6  C   UNL     1     -10.334  14.499  66.310  1.00  0.00    -0.294 C  
HETATM    7  N   UNL     1     -10.868  13.325  66.781  1.00  0.00    -0.279 N  
HETATM    8  C   UNL     1     -11.047  15.307  65.232  1.00  0.00    -0.376 C  
HETATM    9  O   UNL     1     -10.606  16.353  64.776  1.00  0.00    -0.676 OA 
HETATM   10  O   UNL     1     -12.248  14.882  64.812  1.00  0.00    -0.373 OA 
HETATM   11  O   UNL     1     -12.769  12.611  65.671  1.00  0.00    -0.540 OA 
HETATM   12  C   UNL     1     -11.877  12.480  66.481  1.00  0.00    -0.367 C  
ENDROOT
BRANCH   4  13
HETATM   13  C   UNL     1      -8.353  16.145  66.277  1.00  0.00    -0.287 C  
BRANCH  13  14
HETATM   14  S   UNL     1      -7.827  17.213  67.648  1.00  0.00    -0.179 SA 
BRANCH  14  15
HETATM   15  C   UNL     1      -9.010  18.466  67.528  1.00  0.00    -0.264 A  
HETATM   16  N   UNL     1     -10.312  18.298  67.486  1.00  0.00    -0.380 NA 
HETATM   17  C   UNL     1      -7.487  20.501  67.430  1.00  0.00    -0.331 C  
HETATM   18  N   UNL     1     -10.848  19.555  67.326  1.00  0.00    -0.491 NA 
HETATM   19  N   UNL     1      -8.740  19.800  67.413  1.00  0.00    -0.315 NA 
HETATM   20  N   UNL     1      -9.896  20.478  67.283  1.00  0.00    -0.465 NA 
ENDBRANCH  14  15
ENDBRANCH  13  14
ENDBRANCH   4  13
BRANCH   5  21
HETATM   21  N   UNL     1     -10.553  10.249  67.066  1.00  0.00    -0.251 N  
HETATM   22  O   UNL     1     -10.477   9.104  69.024  1.00  0.00    -0.218 OA 
HETATM   23  H   UNL     1     -10.278  10.250  66.084  1.00  0.00     0.000 HD 
HETATM   24  C   UNL     1     -10.153   9.173  67.835  1.00  0.00    -0.199 C  
BRANCH  24  25
HETATM   25  C   UNL     1      -9.307   8.069  67.101  1.00  0.00    -0.149 C  
HETATM   26  S   UNL     1      -8.065   7.222  68.159  1.00  0.00    -0.125 SA 
HETATM   27  C   UNL     1      -8.534   6.024  66.961  1.00  0.00    -0.108 C  
HETATM   28  C   UNL     1      -7.837   5.044  66.338  1.00  0.00    -0.099 C  
HETATM   29  S   UNL     1     -10.224   6.492  66.941  1.00  0.00    -0.218 SA 
HETATM   30  O   UNL     1      -7.740   3.247  64.748  1.00  0.00    -0.076 OA 
HETATM   31  C   UNL     1      -8.533   4.168  65.349  1.00  0.00    -0.110 C  
HETATM   32  O   UNL     1      -9.720   4.223  65.073  1.00  0.00    -0.173 OA 
BRANCH  28  33
HETATM   33  C   UNL     1      -6.379   4.868  66.590  1.00  0.00    -0.040 C  
HETATM   34  O   UNL     1      -5.570   5.634  66.066  1.00  0.00    -0.013 OA 
HETATM   35  N   UNL     1      -5.924   3.842  67.347  1.00  0.00    -0.023 N  
HETATM   36  H1  UNL     1      -4.926   3.723  67.520  1.00  0.00     0.000 HD 
HETATM   37  H2  UNL     1      -6.588   3.181  67.751  1.00  0.00     0.000 HD 
ENDBRANCH  28  33
ENDBRANCH  24  25
ENDBRANCH   5  21
BRANCH   5  38
HETATM   38  O   UNL     1     -12.365  10.998  68.517  1.00  0.00    -0.536 OA 
HETATM   39  C   UNL     1     -12.332  11.676  69.773  1.00  0.00    -0.133 C  
ENDBRANCH   5  38
TORSDOF 7
ENDMDL
MODEL       21
REMARK 921   NORMALIZED FREE ENERGY PREDICTED BY IDOCK:   -6.08 KCAL/MOL
REMARK 922        TOTAL FREE ENERGY PREDICTED BY IDOCK:  -10.02 KCAL/MOL
REMARK 923 INTER-LIGAND FREE ENERGY PREDICTED BY IDOCK:   -8.75 KCAL/MOL
REMARK 924 INTRA-LIGAND FREE ENERGY PREDICTED BY IDOCK:   -1.27 KCAL/MOL
REMARK 927      BINDING AFFINITY PREDICTED BY RF-SCORE:    0.00 PKD
ROOT
HETATM    1  C   UNL     1     -11.208   6.767  71.060  1.00  0.00    -0.290 C  
HETATM    2  S   UNL     1     -11.243   6.222  69.332  1.00  0.00    -0.365 SA 
HETATM    3  C   UNL     1     -10.180   4.791  69.649  1.00  0.00    -0.130 C  
HETATM    4  C   UNL     1      -8.909   5.111  70.428  1.00  0.00    -0.148 C  
HETATM    5  C   UNL     1     -11.534   8.308  71.329  1.00  0.00    -0.274 C  
HETATM    6  C   UNL     1      -8.779   6.176  71.277  1.00  0.00    -0.132 C  
HETATM    7  N   UNL     1      -9.830   7.046  71.430  1.00  0.00    -0.177 N  
HETATM    8  C   UNL     1      -7.462   6.400  72.011  1.00  0.00    -0.093 C  
HETATM    9  O   UNL     1      -6.497   5.657  71.899  1.00  0.00    -0.048 OA 
HETATM   10  O   UNL     1      -7.383   7.426  72.871  1.00  0.00    -0.071 OA 
HETATM   11  O   UNL     1      -9.353   8.928  72.690  1.00  0.00    -0.266 OA 
HETATM   12  C   UNL     1     -10.071   8.253  71.986  1.00  0.00    -0.261 C  
ENDROOT
BRANCH   4  13
HETATM   13  C   UNL     1      -7.789   4.133  70.060  1.00  0.00    -0.052 C  
BRANCH  13  14
HETATM   14  S   UNL     1      -6.938   4.659  68.545  1.00  0.00    -0.053 SA 
BRANCH  14  15
HETATM   15  C   UNL     1      -7.799   3.724  67.374  1.00  0.00    -0.083 A  
HETATM   16  N   UNL     1      -7.887   2.415  67.343  1.00  0.00    -0.064 NA 
HETATM   17  C   UNL     1      -8.689   5.590  65.892  1.00  0.00    -0.145 C  
HETATM   18  N   UNL     1      -8.610   2.113  66.212  1.00  0.00    -0.107 NA 
HETATM   19  N   UNL     1      -8.467   4.230  66.295  1.00  0.00    -0.112 NA 
HETATM   20  N   UNL     1      -8.970   3.215  65.568  1.00  0.00    -0.139 NA 
ENDBRANCH  14  15
ENDBRANCH  13  14
ENDBRANCH   4  13
BRANCH   5  21
HETATM   21  N   UNL     1     -11.723   9.109  70.084  1.00  0.00    -0.465 N  
HETATM   22  O   UNL     1     -11.752  11.158  71.059  1.00  0.00    -0.176 OA 
HETATM   23  H   UNL     1     -11.774   8.598  69.203  1.00  0.00     0.000 HD 
HETATM   24  C   UNL     1     -11.833  10.484  70.027  1.00  0.00    -0.308 C  
BRANCH  24  25
HETATM   25  C   UNL     1     -12.033  11.108  68.597  1.00  0.00    -0.219 C  
HETATM   26  S   UNL     1     -11.571  12.882  68.461  1.00  0.00    -0.344 SA 
HETATM   27  C   UNL     1     -11.274  12.210  66.863  1.00  0.00    -0.320 C  
HETATM   28  C   UNL     1     -11.406  12.733  65.620  1.00  0.00    -0.354 C  
HETATM   29  S   UNL     1     -10.663  10.678  67.460  1.00  0.00    -0.292 SA 
HETATM   30  O   UNL     1     -11.273  12.492  63.235  1.00  0.00    -0.452 OA 
HETATM   31  C   UNL     1     -11.065  11.894  64.434  1.00  0.00    -0.336 C  
HETATM   32  O   UNL     1     -10.619  10.759  64.479  1.00  0.00    -0.336 OA 
BRANCH  28  33
HETATM   33  C   UNL     1     -11.938  14.112  65.428  1.00  0.00    -0.381 C  
HETATM   34  O   UNL     1     -13.144  14.327  65.556  1.00  0.00    -0.639 OA 
HETATM   35  N   UNL     1     -11.120  15.126  65.059  1.00  0.00    -0.398 N  
HETATM   36  H1  UNL     1     -11.484  16.070  64.928  1.00  0.00     0.000 HD 
HETATM   37  H2  UNL     1     -10.127  14.944  64.912  1.00  0.00     0.000 HD 
ENDBRANCH  28  33
ENDBRANCH  24  25
ENDBRANCH   5  21
BRANCH   5  38
HETATM   38  O   UNL     1     -12.602   8.545  72.288  1.00  0.00    -0.359 OA 
HETATM   39  C   UNL     1     -13.906   8.140  71.873  1.00  0.00    -0.364 C  
ENDBRANCH   5  38
TORSDOF 7
ENDMDL
MODEL       22
REMARK 921   NORMALIZED FREE ENERGY PREDICTED BY IDOCK:   -6.07 KCAL/MOL
REMARK 922        TOTAL FREE ENERGY PREDICTED BY IDOCK:  -10.01 KCAL/MOL
REMARK 923 INTER-LIGAND FREE ENERGY PREDICTED BY IDOCK:   -8.80 KCAL/MOL
REMARK 924 INTRA-LIGAND FREE ENERGY PREDICTED BY IDOCK:   -1.21 KCAL/MOL
REMARK 927      BINDING AFFINITY PREDICTED BY RF-SCORE:    0.00 PKD
ROOT
HETATM    1  C   UNL     1     -10.395  11.360  67.132  1.00  0.00    -0.212 C  
HETATM    2  S   UNL     1      -8.642  11.583  66.727  1.00  0.00    -0.172 SA 
HETATM    3  C   UNL     1      -8.202   9.899  67.222  1.00  0.00    -0.121 C  
HETATM    4  C   UNL     1      -8.726   9.488  68.594  1.00  0.00    -0.127 C  
HETATM    5  C   UNL     1     -11.236  12.689  67.418  1.00  0.00    -0.290 C  
HETATM    6  C   UNL     1      -9.829  10.037  69.188  1.00  0.00    -0.205 C  
HETATM    7  N   UNL     1     -10.506  11.045  68.547  1.00  0.00    -0.180 N  
HETATM    8  C   UNL     1     -10.268   9.548  70.563  1.00  0.00    -0.287 C  
HETATM    9  O   UNL     1      -9.691   8.660  71.175  1.00  0.00    -0.187 OA 
HETATM   10  O   UNL     1     -11.381  10.074  71.097  1.00  0.00    -0.360 OA 
HETATM   11  O   UNL     1     -12.180  12.036  69.801  1.00  0.00    -0.244 OA 
HETATM   12  C   UNL     1     -11.477  11.944  68.819  1.00  0.00    -0.290 C  
ENDROOT
BRANCH   4  13
HETATM   13  C   UNL     1      -7.800   8.451  69.238  1.00  0.00    -0.104 C  
BRANCH  13  14
HETATM   14  S   UNL     1      -7.286   7.198  68.029  1.00  0.00    -0.093 SA 
BRANCH  14  15
HETATM   15  C   UNL     1      -8.408   5.938  68.404  1.00  0.00    -0.112 A  
HETATM   16  N   UNL     1      -9.181   5.883  69.464  1.00  0.00    -0.134 NA 
HETATM   17  C   UNL     1      -8.023   4.401  66.414  1.00  0.00    -0.099 C  
HETATM   18  N   UNL     1      -9.851   4.684  69.378  1.00  0.00    -0.206 NA 
HETATM   19  N   UNL     1      -8.602   4.806  67.664  1.00  0.00    -0.104 NA 
HETATM   20  N   UNL     1      -9.506   4.022  68.281  1.00  0.00    -0.164 NA 
ENDBRANCH  14  15
ENDBRANCH  13  14
ENDBRANCH   4  13
BRANCH   5  21
HETATM   21  N   UNL     1     -10.414  13.934  67.410  1.00  0.00    -0.262 N  
HETATM   22  O   UNL     1     -11.894  15.265  68.499  1.00  0.00    -0.338 OA 
HETATM   23  H   UNL     1      -9.492  13.883  66.977  1.00  0.00     0.000 HD 
HETATM   24  C   UNL     1     -10.799  15.149  67.940  1.00  0.00    -0.291 C  
BRANCH  24  25
HETATM   25  C   UNL     1      -9.765  16.326  67.807  1.00  0.00    -0.233 C  
HETATM   26  S   UNL     1      -8.829  16.353  66.226  1.00  0.00    -0.326 SA 
HETATM   27  C   UNL     1      -8.937  18.038  66.719  1.00  0.00    -0.269 C  
HETATM   28  C   UNL     1      -8.078  19.077  66.589  1.00  0.00    -0.285 C  
HETATM   29  S   UNL     1     -10.572  17.903  67.340  1.00  0.00    -0.315 SA 
HETATM   30  O   UNL     1      -7.524  21.381  66.983  1.00  0.00    -0.360 OA 
HETATM   31  C   UNL     1      -8.467  20.417  67.121  1.00  0.00    -0.318 C  
HETATM   32  O   UNL     1      -9.540  20.686  67.636  1.00  0.00    -0.381 OA 
BRANCH  28  33
HETATM   33  C   UNL     1      -6.735  18.884  65.974  1.00  0.00    -0.240 C  
HETATM   34  O   UNL     1      -6.610  18.928  64.750  1.00  0.00    -0.501 OA 
HETATM   35  N   UNL     1      -5.654  18.605  66.740  1.00  0.00    -0.146 N  
HETATM   36  H1  UNL     1      -4.735  18.473  66.319  1.00  0.00     0.000 HD 
HETATM   37  H2  UNL     1      -5.761  18.527  67.752  1.00  0.00     0.000 HD 
ENDBRANCH  28  33
ENDBRANCH  24  25
ENDBRANCH   5  21
BRANCH   5  38
HETATM   38  O   UNL     1     -12.439  12.832  66.613  1.00  0.00    -0.373 OA 
HETATM   39  C   UNL     1     -12.230  12.937  65.206  1.00  0.00    -0.476 C  
ENDBRANCH   5  38
TORSDOF 7
ENDMDL
MODEL       23
REMARK 921   NORMALIZED FREE ENERGY PREDICTED BY IDOCK:   -6.04 KCAL/MOL
REMARK 922        TOTAL FREE ENERGY PREDICTED BY IDOCK:   -9.96 KCAL/MOL
REMARK 923 INTER-LIGAND FREE ENERGY PREDICTED BY IDOCK:   -8.90 KCAL/MOL
REMARK 924 INTRA-LIGAND FREE ENERGY PREDICTED BY IDOCK:   -1.07 KCAL/MOL
REMARK 927      BINDING AFFINITY PREDICTED BY RF-SCORE:    0.00 PKD
ROOT
HETATM    1  C   UNL     1     -10.465  11.752  66.731  1.00  0.00    -0.225 C  
HETATM    2  S   UNL     1     -11.511  11.743  68.212  1.00  0.00    -0.327 SA 
HETATM    3  C   UNL     1     -11.302  13.517  68.502  1.00  0.00    -0.292 C  
HETATM    4  C   UNL     1      -9.855  13.994  68.471  1.00  0.00    -0.225 C  
HETATM    5  C   UNL     1      -9.815  10.354  66.308  1.00  0.00    -0.218 C  
HETATM    6  C   UNL     1      -8.854  13.359  67.788  1.00  0.00    -0.199 C  
HETATM    7  N   UNL     1      -9.134  12.200  67.108  1.00  0.00    -0.183 N  
HETATM    8  C   UNL     1      -7.439  13.926  67.822  1.00  0.00    -0.167 C  
HETATM    9  O   UNL     1      -7.141  14.950  68.420  1.00  0.00    -0.103 OA 
HETATM   10  O   UNL     1      -6.491  13.306  67.104  1.00  0.00    -0.224 OA 
HETATM   11  O   UNL     1      -7.284  11.119  66.234  1.00  0.00    -0.122 OA 
HETATM   12  C   UNL     1      -8.466  11.204  66.487  1.00  0.00    -0.165 C  
ENDROOT
BRANCH   4  13
HETATM   13  C   UNL     1      -9.669  15.219  69.373  1.00  0.00    -0.247 C  
BRANCH  13  14
HETATM   14  S   UNL     1     -11.020  16.409  69.140  1.00  0.00    -0.310 SA 
BRANCH  14  15
HETATM   15  C   UNL     1     -10.643  16.987  67.555  1.00  0.00    -0.310 A  
HETATM   16  N   UNL     1     -10.603  16.265  66.459  1.00  0.00    -0.291 NA 
HETATM   17  C   UNL     1     -10.204  19.438  68.074  1.00  0.00    -0.423 C  
HETATM   18  N   UNL     1     -10.201  17.121  65.459  1.00  0.00    -0.615 NA 
HETATM   19  N   UNL     1     -10.289  18.269  67.245  1.00  0.00    -0.373 NA 
HETATM   20  N   UNL     1     -10.010  18.347  65.929  1.00  0.00    -0.539 NA 
ENDBRANCH  14  15
ENDBRANCH  13  14
ENDBRANCH   4  13
BRANCH   5  21
HETATM   21  N   UNL     1     -10.088   9.249  67.272  1.00  0.00    -0.213 N  
HETATM   22  O   UNL     1      -8.521   7.799  66.501  1.00  0.00    -0.121 OA 
HETATM   23  H   UNL     1     -10.819   9.403  67.966  1.00  0.00     0.000 HD 
HETATM   24  C   UNL     1      -9.433   8.033  67.300  1.00  0.00    -0.155 C  
BRANCH  24  25
HETATM   25  C   UNL     1      -9.898   7.017  68.406  1.00  0.00    -0.146 C  
HETATM   26  S   UNL     1      -8.533   6.241  69.362  1.00  0.00    -0.125 SA 
HETATM   27  C   UNL     1      -9.892   6.300  70.476  1.00  0.00    -0.177 C  
HETATM   28  C   UNL     1     -10.298   5.458  71.457  1.00  0.00    -0.289 C  
HETATM   29  S   UNL     1     -10.462   7.865  69.929  1.00  0.00    -0.231 SA 
HETATM   30  O   UNL     1     -11.867   4.867  73.176  1.00  0.00    -0.279 OA 
HETATM   31  C   UNL     1     -11.518   5.792  72.249  1.00  0.00    -0.262 C  
HETATM   32  O   UNL     1     -12.181   6.809  72.125  1.00  0.00    -0.291 OA 
BRANCH  28  33
HETATM   33  C   UNL     1      -9.572   4.182  71.713  1.00  0.00    -0.156 C  
HETATM   34  O   UNL     1      -9.767   3.208  70.985  1.00  0.00    -0.162 OA 
HETATM   35  N   UNL     1      -8.736   4.059  72.771  1.00  0.00    -0.099 N  
HETATM   36  H1  UNL     1      -8.240   3.186  72.947  1.00  0.00     0.000 HD 
HETATM   37  H2  UNL     1      -8.602   4.850  73.401  1.00  0.00     0.000 HD 
ENDBRANCH  28  33
ENDBRANCH  24  25
ENDBRANCH   5  21
BRANCH   5  38
HETATM   38  O   UNL     1     -10.080   9.952  64.936  1.00  0.00    -0.268 OA 
HETATM   39  C   UNL     1     -10.498  10.995  64.057  1.00  0.00    -0.366 C  
ENDBRANCH   5  38
TORSDOF 7
ENDMDL
MODEL       24
REMARK 921   NORMALIZED FREE ENERGY PREDICTED BY IDOCK:   -5.99 KCAL/MOL
REMARK 922        TOTAL FREE ENERGY PREDICTED BY IDOCK:   -9.89 KCAL/MOL
REMARK 923 INTER-LIGAND FREE ENERGY PREDICTED BY IDOCK:   -8.62 KCAL/MOL
REMARK 924 INTRA-LIGAND FREE ENERGY PREDICTED BY IDOCK:   -1.27 KCAL/MOL
REMARK 927      BINDING AFFINITY PREDICTED BY RF-SCORE:    0.00 PKD
ROOT
HETATM    1  C   UNL     1      -9.515  10.197  68.129  1.00  0.00    -0.142 C  
HETATM    2  S   UNL     1      -7.937  10.808  68.779  1.00  0.00    -0.144 SA 
HETATM    3  C   UNL     1      -7.790   9.466  69.985  1.00  0.00    -0.132 C  
HETATM    4  C   UNL     1      -9.040   9.237  70.827  1.00  0.00    -0.306 C  
HETATM    5  C   UNL     1     -10.443  11.265  67.385  1.00  0.00    -0.212 C  
HETATM    6  C   UNL     1     -10.305   9.571  70.427  1.00  0.00    -0.276 C  
HETATM    7  N   UNL     1     -10.486  10.182  69.211  1.00  0.00    -0.210 N  
HETATM    8  C   UNL     1     -11.487   9.293  71.349  1.00  0.00    -0.369 C  
HETATM    9  O   UNL     1     -11.372   8.759  72.444  1.00  0.00    -0.338 OA 
HETATM   10  O   UNL     1     -12.718   9.589  70.907  1.00  0.00    -0.262 OA 
HETATM   11  O   UNL     1     -12.645  10.913  68.807  1.00  0.00    -0.317 OA 
HETATM   12  C   UNL     1     -11.470  10.809  68.531  1.00  0.00    -0.292 C  
ENDROOT
BRANCH   4  13
HETATM   13  C   UNL     1      -8.669   8.670  72.201  1.00  0.00    -0.147 C  
BRANCH  13  14
HETATM   14  S   UNL     1      -7.736   7.121  72.036  1.00  0.00    -0.091 SA 
BRANCH  14  15
HETATM   15  C   UNL     1      -9.014   5.975  72.239  1.00  0.00    -0.141 A  
HETATM   16  N   UNL     1      -9.911   5.981  73.197  1.00  0.00    -0.173 NA 
HETATM   17  C   UNL     1      -8.545   4.441  70.265  1.00  0.00    -0.076 C  
HETATM   18  N   UNL     1     -10.681   4.857  72.998  1.00  0.00    -0.224 NA 
HETATM   19  N   UNL     1      -9.228   4.882  71.449  1.00  0.00    -0.142 NA 
HETATM   20  N   UNL     1     -10.272   4.183  71.931  1.00  0.00    -0.152 NA 
ENDBRANCH  14  15
ENDBRANCH  13  14
ENDBRANCH   4  13
BRANCH   5  21
HETATM   21  N   UNL     1      -9.908  12.657  67.426  1.00  0.00    -0.203 N  
HETATM   22  O   UNL     1     -11.800  13.714  66.755  1.00  0.00    -0.367 OA 
HETATM   23  H   UNL     1      -8.939  12.777  67.721  1.00  0.00     0.000 HD 
HETATM   24  C   UNL     1     -10.616  13.795  67.096  1.00  0.00    -0.277 C  
BRANCH  24  25
HETATM   25  C   UNL     1      -9.838  15.157  67.210  1.00  0.00    -0.228 C  
HETATM   26  S   UNL     1     -10.823  16.551  67.893  1.00  0.00    -0.290 SA 
HETATM   27  C   UNL     1      -9.164  16.889  68.369  1.00  0.00    -0.253 C  
HETATM   28  C   UNL     1      -8.479  18.050  68.506  1.00  0.00    -0.314 C  
HETATM   29  S   UNL     1      -8.759  15.213  68.689  1.00  0.00    -0.183 SA 
HETATM   30  O   UNL     1      -6.440  19.217  69.004  1.00  0.00    -0.263 OA 
HETATM   31  C   UNL     1      -7.051  18.008  68.939  1.00  0.00    -0.263 C  
HETATM   32  O   UNL     1      -6.434  16.998  69.235  1.00  0.00    -0.208 OA 
BRANCH  28  33
HETATM   33  C   UNL     1      -9.119  19.355  68.179  1.00  0.00    -0.333 C  
HETATM   34  O   UNL     1     -10.057  19.766  68.863  1.00  0.00    -0.455 OA 
HETATM   35  N   UNL     1      -8.718  20.075  67.105  1.00  0.00    -0.327 N  
HETATM   36  H1  UNL     1      -9.156  20.968  66.881  1.00  0.00     0.000 HD 
HETATM   37  H2  UNL     1      -7.969  19.718  66.511  1.00  0.00     0.000 HD 
ENDBRANCH  28  33
ENDBRANCH  24  25
ENDBRANCH   5  21
BRANCH   5  38
HETATM   38  O   UNL     1     -10.851  10.883  66.042  1.00  0.00    -0.195 OA 
HETATM   39  C   UNL     1      -9.864  10.205  65.266  1.00  0.00    -0.319 C  
ENDBRANCH   5  38
TORSDOF 7
ENDMDL
MODEL       25
REMARK 921   NORMALIZED FREE ENERGY PREDICTED BY IDOCK:   -5.85 KCAL/MOL
REMARK 922        TOTAL FREE ENERGY PREDICTED BY IDOCK:   -9.69 KCAL/MOL
REMARK 923 INTER-LIGAND FREE ENERGY PREDICTED BY IDOCK:   -9.03 KCAL/MOL
REMARK 924 INTRA-LIGAND FREE ENERGY PREDICTED BY IDOCK:   -0.66 KCAL/MOL
REMARK 927      BINDING AFFINITY PREDICTED BY RF-SCORE:    0.00 PKD
ROOT
HETATM    1  C   UNL     1      -8.822  10.082  69.537  1.00  0.00    -0.195 C  
HETATM    2  S   UNL     1      -8.445  10.022  67.764  1.00  0.00    -0.114 SA 
HETATM    3  C   UNL     1      -8.746  11.792  67.531  1.00  0.00    -0.159 C  
HETATM    4  C   UNL     1     -10.062  12.290  68.117  1.00  0.00    -0.211 C  
HETATM    5  C   UNL     1      -9.258   8.705  70.221  1.00  0.00    -0.166 C  
HETATM    6  C   UNL     1     -10.714  11.686  69.157  1.00  0.00    -0.145 C  
HETATM    7  N   UNL     1     -10.193  10.539  69.703  1.00  0.00    -0.207 N  
HETATM    8  C   UNL     1     -12.026  12.272  69.668  1.00  0.00    -0.279 C  
HETATM    9  O   UNL     1     -12.532  13.285  69.207  1.00  0.00    -0.102 OA 
HETATM   10  O   UNL     1     -12.615  11.682  70.719  1.00  0.00    -0.326 OA 
HETATM   11  O   UNL     1     -11.551   9.506  71.266  1.00  0.00    -0.314 OA 
HETATM   12  C   UNL     1     -10.565   9.569  70.565  1.00  0.00    -0.297 C  
ENDROOT
BRANCH   4  13
HETATM   13  C   UNL     1     -10.584  13.494  67.327  1.00  0.00    -0.263 C  
BRANCH  13  14
HETATM   14  S   UNL     1     -10.245  13.306  65.553  1.00  0.00    -0.270 SA 
BRANCH  14  15
HETATM   15  C   UNL     1     -10.909  14.787  64.959  1.00  0.00    -0.425 A  
HETATM   16  N   UNL     1     -11.948  14.904  64.166  1.00  0.00    -0.442 NA 
HETATM   17  C   UNL     1      -9.301  16.446  66.023  1.00  0.00    -0.300 C  
HETATM   18  N   UNL     1     -12.073  16.250  63.907  1.00  0.00    -0.820 NA 
HETATM   19  N   UNL     1     -10.405  16.033  65.204  1.00  0.00    -0.556 NA 
HETATM   20  N   UNL     1     -11.137  16.946  64.538  1.00  0.00    -1.071 NA 
ENDBRANCH  14  15
ENDBRANCH  13  14
ENDBRANCH   4  13
BRANCH   5  21
HETATM   21  N   UNL     1      -9.390   7.572  69.259  1.00  0.00    -0.151 N  
HETATM   22  O   UNL     1     -10.914   6.370  70.436  1.00  0.00    -0.258 OA 
HETATM   23  H   UNL     1      -8.837   7.617  68.404  1.00  0.00     0.000 HD 
HETATM   24  C   UNL     1     -10.201   6.467  69.432  1.00  0.00    -0.183 C  
BRANCH  24  25
HETATM   25  C   UNL     1     -10.172   5.395  68.282  1.00  0.00    -0.160 C  
HETATM   26  S   UNL     1     -10.459   6.066  66.595  1.00  0.00    -0.203 SA 
HETATM   27  C   UNL     1      -9.420   4.668  66.357  1.00  0.00    -0.166 C  
HETATM   28  C   UNL     1      -9.351   3.748  65.365  1.00  0.00    -0.159 C  
HETATM   29  S   UNL     1      -8.461   4.950  67.798  1.00  0.00    -0.103 SA 
HETATM   30  O   UNL     1      -8.376   1.762  64.432  1.00  0.00    -0.076 OA 
HETATM   31  C   UNL     1      -8.337   2.656  65.450  1.00  0.00    -0.096 C  
HETATM   32  O   UNL     1      -7.505   2.534  66.334  1.00  0.00    -0.068 OA 
BRANCH  28  33
HETATM   33  C   UNL     1     -10.308   3.786  64.223  1.00  0.00    -0.245 C  
HETATM   34  O   UNL     1     -11.492   4.058  64.425  1.00  0.00    -0.203 OA 
HETATM   35  N   UNL     1      -9.905   3.474  62.969  1.00  0.00    -0.120 N  
HETATM   36  H1  UNL     1     -10.561   3.500  62.188  1.00  0.00     0.000 HD 
HETATM   37  H2  UNL     1      -8.934   3.209  62.803  1.00  0.00     0.000 HD 
ENDBRANCH  28  33
ENDBRANCH  24  25
ENDBRANCH   5  21
BRANCH   5  38
HETATM   38  O   UNL     1      -8.474   8.331  71.388  1.00  0.00    -0.115 OA 
HETATM   39  C   UNL     1      -7.058   8.340  71.209  1.00  0.00    -0.063 C  
ENDBRANCH   5  38
TORSDOF 7
ENDMDL
MODEL       26
REMARK 921   NORMALIZED FREE ENERGY PREDICTED BY IDOCK:   -5.84 KCAL/MOL
REMARK 922        TOTAL FREE ENERGY PREDICTED BY IDOCK:   -9.69 KCAL/MOL
REMARK 923 INTER-LIGAND FREE ENERGY PREDICTED BY IDOCK:   -8.38 KCAL/MOL
REMARK 924 INTRA-LIGAND FREE ENERGY PREDICTED BY IDOCK:   -1.31 KCAL/MOL
REMARK 927      BINDING AFFINITY PREDICTED BY RF-SCORE:    0.00 PKD
ROOT
HETATM    1  C   UNL     1      -9.169  12.160  66.751  1.00  0.00    -0.207 C  
HETATM    2  S   UNL     1     -10.423  12.373  68.043  1.00  0.00    -0.223 SA 
HETATM    3  C   UNL     1     -10.363  14.180  67.955  1.00  0.00    -0.231 C  
HETATM    4  C   UNL     1      -8.958  14.767  68.011  1.00  0.00    -0.174 C  
HETATM    5  C   UNL     1      -8.383  10.769  66.741  1.00  0.00    -0.136 C  
HETATM    6  C   UNL     1      -7.831  14.093  67.627  1.00  0.00    -0.179 C  
HETATM    7  N   UNL     1      -7.938  12.796  67.193  1.00  0.00    -0.147 N  
HETATM    8  C   UNL     1      -6.472  14.779  67.721  1.00  0.00    -0.164 C  
HETATM    9  O   UNL     1      -6.327  15.929  68.111  1.00  0.00    -0.110 OA 
HETATM   10  O   UNL     1      -5.393  14.107  67.293  1.00  0.00    -0.294 OA 
HETATM   11  O   UNL     1      -5.918  11.723  66.836  1.00  0.00    -0.134 OA 
HETATM   12  C   UNL     1      -7.128  11.755  66.904  1.00  0.00    -0.097 C  
ENDROOT
BRANCH   4  13
HETATM   13  C   UNL     1      -8.981  16.167  68.634  1.00  0.00    -0.221 C  
BRANCH  13  14
HETATM   14  S   UNL     1     -10.670  16.832  68.676  1.00  0.00    -0.342 SA 
BRANCH  14  15
HETATM   15  C   UNL     1     -10.512  18.129  67.545  1.00  0.00    -0.410 A  
HETATM   16  N   UNL     1     -10.412  19.405  67.841  1.00  0.00    -0.425 NA 
HETATM   17  C   UNL     1     -10.582  16.822  65.364  1.00  0.00    -0.203 C  
HETATM   18  N   UNL     1     -10.371  20.069  66.637  1.00  0.00    -0.456 NA 
HETATM   19  N   UNL     1     -10.518  17.998  66.185  1.00  0.00    -0.395 NA 
HETATM   20  N   UNL     1     -10.433  19.218  65.621  1.00  0.00    -0.520 NA 
ENDBRANCH  14  15
ENDBRANCH  13  14
ENDBRANCH   4  13
BRANCH   5  21
HETATM   21  N   UNL     1      -8.733   9.873  67.882  1.00  0.00    -0.128 N  
HETATM   22  O   UNL     1      -6.928   8.505  67.740  1.00  0.00    -0.072 OA 
HETATM   23  H   UNL     1      -9.591  10.079  68.392  1.00  0.00     0.000 HD 
HETATM   24  C   UNL     1      -7.990   8.788  68.303  1.00  0.00    -0.106 C  
BRANCH  24  25
HETATM   25  C   UNL     1      -8.562   7.985  69.528  1.00  0.00    -0.136 C  
HETATM   26  S   UNL     1     -10.338   8.295  69.890  1.00  0.00    -0.221 SA 
HETATM   27  C   UNL     1     -10.049   6.641  70.414  1.00  0.00    -0.183 C  
HETATM   28  C   UNL     1     -10.550   5.916  71.443  1.00  0.00    -0.309 C  
HETATM   29  S   UNL     1      -8.969   6.254  69.088  1.00  0.00    -0.127 SA 
HETATM   30  O   UNL     1     -10.624   3.878  72.710  1.00  0.00    -0.171 OA 
HETATM   31  C   UNL     1     -10.100   4.505  71.628  1.00  0.00    -0.179 C  
HETATM   32  O   UNL     1      -9.333   3.907  70.891  1.00  0.00    -0.124 OA 
BRANCH  28  33
HETATM   33  C   UNL     1     -11.498   6.528  72.415  1.00  0.00    -0.271 C  
HETATM   34  O   UNL     1     -11.072   7.255  73.312  1.00  0.00    -0.331 OA 
HETATM   35  N   UNL     1     -12.823   6.253  72.359  1.00  0.00    -0.493 N  
HETATM   36  H1  UNL     1     -13.473   6.672  73.024  1.00  0.00     0.000 HD 
HETATM   37  H2  UNL     1     -13.176   5.619  71.641  1.00  0.00     0.000 HD 
ENDBRANCH  28  33
ENDBRANCH  24  25
ENDBRANCH   5  21
BRANCH   5  38
HETATM   38  O   UNL     1      -8.416  10.061  65.471  1.00  0.00    -0.136 OA 
HETATM   39  C   UNL     1      -9.664  10.092  64.780  1.00  0.00    -0.322 C  
ENDBRANCH   5  38
TORSDOF 7
ENDMDL
MODEL       27
REMARK 921   NORMALIZED FREE ENERGY PREDICTED BY IDOCK:   -5.83 KCAL/MOL
REMARK 922        TOTAL FREE ENERGY PREDICTED BY IDOCK:   -9.67 KCAL/MOL
REMARK 923 INTER-LIGAND FREE ENERGY PREDICTED BY IDOCK:   -8.49 KCAL/MOL
REMARK 924 INTRA-LIGAND FREE ENERGY PREDICTED BY IDOCK:   -1.18 KCAL/MOL
REMARK 927      BINDING AFFINITY PREDICTED BY RF-SCORE:    0.00 PKD
ROOT
HETATM    1  C   UNL     1     -11.009  14.718  68.822  1.00  0.00    -0.259 C  
HETATM    2  S   UNL     1      -9.259  14.996  69.206  1.00  0.00    -0.110 SA 
HETATM    3  C   UNL     1      -9.231  16.622  68.411  1.00  0.00    -0.225 C  
HETATM    4  C   UNL     1      -9.821  16.647  67.006  1.00  0.00    -0.260 C  
HETATM    5  C   UNL     1     -11.502  13.198  68.798  1.00  0.00    -0.307 C  
HETATM    6  C   UNL     1     -10.752  15.754  66.551  1.00  0.00    -0.283 C  
HETATM    7  N   UNL     1     -11.175  14.743  67.377  1.00  0.00    -0.328 N  
HETATM    8  C   UNL     1     -11.278  15.873  65.125  1.00  0.00    -0.224 C  
HETATM    9  O   UNL     1     -10.925  16.750  64.350  1.00  0.00    -0.974 OA 
HETATM   10  O   UNL     1     -12.225  15.010  64.725  1.00  0.00    -0.331 OA 
HETATM   11  O   UNL     1     -12.545  13.174  66.367  1.00  0.00    -0.332 OA 
HETATM   12  C   UNL     1     -11.897  13.604  67.296  1.00  0.00    -0.391 C  
ENDROOT
BRANCH   4  13
HETATM   13  C   UNL     1      -9.163  17.744  66.162  1.00  0.00    -0.115 C  
BRANCH  13  14
HETATM   14  S   UNL     1      -7.353  17.635  66.251  1.00  0.00    -0.317 SA 
BRANCH  14  15
HETATM   15  C   UNL     1      -6.951  19.316  66.281  1.00  0.00    -0.226 A  
HETATM   16  N   UNL     1      -6.527  20.027  65.261  1.00  0.00    -0.258 NA 
HETATM   17  C   UNL     1      -7.385  19.828  68.734  1.00  0.00    -0.304 C  
HETATM   18  N   UNL     1      -6.274  21.285  65.760  1.00  0.00    -0.183 NA 
HETATM   19  N   UNL     1      -6.977  20.115  67.388  1.00  0.00    -0.239 NA 
HETATM   20  N   UNL     1      -6.549  21.348  67.056  1.00  0.00    -0.558 NA 
ENDBRANCH  14  15
ENDBRANCH  13  14
ENDBRANCH   4  13
BRANCH   5  21
HETATM   21  N   UNL     1     -10.405  12.208  68.998  1.00  0.00    -0.421 N  
HETATM   22  O   UNL     1     -11.421  10.444  67.995  1.00  0.00    -0.356 OA 
HETATM   23  H   UNL     1      -9.562  12.533  69.472  1.00  0.00     0.000 HD 
HETATM   24  C   UNL     1     -10.437  10.887  68.596  1.00  0.00    -0.194 C  
BRANCH  24  25
HETATM   25  C   UNL     1      -9.161  10.028  68.923  1.00  0.00    -0.159 C  
HETATM   26  S   UNL     1      -9.256   9.077  70.493  1.00  0.00    -0.240 SA 
HETATM   27  C   UNL     1      -8.215   8.122  69.446  1.00  0.00    -0.121 C  
HETATM   28  C   UNL     1      -7.133   7.349  69.703  1.00  0.00    -0.072 C  
HETATM   29  S   UNL     1      -9.133   8.453  67.988  1.00  0.00    -0.137 SA 
HETATM   30  O   UNL     1      -5.352   5.936  68.929  1.00  0.00    -0.003 OA 
HETATM   31  C   UNL     1      -6.451   6.648  68.576  1.00  0.00    -0.049 C  
HETATM   32  O   UNL     1      -6.814   6.668  67.411  1.00  0.00    -0.067 OA 
BRANCH  28  33
HETATM   33  C   UNL     1      -6.589   7.237  71.086  1.00  0.00    -0.044 C  
HETATM   34  O   UNL     1      -7.218   6.617  71.944  1.00  0.00    -0.082 OA 
HETATM   35  N   UNL     1      -5.433   7.854  71.429  1.00  0.00    -0.034 N  
HETATM   36  H1  UNL     1      -5.061   7.777  72.375  1.00  0.00     0.000 HD 
HETATM   37  H2  UNL     1      -4.929   8.403  70.732  1.00  0.00     0.000 HD 
ENDBRANCH  28  33
ENDBRANCH  24  25
ENDBRANCH   5  21
BRANCH   5  38
HETATM   38  O   UNL     1     -12.645  12.917  69.652  1.00  0.00     0.050 OA 
HETATM   39  C   UNL     1     -12.513  13.322  71.013  1.00  0.00    -0.336 C  
ENDBRANCH   5  38
TORSDOF 7
ENDMDL
MODEL       28
REMARK 921   NORMALIZED FREE ENERGY PREDICTED BY IDOCK:   -5.82 KCAL/MOL
REMARK 922        TOTAL FREE ENERGY PREDICTED BY IDOCK:   -9.66 KCAL/MOL
REMARK 923 INTER-LIGAND FREE ENERGY PREDICTED BY IDOCK:   -8.08 KCAL/MOL
REMARK 924 INTRA-LIGAND FREE ENERGY PREDICTED BY IDOCK:   -1.58 KCAL/MOL
REMARK 927      BINDING AFFINITY PREDICTED BY RF-SCORE:    0.00 PKD
ROOT
HETATM    1  C   UNL     1      -7.974   8.737  67.956  1.00  0.00    -0.106 C  
HETATM    2  S   UNL     1      -7.789   9.823  69.396  1.00  0.00    -0.128 SA 
HETATM    3  C   UNL     1      -7.500   8.445  70.534  1.00  0.00    -0.065 C  
HETATM    4  C   UNL     1      -8.520   7.317  70.429  1.00  0.00    -0.139 C  
HETATM    5  C   UNL     1      -8.786   9.331  66.714  1.00  0.00    -0.127 C  
HETATM    6  C   UNL     1      -9.247   7.045  69.303  1.00  0.00    -0.139 C  
HETATM    7  N   UNL     1      -9.094   7.840  68.195  1.00  0.00    -0.130 N  
HETATM    8  C   UNL     1     -10.239   5.887  69.307  1.00  0.00    -0.213 C  
HETATM    9  O   UNL     1     -10.416   5.158  70.272  1.00  0.00    -0.275 OA 
HETATM   10  O   UNL     1     -10.902   5.618  68.172  1.00  0.00    -0.202 OA 
HETATM   11  O   UNL     1     -10.583   7.405  66.477  1.00  0.00    -0.166 OA 
HETATM   12  C   UNL     1      -9.695   8.041  67.002  1.00  0.00    -0.211 C  
ENDROOT
BRANCH   4  13
HETATM   13  C   UNL     1      -8.675   6.602  71.775  1.00  0.00    -0.129 C  
BRANCH  13  14
HETATM   14  S   UNL     1      -9.542   7.653  72.975  1.00  0.00    -0.262 SA 
BRANCH  14  15
HETATM   15  C   UNL     1     -11.153   7.551  72.357  1.00  0.00    -0.301 A  
HETATM   16  N   UNL     1     -11.989   6.555  72.539  1.00  0.00    -0.141 NA 
HETATM   17  C   UNL     1     -11.274   9.751  71.085  1.00  0.00    -0.374 C  
HETATM   18  N   UNL     1     -13.117   6.875  71.819  1.00  0.00    -0.318 NA 
HETATM   19  N   UNL     1     -11.751   8.480  71.554  1.00  0.00    -0.281 NA 
HETATM   20  N   UNL     1     -12.982   8.050  71.217  1.00  0.00    -0.235 NA 
ENDBRANCH  14  15
ENDBRANCH  13  14
ENDBRANCH   4  13
BRANCH   5  21
HETATM   21  N   UNL     1      -9.369  10.680  66.967  1.00  0.00    -0.155 N  
HETATM   22  O   UNL     1     -10.721  10.757  65.146  1.00  0.00    -0.215 OA 
HETATM   23  H   UNL     1      -9.061  11.173  67.805  1.00  0.00     0.000 HD 
HETATM   24  C   UNL     1     -10.292  11.316  66.160  1.00  0.00    -0.251 C  
BRANCH  24  25
HETATM   25  C   UNL     1     -10.760  12.743  66.627  1.00  0.00    -0.261 C  
HETATM   26  S   UNL     1     -10.374  13.143  68.379  1.00  0.00    -0.243 SA 
HETATM   27  C   UNL     1     -10.351  14.690  67.543  1.00  0.00    -0.234 C  
HETATM   28  C   UNL     1     -10.717  15.936  67.931  1.00  0.00    -0.312 C  
HETATM   29  S   UNL     1      -9.605  14.058  66.087  1.00  0.00    -0.192 SA 
HETATM   30  O   UNL     1     -11.005  18.268  67.437  1.00  0.00    -0.328 OA 
HETATM   31  C   UNL     1     -10.571  17.071  66.972  1.00  0.00    -0.226 C  
HETATM   32  O   UNL     1     -10.096  16.990  65.851  1.00  0.00    -0.456 OA 
BRANCH  28  33
HETATM   33  C   UNL     1     -11.309  16.171  69.277  1.00  0.00    -0.328 C  
HETATM   34  O   UNL     1     -10.575  16.427  70.233  1.00  0.00    -0.208 OA 
HETATM   35  N   UNL     1     -12.642  16.056  69.479  1.00  0.00    -0.472 N  
HETATM   36  H1  UNL     1     -13.047  16.217  70.401  1.00  0.00     0.000 HD 
HETATM   37  H2  UNL     1     -13.250  15.804  68.699  1.00  0.00     0.000 HD 
ENDBRANCH  28  33
ENDBRANCH  24  25
ENDBRANCH   5  21
BRANCH   5  38
HETATM   38  O   UNL     1      -8.076   9.280  65.445  1.00  0.00    -0.114 OA 
HETATM   39  C   UNL     1      -6.933  10.127  65.343  1.00  0.00    -0.139 C  
ENDBRANCH   5  38
TORSDOF 7
ENDMDL
MODEL       29
REMARK 921   NORMALIZED FREE ENERGY PREDICTED BY IDOCK:   -5.82 KCAL/MOL
REMARK 922        TOTAL FREE ENERGY PREDICTED BY IDOCK:   -9.65 KCAL/MOL
REMARK 923 INTER-LIGAND FREE ENERGY PREDICTED BY IDOCK:   -8.80 KCAL/MOL
REMARK 924 INTRA-LIGAND FREE ENERGY PREDICTED BY IDOCK:   -0.85 KCAL/MOL
REMARK 927      BINDING AFFINITY PREDICTED BY RF-SCORE:    0.00 PKD
ROOT
HETATM    1  C   UNL     1      -7.545   7.805  67.095  1.00  0.00    -0.100 C  
HETATM    2  S   UNL     1      -7.136   9.260  68.097  1.00  0.00    -0.077 SA 
HETATM    3  C   UNL     1      -6.579   8.268  69.505  1.00  0.00    -0.038 C  
HETATM    4  C   UNL     1      -7.551   7.173  69.928  1.00  0.00    -0.098 C  
HETATM    5  C   UNL     1      -8.601   8.025  65.916  1.00  0.00    -0.152 C  
HETATM    6  C   UNL     1      -8.466   6.596  69.091  1.00  0.00    -0.124 C  
HETATM    7  N   UNL     1      -8.560   7.033  67.793  1.00  0.00    -0.123 N  
HETATM    8  C   UNL     1      -9.390   5.504  69.619  1.00  0.00    -0.134 C  
HETATM    9  O   UNL     1      -9.349   5.089  70.769  1.00  0.00    -0.141 OA 
HETATM   10  O   UNL     1     -10.243   4.927  68.760  1.00  0.00    -0.142 OA 
HETATM   11  O   UNL     1     -10.328   6.140  66.595  1.00  0.00    -0.201 OA 
HETATM   12  C   UNL     1      -9.384   6.888  66.733  1.00  0.00    -0.158 C  
ENDROOT
BRANCH   4  13
HETATM   13  C   UNL     1      -7.418   6.881  71.426  1.00  0.00    -0.082 C  
BRANCH  13  14
HETATM   14  S   UNL     1      -7.768   8.365  72.412  1.00  0.00    -0.054 SA 
BRANCH  14  15
HETATM   15  C   UNL     1      -9.485   8.445  72.238  1.00  0.00    -0.297 A  
HETATM   16  N   UNL     1     -10.141   9.196  71.383  1.00  0.00    -0.325 NA 
HETATM   17  C   UNL     1     -10.188   6.809  74.055  1.00  0.00    -0.369 C  
HETATM   18  N   UNL     1     -11.475   8.985  71.644  1.00  0.00    -0.336 NA 
HETATM   19  N   UNL     1     -10.390   7.768  73.006  1.00  0.00    -0.323 NA 
HETATM   20  N   UNL     1     -11.637   8.113  72.630  1.00  0.00    -0.405 NA 
ENDBRANCH  14  15
ENDBRANCH  13  14
ENDBRANCH   4  13
BRANCH   5  21
HETATM   21  N   UNL     1      -9.183   9.398  65.878  1.00  0.00    -0.195 N  
HETATM   22  O   UNL     1     -10.973   8.990  67.212  1.00  0.00    -0.137 OA 
HETATM   23  H   UNL     1      -8.685  10.102  65.335  1.00  0.00     0.000 HD 
HETATM   24  C   UNL     1     -10.341   9.793  66.519  1.00  0.00    -0.192 C  
BRANCH  24  25
HETATM   25  C   UNL     1     -10.764  11.296  66.329  1.00  0.00    -0.257 C  
HETATM   26  S   UNL     1      -9.386  12.506  66.462  1.00  0.00    -0.208 SA 
HETATM   27  C   UNL     1     -10.534  13.244  65.353  1.00  0.00    -0.297 C  
HETATM   28  C   UNL     1     -10.894  14.533  65.146  1.00  0.00    -0.407 C  
HETATM   29  S   UNL     1     -10.962  11.738  64.562  1.00  0.00    -0.322 SA 
HETATM   30  O   UNL     1     -12.242  16.161  64.005  1.00  0.00    -0.855 OA 
HETATM   31  C   UNL     1     -11.918  14.848  64.106  1.00  0.00    -0.235 C  
HETATM   32  O   UNL     1     -12.446  14.033  63.369  1.00  0.00    -0.826 OA 
BRANCH  28  33
HETATM   33  C   UNL     1     -10.319  15.627  65.978  1.00  0.00    -0.335 C  
HETATM   34  O   UNL     1      -9.189  16.053  65.736  1.00  0.00    -0.356 OA 
HETATM   35  N   UNL     1     -11.002  16.126  67.036  1.00  0.00    -0.197 N  
HETATM   36  H1  UNL     1     -10.608  16.875  67.605  1.00  0.00     0.000 HD 
HETATM   37  H2  UNL     1     -11.921  15.748  67.265  1.00  0.00     0.000 HD 
ENDBRANCH  28  33
ENDBRANCH  24  25
ENDBRANCH   5  21
BRANCH   5  38
HETATM   38  O   UNL     1      -8.143   7.597  64.603  1.00  0.00    -0.142 OA 
HETATM   39  C   UNL     1      -7.945   8.640  63.649  1.00  0.00    -0.160 C  
ENDBRANCH   5  38
TORSDOF 7
ENDMDL
MODEL       30
REMARK 921   NORMALIZED FREE ENERGY PREDICTED BY IDOCK:   -5.78 KCAL/MOL
REMARK 922        TOTAL FREE ENERGY PREDICTED BY IDOCK:   -9.59 KCAL/MOL
REMARK 923 INTER-LIGAND FREE ENERGY PREDICTED BY IDOCK:   -8.12 KCAL/MOL
REMARK 924 INTRA-LIGAND FREE ENERGY PREDICTED BY IDOCK:   -1.47 KCAL/MOL
REMARK 927      BINDING AFFINITY PREDICTED BY RF-SCORE:    0.00 PKD
ROOT
HETATM    1  C   UNL     1      -8.287  11.054  68.549  1.00  0.00    -0.149 C  
HETATM    2  S   UNL     1      -7.938  11.324  66.790  1.00  0.00    -0.159 SA 
HETATM    3  C   UNL     1      -8.468  13.054  66.840  1.00  0.00    -0.078 C  
HETATM    4  C   UNL     1      -9.826  13.279  67.495  1.00  0.00    -0.220 C  
HETATM    5  C   UNL     1      -8.529   9.541  69.004  1.00  0.00    -0.128 C  
HETATM    6  C   UNL     1     -10.376  12.438  68.424  1.00  0.00    -0.229 C  
HETATM    7  N   UNL     1      -9.701  11.298  68.782  1.00  0.00    -0.199 N  
HETATM    8  C   UNL     1     -11.741  12.762  69.020  1.00  0.00    -0.323 C  
HETATM    9  O   UNL     1     -12.382  13.761  68.725  1.00  0.00    -0.284 OA 
HETATM   10  O   UNL     1     -12.231  11.943  69.962  1.00  0.00    -0.273 OA 
HETATM   11  O   UNL     1     -10.886   9.864  70.159  1.00  0.00    -0.258 OA 
HETATM   12  C   UNL     1      -9.929  10.164  69.479  1.00  0.00    -0.235 C  
ENDROOT
BRANCH   4  13
HETATM   13  C   UNL     1     -10.513  14.514  66.905  1.00  0.00    -0.269 C  
BRANCH  13  14
HETATM   14  S   UNL     1     -10.261  14.604  65.109  1.00  0.00    -0.334 SA 
BRANCH  14  15
HETATM   15  C   UNL     1     -11.417  13.432  64.583  1.00  0.00    -0.348 A  
HETATM   16  N   UNL     1     -12.691  13.409  64.897  1.00  0.00    -0.686 NA 
HETATM   17  C   UNL     1      -9.913  11.931  63.184  1.00  0.00    -0.294 C  
HETATM   18  N   UNL     1     -13.202  12.274  64.311  1.00  0.00    -0.761 NA 
HETATM   19  N   UNL     1     -11.140  12.344  63.804  1.00  0.00    -0.408 NA 
HETATM   20  N   UNL     1     -12.264  11.620  63.639  1.00  0.00    -0.344 NA 
ENDBRANCH  14  15
ENDBRANCH  13  14
ENDBRANCH   4  13
BRANCH   5  21
HETATM   21  N   UNL     1      -8.533   8.567  67.874  1.00  0.00    -0.130 N  
HETATM   22  O   UNL     1      -9.819   6.981  68.865  1.00  0.00    -0.147 OA 
HETATM   23  H   UNL     1      -8.026   8.828  67.030  1.00  0.00     0.000 HD 
HETATM   24  C   UNL     1      -9.168   7.340  67.879  1.00  0.00    -0.131 C  
BRANCH  24  25
HETATM   25  C   UNL     1      -9.028   6.478  66.572  1.00  0.00    -0.143 C  
HETATM   26  S   UNL     1      -7.735   5.173  66.645  1.00  0.00    -0.093 SA 
HETATM   27  C   UNL     1      -8.958   4.541  65.551  1.00  0.00    -0.138 C  
HETATM   28  C   UNL     1      -8.869   3.772  64.439  1.00  0.00    -0.120 C  
HETATM   29  S   UNL     1     -10.314   5.178  66.463  1.00  0.00    -0.292 SA 
HETATM   30  O   UNL     1      -9.920   2.658  62.589  1.00  0.00    -0.091 OA 
HETATM   31  C   UNL     1     -10.116   3.391  63.713  1.00  0.00    -0.193 C  
HETATM   32  O   UNL     1     -11.250   3.677  64.061  1.00  0.00    -0.300 OA 
BRANCH  28  33
HETATM   33  C   UNL     1      -7.542   3.351  63.909  1.00  0.00    -0.071 C  
HETATM   34  O   UNL     1      -6.759   4.196  63.475  1.00  0.00    -0.040 OA 
HETATM   35  N   UNL     1      -7.203   2.041  63.847  1.00  0.00    -0.050 N  
HETATM   36  H1  UNL     1      -6.294   1.753  63.484  1.00  0.00     0.000 HD 
HETATM   37  H2  UNL     1      -7.865   1.334  64.167  1.00  0.00     0.000 HD 
ENDBRANCH  28  33
ENDBRANCH  24  25
ENDBRANCH   5  21
BRANCH   5  38
HETATM   38  O   UNL     1      -7.682   9.093  70.099  1.00  0.00    -0.079 OA 
HETATM   39  C   UNL     1      -6.575   9.939  70.408  1.00  0.00    -0.125 C  
ENDBRANCH   5  38
TORSDOF 7
ENDMDL
MODEL       31
REMARK 921   NORMALIZED FREE ENERGY PREDICTED BY IDOCK:   -5.77 KCAL/MOL
REMARK 922        TOTAL FREE ENERGY PREDICTED BY IDOCK:   -9.58 KCAL/MOL
REMARK 923 INTER-LIGAND FREE ENERGY PREDICTED BY IDOCK:   -8.76 KCAL/MOL
REMARK 924 INTRA-LIGAND FREE ENERGY PREDICTED BY IDOCK:   -0.82 KCAL/MOL
REMARK 927      BINDING AFFINITY PREDICTED BY RF-SCORE:    0.00 PKD
ROOT
HETATM    1  C   UNL     1      -8.907  13.856  67.091  1.00  0.00    -0.226 C  
HETATM    2  S   UNL     1     -10.683  14.029  67.416  1.00  0.00    -0.286 SA 
HETATM    3  C   UNL     1     -10.646  15.832  67.258  1.00  0.00    -0.313 C  
HETATM    4  C   UNL     1      -9.550  16.513  68.069  1.00  0.00    -0.227 C  
HETATM    5  C   UNL     1      -8.211  12.521  67.626  1.00  0.00    -0.172 C  
HETATM    6  C   UNL     1      -8.384  15.903  68.445  1.00  0.00    -0.174 C  
HETATM    7  N   UNL     1      -8.177  14.587  68.115  1.00  0.00    -0.137 N  
HETATM    8  C   UNL     1      -7.352  16.680  69.254  1.00  0.00    -0.184 C  
HETATM    9  O   UNL     1      -7.497  17.850  69.579  1.00  0.00     0.049 OA 
HETATM   10  O   UNL     1      -6.200  16.068  69.566  1.00  0.00    -0.151 OA 
HETATM   11  O   UNL     1      -6.284  13.640  69.051  1.00  0.00    -0.086 OA 
HETATM   12  C   UNL     1      -7.312  13.593  68.412  1.00  0.00    -0.118 C  
ENDROOT
BRANCH   4  13
HETATM   13  C   UNL     1      -9.975  17.929  68.472  1.00  0.00    -0.379 C  
BRANCH  13  14
HETATM   14  S   UNL     1     -10.054  19.021  67.023  1.00  0.00    -0.394 SA 
BRANCH  14  15
HETATM   15  C   UNL     1      -8.440  18.852  66.429  1.00  0.00    -0.293 A  
HETATM   16  N   UNL     1      -7.976  17.842  65.730  1.00  0.00    -0.540 NA 
HETATM   17  C   UNL     1      -7.412  20.995  67.336  1.00  0.00    -0.207 C  
HETATM   18  N   UNL     1      -6.638  18.103  65.535  1.00  0.00    -0.383 NA 
HETATM   19  N   UNL     1      -7.419  19.732  66.653  1.00  0.00    -0.246 NA 
HETATM   20  N   UNL     1      -6.291  19.255  66.092  1.00  0.00    -0.179 NA 
ENDBRANCH  14  15
ENDBRANCH  13  14
ENDBRANCH   4  13
BRANCH   5  21
HETATM   21  N   UNL     1      -9.122  11.644  68.418  1.00  0.00    -0.185 N  
HETATM   22  O   UNL     1      -9.899  10.397  66.688  1.00  0.00    -0.187 OA 
HETATM   23  H   UNL     1      -9.158  11.795  69.425  1.00  0.00     0.000 HD 
HETATM   24  C   UNL     1      -9.920  10.644  67.898  1.00  0.00    -0.166 C  
BRANCH  24  25
HETATM   25  C   UNL     1     -10.805   9.852  68.929  1.00  0.00    -0.210 C  
HETATM   26  S   UNL     1      -9.889   9.181  70.374  1.00  0.00    -0.236 SA 
HETATM   27  C   UNL     1     -11.513   9.494  70.972  1.00  0.00    -0.349 C  
HETATM   28  C   UNL     1     -12.285   8.850  71.879  1.00  0.00    -0.445 C  
HETATM   29  S   UNL     1     -11.725  10.972  70.050  1.00  0.00    -0.382 SA 
HETATM   30  O   UNL     1     -14.360   8.636  73.068  1.00  0.00    -0.395 OA 
HETATM   31  C   UNL     1     -13.650   9.374  72.180  1.00  0.00    -0.457 C  
HETATM   32  O   UNL     1     -14.136  10.387  71.704  1.00  0.00     0.265 OA 
BRANCH  28  33
HETATM   33  C   UNL     1     -11.807   7.601  72.536  1.00  0.00    -0.263 C  
HETATM   34  O   UNL     1     -10.831   7.638  73.287  1.00  0.00    -0.394 OA 
HETATM   35  N   UNL     1     -12.398   6.411  72.279  1.00  0.00    -0.537 N  
HETATM   36  H1  UNL     1     -12.071   5.557  72.729  1.00  0.00     0.000 HD 
HETATM   37  H2  UNL     1     -13.182   6.369  71.627  1.00  0.00     0.000 HD 
ENDBRANCH  28  33
ENDBRANCH  24  25
ENDBRANCH   5  21
BRANCH   5  38
HETATM   38  O   UNL     1      -7.483  11.769  66.616  1.00  0.00    -0.095 OA 
HETATM   39  C   UNL     1      -6.421  10.949  67.103  1.00  0.00    -0.078 C  
ENDBRANCH   5  38
TORSDOF 7
ENDMDL
MODEL       32
REMARK 921   NORMALIZED FREE ENERGY PREDICTED BY IDOCK:   -5.74 KCAL/MOL
REMARK 922        TOTAL FREE ENERGY PREDICTED BY IDOCK:   -9.54 KCAL/MOL
REMARK 923 INTER-LIGAND FREE ENERGY PREDICTED BY IDOCK:   -8.28 KCAL/MOL
REMARK 924 INTRA-LIGAND FREE ENERGY PREDICTED BY IDOCK:   -1.26 KCAL/MOL
REMARK 927      BINDING AFFINITY PREDICTED BY RF-SCORE:    0.00 PKD
ROOT
HETATM    1  C   UNL     1     -10.361  10.592  67.083  1.00  0.00    -0.228 C  
HETATM    2  S   UNL     1      -8.550  10.680  67.139  1.00  0.00    -0.128 SA 
HETATM    3  C   UNL     1      -8.382   9.001  67.795  1.00  0.00    -0.117 C  
HETATM    4  C   UNL     1      -9.269   8.703  68.998  1.00  0.00    -0.145 C  
HETATM    5  C   UNL     1     -11.143  11.986  67.091  1.00  0.00    -0.290 C  
HETATM    6  C   UNL     1     -10.442   9.354  69.264  1.00  0.00    -0.218 C  
HETATM    7  N   UNL     1     -10.854  10.365  68.432  1.00  0.00    -0.227 N  
HETATM    8  C   UNL     1     -11.255   8.972  70.497  1.00  0.00    -0.260 C  
HETATM    9  O   UNL     1     -10.923   8.085  71.270  1.00  0.00    -0.230 OA 
HETATM   10  O   UNL     1     -12.423   9.598  70.703  1.00  0.00    -0.212 OA 
HETATM   11  O   UNL     1     -12.713  11.531  69.170  1.00  0.00    -0.051 OA 
HETATM   12  C   UNL     1     -11.790  11.339  68.409  1.00  0.00    -0.261 C  
ENDROOT
BRANCH   4  13
HETATM   13  C   UNL     1      -8.620   7.648  69.900  1.00  0.00    -0.138 C  
BRANCH  13  14
HETATM   14  S   UNL     1      -7.129   8.304  70.701  1.00  0.00    -0.044 SA 
BRANCH  14  15
HETATM   15  C   UNL     1      -7.426   7.821  72.334  1.00  0.00    -0.085 A  
HETATM   16  N   UNL     1      -7.915   8.579  73.287  1.00  0.00    -0.398 NA 
HETATM   17  C   UNL     1      -6.623   5.409  72.231  1.00  0.00    -0.057 C  
HETATM   18  N   UNL     1      -7.918   7.802  74.423  1.00  0.00    -0.200 NA 
HETATM   19  N   UNL     1      -7.143   6.591  72.858  1.00  0.00    -0.080 NA 
HETATM   20  N   UNL     1      -7.451   6.586  74.169  1.00  0.00    -0.088 NA 
ENDBRANCH  14  15
ENDBRANCH  13  14
ENDBRANCH   4  13
BRANCH   5  21
HETATM   21  N   UNL     1     -10.254  13.173  67.248  1.00  0.00    -0.241 N  
HETATM   22  O   UNL     1     -11.828  14.614  68.021  1.00  0.00    -0.338 OA 
HETATM   23  H   UNL     1      -9.270  13.056  67.008  1.00  0.00     0.000 HD 
HETATM   24  C   UNL     1     -10.654  14.418  67.692  1.00  0.00    -0.260 C  
BRANCH  24  25
HETATM   25  C   UNL     1      -9.537  15.522  67.770  1.00  0.00    -0.209 C  
HETATM   26  S   UNL     1      -8.931  16.121  66.141  1.00  0.00    -0.305 SA 
HETATM   27  C   UNL     1      -8.746  17.492  67.227  1.00  0.00    -0.230 C  
HETATM   28  C   UNL     1      -7.815  18.474  67.297  1.00  0.00    -0.240 C  
HETATM   29  S   UNL     1     -10.232  17.184  68.106  1.00  0.00    -0.353 SA 
HETATM   30  O   UNL     1      -6.933  20.432  68.370  1.00  0.00    -0.267 OA 
HETATM   31  C   UNL     1      -7.936  19.521  68.354  1.00  0.00    -0.339 C  
HETATM   32  O   UNL     1      -8.849  19.606  69.160  1.00  0.00    -0.259 OA 
BRANCH  28  33
HETATM   33  C   UNL     1      -6.650  18.486  66.369  1.00  0.00    -0.201 C  
HETATM   34  O   UNL     1      -6.800  18.849  65.202  1.00  0.00    -0.496 OA 
HETATM   35  N   UNL     1      -5.433  18.052  66.776  1.00  0.00    -0.132 N  
HETATM   36  H1  UNL     1      -4.636  18.061  66.140  1.00  0.00     0.000 HD 
HETATM   37  H2  UNL     1      -5.313  17.713  67.730  1.00  0.00     0.000 HD 
ENDBRANCH  28  33
ENDBRANCH  24  25
ENDBRANCH   5  21
BRANCH   5  38
HETATM   38  O   UNL     1     -12.085  12.159  65.996  1.00  0.00    -0.612 OA 
HETATM   39  C   UNL     1     -11.505  12.337  64.705  1.00  0.00    -0.336 C  
ENDBRANCH   5  38
TORSDOF 7
ENDMDL
MODEL       33
REMARK 921   NORMALIZED FREE ENERGY PREDICTED BY IDOCK:   -5.71 KCAL/MOL
REMARK 922        TOTAL FREE ENERGY PREDICTED BY IDOCK:   -9.50 KCAL/MOL
REMARK 923 INTER-LIGAND FREE ENERGY PREDICTED BY IDOCK:   -9.15 KCAL/MOL
REMARK 924 INTRA-LIGAND FREE ENERGY PREDICTED BY IDOCK:   -0.34 KCAL/MOL
REMARK 927      BINDING AFFINITY PREDICTED BY RF-SCORE:    0.00 PKD
ROOT
HETATM    1  C   UNL     1     -10.793  13.379  67.637  1.00  0.00    -0.259 C  
HETATM    2  S   UNL     1      -8.989  13.503  67.768  1.00  0.00    -0.213 SA 
HETATM    3  C   UNL     1      -8.988  15.298  67.540  1.00  0.00    -0.185 C  
HETATM    4  C   UNL     1      -9.801  15.782  66.346  1.00  0.00    -0.296 C  
HETATM    5  C   UNL     1     -11.382  11.953  67.220  1.00  0.00    -0.329 C  
HETATM    6  C   UNL     1     -10.852  15.093  65.805  1.00  0.00    -0.353 C  
HETATM    7  N   UNL     1     -11.197  13.872  66.330  1.00  0.00    -0.305 N  
HETATM    8  C   UNL     1     -11.601  15.673  64.611  1.00  0.00    -0.249 C  
HETATM    9  O   UNL     1     -11.325  16.751  64.105  1.00  0.00    -1.194 OA 
HETATM   10  O   UNL     1     -12.656  14.994  64.135  1.00  0.00    -0.770 OA 
HETATM   11  O   UNL     1     -12.817  12.728  65.137  1.00  0.00    -0.726 OA 
HETATM   12  C   UNL     1     -11.995  12.827  66.022  1.00  0.00    -0.432 C  
ENDROOT
BRANCH   4  13
HETATM   13  C   UNL     1      -9.224  17.088  65.791  1.00  0.00     0.109 C  
BRANCH  13  14
HETATM   14  S   UNL     1      -8.919  18.282  67.125  1.00  0.00    -0.269 SA 
BRANCH  14  15
HETATM   15  C   UNL     1      -7.324  18.802  66.707  1.00  0.00    -0.217 A  
HETATM   16  N   UNL     1      -6.806  18.811  65.501  1.00  0.00    -0.452 NA 
HETATM   17  C   UNL     1      -6.447  19.424  69.012  1.00  0.00    -0.299 C  
HETATM   18  N   UNL     1      -5.507  19.238  65.653  1.00  0.00    -0.154 NA 
HETATM   19  N   UNL     1      -6.375  19.229  67.592  1.00  0.00    -0.206 NA 
HETATM   20  N   UNL     1      -5.236  19.499  66.925  1.00  0.00    -0.162 NA 
ENDBRANCH  14  15
ENDBRANCH  13  14
ENDBRANCH   4  13
BRANCH   5  21
HETATM   21  N   UNL     1     -10.335  10.942  66.895  1.00  0.00    -0.228 N  
HETATM   22  O   UNL     1     -10.576  10.990  64.639  1.00  0.00    -0.333 OA 
HETATM   23  H   UNL     1      -9.820  10.534  67.675  1.00  0.00     0.000 HD 
HETATM   24  C   UNL     1     -10.005  10.513  65.624  1.00  0.00    -0.270 C  
BRANCH  24  25
HETATM   25  C   UNL     1      -8.868   9.431  65.527  1.00  0.00    -0.184 C  
HETATM   26  S   UNL     1      -9.411   7.711  65.882  1.00  0.00     0.167 SA 
HETATM   27  C   UNL     1      -8.080   7.542  64.745  1.00  0.00    -0.112 C  
HETATM   28  C   UNL     1      -7.108   6.607  64.618  1.00  0.00    -0.057 C  
HETATM   29  S   UNL     1      -8.521   8.949  63.794  1.00  0.00    -0.085 SA 
HETATM   30  O   UNL     1      -5.145   5.782  63.509  1.00  0.00    -0.012 OA 
HETATM   31  C   UNL     1      -6.101   6.743  63.525  1.00  0.00    -0.039 C  
HETATM   32  O   UNL     1      -6.096   7.620  62.677  1.00  0.00    -0.064 OA 
BRANCH  28  33
HETATM   33  C   UNL     1      -7.005   5.480  65.588  1.00  0.00    -0.065 C  
HETATM   34  O   UNL     1      -6.657   5.700  66.748  1.00  0.00    -0.052 OA 
HETATM   35  N   UNL     1      -7.238   4.205  65.197  1.00  0.00    -0.070 N  
HETATM   36  H1  UNL     1      -7.168   3.434  65.861  1.00  0.00     0.000 HD 
HETATM   37  H2  UNL     1      -7.487   4.013  64.227  1.00  0.00     0.000 HD 
ENDBRANCH  28  33
ENDBRANCH  24  25
ENDBRANCH   5  21
BRANCH   5  38
HETATM   38  O   UNL     1     -12.383  11.419  68.131  1.00  0.00    -0.502 OA 
HETATM   39  C   UNL     1     -12.055  11.491  69.518  1.00  0.00    -0.284 C  
ENDBRANCH   5  38
TORSDOF 7
ENDMDL
MODEL       34
REMARK 921   NORMALIZED FREE ENERGY PREDICTED BY IDOCK:   -5.69 KCAL/MOL
REMARK 922        TOTAL FREE ENERGY PREDICTED BY IDOCK:   -9.48 KCAL/MOL
REMARK 923 INTER-LIGAND FREE ENERGY PREDICTED BY IDOCK:   -7.75 KCAL/MOL
REMARK 924 INTRA-LIGAND FREE ENERGY PREDICTED BY IDOCK:   -1.73 KCAL/MOL
REMARK 927      BINDING AFFINITY PREDICTED BY RF-SCORE:    0.00 PKD
ROOT
HETATM    1  C   UNL     1      -7.370   7.591  69.156  1.00  0.00    -0.086 C  
HETATM    2  S   UNL     1      -7.925   8.929  70.246  1.00  0.00    -0.131 SA 
HETATM    3  C   UNL     1      -7.892   7.886  71.724  1.00  0.00    -0.099 C  
HETATM    4  C   UNL     1      -8.607   6.548  71.567  1.00  0.00    -0.129 C  
HETATM    5  C   UNL     1      -7.718   7.744  67.604  1.00  0.00    -0.121 C  
HETATM    6  C   UNL     1      -8.790   5.915  70.368  1.00  0.00    -0.143 C  
HETATM    7  N   UNL     1      -8.344   6.512  69.216  1.00  0.00    -0.122 N  
HETATM    8  C   UNL     1      -9.517   4.575  70.326  1.00  0.00    -0.171 C  
HETATM    9  O   UNL     1      -9.940   4.010  71.325  1.00  0.00    -0.185 OA 
HETATM   10  O   UNL     1      -9.639   3.958  69.141  1.00  0.00    -0.178 OA 
HETATM   11  O   UNL     1      -8.967   5.438  67.263  1.00  0.00    -0.113 OA 
HETATM   12  C   UNL     1      -8.459   6.348  67.881  1.00  0.00    -0.118 C  
ENDROOT
BRANCH   4  13
HETATM   13  C   UNL     1      -9.159   6.069  72.913  1.00  0.00    -0.131 C  
BRANCH  13  14
HETATM   14  S   UNL     1     -10.280   7.302  73.633  1.00  0.00    -0.313 SA 
BRANCH  14  15
HETATM   15  C   UNL     1     -11.529   7.310  72.438  1.00  0.00    -0.287 A  
HETATM   16  N   UNL     1     -12.332   6.311  72.154  1.00  0.00    -0.253 NA 
HETATM   17  C   UNL     1     -11.242   9.664  71.518  1.00  0.00    -0.307 C  
HETATM   18  N   UNL     1     -13.113   6.742  71.106  1.00  0.00    -0.158 NA 
HETATM   19  N   UNL     1     -11.812   8.348  71.597  1.00  0.00    -0.287 NA 
HETATM   20  N   UNL     1     -12.804   7.986  70.762  1.00  0.00     0.155 NA 
ENDBRANCH  14  15
ENDBRANCH  13  14
ENDBRANCH   4  13
BRANCH   5  21
HETATM   21  N   UNL     1      -8.552   8.940  67.290  1.00  0.00    -0.118 N  
HETATM   22  O   UNL     1      -9.277   8.260  65.249  1.00  0.00     0.031 OA 
HETATM   23  H   UNL     1      -8.596   9.677  67.993  1.00  0.00     0.000 HD 
HETATM   24  C   UNL     1      -9.271   9.130  66.126  1.00  0.00    -0.205 C  
BRANCH  24  25
HETATM   25  C   UNL     1     -10.075  10.477  66.016  1.00  0.00    -0.256 C  
HETATM   26  S   UNL     1      -9.078  11.994  66.306  1.00  0.00    -0.115 SA 
HETATM   27  C   UNL     1     -10.342  12.488  65.188  1.00  0.00    -0.289 C  
HETATM   28  C   UNL     1     -11.028  13.648  65.050  1.00  0.00    -0.350 C  
HETATM   29  S   UNL     1     -10.323  10.991  64.274  1.00  0.00    -0.365 SA 
HETATM   30  O   UNL     1     -12.723  14.946  63.950  1.00  0.00    -0.789 OA 
HETATM   31  C   UNL     1     -12.062  13.763  63.979  1.00  0.00    -0.403 C  
HETATM   32  O   UNL     1     -12.327  12.898  63.160  1.00  0.00    -0.614 OA 
BRANCH  28  33
HETATM   33  C   UNL     1     -10.797  14.785  65.985  1.00  0.00    -0.318 C  
HETATM   34  O   UNL     1     -11.324  14.780  67.098  1.00  0.00    -0.337 OA 
HETATM   35  N   UNL     1     -10.056  15.854  65.609  1.00  0.00    -0.350 N  
HETATM   36  H1  UNL     1      -9.898  16.632  66.249  1.00  0.00     0.000 HD 
HETATM   37  H2  UNL     1      -9.651  15.881  64.673  1.00  0.00     0.000 HD 
ENDBRANCH  28  33
ENDBRANCH  24  25
ENDBRANCH   5  21
BRANCH   5  38
HETATM   38  O   UNL     1      -6.574   7.636  66.712  1.00  0.00    -0.058 OA 
HETATM   39  C   UNL     1      -5.592   8.663  66.841  1.00  0.00    -0.037 C  
ENDBRANCH   5  38
TORSDOF 7
ENDMDL
MODEL       35
REMARK 921   NORMALIZED FREE ENERGY PREDICTED BY IDOCK:   -5.68 KCAL/MOL
REMARK 922        TOTAL FREE ENERGY PREDICTED BY IDOCK:   -9.45 KCAL/MOL
REMARK 923 INTER-LIGAND FREE ENERGY PREDICTED BY IDOCK:   -7.83 KCAL/MOL
REMARK 924 INTRA-LIGAND FREE ENERGY PREDICTED BY IDOCK:   -1.62 KCAL/MOL
REMARK 927      BINDING AFFINITY PREDICTED BY RF-SCORE:    0.00 PKD
ROOT
HETATM    1  C   UNL     1      -7.648   7.925  67.398  1.00  0.00    -0.097 C  
HETATM    2  S   UNL     1      -6.862   9.003  68.626  1.00  0.00    -0.063 SA 
HETATM    3  C   UNL     1      -6.643   7.661  69.822  1.00  0.00    -0.039 C  
HETATM    4  C   UNL     1      -7.898   6.834  70.076  1.00  0.00    -0.111 C  
HETATM    5  C   UNL     1      -8.570   8.641  66.307  1.00  0.00    -0.137 C  
HETATM    6  C   UNL     1      -8.921   6.699  69.178  1.00  0.00    -0.131 C  
HETATM    7  N   UNL     1      -8.857   7.365  67.980  1.00  0.00    -0.127 N  
HETATM    8  C   UNL     1     -10.130   5.841  69.535  1.00  0.00    -0.214 C  
HETATM    9  O   UNL     1     -10.235   5.237  70.593  1.00  0.00    -0.226 OA 
HETATM   10  O   UNL     1     -11.094   5.692  68.614  1.00  0.00    -0.140 OA 
HETATM   11  O   UNL     1     -10.779   7.240  66.697  1.00  0.00    -0.243 OA 
HETATM   12  C   UNL     1      -9.664   7.650  66.936  1.00  0.00    -0.213 C  
ENDROOT
BRANCH   4  13
HETATM   13  C   UNL     1      -7.886   6.257  71.496  1.00  0.00    -0.101 C  
BRANCH  13  14
HETATM   14  S   UNL     1      -8.008   7.579  72.735  1.00  0.00    -0.111 SA 
BRANCH  14  15
HETATM   15  C   UNL     1      -9.689   7.959  72.608  1.00  0.00    -0.240 A  
HETATM   16  N   UNL     1     -10.205   8.965  71.941  1.00  0.00    -0.343 NA 
HETATM   17  C   UNL     1     -10.669   6.105  74.048  1.00  0.00    -0.047 C  
HETATM   18  N   UNL     1     -11.561   8.913  72.171  1.00  0.00    -0.359 NA 
HETATM   19  N   UNL     1     -10.701   7.283  73.229  1.00  0.00    -0.368 NA 
HETATM   20  N   UNL     1     -11.873   7.888  72.953  1.00  0.00    -0.239 NA 
ENDBRANCH  14  15
ENDBRANCH  13  14
ENDBRANCH   4  13
BRANCH   5  21
HETATM   21  N   UNL     1      -8.733  10.107  66.527  1.00  0.00    -0.129 N  
HETATM   22  O   UNL     1     -10.532  10.404  65.175  1.00  0.00    -0.255 OA 
HETATM   23  H   UNL     1      -8.079  10.560  67.164  1.00  0.00     0.000 HD 
HETATM   24  C   UNL     1      -9.697  10.902  65.937  1.00  0.00    -0.224 C  
BRANCH  24  25
HETATM   25  C   UNL     1      -9.670  12.428  66.316  1.00  0.00    -0.246 C  
HETATM   26  S   UNL     1     -10.192  13.565  64.970  1.00  0.00    -0.288 SA 
HETATM   27  C   UNL     1     -10.642  14.386  66.458  1.00  0.00    -0.296 C  
HETATM   28  C   UNL     1     -10.659  15.696  66.801  1.00  0.00    -0.307 C  
HETATM   29  S   UNL     1     -11.143  12.923  67.286  1.00  0.00    -0.287 SA 
HETATM   30  O   UNL     1     -11.044  17.416  68.433  1.00  0.00    -0.220 OA 
HETATM   31  C   UNL     1     -11.105  16.087  68.171  1.00  0.00    -0.344 C  
HETATM   32  O   UNL     1     -11.512  15.317  69.026  1.00  0.00    -0.285 OA 
BRANCH  28  33
HETATM   33  C   UNL     1     -10.189  16.739  65.847  1.00  0.00    -0.328 C  
HETATM   34  O   UNL     1     -10.907  17.077  64.905  1.00  0.00    -0.717 OA 
HETATM   35  N   UNL     1      -8.956  17.287  65.969  1.00  0.00    -0.143 N  
HETATM   36  H1  UNL     1      -8.635  18.001  65.316  1.00  0.00     0.000 HD 
HETATM   37  H2  UNL     1      -8.342  16.980  66.723  1.00  0.00     0.000 HD 
ENDBRANCH  28  33
ENDBRANCH  24  25
ENDBRANCH   5  21
BRANCH   5  38
HETATM   38  O   UNL     1      -8.226   8.338  64.926  1.00  0.00    -0.146 OA 
HETATM   39  C   UNL     1      -7.058   7.539  64.744  1.00  0.00    -0.064 C  
ENDBRANCH   5  38
TORSDOF 7
ENDMDL
MODEL       36
REMARK 921   NORMALIZED FREE ENERGY PREDICTED BY IDOCK:   -5.65 KCAL/MOL
REMARK 922        TOTAL FREE ENERGY PREDICTED BY IDOCK:   -9.41 KCAL/MOL
REMARK 923 INTER-LIGAND FREE ENERGY PREDICTED BY IDOCK:   -8.75 KCAL/MOL
REMARK 924 INTRA-LIGAND FREE ENERGY PREDICTED BY IDOCK:   -0.66 KCAL/MOL
REMARK 927      BINDING AFFINITY PREDICTED BY RF-SCORE:    0.00 PKD
ROOT
HETATM    1  C   UNL     1     -10.578   7.814  70.251  1.00  0.00    -0.231 C  
HETATM    2  S   UNL     1     -10.623   7.793  68.438  1.00  0.00    -0.051 SA 
HETATM    3  C   UNL     1     -10.081   6.069  68.336  1.00  0.00    -0.164 C  
HETATM    4  C   UNL     1      -8.848   5.746  69.172  1.00  0.00    -0.112 C  
HETATM    5  C   UNL     1     -10.440   9.246  70.945  1.00  0.00    -0.302 C  
HETATM    6  C   UNL     1      -8.475   6.445  70.288  1.00  0.00    -0.135 C  
HETATM    7  N   UNL     1      -9.218   7.530  70.682  1.00  0.00    -0.159 N  
HETATM    8  C   UNL     1      -7.222   6.032  71.053  1.00  0.00    -0.074 C  
HETATM    9  O   UNL     1      -6.525   5.080  70.734  1.00  0.00    -0.028 OA 
HETATM   10  O   UNL     1      -6.911   6.709  72.168  1.00  0.00    -0.065 OA 
HETATM   11  O   UNL     1      -8.303   8.750  72.423  1.00  0.00    -0.387 OA 
HETATM   12  C   UNL     1      -9.128   8.554  71.557  1.00  0.00    -0.216 C  
ENDROOT
BRANCH   4  13
HETATM   13  C   UNL     1      -8.052   4.600  68.541  1.00  0.00    -0.083 C  
BRANCH  13  14
HETATM   14  S   UNL     1      -7.560   5.008  66.841  1.00  0.00    -0.088 SA 
BRANCH  14  15
HETATM   15  C   UNL     1      -7.934   3.516  66.052  1.00  0.00    -0.092 A  
HETATM   16  N   UNL     1      -7.182   2.440  66.037  1.00  0.00    -0.063 NA 
HETATM   17  C   UNL     1     -10.182   4.116  65.023  1.00  0.00    -0.203 C  
HETATM   18  N   UNL     1      -7.842   1.531  65.243  1.00  0.00    -0.070 NA 
HETATM   19  N   UNL     1      -9.048   3.279  65.298  1.00  0.00    -0.143 NA 
HETATM   20  N   UNL     1      -8.984   2.033  64.790  1.00  0.00    -0.119 NA 
ENDBRANCH  14  15
ENDBRANCH  13  14
ENDBRANCH   4  13
BRANCH   5  21
HETATM   21  N   UNL     1     -10.263  10.368  69.978  1.00  0.00    -0.440 N  
HETATM   22  O   UNL     1     -12.432  11.031  69.904  1.00  0.00    -0.299 OA 
HETATM   23  H   UNL     1      -9.319  10.547  69.636  1.00  0.00     0.000 HD 
HETATM   24  C   UNL     1     -11.273  11.184  69.507  1.00  0.00    -0.277 C  
BRANCH  24  25
HETATM   25  C   UNL     1     -10.847  12.300  68.484  1.00  0.00    -0.237 C  
HETATM   26  S   UNL     1     -11.845  12.352  66.942  1.00  0.00    -0.215 SA 
HETATM   27  C   UNL     1     -11.328  14.012  67.204  1.00  0.00    -0.331 C  
HETATM   28  C   UNL     1     -10.987  15.002  66.345  1.00  0.00    -0.336 C  
HETATM   29  S   UNL     1     -11.505  13.946  68.948  1.00  0.00    -0.325 SA 
HETATM   30  O   UNL     1     -10.220  17.243  65.950  1.00  0.00    -0.477 OA 
HETATM   31  C   UNL     1     -10.585  16.334  66.887  1.00  0.00    -0.270 C  
HETATM   32  O   UNL     1     -10.578  16.641  68.068  1.00  0.00    -0.311 OA 
BRANCH  28  33
HETATM   33  C   UNL     1     -10.958  14.758  64.875  1.00  0.00    -0.412 C  
HETATM   34  O   UNL     1     -10.308  13.815  64.423  1.00  0.00    -0.415 OA 
HETATM   35  N   UNL     1     -11.595  15.593  64.021  1.00  0.00    -0.891 N  
HETATM   36  H1  UNL     1     -11.576  15.426  63.015  1.00  0.00     0.000 HD 
HETATM   37  H2  UNL     1     -12.102  16.399  64.388  1.00  0.00     0.000 HD 
ENDBRANCH  28  33
ENDBRANCH  24  25
ENDBRANCH   5  21
BRANCH   5  38
HETATM   38  O   UNL     1     -11.465   9.543  71.934  1.00  0.00    -0.355 OA 
HETATM   39  C   UNL     1     -12.313   8.453  72.290  1.00  0.00    -0.376 C  
ENDBRANCH   5  38
TORSDOF 7
ENDMDL
MODEL       37
REMARK 921   NORMALIZED FREE ENERGY PREDICTED BY IDOCK:   -5.60 KCAL/MOL
REMARK 922        TOTAL FREE ENERGY PREDICTED BY IDOCK:   -9.35 KCAL/MOL
REMARK 923 INTER-LIGAND FREE ENERGY PREDICTED BY IDOCK:   -7.74 KCAL/MOL
REMARK 924 INTRA-LIGAND FREE ENERGY PREDICTED BY IDOCK:   -1.60 KCAL/MOL
REMARK 927      BINDING AFFINITY PREDICTED BY RF-SCORE:    0.00 PKD
ROOT
HETATM    1  C   UNL     1      -7.352   7.445  68.557  1.00  0.00    -0.100 C  
HETATM    2  S   UNL     1      -7.202   7.812  70.326  1.00  0.00    -0.063 SA 
HETATM    3  C   UNL     1      -6.796   6.101  70.757  1.00  0.00    -0.062 C  
HETATM    4  C   UNL     1      -7.743   5.062  70.168  1.00  0.00    -0.063 C  
HETATM    5  C   UNL     1      -8.230   8.460  67.690  1.00  0.00    -0.126 C  
HETATM    6  C   UNL     1      -8.478   5.254  69.030  1.00  0.00    -0.095 C  
HETATM    7  N   UNL     1      -8.405   6.459  68.377  1.00  0.00    -0.116 N  
HETATM    8  C   UNL     1      -9.393   4.143  68.526  1.00  0.00    -0.156 C  
HETATM    9  O   UNL     1      -9.498   3.057  69.080  1.00  0.00    -0.165 OA 
HETATM   10  O   UNL     1     -10.064   4.345  67.383  1.00  0.00    -0.137 OA 
HETATM   11  O   UNL     1      -9.904   6.707  66.631  1.00  0.00    -0.173 OA 
HETATM   12  C   UNL     1      -9.047   7.113  67.385  1.00  0.00    -0.121 C  
ENDROOT
BRANCH   4  13
HETATM   13  C   UNL     1      -7.818   3.826  71.070  1.00  0.00    -0.062 C  
BRANCH  13  14
HETATM   14  S   UNL     1      -7.971   4.302  72.815  1.00  0.00    -0.087 SA 
BRANCH  14  15
HETATM   15  C   UNL     1      -9.446   5.201  72.755  1.00  0.00    -0.142 A  
HETATM   16  N   UNL     1     -10.578   4.794  72.229  1.00  0.00    -0.188 NA 
HETATM   17  C   UNL     1      -8.693   7.355  73.881  1.00  0.00    -0.215 C  
HETATM   18  N   UNL     1     -11.450   5.852  72.349  1.00  0.00    -0.305 NA 
HETATM   19  N   UNL     1      -9.611   6.480  73.207  1.00  0.00    -0.150 NA 
HETATM   20  N   UNL     1     -10.869   6.884  72.948  1.00  0.00    -0.267 NA 
ENDBRANCH  14  15
ENDBRANCH  13  14
ENDBRANCH   4  13
BRANCH   5  21
HETATM   21  N   UNL     1      -8.894   9.523  68.499  1.00  0.00    -0.124 N  
HETATM   22  O   UNL     1     -10.388  10.192  66.928  1.00  0.00    -0.224 OA 
HETATM   23  H   UNL     1      -8.559   9.663  69.452  1.00  0.00     0.000 HD 
HETATM   24  C   UNL     1      -9.924  10.333  68.063  1.00  0.00    -0.153 C  
BRANCH  24  25
HETATM   25  C   UNL     1     -10.462  11.392  69.095  1.00  0.00    -0.127 C  
HETATM   26  S   UNL     1     -11.256  12.867  68.339  1.00  0.00    -0.292 SA 
HETATM   27  C   UNL     1     -12.069  12.655  69.884  1.00  0.00    -0.252 C  
HETATM   28  C   UNL     1     -12.569  13.544  70.775  1.00  0.00    -0.382 C  
HETATM   29  S   UNL     1     -12.079  10.903  69.803  1.00  0.00    -0.314 SA 
HETATM   30  O   UNL     1     -13.647  14.009  72.870  1.00  0.00    -0.676 OA 
HETATM   31  C   UNL     1     -13.218  13.041  72.022  1.00  0.00    -0.444 C  
HETATM   32  O   UNL     1     -13.387  11.867  72.304  1.00  0.00    -0.471 OA 
BRANCH  28  33
HETATM   33  C   UNL     1     -12.431  15.010  70.547  1.00  0.00    -0.371 C  
HETATM   34  O   UNL     1     -11.312  15.522  70.515  1.00  0.00    -0.288 OA 
HETATM   35  N   UNL     1     -13.524  15.800  70.427  1.00  0.00    -0.681 N  
HETATM   36  H1  UNL     1     -13.430  16.803  70.271  1.00  0.00     0.000 HD 
HETATM   37  H2  UNL     1     -14.454  15.386  70.494  1.00  0.00     0.000 HD 
ENDBRANCH  28  33
ENDBRANCH  24  25
ENDBRANCH   5  21
BRANCH   5  38
HETATM   38  O   UNL     1      -7.550   9.012  66.528  1.00  0.00    -0.088 OA 
HETATM   39  C   UNL     1      -6.388   9.792  66.806  1.00  0.00    -0.065 C  
ENDBRANCH   5  38
TORSDOF 7
ENDMDL
MODEL       38
REMARK 921   NORMALIZED FREE ENERGY PREDICTED BY IDOCK:   -5.60 KCAL/MOL
REMARK 922        TOTAL FREE ENERGY PREDICTED BY IDOCK:   -9.35 KCAL/MOL
REMARK 923 INTER-LIGAND FREE ENERGY PREDICTED BY IDOCK:   -8.27 KCAL/MOL
REMARK 924 INTRA-LIGAND FREE ENERGY PREDICTED BY IDOCK:   -1.08 KCAL/MOL
REMARK 927      BINDING AFFINITY PREDICTED BY RF-SCORE:    0.00 PKD
ROOT
HETATM    1  C   UNL     1     -10.708   9.887  67.626  1.00  0.00    -0.281 C  
HETATM    2  S   UNL     1      -9.982  10.641  66.145  1.00  0.00    -0.237 SA 
HETATM    3  C   UNL     1      -9.225   9.092  65.595  1.00  0.00    -0.234 C  
HETATM    4  C   UNL     1      -8.428   8.363  66.671  1.00  0.00    -0.113 C  
HETATM    5  C   UNL     1     -11.066  10.876  68.828  1.00  0.00    -0.256 C  
HETATM    6  C   UNL     1      -8.656   8.496  68.014  1.00  0.00    -0.134 C  
HETATM    7  N   UNL     1      -9.633   9.356  68.449  1.00  0.00    -0.145 N  
HETATM    8  C   UNL     1      -7.801   7.714  69.005  1.00  0.00    -0.119 C  
HETATM    9  O   UNL     1      -6.914   6.944  68.664  1.00  0.00    -0.070 OA 
HETATM   10  O   UNL     1      -8.081   7.831  70.311  1.00  0.00    -0.108 OA 
HETATM   11  O   UNL     1      -9.707   9.658  70.742  1.00  0.00    -0.250 OA 
HETATM   12  C   UNL     1     -10.056   9.904  69.608  1.00  0.00    -0.230 C  
ENDROOT
BRANCH   4  13
HETATM   13  C   UNL     1      -7.296   7.543  66.044  1.00  0.00    -0.081 C  
BRANCH  13  14
HETATM   14  S   UNL     1      -7.958   6.211  65.003  1.00  0.00    -0.126 SA 
BRANCH  14  15
HETATM   15  C   UNL     1      -8.301   5.025  66.212  1.00  0.00    -0.112 A  
HETATM   16  N   UNL     1      -7.480   4.091  66.634  1.00  0.00    -0.082 NA 
HETATM   17  C   UNL     1     -10.702   5.652  66.774  1.00  0.00    -0.284 C  
HETATM   18  N   UNL     1      -8.193   3.346  67.544  1.00  0.00    -0.084 NA 
HETATM   19  N   UNL     1      -9.496   4.877  66.857  1.00  0.00    -0.138 NA 
HETATM   20  N   UNL     1      -9.424   3.820  67.689  1.00  0.00    -0.194 NA 
ENDBRANCH  14  15
ENDBRANCH  13  14
ENDBRANCH   4  13
BRANCH   5  21
HETATM   21  N   UNL     1     -10.649  12.288  68.590  1.00  0.00    -0.240 N  
HETATM   22  O   UNL     1     -12.388  12.884  67.260  1.00  0.00    -0.312 OA 
HETATM   23  H   UNL     1      -9.790  12.604  69.040  1.00  0.00     0.000 HD 
HETATM   24  C   UNL     1     -11.329  13.202  67.809  1.00  0.00    -0.290 C  
BRANCH  24  25
HETATM   25  C   UNL     1     -10.691  14.635  67.699  1.00  0.00    -0.271 C  
HETATM   26  S   UNL     1     -11.613  15.957  68.583  1.00  0.00    -0.317 SA 
HETATM   27  C   UNL     1      -9.932  16.472  68.621  1.00  0.00    -0.248 C  
HETATM   28  C   UNL     1      -9.357  17.697  68.561  1.00  0.00    -0.291 C  
HETATM   29  S   UNL     1      -9.290  14.857  68.859  1.00  0.00    -0.179 SA 
HETATM   30  O   UNL     1      -7.390  19.073  68.508  1.00  0.00    -0.280 OA 
HETATM   31  C   UNL     1      -7.870  17.810  68.621  1.00  0.00    -0.278 C  
HETATM   32  O   UNL     1      -7.098  16.877  68.770  1.00  0.00    -0.192 OA 
BRANCH  28  33
HETATM   33  C   UNL     1     -10.189  18.920  68.382  1.00  0.00    -0.373 C  
HETATM   34  O   UNL     1     -10.707  19.155  67.289  1.00  0.00    -0.460 OA 
HETATM   35  N   UNL     1     -10.343  19.809  69.392  1.00  0.00    -0.586 N  
HETATM   36  H1  UNL     1     -10.912  20.646  69.269  1.00  0.00     0.000 HD 
HETATM   37  H2  UNL     1      -9.882  19.639  70.286  1.00  0.00     0.000 HD 
ENDBRANCH  28  33
ENDBRANCH  24  25
ENDBRANCH   5  21
BRANCH   5  38
HETATM   38  O   UNL     1     -12.442  10.792  69.294  1.00  0.00    -0.356 OA 
HETATM   39  C   UNL     1     -12.648  11.112  70.670  1.00  0.00    -0.318 C  
ENDBRANCH   5  38
TORSDOF 7
ENDMDL
MODEL       39
REMARK 921   NORMALIZED FREE ENERGY PREDICTED BY IDOCK:   -5.59 KCAL/MOL
REMARK 922        TOTAL FREE ENERGY PREDICTED BY IDOCK:   -9.33 KCAL/MOL
REMARK 923 INTER-LIGAND FREE ENERGY PREDICTED BY IDOCK:   -8.57 KCAL/MOL
REMARK 924 INTRA-LIGAND FREE ENERGY PREDICTED BY IDOCK:   -0.77 KCAL/MOL
REMARK 927      BINDING AFFINITY PREDICTED BY RF-SCORE:    0.00 PKD
ROOT
HETATM    1  C   UNL     1     -11.643  14.118  66.936  1.00  0.00    -0.391 C  
HETATM    2  S   UNL     1     -10.342  13.730  68.138  1.00  0.00    -0.257 SA 
HETATM    3  C   UNL     1     -10.409  15.369  68.902  1.00  0.00    -0.233 C  
HETATM    4  C   UNL     1     -10.352  16.528  67.914  1.00  0.00    -0.294 C  
HETATM    5  C   UNL     1     -11.672  13.233  65.605  1.00  0.00    -0.356 C  
HETATM    6  C   UNL     1     -10.749  16.440  66.607  1.00  0.00    -0.173 C  
HETATM    7  N   UNL     1     -11.199  15.238  66.121  1.00  0.00    -0.280 N  
HETATM    8  C   UNL     1     -10.654  17.665  65.705  1.00  0.00    -0.177 C  
HETATM    9  O   UNL     1     -10.251  18.754  66.092  1.00  0.00    -0.402 OA 
HETATM   10  O   UNL     1     -11.095  17.558  64.443  1.00  0.00    -0.736 OA 
HETATM   11  O   UNL     1     -11.578  15.198  63.838  1.00  0.00    -0.104 OA 
HETATM   12  C   UNL     1     -11.504  14.679  64.930  1.00  0.00    -0.401 C  
ENDROOT
BRANCH   4  13
HETATM   13  C   UNL     1      -9.713  17.760  68.561  1.00  0.00    -0.343 C  
BRANCH  13  14
HETATM   14  S   UNL     1      -7.904  17.609  68.603  1.00  0.00    -0.258 SA 
BRANCH  14  15
HETATM   15  C   UNL     1      -7.460  19.053  67.765  1.00  0.00    -0.246 A  
HETATM   16  N   UNL     1      -7.741  20.280  68.137  1.00  0.00    -0.189 NA 
HETATM   17  C   UNL     1      -6.248  18.047  65.767  1.00  0.00    -0.242 C  
HETATM   18  N   UNL     1      -7.251  21.097  67.144  1.00  0.00    -0.448 NA 
HETATM   19  N   UNL     1      -6.794  19.103  66.573  1.00  0.00    -0.196 NA 
HETATM   20  N   UNL     1      -6.669  20.387  66.187  1.00  0.00    -0.236 NA 
ENDBRANCH  14  15
ENDBRANCH  13  14
ENDBRANCH   4  13
BRANCH   5  21
HETATM   21  N   UNL     1     -10.541  12.267  65.501  1.00  0.00    -0.260 N  
HETATM   22  O   UNL     1     -11.384  10.683  66.892  1.00  0.00    -0.257 OA 
HETATM   23  H   UNL     1      -9.763  12.521  64.893  1.00  0.00     0.000 HD 
HETATM   24  C   UNL     1     -10.460  11.056  66.161  1.00  0.00    -0.244 C  
BRANCH  24  25
HETATM   25  C   UNL     1      -9.164  10.205  65.901  1.00  0.00    -0.162 C  
HETATM   26  S   UNL     1      -9.315   8.423  66.324  1.00  0.00    -0.211 SA 
HETATM   27  C   UNL     1      -8.150   8.480  65.009  1.00  0.00    -0.148 C  
HETATM   28  C   UNL     1      -7.046   7.742  64.742  1.00  0.00    -0.060 C  
HETATM   29  S   UNL     1      -8.979   9.755  64.134  1.00  0.00    -0.231 SA 
HETATM   30  O   UNL     1      -5.137   7.275  63.363  1.00  0.00    -0.031 OA 
HETATM   31  C   UNL     1      -6.246   8.039  63.517  1.00  0.00    -0.071 C  
HETATM   32  O   UNL     1      -6.526   8.881  62.680  1.00  0.00    -0.095 OA 
BRANCH  28  33
HETATM   33  C   UNL     1      -6.596   6.679  65.684  1.00  0.00    -0.050 C  
HETATM   34  O   UNL     1      -6.199   6.984  66.809  1.00  0.00    -0.039 OA 
HETATM   35  N   UNL     1      -6.566   5.380  65.302  1.00  0.00    -0.039 N  
HETATM   36  H1  UNL     1      -6.258   4.652  65.947  1.00  0.00     0.000 HD 
HETATM   37  H2  UNL     1      -6.855   5.127  64.357  1.00  0.00     0.000 HD 
ENDBRANCH  28  33
ENDBRANCH  24  25
ENDBRANCH   5  21
BRANCH   5  38
HETATM   38  O   UNL     1     -12.951  12.598  65.327  1.00  0.00    -0.657 OA 
HETATM   39  C   UNL     1     -13.128  12.127  63.992  1.00  0.00    -0.049 C  
ENDBRANCH   5  38
TORSDOF 7
ENDMDL
MODEL       40
REMARK 921   NORMALIZED FREE ENERGY PREDICTED BY IDOCK:   -5.59 KCAL/MOL
REMARK 922        TOTAL FREE ENERGY PREDICTED BY IDOCK:   -9.33 KCAL/MOL
REMARK 923 INTER-LIGAND FREE ENERGY PREDICTED BY IDOCK:   -8.29 KCAL/MOL
REMARK 924 INTRA-LIGAND FREE ENERGY PREDICTED BY IDOCK:   -1.05 KCAL/MOL
REMARK 927      BINDING AFFINITY PREDICTED BY RF-SCORE:    0.00 PKD
ROOT
HETATM    1  C   UNL     1     -10.693   7.388  70.643  1.00  0.00    -0.229 C  
HETATM    2  S   UNL     1     -10.887   6.887  68.911  1.00  0.00    -0.178 SA 
HETATM    3  C   UNL     1     -10.099   5.279  69.175  1.00  0.00    -0.219 C  
HETATM    4  C   UNL     1      -8.765   5.344  69.910  1.00  0.00    -0.128 C  
HETATM    5  C   UNL     1     -10.716   8.958  70.939  1.00  0.00    -0.231 C  
HETATM    6  C   UNL     1      -8.410   6.352  70.764  1.00  0.00    -0.126 C  
HETATM    7  N   UNL     1      -9.274   7.399  70.964  1.00  0.00    -0.153 N  
HETATM    8  C   UNL     1      -7.050   6.315  71.451  1.00  0.00    -0.078 C  
HETATM    9  O   UNL     1      -6.245   5.407  71.296  1.00  0.00    -0.031 OA 
HETATM   10  O   UNL     1      -6.752   7.294  72.318  1.00  0.00    -0.058 OA 
HETATM   11  O   UNL     1      -8.412   9.138  72.225  1.00  0.00    -0.280 OA 
HETATM   12  C   UNL     1      -9.268   8.621  71.541  1.00  0.00    -0.246 C  
ENDROOT
BRANCH   4  13
HETATM   13  C   UNL     1      -7.860   4.181  69.491  1.00  0.00    -0.053 C  
BRANCH  13  14
HETATM   14  S   UNL     1      -7.504   4.242  67.711  1.00  0.00    -0.069 SA 
BRANCH  14  15
HETATM   15  C   UNL     1      -6.777   5.806  67.602  1.00  0.00    -0.059 A  
HETATM   16  N   UNL     1      -5.634   6.166  68.138  1.00  0.00    -0.011 NA 
HETATM   17  C   UNL     1      -8.542   7.016  66.227  1.00  0.00    -0.139 C  
HETATM   18  N   UNL     1      -5.488   7.503  67.850  1.00  0.00    -0.026 NA 
HETATM   19  N   UNL     1      -7.326   6.891  66.978  1.00  0.00    -0.084 NA 
HETATM   20  N   UNL     1      -6.514   7.953  67.139  1.00  0.00    -0.055 NA 
ENDBRANCH  14  15
ENDBRANCH  13  14
ENDBRANCH   4  13
BRANCH   5  21
HETATM   21  N   UNL     1     -10.795   9.800  69.710  1.00  0.00    -0.244 N  
HETATM   22  O   UNL     1      -8.596  10.350  69.596  1.00  0.00    -0.145 OA 
HETATM   23  H   UNL     1     -11.708   9.900  69.269  1.00  0.00     0.000 HD 
HETATM   24  C   UNL     1      -9.731  10.455  69.121  1.00  0.00    -0.220 C  
BRANCH  24  25
HETATM   25  C   UNL     1     -10.057  11.292  67.830  1.00  0.00    -0.178 C  
HETATM   26  S   UNL     1     -10.687  10.306  66.413  1.00  0.00     0.043 SA 
HETATM   27  C   UNL     1     -11.427  11.891  66.228  1.00  0.00    -0.301 C  
HETATM   28  C   UNL     1     -11.747  12.620  65.133  1.00  0.00    -0.407 C  
HETATM   29  S   UNL     1     -11.680  12.134  67.947  1.00  0.00    -0.290 SA 
HETATM   30  O   UNL     1     -12.624  14.629  64.153  1.00  0.00    -0.766 OA 
HETATM   31  C   UNL     1     -12.382  13.960  65.307  1.00  0.00    -0.464 C  
HETATM   32  O   UNL     1     -12.692  14.459  66.376  1.00  0.00    -0.242 OA 
BRANCH  28  33
HETATM   33  C   UNL     1     -11.425  12.122  63.766  1.00  0.00    -0.465 C  
HETATM   34  O   UNL     1     -10.274  12.213  63.336  1.00  0.00    -0.433 OA 
HETATM   35  N   UNL     1     -12.392  11.618  62.965  1.00  0.00    -0.956 N  
HETATM   36  H1  UNL     1     -12.171  11.277  62.029  1.00  0.00     0.000 HD 
HETATM   37  H2  UNL     1     -13.355  11.578  63.301  1.00  0.00     0.000 HD 
ENDBRANCH  28  33
ENDBRANCH  24  25
ENDBRANCH   5  21
BRANCH   5  38
HETATM   38  O   UNL     1     -11.688   9.373  71.940  1.00  0.00    -0.374 OA 
HETATM   39  C   UNL     1     -12.960   9.776  71.434  1.00  0.00    -0.395 C  
ENDBRANCH   5  38
TORSDOF 7
ENDMDL
MODEL       41
REMARK 921   NORMALIZED FREE ENERGY PREDICTED BY IDOCK:   -5.56 KCAL/MOL
REMARK 922        TOTAL FREE ENERGY PREDICTED BY IDOCK:   -9.29 KCAL/MOL
REMARK 923 INTER-LIGAND FREE ENERGY PREDICTED BY IDOCK:   -8.10 KCAL/MOL
REMARK 924 INTRA-LIGAND FREE ENERGY PREDICTED BY IDOCK:   -1.19 KCAL/MOL
REMARK 927      BINDING AFFINITY PREDICTED BY RF-SCORE:    0.00 PKD
ROOT
HETATM    1  C   UNL     1      -8.778  13.411  67.185  1.00  0.00    -0.215 C  
HETATM    2  S   UNL     1     -10.527  13.618  67.615  1.00  0.00    -0.240 SA 
HETATM    3  C   UNL     1     -10.507  15.400  67.294  1.00  0.00    -0.282 C  
HETATM    4  C   UNL     1      -9.359  16.147  67.963  1.00  0.00    -0.203 C  
HETATM    5  C   UNL     1      -8.042  12.127  67.788  1.00  0.00    -0.152 C  
HETATM    6  C   UNL     1      -8.168  15.569  68.311  1.00  0.00    -0.142 C  
HETATM    7  N   UNL     1      -7.981  14.228  68.086  1.00  0.00    -0.129 N  
HETATM    8  C   UNL     1      -7.085  16.413  68.973  1.00  0.00    -0.208 C  
HETATM    9  O   UNL     1      -7.210  17.608  69.200  1.00  0.00    -0.236 OA 
HETATM   10  O   UNL     1      -5.913  15.827  69.258  1.00  0.00    -0.112 OA 
HETATM   11  O   UNL     1      -6.024  13.363  68.969  1.00  0.00    -0.075 OA 
HETATM   12  C   UNL     1      -7.095  13.262  68.410  1.00  0.00    -0.107 C  
ENDROOT
BRANCH   4  13
HETATM   13  C   UNL     1      -9.760  17.595  68.265  1.00  0.00    -0.315 C  
BRANCH  13  14
HETATM   14  S   UNL     1      -9.955  18.549  66.733  1.00  0.00    -0.384 SA 
BRANCH  14  15
HETATM   15  C   UNL     1      -8.581  19.590  66.849  1.00  0.00    -0.306 A  
HETATM   16  N   UNL     1      -8.534  20.742  67.478  1.00  0.00    -0.190 NA 
HETATM   17  C   UNL     1      -6.902  18.255  65.481  1.00  0.00    -0.150 C  
HETATM   18  N   UNL     1      -7.273  21.243  67.252  1.00  0.00    -0.498 NA 
HETATM   19  N   UNL     1      -7.370  19.370  66.256  1.00  0.00    -0.251 NA 
HETATM   20  N   UNL     1      -6.555  20.411  66.510  1.00  0.00    -0.223 NA 
ENDBRANCH  14  15
ENDBRANCH  13  14
ENDBRANCH   4  13
BRANCH   5  21
HETATM   21  N   UNL     1      -8.894  11.327  68.717  1.00  0.00    -0.296 N  
HETATM   22  O   UNL     1      -7.216  10.205  69.754  1.00  0.00    -0.106 OA 
HETATM   23  H   UNL     1      -9.902  11.473  68.670  1.00  0.00     0.000 HD 
HETATM   24  C   UNL     1      -8.428  10.406  69.634  1.00  0.00    -0.049 C  
BRANCH  24  25
HETATM   25  C   UNL     1      -9.518   9.677  70.504  1.00  0.00    -0.181 C  
HETATM   26  S   UNL     1     -11.255  10.051  70.033  1.00  0.00    -0.299 SA 
HETATM   27  C   UNL     1     -11.301   8.418  70.682  1.00  0.00    -0.244 C  
HETATM   28  C   UNL     1     -12.236   7.755  71.404  1.00  0.00    -0.343 C  
HETATM   29  S   UNL     1      -9.766   7.939  69.982  1.00  0.00    -0.180 SA 
HETATM   30  O   UNL     1     -12.954   5.782  72.570  1.00  0.00     0.172 OA 
HETATM   31  C   UNL     1     -11.979   6.343  71.813  1.00  0.00    -0.316 C  
HETATM   32  O   UNL     1     -10.993   5.691  71.510  1.00  0.00    -0.252 OA 
BRANCH  28  33
HETATM   33  C   UNL     1     -13.488   8.438  71.837  1.00  0.00    -0.363 C  
HETATM   34  O   UNL     1     -14.394   8.629  71.025  1.00  0.00    -0.194 OA 
HETATM   35  N   UNL     1     -13.625   8.900  73.102  1.00  0.00    -0.760 N  
HETATM   36  H1  UNL     1     -14.482   9.367  73.398  1.00  0.00     0.000 HD 
HETATM   37  H2  UNL     1     -12.861   8.780  73.767  1.00  0.00     0.000 HD 
ENDBRANCH  28  33
ENDBRANCH  24  25
ENDBRANCH   5  21
BRANCH   5  38
HETATM   38  O   UNL     1      -7.384  11.285  66.802  1.00  0.00    -0.137 OA 
HETATM   39  C   UNL     1      -5.994  11.540  66.603  1.00  0.00    -0.135 C  
ENDBRANCH   5  38
TORSDOF 7
ENDMDL
MODEL       42
REMARK 921   NORMALIZED FREE ENERGY PREDICTED BY IDOCK:   -5.52 KCAL/MOL
REMARK 922        TOTAL FREE ENERGY PREDICTED BY IDOCK:   -9.23 KCAL/MOL
REMARK 923 INTER-LIGAND FREE ENERGY PREDICTED BY IDOCK:   -8.21 KCAL/MOL
REMARK 924 INTRA-LIGAND FREE ENERGY PREDICTED BY IDOCK:   -1.02 KCAL/MOL
REMARK 927      BINDING AFFINITY PREDICTED BY RF-SCORE:    0.00 PKD
ROOT
HETATM    1  C   UNL     1     -10.217   8.763  68.401  1.00  0.00    -0.196 C  
HETATM    2  S   UNL     1      -9.969   8.942  66.614  1.00  0.00    -0.283 SA 
HETATM    3  C   UNL     1      -9.285   7.276  66.433  1.00  0.00    -0.159 C  
HETATM    4  C   UNL     1      -8.181   6.936  67.427  1.00  0.00    -0.119 C  
HETATM    5  C   UNL     1     -10.304  10.114  69.249  1.00  0.00    -0.223 C  
HETATM    6  C   UNL     1      -8.047   7.528  68.654  1.00  0.00    -0.124 C  
HETATM    7  N   UNL     1      -8.926   8.514  69.025  1.00  0.00    -0.145 N  
HETATM    8  C   UNL     1      -6.906   7.108  69.574  1.00  0.00    -0.050 C  
HETATM    9  O   UNL     1      -6.094   6.241  69.283  1.00  0.00    -0.026 OA 
HETATM   10  O   UNL     1      -6.831   7.673  70.788  1.00  0.00    -0.042 OA 
HETATM   11  O   UNL     1      -8.401   9.585  71.008  1.00  0.00    -0.294 OA 
HETATM   12  C   UNL     1      -9.058   9.438  70.001  1.00  0.00    -0.220 C  
ENDROOT
BRANCH   4  13
HETATM   13  C   UNL     1      -7.207   5.917  66.827  1.00  0.00    -0.071 C  
BRANCH  13  14
HETATM   14  S   UNL     1      -8.054   4.360  66.437  1.00  0.00    -0.102 SA 
BRANCH  14  15
HETATM   15  C   UNL     1      -8.506   3.855  68.027  1.00  0.00    -0.094 A  
HETATM   16  N   UNL     1      -9.621   4.164  68.648  1.00  0.00    -0.151 NA 
HETATM   17  C   UNL     1      -6.449   2.497  68.658  1.00  0.00    -0.029 C  
HETATM   18  N   UNL     1      -9.522   3.602  69.900  1.00  0.00    -0.188 NA 
HETATM   19  N   UNL     1      -7.734   3.103  68.866  1.00  0.00    -0.051 NA 
HETATM   20  N   UNL     1      -8.375   2.949  70.041  1.00  0.00    -0.044 NA 
ENDBRANCH  14  15
ENDBRANCH  13  14
ENDBRANCH   4  13
BRANCH   5  21
HETATM   21  N   UNL     1     -10.062  11.346  68.443  1.00  0.00    -0.195 N  
HETATM   22  O   UNL     1     -12.189  11.632  67.706  1.00  0.00    -0.560 OA 
HETATM   23  H   UNL     1      -9.113  11.719  68.432  1.00  0.00     0.000 HD 
HETATM   24  C   UNL     1     -11.018  12.022  67.710  1.00  0.00    -0.232 C  
BRANCH  24  25
HETATM   25  C   UNL     1     -10.526  13.297  66.932  1.00  0.00    -0.261 C  
HETATM   26  S   UNL     1     -11.603  14.775  67.116  1.00  0.00    -0.323 SA 
HETATM   27  C   UNL     1      -9.985  15.419  66.875  1.00  0.00    -0.243 C  
HETATM   28  C   UNL     1      -9.535  16.527  66.239  1.00  0.00    -0.339 C  
HETATM   29  S   UNL     1      -9.190  14.177  67.825  1.00  0.00    -0.201 SA 
HETATM   30  O   UNL     1      -7.717  17.917  65.511  1.00  0.00    -0.505 OA 
HETATM   31  C   UNL     1      -8.070  16.809  66.209  1.00  0.00    -0.330 C  
HETATM   32  O   UNL     1      -7.212  16.139  66.761  1.00  0.00    -0.214 OA 
BRANCH  28  33
HETATM   33  C   UNL     1     -10.481  17.433  65.528  1.00  0.00    -0.101 C  
HETATM   34  O   UNL     1     -11.108  17.020  64.552  1.00  0.00    -1.098 OA 
HETATM   35  N   UNL     1     -10.623  18.725  65.907  1.00  0.00    -0.449 N  
HETATM   36  H1  UNL     1     -11.271  19.344  65.421  1.00  0.00     0.000 HD 
HETATM   37  H2  UNL     1     -10.076  19.083  66.690  1.00  0.00     0.000 HD 
ENDBRANCH  28  33
ENDBRANCH  24  25
ENDBRANCH   5  21
BRANCH   5  38
HETATM   38  O   UNL     1     -11.495  10.237  70.076  1.00  0.00    -0.260 OA 
HETATM   39  C   UNL     1     -11.780   9.119  70.916  1.00  0.00    -0.284 C  
ENDBRANCH   5  38
TORSDOF 7
ENDMDL
MODEL       43
REMARK 921   NORMALIZED FREE ENERGY PREDICTED BY IDOCK:   -5.51 KCAL/MOL
REMARK 922        TOTAL FREE ENERGY PREDICTED BY IDOCK:   -9.22 KCAL/MOL
REMARK 923 INTER-LIGAND FREE ENERGY PREDICTED BY IDOCK:   -8.47 KCAL/MOL
REMARK 924 INTRA-LIGAND FREE ENERGY PREDICTED BY IDOCK:   -0.75 KCAL/MOL
REMARK 927      BINDING AFFINITY PREDICTED BY RF-SCORE:    0.00 PKD
ROOT
HETATM    1  C   UNL     1     -10.996   6.586  71.021  1.00  0.00    -0.265 C  
HETATM    2  S   UNL     1     -11.058   6.126  69.268  1.00  0.00    -0.350 SA 
HETATM    3  C   UNL     1      -9.895   4.755  69.476  1.00  0.00    -0.222 C  
HETATM    4  C   UNL     1      -8.620   5.118  70.228  1.00  0.00    -0.121 C  
HETATM    5  C   UNL     1     -11.410   8.088  71.379  1.00  0.00    -0.256 C  
HETATM    6  C   UNL     1      -8.528   6.146  71.126  1.00  0.00    -0.125 C  
HETATM    7  N   UNL     1      -9.625   6.937  71.358  1.00  0.00    -0.167 N  
HETATM    8  C   UNL     1      -7.201   6.420  71.826  1.00  0.00    -0.087 C  
HETATM    9  O   UNL     1      -6.196   5.749  71.644  1.00  0.00    -0.036 OA 
HETATM   10  O   UNL     1      -7.158   7.406  72.735  1.00  0.00    -0.067 OA 
HETATM   11  O   UNL     1      -9.225   8.782  72.698  1.00  0.00    -0.327 OA 
HETATM   12  C   UNL     1      -9.924   8.096  71.983  1.00  0.00    -0.233 C  
ENDROOT
BRANCH   4  13
HETATM   13  C   UNL     1      -7.453   4.236  69.773  1.00  0.00    -0.050 C  
BRANCH  13  14
HETATM   14  S   UNL     1      -7.755   2.494  70.188  1.00  0.00    -0.042 SA 
BRANCH  14  15
HETATM   15  C   UNL     1      -7.672   2.575  71.912  1.00  0.00    -0.048 A  
HETATM   16  N   UNL     1      -6.576   2.560  72.634  1.00  0.00    -0.017 NA 
HETATM   17  C   UNL     1     -10.153   2.676  72.466  1.00  0.00    -0.162 C  
HETATM   18  N   UNL     1      -6.990   2.579  73.947  1.00  0.00    -0.027 NA 
HETATM   19  N   UNL     1      -8.747   2.617  72.754  1.00  0.00    -0.071 NA 
HETATM   20  N   UNL     1      -8.314   2.617  74.029  1.00  0.00    -0.067 NA 
ENDBRANCH  14  15
ENDBRANCH  13  14
ENDBRANCH   4  13
BRANCH   5  21
HETATM   21  N   UNL     1     -11.694   8.934  70.184  1.00  0.00    -0.460 N  
HETATM   22  O   UNL     1      -9.733  10.076  70.166  1.00  0.00    -0.233 OA 
HETATM   23  H   UNL     1     -12.590   8.799  69.717  1.00  0.00     0.000 HD 
HETATM   24  C   UNL     1     -10.843   9.886  69.658  1.00  0.00    -0.253 C  
BRANCH  24  25
HETATM   25  C   UNL     1     -11.362  10.662  68.393  1.00  0.00    -0.283 C  
HETATM   26  S   UNL     1     -11.046  12.473  68.418  1.00  0.00    -0.278 SA 
HETATM   27  C   UNL     1     -11.033  12.033  66.715  1.00  0.00    -0.285 C  
HETATM   28  C   UNL     1     -11.442  12.692  65.605  1.00  0.00    -0.387 C  
HETATM   29  S   UNL     1     -10.223  10.498  66.968  1.00  0.00    -0.237 SA 
HETATM   30  O   UNL     1     -11.773  12.760  63.228  1.00  0.00    -0.515 OA 
HETATM   31  C   UNL     1     -11.293  12.039  64.271  1.00  0.00    -0.364 C  
HETATM   32  O   UNL     1     -10.779  10.950  64.073  1.00  0.00    -0.353 OA 
BRANCH  28  33
HETATM   33  C   UNL     1     -12.085  14.032  65.709  1.00  0.00    -0.427 C  
HETATM   34  O   UNL     1     -11.434  14.994  66.118  1.00  0.00    -0.321 OA 
HETATM   35  N   UNL     1     -13.395  14.199  65.410  1.00  0.00    -0.574 N  
HETATM   36  H1  UNL     1     -13.835  15.116  65.481  1.00  0.00     0.000 HD 
HETATM   37  H2  UNL     1     -13.949  13.396  65.109  1.00  0.00     0.000 HD 
ENDBRANCH  28  33
ENDBRANCH  24  25
ENDBRANCH   5  21
BRANCH   5  38
HETATM   38  O   UNL     1     -12.455   8.206  72.384  1.00  0.00    -0.322 OA 
HETATM   39  C   UNL     1     -13.613   8.938  71.987  1.00  0.00    -0.441 C  
ENDBRANCH   5  38
TORSDOF 7
ENDMDL
MODEL       44
REMARK 921   NORMALIZED FREE ENERGY PREDICTED BY IDOCK:   -5.51 KCAL/MOL
REMARK 922        TOTAL FREE ENERGY PREDICTED BY IDOCK:   -9.21 KCAL/MOL
REMARK 923 INTER-LIGAND FREE ENERGY PREDICTED BY IDOCK:   -8.54 KCAL/MOL
REMARK 924 INTRA-LIGAND FREE ENERGY PREDICTED BY IDOCK:   -0.67 KCAL/MOL
REMARK 927      BINDING AFFINITY PREDICTED BY RF-SCORE:    0.00 PKD
ROOT
HETATM    1  C   UNL     1     -10.629   8.854  69.039  1.00  0.00    -0.183 C  
HETATM    2  S   UNL     1     -10.625   8.969  67.230  1.00  0.00    -0.160 SA 
HETATM    3  C   UNL     1     -10.199   7.223  67.011  1.00  0.00    -0.278 C  
HETATM    4  C   UNL     1      -9.015   6.754  67.849  1.00  0.00    -0.113 C  
HETATM    5  C   UNL     1     -10.413  10.219  69.842  1.00  0.00    -0.256 C  
HETATM    6  C   UNL     1      -8.627   7.342  69.022  1.00  0.00    -0.129 C  
HETATM    7  N   UNL     1      -9.305   8.444  69.479  1.00  0.00    -0.157 N  
HETATM    8  C   UNL     1      -7.427   6.787  69.783  1.00  0.00    -0.091 C  
HETATM    9  O   UNL     1      -6.788   5.814  69.409  1.00  0.00    -0.057 OA 
HETATM   10  O   UNL     1      -7.102   7.357  70.952  1.00  0.00    -0.061 OA 
HETATM   11  O   UNL     1      -8.358   9.466  71.327  1.00  0.00    -0.308 OA 
HETATM   12  C   UNL     1      -9.169   9.393  70.430  1.00  0.00    -0.257 C  
ENDROOT
BRANCH   4  13
HETATM   13  C   UNL     1      -8.282   5.604  67.152  1.00  0.00    -0.101 C  
BRANCH  13  14
HETATM   14  S   UNL     1      -9.283   4.089  67.169  1.00  0.00    -0.179 SA 
BRANCH  14  15
HETATM   15  C   UNL     1      -8.452   3.164  65.969  1.00  0.00    -0.109 A  
HETATM   16  N   UNL     1      -7.516   2.271  66.193  1.00  0.00    -0.066 NA 
HETATM   17  C   UNL     1      -9.545   4.089  63.866  1.00  0.00    -0.157 C  
HETATM   18  N   UNL     1      -7.102   1.840  64.953  1.00  0.00    -0.046 NA 
HETATM   19  N   UNL     1      -8.630   3.278  64.619  1.00  0.00    -0.097 NA 
HETATM   20  N   UNL     1      -7.779   2.447  63.987  1.00  0.00    -0.070 NA 
ENDBRANCH  14  15
ENDBRANCH  13  14
ENDBRANCH   4  13
BRANCH   5  21
HETATM   21  N   UNL     1     -10.133  11.393  68.966  1.00  0.00    -0.379 N  
HETATM   22  O   UNL     1     -12.266  11.762  68.286  1.00  0.00    -0.486 OA 
HETATM   23  H   UNL     1      -9.166  11.711  68.905  1.00  0.00     0.000 HD 
HETATM   24  C   UNL     1     -11.076  12.085  68.231  1.00  0.00    -0.243 C  
BRANCH  24  25
HETATM   25  C   UNL     1     -10.543  13.290  67.372  1.00  0.00    -0.246 C  
HETATM   26  S   UNL     1     -11.559  14.818  67.477  1.00  0.00    -0.338 SA 
HETATM   27  C   UNL     1      -9.919  15.381  67.182  1.00  0.00    -0.234 C  
HETATM   28  C   UNL     1      -9.434  16.430  66.476  1.00  0.00    -0.296 C  
HETATM   29  S   UNL     1      -9.163  14.167  68.198  1.00  0.00    -0.198 SA 
HETATM   30  O   UNL     1      -7.570  17.699  65.649  1.00  0.00    -0.521 OA 
HETATM   31  C   UNL     1      -7.958  16.651  66.416  1.00  0.00    -0.325 C  
HETATM   32  O   UNL     1      -7.122  15.981  66.999  1.00  0.00    -0.208 OA 
BRANCH  28  33
HETATM   33  C   UNL     1     -10.351  17.329  65.720  1.00  0.00    -0.234 C  
HETATM   34  O   UNL     1     -10.844  16.947  64.658  1.00  0.00    -0.864 OA 
HETATM   35  N   UNL     1     -10.610  18.583  66.158  1.00  0.00    -0.400 N  
HETATM   36  H1  UNL     1     -11.238  19.198  65.640  1.00  0.00     0.000 HD 
HETATM   37  H2  UNL     1     -10.172  18.918  67.016  1.00  0.00     0.000 HD 
ENDBRANCH  28  33
ENDBRANCH  24  25
ENDBRANCH   5  21
BRANCH   5  38
HETATM   38  O   UNL     1     -11.443  10.514  70.826  1.00  0.00    -0.331 OA 
HETATM   39  C   UNL     1     -12.103   9.380  71.387  1.00  0.00    -0.363 C  
ENDBRANCH   5  38
TORSDOF 7
ENDMDL
MODEL       45
REMARK 921   NORMALIZED FREE ENERGY PREDICTED BY IDOCK:   -5.45 KCAL/MOL
REMARK 922        TOTAL FREE ENERGY PREDICTED BY IDOCK:   -9.13 KCAL/MOL
REMARK 923 INTER-LIGAND FREE ENERGY PREDICTED BY IDOCK:   -8.09 KCAL/MOL
REMARK 924 INTRA-LIGAND FREE ENERGY PREDICTED BY IDOCK:   -1.04 KCAL/MOL
REMARK 927      BINDING AFFINITY PREDICTED BY RF-SCORE:    0.00 PKD
ROOT
HETATM    1  C   UNL     1     -11.655   6.106  70.500  1.00  0.00    -0.191 C  
HETATM    2  S   UNL     1     -10.875   6.276  68.873  1.00  0.00    -0.358 SA 
HETATM    3  C   UNL     1      -9.963   4.720  69.027  1.00  0.00    -0.143 C  
HETATM    4  C   UNL     1      -9.201   4.564  70.338  1.00  0.00    -0.194 C  
HETATM    5  C   UNL     1     -12.180   7.451  71.185  1.00  0.00    -0.324 C  
HETATM    6  C   UNL     1      -9.542   5.197  71.502  1.00  0.00    -0.156 C  
HETATM    7  N   UNL     1     -10.611   6.057  71.511  1.00  0.00    -0.234 N  
HETATM    8  C   UNL     1      -8.711   4.965  72.759  1.00  0.00    -0.121 C  
HETATM    9  O   UNL     1      -7.745   4.215  72.795  1.00  0.00    -0.076 OA 
HETATM   10  O   UNL     1      -9.100   5.563  73.894  1.00  0.00    -0.123 OA 
HETATM   11  O   UNL     1     -10.887   7.238  73.483  1.00  0.00    -0.375 OA 
HETATM   12  C   UNL     1     -11.163   6.976  72.332  1.00  0.00    -0.268 C  
ENDROOT
BRANCH   4  13
HETATM   13  C   UNL     1      -7.965   3.679  70.142  1.00  0.00    -0.046 C  
BRANCH  13  14
HETATM   14  S   UNL     1      -6.801   4.437  68.973  1.00  0.00    -0.047 SA 
BRANCH  14  15
HETATM   15  C   UNL     1      -6.187   5.725  69.949  1.00  0.00    -0.026 A  
HETATM   16  N   UNL     1      -5.276   5.616  70.888  1.00  0.00    -0.009 NA 
HETATM   17  C   UNL     1      -7.564   7.660  69.038  1.00  0.00    -0.104 C  
HETATM   18  N   UNL     1      -5.149   6.872  71.436  1.00  0.00    -0.026 NA 
HETATM   19  N   UNL     1      -6.610   7.023  69.901  1.00  0.00    -0.043 NA 
HETATM   20  N   UNL     1      -5.957   7.737  70.838  1.00  0.00    -0.034 NA 
ENDBRANCH  14  15
ENDBRANCH  13  14
ENDBRANCH   4  13
BRANCH   5  21
HETATM   21  N   UNL     1     -11.851   8.685  70.414  1.00  0.00    -0.475 N  
HETATM   22  O   UNL     1      -9.854   9.119  71.400  1.00  0.00    -0.298 OA 
HETATM   23  H   UNL     1     -12.522   8.988  69.708  1.00  0.00     0.000 HD 
HETATM   24  C   UNL     1     -10.714   9.451  70.578  1.00  0.00    -0.276 C  
BRANCH  24  25
HETATM   25  C   UNL     1     -10.586  10.716  69.653  1.00  0.00    -0.217 C  
HETATM   26  S   UNL     1     -11.263  10.501  67.958  1.00  0.00    -0.242 SA 
HETATM   27  C   UNL     1     -11.469  12.210  68.316  1.00  0.00    -0.305 C  
HETATM   28  C   UNL     1     -11.397  13.315  67.536  1.00  0.00    -0.329 C  
HETATM   29  S   UNL     1     -11.889  11.957  70.000  1.00  0.00    -0.284 SA 
HETATM   30  O   UNL     1     -11.492  15.703  67.295  1.00  0.00    -0.201 OA 
HETATM   31  C   UNL     1     -11.629  14.657  68.147  1.00  0.00    -0.335 C  
HETATM   32  O   UNL     1     -11.932  14.858  69.312  1.00  0.00    -0.306 OA 
BRANCH  28  33
HETATM   33  C   UNL     1     -11.038  13.207  66.094  1.00  0.00    -0.282 C  
HETATM   34  O   UNL     1     -11.865  12.780  65.287  1.00  0.00    -0.356 OA 
HETATM   35  N   UNL     1      -9.794  13.523  65.663  1.00  0.00    -0.461 N  
HETATM   36  H1  UNL     1      -9.549  13.449  64.676  1.00  0.00     0.000 HD 
HETATM   37  H2  UNL     1      -9.094  13.839  66.334  1.00  0.00     0.000 HD 
ENDBRANCH  28  33
ENDBRANCH  24  25
ENDBRANCH   5  21
BRANCH   5  38
HETATM   38  O   UNL     1     -13.577   7.423  71.588  1.00  0.00    -0.370 OA 
HETATM   39  C   UNL     1     -14.130   8.677  71.984  1.00  0.00    -0.453 C  
ENDBRANCH   5  38
TORSDOF 7
ENDMDL
MODEL       46
REMARK 921   NORMALIZED FREE ENERGY PREDICTED BY IDOCK:   -5.45 KCAL/MOL
REMARK 922        TOTAL FREE ENERGY PREDICTED BY IDOCK:   -9.13 KCAL/MOL
REMARK 923 INTER-LIGAND FREE ENERGY PREDICTED BY IDOCK:   -8.00 KCAL/MOL
REMARK 924 INTRA-LIGAND FREE ENERGY PREDICTED BY IDOCK:   -1.13 KCAL/MOL
REMARK 927      BINDING AFFINITY PREDICTED BY RF-SCORE:    0.00 PKD
ROOT
HETATM    1  C   UNL     1     -11.303  15.098  69.230  1.00  0.00    -0.300 C  
HETATM    2  S   UNL     1      -9.588  15.113  69.816  1.00  0.00     0.054 SA 
HETATM    3  C   UNL     1      -9.147  16.561  68.824  1.00  0.00    -0.256 C  
HETATM    4  C   UNL     1      -9.558  16.469  67.359  1.00  0.00    -0.238 C  
HETATM    5  C   UNL     1     -12.083  13.708  69.340  1.00  0.00    -0.314 C  
HETATM    6  C   UNL     1     -10.591  15.699  66.900  1.00  0.00    -0.311 C  
HETATM    7  N   UNL     1     -11.297  14.924  67.787  1.00  0.00    -0.319 N  
HETATM    8  C   UNL     1     -10.920  15.684  65.412  1.00  0.00    -0.333 C  
HETATM    9  O   UNL     1     -10.313  16.350  64.585  1.00  0.00    -0.383 OA 
HETATM   10  O   UNL     1     -11.968  14.955  65.002  1.00  0.00    -0.336 OA 
HETATM   11  O   UNL     1     -12.830  13.490  66.812  1.00  0.00     0.041 OA 
HETATM   12  C   UNL     1     -12.218  13.936  67.757  1.00  0.00    -0.182 C  
ENDROOT
BRANCH   4  13
HETATM   13  C   UNL     1      -8.604  17.283  66.478  1.00  0.00    -0.264 C  
BRANCH  13  14
HETATM   14  S   UNL     1      -9.140  19.014  66.366  1.00  0.00    -0.301 SA 
BRANCH  14  15
HETATM   15  C   UNL     1      -7.807  19.793  67.144  1.00  0.00    -0.273 A  
HETATM   16  N   UNL     1      -7.616  19.886  68.440  1.00  0.00    -0.296 NA 
HETATM   17  C   UNL     1      -6.535  20.629  65.106  1.00  0.00    -0.255 C  
HETATM   18  N   UNL     1      -6.474  20.637  68.599  1.00  0.00    -0.267 NA 
HETATM   19  N   UNL     1      -6.799  20.459  66.507  1.00  0.00    -0.243 NA 
HETATM   20  N   UNL     1      -5.967  20.988  67.425  1.00  0.00    -0.268 NA 
ENDBRANCH  14  15
ENDBRANCH  13  14
ENDBRANCH   4  13
BRANCH   5  21
HETATM   21  N   UNL     1     -11.235  12.580  69.823  1.00  0.00    -0.487 N  
HETATM   22  O   UNL     1     -12.407  10.899  68.848  1.00  0.00    -0.486 OA 
HETATM   23  H   UNL     1     -10.426  12.815  70.397  1.00  0.00     0.000 HD 
HETATM   24  C   UNL     1     -11.457  11.243  69.558  1.00  0.00    -0.307 C  
BRANCH  24  25
HETATM   25  C   UNL     1     -10.429  10.229  70.182  1.00  0.00    -0.203 C  
HETATM   26  S   UNL     1     -11.129   9.118  71.468  1.00  0.00    -0.384 SA 
HETATM   27  C   UNL     1      -9.834   8.191  70.723  1.00  0.00    -0.180 C  
HETATM   28  C   UNL     1      -8.957   7.290  71.227  1.00  0.00    -0.139 C  
HETATM   29  S   UNL     1     -10.150   8.777  69.100  1.00  0.00    -0.202 SA 
HETATM   30  O   UNL     1      -7.094   5.806  70.927  1.00  0.00    -0.066 OA 
HETATM   31  C   UNL     1      -7.954   6.659  70.319  1.00  0.00    -0.115 C  
HETATM   32  O   UNL     1      -7.875   6.849  69.117  1.00  0.00    -0.107 OA 
BRANCH  28  33
HETATM   33  C   UNL     1      -8.951   6.966  72.681  1.00  0.00    -0.128 C  
HETATM   34  O   UNL     1      -9.859   6.288  73.162  1.00  0.00    -0.161 OA 
HETATM   35  N   UNL     1      -7.985   7.453  73.497  1.00  0.00    -0.109 N  
HETATM   36  H1  UNL     1      -7.981   7.231  74.492  1.00  0.00     0.000 HD 
HETATM   37  H2  UNL     1      -7.253   8.049  73.110  1.00  0.00     0.000 HD 
ENDBRANCH  28  33
ENDBRANCH  24  25
ENDBRANCH   5  21
BRANCH   5  38
HETATM   38  O   UNL     1     -13.349  13.776  70.054  1.00  0.00     0.479 OA 
HETATM   39  C   UNL     1     -13.251  13.978  71.464  1.00  0.00    -0.359 C  
ENDBRANCH   5  38
TORSDOF 7
ENDMDL
MODEL       47
REMARK 921   NORMALIZED FREE ENERGY PREDICTED BY IDOCK:   -5.39 KCAL/MOL
REMARK 922        TOTAL FREE ENERGY PREDICTED BY IDOCK:   -9.05 KCAL/MOL
REMARK 923 INTER-LIGAND FREE ENERGY PREDICTED BY IDOCK:   -8.33 KCAL/MOL
REMARK 924 INTRA-LIGAND FREE ENERGY PREDICTED BY IDOCK:   -0.72 KCAL/MOL
REMARK 927      BINDING AFFINITY PREDICTED BY RF-SCORE:    0.00 PKD
ROOT
HETATM    1  C   UNL     1     -10.660   7.082  70.510  1.00  0.00    -0.224 C  
HETATM    2  S   UNL     1     -10.717   6.652  68.750  1.00  0.00    -0.266 SA 
HETATM    3  C   UNL     1      -9.908   5.052  69.004  1.00  0.00    -0.182 C  
HETATM    4  C   UNL     1      -8.633   5.117  69.836  1.00  0.00    -0.108 C  
HETATM    5  C   UNL     1     -10.746   8.638  70.867  1.00  0.00    -0.219 C  
HETATM    6  C   UNL     1      -8.366   6.095  70.754  1.00  0.00    -0.126 C  
HETATM    7  N   UNL     1      -9.270   7.113  70.934  1.00  0.00    -0.153 N  
HETATM    8  C   UNL     1      -7.058   6.061  71.536  1.00  0.00    -0.078 C  
HETATM    9  O   UNL     1      -6.220   5.179  71.403  1.00  0.00    -0.027 OA 
HETATM   10  O   UNL     1      -6.849   7.008  72.462  1.00  0.00    -0.064 OA 
HETATM   11  O   UNL     1      -8.546   8.816  72.324  1.00  0.00    -0.377 OA 
HETATM   12  C   UNL     1      -9.336   8.309  71.558  1.00  0.00    -0.180 C  
ENDROOT
BRANCH   4  13
HETATM   13  C   UNL     1      -7.670   3.994  69.437  1.00  0.00    -0.053 C  
BRANCH  13  14
HETATM   14  S   UNL     1      -8.476   2.371  69.558  1.00  0.00    -0.056 SA 
BRANCH  14  15
HETATM   15  C   UNL     1      -8.854   2.347  71.244  1.00  0.00    -0.070 A  
HETATM   16  N   UNL     1     -10.033   2.577  71.775  1.00  0.00    -0.157 NA 
HETATM   17  C   UNL     1      -6.559   1.812  72.202  1.00  0.00    -0.015 C  
HETATM   18  N   UNL     1      -9.851   2.515  73.138  1.00  0.00    -0.103 NA 
HETATM   19  N   UNL     1      -7.958   2.131  72.252  1.00  0.00    -0.052 NA 
HETATM   20  N   UNL     1      -8.588   2.240  73.438  1.00  0.00    -0.069 NA 
ENDBRANCH  14  15
ENDBRANCH  13  14
ENDBRANCH   4  13
BRANCH   5  21
HETATM   21  N   UNL     1     -10.758   9.529  69.671  1.00  0.00    -0.231 N  
HETATM   22  O   UNL     1      -8.565  10.110  69.721  1.00  0.00    -0.184 OA 
HETATM   23  H   UNL     1     -11.644   9.637  69.177  1.00  0.00     0.000 HD 
HETATM   24  C   UNL     1      -9.669  10.221  69.179  1.00  0.00    -0.217 C  
BRANCH  24  25
HETATM   25  C   UNL     1      -9.924  11.107  67.905  1.00  0.00    -0.173 C  
HETATM   26  S   UNL     1     -10.446  10.173  66.410  1.00  0.00    -0.090 SA 
HETATM   27  C   UNL     1     -11.197  11.755  66.243  1.00  0.00    -0.312 C  
HETATM   28  C   UNL     1     -11.458  12.525  65.160  1.00  0.00    -0.369 C  
HETATM   29  S   UNL     1     -11.564  11.922  67.950  1.00  0.00    -0.305 SA 
HETATM   30  O   UNL     1     -12.301  14.562  64.209  1.00  0.00    -0.597 OA 
HETATM   31  C   UNL     1     -12.123  13.848  65.348  1.00  0.00    -0.408 C  
HETATM   32  O   UNL     1     -12.509  14.297  66.414  1.00  0.00    -0.441 OA 
BRANCH  28  33
HETATM   33  C   UNL     1     -11.040  12.089  63.798  1.00  0.00    -0.439 C  
HETATM   34  O   UNL     1      -9.900  12.331  63.400  1.00  0.00    -0.374 OA 
HETATM   35  N   UNL     1     -11.915  11.475  62.967  1.00  0.00    -0.908 N  
HETATM   36  H1  UNL     1     -11.629  11.177  62.034  1.00  0.00     0.000 HD 
HETATM   37  H2  UNL     1     -12.873  11.309  63.277  1.00  0.00     0.000 HD 
ENDBRANCH  28  33
ENDBRANCH  24  25
ENDBRANCH   5  21
BRANCH   5  38
HETATM   38  O   UNL     1     -11.797   8.987  71.811  1.00  0.00    -0.325 OA 
HETATM   39  C   UNL     1     -12.835   9.821  71.297  1.00  0.00    -0.377 C  
ENDBRANCH   5  38
TORSDOF 7
ENDMDL
MODEL       48
REMARK 921   NORMALIZED FREE ENERGY PREDICTED BY IDOCK:   -5.34 KCAL/MOL
REMARK 922        TOTAL FREE ENERGY PREDICTED BY IDOCK:   -8.98 KCAL/MOL
REMARK 923 INTER-LIGAND FREE ENERGY PREDICTED BY IDOCK:   -7.60 KCAL/MOL
REMARK 924 INTRA-LIGAND FREE ENERGY PREDICTED BY IDOCK:   -1.38 KCAL/MOL
REMARK 927      BINDING AFFINITY PREDICTED BY RF-SCORE:    0.00 PKD
ROOT
HETATM    1  C   UNL     1      -6.952   7.117  67.416  1.00  0.00    -0.079 C  
HETATM    2  S   UNL     1      -6.834   8.338  68.751  1.00  0.00    -0.063 SA 
HETATM    3  C   UNL     1      -6.729   7.075  70.044  1.00  0.00    -0.055 C  
HETATM    4  C   UNL     1      -7.800   5.994  69.956  1.00  0.00    -0.105 C  
HETATM    5  C   UNL     1      -7.612   7.615  66.049  1.00  0.00    -0.088 C  
HETATM    6  C   UNL     1      -8.437   5.640  68.798  1.00  0.00    -0.102 C  
HETATM    7  N   UNL     1      -8.139   6.306  67.635  1.00  0.00    -0.116 N  
HETATM    8  C   UNL     1      -9.492   4.539  68.823  1.00  0.00    -0.157 C  
HETATM    9  O   UNL     1      -9.797   3.925  69.835  1.00  0.00    -0.199 OA 
HETATM   10  O   UNL     1     -10.064   4.184  67.662  1.00  0.00    -0.051 OA 
HETATM   11  O   UNL     1      -9.490   5.766  65.835  1.00  0.00    -0.133 OA 
HETATM   12  C   UNL     1      -8.617   6.409  66.376  1.00  0.00    -0.134 C  
ENDROOT
BRANCH   4  13
HETATM   13  C   UNL     1      -8.117   5.432  71.345  1.00  0.00    -0.116 C  
BRANCH  13  14
HETATM   14  S   UNL     1      -8.704   6.741  72.458  1.00  0.00    -0.122 SA 
BRANCH  14  15
HETATM   15  C   UNL     1     -10.391   6.725  72.079  1.00  0.00    -0.196 A  
HETATM   16  N   UNL     1     -11.301   5.964  72.641  1.00  0.00    -0.294 NA 
HETATM   17  C   UNL     1     -10.442   8.473  70.231  1.00  0.00    -0.220 C  
HETATM   18  N   UNL     1     -12.479   6.243  71.987  1.00  0.00    -0.214 NA 
HETATM   19  N   UNL     1     -10.989   7.475  71.107  1.00  0.00    -0.243 NA 
HETATM   20  N   UNL     1     -12.299   7.166  71.052  1.00  0.00    -0.351 NA 
ENDBRANCH  14  15
ENDBRANCH  13  14
ENDBRANCH   4  13
BRANCH   5  21
HETATM   21  N   UNL     1      -8.136   9.011  66.108  1.00  0.00    -0.109 N  
HETATM   22  O   UNL     1      -8.998   9.086  64.010  1.00  0.00    -0.100 OA 
HETATM   23  H   UNL     1      -8.003   9.523  66.979  1.00  0.00     0.000 HD 
HETATM   24  C   UNL     1      -8.786   9.665  65.080  1.00  0.00    -0.166 C  
BRANCH  24  25
HETATM   25  C   UNL     1      -9.244  11.140  65.373  1.00  0.00    -0.205 C  
HETATM   26  S   UNL     1     -10.415  11.841  64.141  1.00  0.00    -0.385 SA 
HETATM   27  C   UNL     1     -10.817  12.639  65.656  1.00  0.00    -0.274 C  
HETATM   28  C   UNL     1     -11.244  13.894  65.934  1.00  0.00    -0.297 C  
HETATM   29  S   UNL     1     -10.561  11.213  66.645  1.00  0.00    -0.263 SA 
HETATM   30  O   UNL     1     -11.888  15.568  67.531  1.00  0.00    -0.127 OA 
HETATM   31  C   UNL     1     -11.508  14.279  67.352  1.00  0.00    -0.347 C  
HETATM   32  O   UNL     1     -11.417  13.532  68.313  1.00  0.00    -0.271 OA 
BRANCH  28  33
HETATM   33  C   UNL     1     -11.399  14.903  64.849  1.00  0.00    -0.413 C  
HETATM   34  O   UNL     1     -10.576  15.812  64.735  1.00  0.00    -0.504 OA 
HETATM   35  N   UNL     1     -12.465  14.868  64.016  1.00  0.00    -1.008 N  
HETATM   36  H1  UNL     1     -12.571  15.559  63.273  1.00  0.00     0.000 HD 
HETATM   37  H2  UNL     1     -13.172  14.141  64.132  1.00  0.00     0.000 HD 
ENDBRANCH  28  33
ENDBRANCH  24  25
ENDBRANCH   5  21
BRANCH   5  38
HETATM   38  O   UNL     1      -6.795   7.396  64.865  1.00  0.00    -0.049 OA 
HETATM   39  C   UNL     1      -5.504   8.003  64.885  1.00  0.00    -0.040 C  
ENDBRANCH   5  38
TORSDOF 7
ENDMDL
MODEL       49
REMARK 921   NORMALIZED FREE ENERGY PREDICTED BY IDOCK:   -5.34 KCAL/MOL
REMARK 922        TOTAL FREE ENERGY PREDICTED BY IDOCK:   -8.98 KCAL/MOL
REMARK 923 INTER-LIGAND FREE ENERGY PREDICTED BY IDOCK:   -7.60 KCAL/MOL
REMARK 924 INTRA-LIGAND FREE ENERGY PREDICTED BY IDOCK:   -1.38 KCAL/MOL
REMARK 927      BINDING AFFINITY PREDICTED BY RF-SCORE:    0.00 PKD
ROOT
HETATM    1  C   UNL     1      -9.940   7.066  68.709  1.00  0.00    -0.160 C  
HETATM    2  S   UNL     1     -10.818   7.079  67.122  1.00  0.00    -0.303 SA 
HETATM    3  C   UNL     1     -10.412   5.352  66.761  1.00  0.00    -0.289 C  
HETATM    4  C   UNL     1      -8.938   5.003  66.929  1.00  0.00    -0.112 C  
HETATM    5  C   UNL     1      -9.474   8.485  69.278  1.00  0.00    -0.158 C  
HETATM    6  C   UNL     1      -8.080   5.679  67.754  1.00  0.00    -0.101 C  
HETATM    7  N   UNL     1      -8.540   6.763  68.460  1.00  0.00    -0.125 N  
HETATM    8  C   UNL     1      -6.623   5.242  67.849  1.00  0.00    -0.050 C  
HETATM    9  O   UNL     1      -6.167   4.289  67.233  1.00  0.00    -0.033 OA 
HETATM   10  O   UNL     1      -5.820   5.896  68.702  1.00  0.00    -0.014 OA 
HETATM   11  O   UNL     1      -6.905   7.943  69.595  1.00  0.00    -0.041 OA 
HETATM   12  C   UNL     1      -8.040   7.771  69.206  1.00  0.00    -0.127 C  
ENDROOT
BRANCH   4  13
HETATM   13  C   UNL     1      -8.542   3.861  65.988  1.00  0.00    -0.112 C  
BRANCH  13  14
HETATM   14  S   UNL     1      -8.775   4.338  64.252  1.00  0.00    -0.142 SA 
BRANCH  14  15
HETATM   15  C   UNL     1      -7.265   5.122  63.948  1.00  0.00    -0.050 A  
HETATM   16  N   UNL     1      -6.150   4.535  63.579  1.00  0.00    -0.018 NA 
HETATM   17  C   UNL     1      -7.909   7.529  64.458  1.00  0.00    -0.130 C  
HETATM   18  N   UNL     1      -5.202   5.531  63.519  1.00  0.00    -0.013 NA 
HETATM   19  N   UNL     1      -7.024   6.458  64.099  1.00  0.00    -0.045 NA 
HETATM   20  N   UNL     1      -5.728   6.708  63.831  1.00  0.00    -0.030 NA 
ENDBRANCH  14  15
ENDBRANCH  13  14
ENDBRANCH   4  13
BRANCH   5  21
HETATM   21  N   UNL     1      -9.746   9.622  68.352  1.00  0.00    -0.148 N  
HETATM   22  O   UNL     1      -8.136  11.020  69.129  1.00  0.00    -0.135 OA 
HETATM   23  H   UNL     1     -10.494   9.501  67.669  1.00  0.00     0.000 HD 
HETATM   24  C   UNL     1      -9.069  10.826  68.343  1.00  0.00    -0.164 C  
BRANCH  24  25
HETATM   25  C   UNL     1      -9.537  11.882  67.276  1.00  0.00    -0.177 C  
HETATM   26  S   UNL     1     -11.359  12.001  67.061  1.00  0.00    -0.335 SA 
HETATM   27  C   UNL     1     -10.751  13.610  66.694  1.00  0.00    -0.280 C  
HETATM   28  C   UNL     1     -11.154  14.551  65.806  1.00  0.00    -0.324 C  
HETATM   29  S   UNL     1      -9.519  13.588  67.942  1.00  0.00    -0.222 SA 
HETATM   30  O   UNL     1     -10.869  16.705  64.783  1.00  0.00    -0.732 OA 
HETATM   31  C   UNL     1     -10.418  15.848  65.732  1.00  0.00    -0.370 C  
HETATM   32  O   UNL     1      -9.487  16.171  66.451  1.00  0.00    -0.252 OA 
BRANCH  28  33
HETATM   33  C   UNL     1     -12.283  14.282  64.872  1.00  0.00    -0.440 C  
HETATM   34  O   UNL     1     -13.435  14.227  65.302  1.00  0.00    -0.564 OA 
HETATM   35  N   UNL     1     -12.055  14.044  63.558  1.00  0.00    -0.991 N  
HETATM   36  H1  UNL     1     -12.828  13.860  62.919  1.00  0.00     0.000 HD 
HETATM   37  H2  UNL     1     -11.098  14.048  63.204  1.00  0.00     0.000 HD 
ENDBRANCH  28  33
ENDBRANCH  24  25
ENDBRANCH   5  21
BRANCH   5  38
HETATM   38  O   UNL     1      -9.922   8.773  70.632  1.00  0.00    -0.180 OA 
HETATM   39  C   UNL     1      -8.913   8.723  71.639  1.00  0.00    -0.231 C  
ENDBRANCH   5  38
TORSDOF 7
ENDMDL
MODEL       50
REMARK 921   NORMALIZED FREE ENERGY PREDICTED BY IDOCK:   -5.34 KCAL/MOL
REMARK 922        TOTAL FREE ENERGY PREDICTED BY IDOCK:   -8.97 KCAL/MOL
REMARK 923 INTER-LIGAND FREE ENERGY PREDICTED BY IDOCK:   -7.98 KCAL/MOL
REMARK 924 INTRA-LIGAND FREE ENERGY PREDICTED BY IDOCK:   -1.00 KCAL/MOL
REMARK 927      BINDING AFFINITY PREDICTED BY RF-SCORE:    0.00 PKD
ROOT
HETATM    1  C   UNL     1      -9.000   9.750  66.329  1.00  0.00    -0.153 C  
HETATM    2  S   UNL     1     -10.387   9.987  67.474  1.00  0.00    -0.249 SA 
HETATM    3  C   UNL     1     -10.517  11.758  67.121  1.00  0.00    -0.220 C  
HETATM    4  C   UNL     1      -9.196  12.514  67.198  1.00  0.00    -0.205 C  
HETATM    5  C   UNL     1      -8.070   8.478  66.590  1.00  0.00    -0.104 C  
HETATM    6  C   UNL     1      -7.970  11.935  67.008  1.00  0.00    -0.158 C  
HETATM    7  N   UNL     1      -7.893  10.586  66.765  1.00  0.00    -0.117 N  
HETATM    8  C   UNL     1      -6.710  12.788  67.104  1.00  0.00     0.038 C  
HETATM    9  O   UNL     1      -6.729  13.990  67.326  1.00  0.00    -0.244 OA 
HETATM   10  O   UNL     1      -5.528  12.200  66.866  1.00  0.00    -0.268 OA 
HETATM   11  O   UNL     1      -5.744   9.729  66.732  1.00  0.00    -0.049 OA 
HETATM   12  C   UNL     1      -6.950   9.622  66.700  1.00  0.00    -0.085 C  
ENDROOT
BRANCH   4  13
HETATM   13  C   UNL     1      -9.431  13.973  67.600  1.00  0.00    -0.210 C  
BRANCH  13  14
HETATM   14  S   UNL     1     -11.195  14.394  67.519  1.00  0.00    -0.330 SA 
BRANCH  14  15
HETATM   15  C   UNL     1     -11.201  15.402  66.115  1.00  0.00    -0.161 A  
HETATM   16  N   UNL     1     -10.745  16.631  66.045  1.00  0.00    -0.214 NA 
HETATM   17  C   UNL     1     -12.322  13.835  64.455  1.00  0.00    -0.344 C  
HETATM   18  N   UNL     1     -11.013  17.059  64.765  1.00  0.00    -0.905 NA 
HETATM   19  N   UNL     1     -11.729  15.064  64.902  1.00  0.00    -0.364 NA 
HETATM   20  N   UNL     1     -11.611  16.108  64.059  1.00  0.00    -0.889 NA 
ENDBRANCH  14  15
ENDBRANCH  13  14
ENDBRANCH   4  13
BRANCH   5  21
HETATM   21  N   UNL     1      -8.426   7.714  67.821  1.00  0.00    -0.121 N  
HETATM   22  O   UNL     1      -6.421   6.693  68.119  1.00  0.00    -0.048 OA 
HETATM   23  H   UNL     1      -9.369   7.834  68.189  1.00  0.00     0.000 HD 
HETATM   24  C   UNL     1      -7.583   6.859  68.503  1.00  0.00    -0.111 C  
BRANCH  24  25
HETATM   25  C   UNL     1      -8.184   6.157  69.776  1.00  0.00    -0.123 C  
HETATM   26  S   UNL     1      -9.796   6.836  70.340  1.00  0.00    -0.175 SA 
HETATM   27  C   UNL     1      -9.827   5.142  70.810  1.00  0.00    -0.202 C  
HETATM   28  C   UNL     1     -10.362   4.508  71.880  1.00  0.00    -0.198 C  
HETATM   29  S   UNL     1      -9.010   4.575  69.365  1.00  0.00    -0.103 SA 
HETATM   30  O   UNL     1     -10.751   2.491  73.125  1.00  0.00    -0.154 OA 
HETATM   31  C   UNL     1     -10.220   3.026  71.998  1.00  0.00    -0.038 C  
HETATM   32  O   UNL     1      -9.690   2.302  71.172  1.00  0.00    -0.149 OA 
BRANCH  28  33
HETATM   33  C   UNL     1     -11.040   5.278  72.961  1.00  0.00    -0.317 C  
HETATM   34  O   UNL     1     -10.498   5.400  74.060  1.00  0.00    -0.252 OA 
HETATM   35  N   UNL     1     -12.273   5.803  72.769  1.00  0.00    -0.517 N  
HETATM   36  H1  UNL     1     -12.737   6.330  73.509  1.00  0.00     0.000 HD 
HETATM   37  H2  UNL     1     -12.744   5.670  71.874  1.00  0.00     0.000 HD 
ENDBRANCH  28  33
ENDBRANCH  24  25
ENDBRANCH   5  21
BRANCH   5  38
HETATM   38  O   UNL     1      -7.904   7.601  65.441  1.00  0.00    -0.100 OA 
HETATM   39  C   UNL     1      -8.041   8.224  64.164  1.00  0.00    -0.136 C  
ENDBRANCH   5  38
TORSDOF 7
ENDMDL
MODEL       51
REMARK 921   NORMALIZED FREE ENERGY PREDICTED BY IDOCK:   -5.32 KCAL/MOL
REMARK 922        TOTAL FREE ENERGY PREDICTED BY IDOCK:   -8.95 KCAL/MOL
REMARK 923 INTER-LIGAND FREE ENERGY PREDICTED BY IDOCK:   -8.43 KCAL/MOL
REMARK 924 INTRA-LIGAND FREE ENERGY PREDICTED BY IDOCK:   -0.52 KCAL/MOL
REMARK 927      BINDING AFFINITY PREDICTED BY RF-SCORE:    0.00 PKD
ROOT
HETATM    1  C   UNL     1     -10.799   8.552  69.542  1.00  0.00    -0.125 C  
HETATM    2  S   UNL     1     -10.778   8.515  67.730  1.00  0.00    -0.013 SA 
HETATM    3  C   UNL     1     -10.365   6.754  67.663  1.00  0.00    -0.203 C  
HETATM    4  C   UNL     1      -9.192   6.348  68.548  1.00  0.00    -0.124 C  
HETATM    5  C   UNL     1     -10.578   9.978  70.229  1.00  0.00    -0.295 C  
HETATM    6  C   UNL     1      -8.809   7.029  69.670  1.00  0.00    -0.141 C  
HETATM    7  N   UNL     1      -9.482   8.171  70.027  1.00  0.00    -0.167 N  
HETATM    8  C   UNL     1      -7.620   6.532  70.486  1.00  0.00    -0.096 C  
HETATM    9  O   UNL     1      -6.985   5.526  70.202  1.00  0.00    -0.059 OA 
HETATM   10  O   UNL     1      -7.300   7.196  71.607  1.00  0.00    -0.082 OA 
HETATM   11  O   UNL     1      -8.542   9.339  71.791  1.00  0.00    -0.289 OA 
HETATM   12  C   UNL     1      -9.346   9.196  70.896  1.00  0.00    -0.269 C  
ENDROOT
BRANCH   4  13
HETATM   13  C   UNL     1      -8.463   5.137  67.957  1.00  0.00    -0.100 C  
BRANCH  13  14
HETATM   14  S   UNL     1      -8.070   5.406  66.204  1.00  0.00    -0.108 SA 
BRANCH  14  15
HETATM   15  C   UNL     1      -7.063   6.805  66.331  1.00  0.00    -0.071 A  
HETATM   16  N   UNL     1      -6.008   6.930  67.102  1.00  0.00    -0.021 NA 
HETATM   17  C   UNL     1      -8.260   8.356  64.708  1.00  0.00    -0.160 C  
HETATM   18  N   UNL     1      -5.564   8.221  66.926  1.00  0.00    -0.036 NA 
HETATM   19  N   UNL     1      -7.266   7.987  65.676  1.00  0.00    -0.070 NA 
HETATM   20  N   UNL     1      -6.324   8.872  66.055  1.00  0.00    -0.056 NA 
ENDBRANCH  14  15
ENDBRANCH  13  14
ENDBRANCH   4  13
BRANCH   5  21
HETATM   21  N   UNL     1     -10.281  11.073  69.260  1.00  0.00    -0.384 N  
HETATM   22  O   UNL     1     -12.387  11.321  68.450  1.00  0.00    -0.545 OA 
HETATM   23  H   UNL     1      -9.320  11.408  69.213  1.00  0.00     0.000 HD 
HETATM   24  C   UNL     1     -11.202  11.668  68.420  1.00  0.00    -0.249 C  
BRANCH  24  25
HETATM   25  C   UNL     1     -10.654  12.801  67.477  1.00  0.00    -0.229 C  
HETATM   26  S   UNL     1     -11.866  14.124  67.078  1.00  0.00    -0.441 SA 
HETATM   27  C   UNL     1     -10.297  14.915  67.026  1.00  0.00    -0.264 C  
HETATM   28  C   UNL     1      -9.809  15.911  66.249  1.00  0.00    -0.325 C  
HETATM   29  S   UNL     1      -9.639  14.025  68.387  1.00  0.00    -0.209 SA 
HETATM   30  O   UNL     1      -7.996  17.345  65.597  1.00  0.00    -0.477 OA 
HETATM   31  C   UNL     1      -8.405  16.376  66.452  1.00  0.00    -0.328 C  
HETATM   32  O   UNL     1      -7.643  15.962  67.311  1.00  0.00    -0.163 OA 
BRANCH  28  33
HETATM   33  C   UNL     1     -10.639  16.506  65.164  1.00  0.00    -0.215 C  
HETATM   34  O   UNL     1     -10.816  17.724  65.126  1.00  0.00    -0.671 OA 
HETATM   35  N   UNL     1     -11.247  15.720  64.245  1.00  0.00    -0.757 N  
HETATM   36  H1  UNL     1     -11.815  16.127  63.502  1.00  0.00     0.000 HD 
HETATM   37  H2  UNL     1     -11.136  14.707  64.296  1.00  0.00     0.000 HD 
ENDBRANCH  28  33
ENDBRANCH  24  25
ENDBRANCH   5  21
BRANCH   5  38
HETATM   38  O   UNL     1     -11.614  10.363  71.176  1.00  0.00    -0.333 OA 
HETATM   39  C   UNL     1     -12.557   9.345  71.506  1.00  0.00    -0.362 C  
ENDBRANCH   5  38
TORSDOF 7
ENDMDL
MODEL       52
REMARK 921   NORMALIZED FREE ENERGY PREDICTED BY IDOCK:   -5.31 KCAL/MOL
REMARK 922        TOTAL FREE ENERGY PREDICTED BY IDOCK:   -8.94 KCAL/MOL
REMARK 923 INTER-LIGAND FREE ENERGY PREDICTED BY IDOCK:   -8.11 KCAL/MOL
REMARK 924 INTRA-LIGAND FREE ENERGY PREDICTED BY IDOCK:   -0.83 KCAL/MOL
REMARK 927      BINDING AFFINITY PREDICTED BY RF-SCORE:    0.00 PKD
ROOT
HETATM    1  C   UNL     1     -11.146  10.349  67.243  1.00  0.00    -0.179 C  
HETATM    2  S   UNL     1     -10.718  11.270  65.742  1.00  0.00    -0.182 SA 
HETATM    3  C   UNL     1      -9.749   9.907  65.051  1.00  0.00    -0.288 C  
HETATM    4  C   UNL     1      -8.731   9.306  66.014  1.00  0.00    -0.175 C  
HETATM    5  C   UNL     1     -11.559  11.217  68.520  1.00  0.00    -0.314 C  
HETATM    6  C   UNL     1      -8.847   9.352  67.377  1.00  0.00    -0.128 C  
HETATM    7  N   UNL     1      -9.917  10.003  67.939  1.00  0.00    -0.150 N  
HETATM    8  C   UNL     1      -7.771   8.714  68.248  1.00  0.00    -0.101 C  
HETATM    9  O   UNL     1      -6.796   8.132  67.792  1.00  0.00    -0.070 OA 
HETATM   10  O   UNL     1      -7.938   8.736  69.578  1.00  0.00    -0.092 OA 
HETATM   11  O   UNL     1      -9.820  10.214  70.242  1.00  0.00    -0.169 OA 
HETATM   12  C   UNL     1     -10.317  10.426  69.157  1.00  0.00    -0.222 C  
ENDROOT
BRANCH   4  13
HETATM   13  C   UNL     1      -7.536   8.730  65.248  1.00  0.00    -0.086 C  
BRANCH  13  14
HETATM   14  S   UNL     1      -8.014   7.248  64.314  1.00  0.00    -0.049 SA 
BRANCH  14  15
HETATM   15  C   UNL     1      -7.685   6.029  65.494  1.00  0.00    -0.093 A  
HETATM   16  N   UNL     1      -8.496   5.642  66.451  1.00  0.00    -0.118 NA 
HETATM   17  C   UNL     1      -5.327   5.373  64.802  1.00  0.00    -0.010 C  
HETATM   18  N   UNL     1      -7.798   4.705  67.179  1.00  0.00    -0.094 NA 
HETATM   19  N   UNL     1      -6.512   5.338  65.611  1.00  0.00    -0.039 NA 
HETATM   20  N   UNL     1      -6.588   4.512  66.671  1.00  0.00    -0.048 NA 
ENDBRANCH  14  15
ENDBRANCH  13  14
ENDBRANCH   4  13
BRANCH   5  21
HETATM   21  N   UNL     1     -11.431  12.689  68.313  1.00  0.00    -0.289 N  
HETATM   22  O   UNL     1     -11.897  13.322  70.441  1.00  0.00    -0.293 OA 
HETATM   23  H   UNL     1     -11.183  13.009  67.377  1.00  0.00     0.000 HD 
HETATM   24  C   UNL     1     -11.621  13.652  69.284  1.00  0.00    -0.311 C  
BRANCH  24  25
HETATM   25  C   UNL     1     -11.437  15.146  68.829  1.00  0.00    -0.319 C  
HETATM   26  S   UNL     1      -9.925  15.967  69.475  1.00  0.00    -0.257 SA 
HETATM   27  C   UNL     1     -10.236  16.742  67.928  1.00  0.00    -0.300 C  
HETATM   28  C   UNL     1     -10.058  18.014  67.499  1.00  0.00    -0.356 C  
HETATM   29  S   UNL     1     -10.761  15.270  67.130  1.00  0.00    -0.320 SA 
HETATM   30  O   UNL     1     -10.251  19.677  65.777  1.00  0.00    -0.428 OA 
HETATM   31  C   UNL     1     -10.424  18.371  66.096  1.00  0.00    -0.395 C  
HETATM   32  O   UNL     1     -10.840  17.589  65.257  1.00  0.00    -0.592 OA 
BRANCH  28  33
HETATM   33  C   UNL     1      -9.554  19.067  68.426  1.00  0.00    -0.373 C  
HETATM   34  O   UNL     1      -8.349  19.145  68.667  1.00  0.00    -0.353 OA 
HETATM   35  N   UNL     1     -10.410  19.909  69.051  1.00  0.00    -0.599 N  
HETATM   36  H1  UNL     1     -10.064  20.629  69.685  1.00  0.00     0.000 HD 
HETATM   37  H2  UNL     1     -11.413  19.822  68.886  1.00  0.00     0.000 HD 
ENDBRANCH  28  33
ENDBRANCH  24  25
ENDBRANCH   5  21
BRANCH   5  38
HETATM   38  O   UNL     1     -12.844  10.865  69.104  1.00  0.00    -0.137 OA 
HETATM   39  C   UNL     1     -12.797  10.351  70.434  1.00  0.00    -0.183 C  
ENDBRANCH   5  38
TORSDOF 7
ENDMDL
MODEL       53
REMARK 921   NORMALIZED FREE ENERGY PREDICTED BY IDOCK:   -5.29 KCAL/MOL
REMARK 922        TOTAL FREE ENERGY PREDICTED BY IDOCK:   -8.91 KCAL/MOL
REMARK 923 INTER-LIGAND FREE ENERGY PREDICTED BY IDOCK:   -7.67 KCAL/MOL
REMARK 924 INTRA-LIGAND FREE ENERGY PREDICTED BY IDOCK:   -1.23 KCAL/MOL
REMARK 927      BINDING AFFINITY PREDICTED BY RF-SCORE:    0.00 PKD
ROOT
HETATM    1  C   UNL     1      -7.779  12.552  67.230  1.00  0.00    -0.146 C  
HETATM    2  S   UNL     1      -9.461  11.904  67.029  1.00  0.00    -0.192 SA 
HETATM    3  C   UNL     1     -10.108  13.476  66.406  1.00  0.00    -0.294 C  
HETATM    4  C   UNL     1      -9.746  14.688  67.258  1.00  0.00    -0.231 C  
HETATM    5  C   UNL     1      -6.836  11.781  68.265  1.00  0.00    -0.068 C  
HETATM    6  C   UNL     1      -8.647  14.752  68.070  1.00  0.00    -0.166 C  
HETATM    7  N   UNL     1      -7.820  13.660  68.171  1.00  0.00    -0.131 N  
HETATM    8  C   UNL     1      -8.377  16.017  68.877  1.00  0.00    -0.231 C  
HETATM    9  O   UNL     1      -9.089  17.010  68.826  1.00  0.00    -0.265 OA 
HETATM   10  O   UNL     1      -7.266  16.064  69.627  1.00  0.00    -0.193 OA 
HETATM   11  O   UNL     1      -6.167  13.842  69.780  1.00  0.00    -0.124 OA 
HETATM   12  C   UNL     1      -6.791  13.237  68.936  1.00  0.00    -0.103 C  
ENDROOT
BRANCH   4  13
HETATM   13  C   UNL     1     -10.822  15.772  67.141  1.00  0.00    -0.289 C  
BRANCH  13  14
HETATM   14  S   UNL     1     -10.726  16.614  65.535  1.00  0.00    -0.122 SA 
BRANCH  14  15
HETATM   15  C   UNL     1     -10.135  18.158  66.038  1.00  0.00    -0.268 A  
HETATM   16  N   UNL     1     -10.868  19.192  66.381  1.00  0.00    -0.316 NA 
HETATM   17  C   UNL     1      -7.631  17.751  65.851  1.00  0.00    -0.135 C  
HETATM   18  N   UNL     1      -9.982  20.211  66.643  1.00  0.00    -0.452 NA 
HETATM   19  N   UNL     1      -8.819  18.518  66.100  1.00  0.00    -0.494 NA 
HETATM   20  N   UNL     1      -8.729  19.808  66.477  1.00  0.00    -0.345 NA 
ENDBRANCH  14  15
ENDBRANCH  13  14
ENDBRANCH   4  13
BRANCH   5  21
HETATM   21  N   UNL     1      -7.526  10.682  69.002  1.00  0.00    -0.106 N  
HETATM   22  O   UNL     1      -6.196  10.689  70.841  1.00  0.00    -0.329 OA 
HETATM   23  H   UNL     1      -8.337  10.256  68.555  1.00  0.00     0.000 HD 
HETATM   24  C   UNL     1      -7.155  10.195  70.240  1.00  0.00    -0.138 C  
BRANCH  24  25
HETATM   25  C   UNL     1      -8.031   9.024  70.818  1.00  0.00    -0.148 C  
HETATM   26  S   UNL     1      -9.767   8.992  70.216  1.00  0.00    -0.212 SA 
HETATM   27  C   UNL     1      -9.368   7.311  70.539  1.00  0.00    -0.158 C  
HETATM   28  C   UNL     1     -10.107   6.276  71.006  1.00  0.00    -0.221 C  
HETATM   29  S   UNL     1      -7.718   7.438  69.956  1.00  0.00    -0.096 SA 
HETATM   30  O   UNL     1     -10.278   3.980  71.687  1.00  0.00    -0.147 OA 
HETATM   31  C   UNL     1      -9.468   4.938  71.173  1.00  0.00    -0.157 C  
HETATM   32  O   UNL     1      -8.316   4.665  70.877  1.00  0.00    -0.090 OA 
BRANCH  28  33
HETATM   33  C   UNL     1     -11.530   6.475  71.401  1.00  0.00    -0.309 C  
HETATM   34  O   UNL     1     -12.376   6.727  70.542  1.00  0.00    -0.326 OA 
HETATM   35  N   UNL     1     -11.901   6.436  72.703  1.00  0.00    -0.502 N  
HETATM   36  H1  UNL     1     -12.875   6.572  72.973  1.00  0.00     0.000 HD 
HETATM   37  H2  UNL     1     -11.197   6.268  73.422  1.00  0.00     0.000 HD 
ENDBRANCH  28  33
ENDBRANCH  24  25
ENDBRANCH   5  21
BRANCH   5  38
HETATM   38  O   UNL     1      -5.561  11.345  67.716  1.00  0.00    -0.043 OA 
HETATM   39  C   UNL     1      -5.575  10.983  66.336  1.00  0.00    -0.127 C  
ENDBRANCH   5  38
TORSDOF 7
ENDMDL
MODEL       54
REMARK 921   NORMALIZED FREE ENERGY PREDICTED BY IDOCK:   -5.28 KCAL/MOL
REMARK 922        TOTAL FREE ENERGY PREDICTED BY IDOCK:   -8.89 KCAL/MOL
REMARK 923 INTER-LIGAND FREE ENERGY PREDICTED BY IDOCK:   -7.35 KCAL/MOL
REMARK 924 INTRA-LIGAND FREE ENERGY PREDICTED BY IDOCK:   -1.54 KCAL/MOL
REMARK 927      BINDING AFFINITY PREDICTED BY RF-SCORE:    0.00 PKD
ROOT
HETATM    1  C   UNL     1      -8.015   8.104  69.084  1.00  0.00    -0.113 C  
HETATM    2  S   UNL     1      -7.579   9.537  70.106  1.00  0.00    -0.157 SA 
HETATM    3  C   UNL     1      -8.011   8.702  71.653  1.00  0.00    -0.119 C  
HETATM    4  C   UNL     1      -9.379   8.031  71.646  1.00  0.00    -0.208 C  
HETATM    5  C   UNL     1      -8.362   8.399  67.552  1.00  0.00    -0.129 C  
HETATM    6  C   UNL     1     -10.014   7.599  70.514  1.00  0.00    -0.184 C  
HETATM    7  N   UNL     1      -9.421   7.799  69.292  1.00  0.00    -0.155 N  
HETATM    8  C   UNL     1     -11.383   6.935  70.622  1.00  0.00    -0.320 C  
HETATM    9  O   UNL     1     -11.953   6.744  71.687  1.00  0.00    -0.311 OA 
HETATM   10  O   UNL     1     -11.957   6.481  69.498  1.00  0.00    -0.150 OA 
HETATM   11  O   UNL     1     -10.743   7.249  67.473  1.00  0.00    -0.254 OA 
HETATM   12  C   UNL     1      -9.743   7.705  67.984  1.00  0.00    -0.152 C  
ENDROOT
BRANCH   4  13
HETATM   13  C   UNL     1      -9.970   7.992  73.059  1.00  0.00    -0.279 C  
BRANCH  13  14
HETATM   14  S   UNL     1      -8.947   6.976  74.164  1.00  0.00    -0.212 SA 
BRANCH  14  15
HETATM   15  C   UNL     1      -9.643   5.421  73.874  1.00  0.00    -0.142 A  
HETATM   16  N   UNL     1     -10.728   4.943  74.438  1.00  0.00    -0.354 NA 
HETATM   17  C   UNL     1      -7.973   4.499  72.192  1.00  0.00    -0.100 C  
HETATM   18  N   UNL     1     -10.866   3.660  73.960  1.00  0.00    -0.211 NA 
HETATM   19  N   UNL     1      -9.124   4.464  73.049  1.00  0.00    -0.119 NA 
HETATM   20  N   UNL     1      -9.894   3.361  73.109  1.00  0.00    -0.119 NA 
ENDBRANCH  14  15
ENDBRANCH  13  14
ENDBRANCH   4  13
BRANCH   5  21
HETATM   21  N   UNL     1      -8.375   9.850  67.208  1.00  0.00    -0.121 N  
HETATM   22  O   UNL     1      -9.948   9.746  65.575  1.00  0.00    -0.307 OA 
HETATM   23  H   UNL     1      -7.755  10.463  67.737  1.00  0.00     0.000 HD 
HETATM   24  C   UNL     1      -9.159  10.433  66.231  1.00  0.00    -0.158 C  
BRANCH  24  25
HETATM   25  C   UNL     1      -8.997  11.985  66.042  1.00  0.00    -0.021 C  
HETATM   26  S   UNL     1     -10.422  12.985  66.633  1.00  0.00    -0.267 SA 
HETATM   27  C   UNL     1      -9.020  14.027  66.838  1.00  0.00    -0.227 C  
HETATM   28  C   UNL     1      -8.860  15.366  66.714  1.00  0.00    -0.300 C  
HETATM   29  S   UNL     1      -7.951  12.733  67.347  1.00  0.00    -0.167 SA 
HETATM   30  O   UNL     1      -7.447  17.307  66.769  1.00  0.00    -0.180 OA 
HETATM   31  C   UNL     1      -7.516  15.967  66.961  1.00  0.00    -0.219 C  
HETATM   32  O   UNL     1      -6.525  15.353  67.322  1.00  0.00    -0.292 OA 
BRANCH  28  33
HETATM   33  C   UNL     1      -9.993  16.231  66.283  1.00  0.00    -0.317 C  
HETATM   34  O   UNL     1     -10.366  16.214  65.109  1.00  0.00    -0.560 OA 
HETATM   35  N   UNL     1     -10.589  17.080  67.153  1.00  0.00    -0.287 N  
HETATM   36  H1  UNL     1     -11.365  17.672  66.858  1.00  0.00     0.000 HD 
HETATM   37  H2  UNL     1     -10.257  17.127  68.117  1.00  0.00     0.000 HD 
ENDBRANCH  28  33
ENDBRANCH  24  25
ENDBRANCH   5  21
BRANCH   5  38
HETATM   38  O   UNL     1      -7.588   7.625  66.594  1.00  0.00    -0.093 OA 
HETATM   39  C   UNL     1      -6.187   7.893  66.573  1.00  0.00    -0.046 C  
ENDBRANCH   5  38
TORSDOF 7
ENDMDL
MODEL       55
REMARK 921   NORMALIZED FREE ENERGY PREDICTED BY IDOCK:   -5.27 KCAL/MOL
REMARK 922        TOTAL FREE ENERGY PREDICTED BY IDOCK:   -8.89 KCAL/MOL
REMARK 923 INTER-LIGAND FREE ENERGY PREDICTED BY IDOCK:   -8.04 KCAL/MOL
REMARK 924 INTRA-LIGAND FREE ENERGY PREDICTED BY IDOCK:   -0.85 KCAL/MOL
REMARK 927      BINDING AFFINITY PREDICTED BY RF-SCORE:    0.00 PKD
ROOT
HETATM    1  C   UNL     1     -10.890  10.801  67.746  1.00  0.00    -0.269 C  
HETATM    2  S   UNL     1      -9.127  10.519  67.429  1.00  0.00    -0.138 SA 
HETATM    3  C   UNL     1      -9.153   8.857  68.147  1.00  0.00    -0.140 C  
HETATM    4  C   UNL     1      -9.806   8.776  69.522  1.00  0.00    -0.180 C  
HETATM    5  C   UNL     1     -11.367  12.324  67.819  1.00  0.00    -0.301 C  
HETATM    6  C   UNL     1     -10.747   9.659  69.976  1.00  0.00    -0.259 C  
HETATM    7  N   UNL     1     -11.121  10.712  69.179  1.00  0.00    -0.236 N  
HETATM    8  C   UNL     1     -11.339   9.480  71.370  1.00  0.00    -0.392 C  
HETATM    9  O   UNL     1     -11.030   8.563  72.118  1.00  0.00    -0.312 OA 
HETATM   10  O   UNL     1     -12.294  10.336  71.766  1.00  0.00    -0.377 OA 
HETATM   11  O   UNL     1     -12.519  12.249  70.199  1.00  0.00    -0.153 OA 
HETATM   12  C   UNL     1     -11.834  11.854  69.281  1.00  0.00    -0.318 C  
ENDROOT
BRANCH   4  13
HETATM   13  C   UNL     1      -9.199   7.632  70.342  1.00  0.00    -0.156 C  
BRANCH  13  14
HETATM   14  S   UNL     1     -10.236   6.145  70.251  1.00  0.00    -0.212 SA 
BRANCH  14  15
HETATM   15  C   UNL     1      -9.362   5.238  69.068  1.00  0.00    -0.130 A  
HETATM   16  N   UNL     1      -9.380   5.441  67.771  1.00  0.00    -0.113 NA 
HETATM   17  C   UNL     1      -8.206   3.548  70.576  1.00  0.00    -0.053 C  
HETATM   18  N   UNL     1      -8.595   4.452  67.224  1.00  0.00    -0.104 NA 
HETATM   19  N   UNL     1      -8.570   4.156  69.328  1.00  0.00    -0.076 NA 
HETATM   20  N   UNL     1      -8.094   3.665  68.168  1.00  0.00    -0.082 NA 
ENDBRANCH  14  15
ENDBRANCH  13  14
ENDBRANCH   4  13
BRANCH   5  21
HETATM   21  N   UNL     1     -10.251  13.309  67.714  1.00  0.00    -0.224 N  
HETATM   22  O   UNL     1     -11.325  15.066  68.668  1.00  0.00    -0.267 OA 
HETATM   23  H   UNL     1      -9.379  12.984  67.298  1.00  0.00     0.000 HD 
HETATM   24  C   UNL     1     -10.304  14.623  68.134  1.00  0.00    -0.230 C  
BRANCH  24  25
HETATM   25  C   UNL     1      -9.001  15.477  67.914  1.00  0.00    -0.173 C  
HETATM   26  S   UNL     1      -8.812  16.169  66.221  1.00  0.00    -0.334 SA 
HETATM   27  C   UNL     1      -8.001  17.319  67.276  1.00  0.00    -0.187 C  
HETATM   28  C   UNL     1      -6.901  18.090  67.102  1.00  0.00    -0.207 C  
HETATM   29  S   UNL     1      -9.173  17.178  68.574  1.00  0.00    -0.266 SA 
HETATM   30  O   UNL     1      -5.320  19.684  67.954  1.00  0.00    -0.176 OA 
HETATM   31  C   UNL     1      -6.455  18.987  68.209  1.00  0.00    -0.234 C  
HETATM   32  O   UNL     1      -7.031  19.131  69.274  1.00  0.00    -0.325 OA 
BRANCH  28  33
HETATM   33  C   UNL     1      -6.108  18.011  65.843  1.00  0.00    -0.237 C  
HETATM   34  O   UNL     1      -5.236  17.149  65.722  1.00  0.00    -0.262 OA 
HETATM   35  N   UNL     1      -6.294  18.908  64.847  1.00  0.00    -0.235 N  
HETATM   36  H1  UNL     1      -5.751  18.854  63.986  1.00  0.00     0.000 HD 
HETATM   37  H2  UNL     1      -6.987  19.649  64.960  1.00  0.00     0.000 HD 
ENDBRANCH  28  33
ENDBRANCH  24  25
ENDBRANCH   5  21
BRANCH   5  38
HETATM   38  O   UNL     1     -12.467  12.659  66.929  1.00  0.00    -0.301 OA 
HETATM   39  C   UNL     1     -12.184  12.562  65.534  1.00  0.00    -0.377 C  
ENDBRANCH   5  38
TORSDOF 7
ENDMDL
MODEL       56
REMARK 921   NORMALIZED FREE ENERGY PREDICTED BY IDOCK:   -5.26 KCAL/MOL
REMARK 922        TOTAL FREE ENERGY PREDICTED BY IDOCK:   -8.87 KCAL/MOL
REMARK 923 INTER-LIGAND FREE ENERGY PREDICTED BY IDOCK:   -8.15 KCAL/MOL
REMARK 924 INTRA-LIGAND FREE ENERGY PREDICTED BY IDOCK:   -0.72 KCAL/MOL
REMARK 927      BINDING AFFINITY PREDICTED BY RF-SCORE:    0.00 PKD
ROOT
HETATM    1  C   UNL     1     -11.843   6.784  70.477  1.00  0.00    -0.362 C  
HETATM    2  S   UNL     1     -10.957   6.925  68.901  1.00  0.00    -0.125 SA 
HETATM    3  C   UNL     1     -10.286   5.247  69.004  1.00  0.00    -0.176 C  
HETATM    4  C   UNL     1      -9.628   4.912  70.337  1.00  0.00    -0.259 C  
HETATM    5  C   UNL     1     -12.208   8.153  71.216  1.00  0.00    -0.279 C  
HETATM    6  C   UNL     1      -9.940   5.525  71.520  1.00  0.00    -0.177 C  
HETATM    7  N   UNL     1     -10.874   6.530  71.531  1.00  0.00    -0.239 N  
HETATM    8  C   UNL     1      -9.221   5.109  72.798  1.00  0.00    -0.136 C  
HETATM    9  O   UNL     1      -8.376   4.225  72.835  1.00  0.00    -0.093 OA 
HETATM   10  O   UNL     1      -9.583   5.696  73.948  1.00  0.00    -0.137 OA 
HETATM   11  O   UNL     1     -11.087   7.633  73.555  1.00  0.00    -0.315 OA 
HETATM   12  C   UNL     1     -11.335   7.475  72.379  1.00  0.00    -0.312 C  
ENDROOT
BRANCH   4  13
HETATM   13  C   UNL     1      -8.522   3.869  70.147  1.00  0.00    -0.060 C  
BRANCH  13  14
HETATM   14  S   UNL     1      -9.019   2.607  68.940  1.00  0.00    -0.135 SA 
BRANCH  14  15
HETATM   15  C   UNL     1      -7.739   2.769  67.790  1.00  0.00    -0.060 A  
HETATM   16  N   UNL     1      -6.453   2.725  68.053  1.00  0.00    -0.032 NA 
HETATM   17  C   UNL     1      -9.097   3.126  65.669  1.00  0.00    -0.152 C  
HETATM   18  N   UNL     1      -5.816   2.962  66.857  1.00  0.00    -0.022 NA 
HETATM   19  N   UNL     1      -7.902   3.014  66.456  1.00  0.00    -0.077 NA 
HETATM   20  N   UNL     1      -6.692   3.137  65.876  1.00  0.00    -0.043 NA 
ENDBRANCH  14  15
ENDBRANCH  13  14
ENDBRANCH   4  13
BRANCH   5  21
HETATM   21  N   UNL     1     -11.664   9.365  70.537  1.00  0.00    -0.395 N  
HETATM   22  O   UNL     1     -12.948  10.898  71.611  1.00  0.00    -0.433 OA 
HETATM   23  H   UNL     1     -10.928   9.224  69.847  1.00  0.00     0.000 HD 
HETATM   24  C   UNL     1     -12.077  10.663  70.768  1.00  0.00    -0.374 C  
BRANCH  24  25
HETATM   25  C   UNL     1     -11.362  11.781  69.926  1.00  0.00    -0.121 C  
HETATM   26  S   UNL     1     -11.884  11.872  68.166  1.00  0.00    -0.174 SA 
HETATM   27  C   UNL     1     -11.433  13.518  68.591  1.00  0.00    -0.308 C  
HETATM   28  C   UNL     1     -10.846  14.510  67.880  1.00  0.00    -0.260 C  
HETATM   29  S   UNL     1     -12.095  13.435  70.214  1.00  0.00    -0.303 SA 
HETATM   30  O   UNL     1      -9.961  16.739  67.755  1.00  0.00    -0.255 OA 
HETATM   31  C   UNL     1     -10.591  15.827  68.536  1.00  0.00    -0.253 C  
HETATM   32  O   UNL     1     -10.911  16.119  69.676  1.00  0.00    -0.299 OA 
BRANCH  28  33
HETATM   33  C   UNL     1     -10.409  14.283  66.474  1.00  0.00    -0.278 C  
HETATM   34  O   UNL     1     -11.249  14.171  65.581  1.00  0.00    -0.300 OA 
HETATM   35  N   UNL     1      -9.097  14.144  66.169  1.00  0.00    -0.501 N  
HETATM   36  H1  UNL     1      -8.798  13.989  65.206  1.00  0.00     0.000 HD 
HETATM   37  H2  UNL     1      -8.399  14.195  66.912  1.00  0.00     0.000 HD 
ENDBRANCH  28  33
ENDBRANCH  24  25
ENDBRANCH   5  21
BRANCH   5  38
HETATM   38  O   UNL     1     -13.615   8.307  71.550  1.00  0.00    -0.340 OA 
HETATM   39  C   UNL     1     -14.376   7.101  71.586  1.00  0.00    -0.365 C  
ENDBRANCH   5  38
TORSDOF 7
ENDMDL
MODEL       57
REMARK 921   NORMALIZED FREE ENERGY PREDICTED BY IDOCK:   -5.26 KCAL/MOL
REMARK 922        TOTAL FREE ENERGY PREDICTED BY IDOCK:   -8.87 KCAL/MOL
REMARK 923 INTER-LIGAND FREE ENERGY PREDICTED BY IDOCK:   -8.00 KCAL/MOL
REMARK 924 INTRA-LIGAND FREE ENERGY PREDICTED BY IDOCK:   -0.87 KCAL/MOL
REMARK 927      BINDING AFFINITY PREDICTED BY RF-SCORE:    0.00 PKD
ROOT
HETATM    1  C   UNL     1      -7.650   6.034  67.302  1.00  0.00    -0.093 C  
HETATM    2  S   UNL     1      -7.657   7.304  68.596  1.00  0.00    -0.117 SA 
HETATM    3  C   UNL     1      -6.994   6.182  69.852  1.00  0.00    -0.070 C  
HETATM    4  C   UNL     1      -7.722   4.846  69.950  1.00  0.00    -0.056 C  
HETATM    5  C   UNL     1      -8.639   6.267  66.068  1.00  0.00    -0.146 C  
HETATM    6  C   UNL     1      -8.418   4.276  68.920  1.00  0.00    -0.082 C  
HETATM    7  N   UNL     1      -8.513   4.941  67.723  1.00  0.00    -0.104 N  
HETATM    8  C   UNL     1      -9.107   2.932  69.126  1.00  0.00    -0.135 C  
HETATM    9  O   UNL     1      -9.058   2.308  70.177  1.00  0.00    -0.087 OA 
HETATM   10  O   UNL     1      -9.741   2.379  68.082  1.00  0.00    -0.139 OA 
HETATM   11  O   UNL     1      -9.939   3.966  66.182  1.00  0.00    -0.164 OA 
HETATM   12  C   UNL     1      -9.202   4.849  66.565  1.00  0.00    -0.135 C  
ENDROOT
BRANCH   4  13
HETATM   13  C   UNL     1      -7.637   4.287  71.374  1.00  0.00    -0.064 C  
BRANCH  13  14
HETATM   14  S   UNL     1      -8.180   5.521  72.591  1.00  0.00    -0.113 SA 
BRANCH  14  15
HETATM   15  C   UNL     1      -9.616   6.094  71.819  1.00  0.00    -0.150 A  
HETATM   16  N   UNL     1     -10.593   5.350  71.354  1.00  0.00    -0.232 NA 
HETATM   17  C   UNL     1      -9.172   8.598  71.871  1.00  0.00    -0.275 C  
HETATM   18  N   UNL     1     -11.486   6.222  70.773  1.00  0.00    -0.338 NA 
HETATM   19  N   UNL     1      -9.900   7.403  71.549  1.00  0.00    -0.173 NA 
HETATM   20  N   UNL     1     -11.072   7.477  70.891  1.00  0.00    -0.258 NA 
ENDBRANCH  14  15
ENDBRANCH  13  14
ENDBRANCH   4  13
BRANCH   5  21
HETATM   21  N   UNL     1      -9.512   7.467  66.216  1.00  0.00    -0.358 N  
HETATM   22  O   UNL     1      -8.063   8.987  65.354  1.00  0.00    -0.109 OA 
HETATM   23  H   UNL     1     -10.440   7.324  66.612  1.00  0.00     0.000 HD 
HETATM   24  C   UNL     1      -9.165   8.756  65.862  1.00  0.00    -0.220 C  
BRANCH  24  25
HETATM   25  C   UNL     1     -10.251   9.865  66.117  1.00  0.00    -0.207 C  
HETATM   26  S   UNL     1      -9.689  11.264  67.168  1.00  0.00    -0.183 SA 
HETATM   27  C   UNL     1     -10.896  11.959  66.094  1.00  0.00    -0.292 C  
HETATM   28  C   UNL     1     -11.819  12.933  66.276  1.00  0.00    -0.477 C  
HETATM   29  S   UNL     1     -10.411  11.013  64.698  1.00  0.00    -0.341 SA 
HETATM   30  O   UNL     1     -13.637  14.261  65.441  1.00  0.00    -0.516 OA 
HETATM   31  C   UNL     1     -12.719  13.308  65.146  1.00  0.00    -0.402 C  
HETATM   32  O   UNL     1     -12.670  12.838  64.021  1.00  0.00    -0.665 OA 
BRANCH  28  33
HETATM   33  C   UNL     1     -11.979  13.591  67.603  1.00  0.00    -0.336 C  
HETATM   34  O   UNL     1     -12.139  12.904  68.613  1.00  0.00    -0.286 OA 
HETATM   35  N   UNL     1     -12.005  14.940  67.711  1.00  0.00    -0.517 N  
HETATM   36  H1  UNL     1     -12.114  15.391  68.619  1.00  0.00     0.000 HD 
HETATM   37  H2  UNL     1     -11.914  15.514  66.872  1.00  0.00     0.000 HD 
ENDBRANCH  28  33
ENDBRANCH  24  25
ENDBRANCH   5  21
BRANCH   5  38
HETATM   38  O   UNL     1      -8.000   6.222  64.762  1.00  0.00    -0.115 OA 
HETATM   39  C   UNL     1      -6.652   5.755  64.749  1.00  0.00    -0.042 C  
ENDBRANCH   5  38
TORSDOF 7
ENDMDL
MODEL       58
REMARK 921   NORMALIZED FREE ENERGY PREDICTED BY IDOCK:   -5.18 KCAL/MOL
REMARK 922        TOTAL FREE ENERGY PREDICTED BY IDOCK:   -8.75 KCAL/MOL
REMARK 923 INTER-LIGAND FREE ENERGY PREDICTED BY IDOCK:   -7.88 KCAL/MOL
REMARK 924 INTRA-LIGAND FREE ENERGY PREDICTED BY IDOCK:   -0.87 KCAL/MOL
REMARK 927      BINDING AFFINITY PREDICTED BY RF-SCORE:    0.00 PKD
ROOT
HETATM    1  C   UNL     1      -8.238  10.458  68.809  1.00  0.00    -0.128 C  
HETATM    2  S   UNL     1      -7.872  10.777  67.062  1.00  0.00    -0.126 SA 
HETATM    3  C   UNL     1      -8.423  12.499  67.149  1.00  0.00    -0.186 C  
HETATM    4  C   UNL     1      -9.792  12.690  67.792  1.00  0.00    -0.212 C  
HETATM    5  C   UNL     1      -8.467   8.931  69.223  1.00  0.00    -0.121 C  
HETATM    6  C   UNL     1     -10.343  11.820  68.693  1.00  0.00    -0.214 C  
HETATM    7  N   UNL     1      -9.659  10.678  69.031  1.00  0.00    -0.199 N  
HETATM    8  C   UNL     1     -11.720  12.111  69.279  1.00  0.00    -0.328 C  
HETATM    9  O   UNL     1     -12.370  13.109  69.001  1.00  0.00    -0.153 OA 
HETATM   10  O   UNL     1     -12.211  11.262  70.194  1.00  0.00    -0.313 OA 
HETATM   11  O   UNL     1     -10.843   9.195  70.355  1.00  0.00    -0.220 OA 
HETATM   12  C   UNL     1      -9.881   9.524  69.695  1.00  0.00    -0.205 C  
ENDROOT
BRANCH   4  13
HETATM   13  C   UNL     1     -10.487  13.932  67.225  1.00  0.00    -0.271 C  
BRANCH  13  14
HETATM   14  S   UNL     1     -10.107  14.142  65.462  1.00  0.00    -0.316 SA 
BRANCH  14  15
HETATM   15  C   UNL     1     -10.460  15.824  65.276  1.00  0.00    -0.401 A  
HETATM   16  N   UNL     1     -11.337  16.341  64.447  1.00  0.00    -0.748 NA 
HETATM   17  C   UNL     1      -8.827  16.806  66.960  1.00  0.00    -0.207 C  
HETATM   18  N   UNL     1     -11.235  17.706  64.594  1.00  0.00    -0.578 NA 
HETATM   19  N   UNL     1      -9.835  16.841  65.939  1.00  0.00    -0.511 NA 
HETATM   20  N   UNL     1     -10.323  18.020  65.505  1.00  0.00    -0.577 NA 
ENDBRANCH  14  15
ENDBRANCH  13  14
ENDBRANCH   4  13
BRANCH   5  21
HETATM   21  N   UNL     1      -8.445   7.986  68.069  1.00  0.00    -0.126 N  
HETATM   22  O   UNL     1      -9.900   6.464  68.914  1.00  0.00    -0.134 OA 
HETATM   23  H   UNL     1      -7.859   8.234  67.273  1.00  0.00     0.000 HD 
HETATM   24  C   UNL     1      -9.154   6.803  67.991  1.00  0.00    -0.119 C  
BRANCH  24  25
HETATM   25  C   UNL     1      -8.967   5.965  66.674  1.00  0.00    -0.125 C  
HETATM   26  S   UNL     1      -8.010   4.409  66.881  1.00  0.00    -0.102 SA 
HETATM   27  C   UNL     1      -9.123   4.085  65.559  1.00  0.00    -0.142 C  
HETATM   28  C   UNL     1      -9.001   3.344  64.432  1.00  0.00    -0.123 C  
HETATM   29  S   UNL     1     -10.456   4.978  66.268  1.00  0.00    -0.250 SA 
HETATM   30  O   UNL     1      -9.916   2.532  62.365  1.00  0.00    -0.091 OA 
HETATM   31  C   UNL     1     -10.151   3.261  63.483  1.00  0.00    -0.173 C  
HETATM   32  O   UNL     1     -11.243   3.778  63.654  1.00  0.00    -0.225 OA 
BRANCH  28  33
HETATM   33  C   UNL     1      -7.719   2.659  64.106  1.00  0.00    -0.076 C  
HETATM   34  O   UNL     1      -7.394   1.643  64.722  1.00  0.00    -0.051 OA 
HETATM   35  N   UNL     1      -6.877   3.167  63.176  1.00  0.00    -0.031 N  
HETATM   36  H1  UNL     1      -5.999   2.698  62.954  1.00  0.00     0.000 HD 
HETATM   37  H2  UNL     1      -7.123   4.031  62.693  1.00  0.00     0.000 HD 
ENDBRANCH  28  33
ENDBRANCH  24  25
ENDBRANCH   5  21
BRANCH   5  38
HETATM   38  O   UNL     1      -7.629   8.466  70.317  1.00  0.00    -0.064 OA 
HETATM   39  C   UNL     1      -6.223   8.508  70.077  1.00  0.00    -0.034 C  
ENDBRANCH   5  38
TORSDOF 7
ENDMDL
MODEL       59
REMARK 921   NORMALIZED FREE ENERGY PREDICTED BY IDOCK:   -5.15 KCAL/MOL
REMARK 922        TOTAL FREE ENERGY PREDICTED BY IDOCK:   -8.71 KCAL/MOL
REMARK 923 INTER-LIGAND FREE ENERGY PREDICTED BY IDOCK:   -7.91 KCAL/MOL
REMARK 924 INTRA-LIGAND FREE ENERGY PREDICTED BY IDOCK:   -0.80 KCAL/MOL
REMARK 927      BINDING AFFINITY PREDICTED BY RF-SCORE:    0.00 PKD
ROOT
HETATM    1  C   UNL     1      -9.766  10.470  68.133  1.00  0.00    -0.153 C  
HETATM    2  S   UNL     1      -8.076  10.896  68.633  1.00  0.00    -0.149 SA 
HETATM    3  C   UNL     1      -7.895   9.422  69.667  1.00  0.00    -0.105 C  
HETATM    4  C   UNL     1      -9.048   9.186  70.636  1.00  0.00    -0.307 C  
HETATM    5  C   UNL     1     -10.686  11.675  67.628  1.00  0.00    -0.207 C  
HETATM    6  C   UNL     1     -10.321   9.648  70.438  1.00  0.00    -0.291 C  
HETATM    7  N   UNL     1     -10.597  10.401  69.325  1.00  0.00    -0.216 N  
HETATM    8  C   UNL     1     -11.401   9.349  71.472  1.00  0.00    -0.394 C  
HETATM    9  O   UNL     1     -11.199   8.691  72.482  1.00  0.00    -0.329 OA 
HETATM   10  O   UNL     1     -12.648   9.777  71.225  1.00  0.00    -0.320 OA 
HETATM   11  O   UNL     1     -12.722  11.319  69.279  1.00  0.00    -0.202 OA 
HETATM   12  C   UNL     1     -11.601  11.166  68.844  1.00  0.00    -0.317 C  
ENDROOT
BRANCH   4  13
HETATM   13  C   UNL     1      -8.561   8.445  71.886  1.00  0.00    -0.186 C  
BRANCH  13  14
HETATM   14  S   UNL     1      -8.906   6.666  71.763  1.00  0.00    -0.129 SA 
BRANCH  14  15
HETATM   15  C   UNL     1      -7.950   6.269  70.379  1.00  0.00    -0.111 A  
HETATM   16  N   UNL     1      -6.638   6.281  70.317  1.00  0.00    -0.043 NA 
HETATM   17  C   UNL     1      -9.794   5.757  68.703  1.00  0.00    -0.138 C  
HETATM   18  N   UNL     1      -6.321   5.961  69.016  1.00  0.00    -0.039 NA 
HETATM   19  N   UNL     1      -8.441   5.933  69.149  1.00  0.00    -0.112 NA 
HETATM   20  N   UNL     1      -7.415   5.744  68.298  1.00  0.00    -0.080 NA 
ENDBRANCH  14  15
ENDBRANCH  13  14
ENDBRANCH   4  13
BRANCH   5  21
HETATM   21  N   UNL     1     -10.038  13.014  67.742  1.00  0.00    -0.224 N  
HETATM   22  O   UNL     1     -11.932  14.261  67.644  1.00  0.00    -0.383 OA 
HETATM   23  H   UNL     1      -9.023  13.036  67.835  1.00  0.00     0.000 HD 
HETATM   24  C   UNL     1     -10.700  14.226  67.730  1.00  0.00    -0.251 C  
BRANCH  24  25
HETATM   25  C   UNL     1      -9.803  15.511  67.857  1.00  0.00    -0.216 C  
HETATM   26  S   UNL     1      -8.357  15.333  68.978  1.00  0.00    -0.230 SA 
HETATM   27  C   UNL     1      -7.852  16.504  67.768  1.00  0.00    -0.152 C  
HETATM   28  C   UNL     1      -7.057  17.599  67.842  1.00  0.00    -0.190 C  
HETATM   29  S   UNL     1      -8.661  15.697  66.437  1.00  0.00    -0.218 SA 
HETATM   30  O   UNL     1      -6.039  19.506  66.797  1.00  0.00    -0.176 OA 
HETATM   31  C   UNL     1      -6.811  18.407  66.612  1.00  0.00    -0.198 C  
HETATM   32  O   UNL     1      -7.235  18.143  65.498  1.00  0.00    -0.539 OA 
BRANCH  28  33
HETATM   33  C   UNL     1      -6.474  18.029  69.144  1.00  0.00    -0.249 C  
HETATM   34  O   UNL     1      -5.795  17.241  69.802  1.00  0.00    -0.216 OA 
HETATM   35  N   UNL     1      -6.723  19.263  69.642  1.00  0.00    -0.260 N  
HETATM   36  H1  UNL     1      -6.324  19.558  70.532  1.00  0.00     0.000 HD 
HETATM   37  H2  UNL     1      -7.319  19.906  69.119  1.00  0.00     0.000 HD 
ENDBRANCH  28  33
ENDBRANCH  24  25
ENDBRANCH   5  21
BRANCH   5  38
HETATM   38  O   UNL     1     -11.284  11.475  66.317  1.00  0.00    -0.297 OA 
HETATM   39  C   UNL     1     -10.377  11.129  65.272  1.00  0.00    -0.277 C  
ENDBRANCH   5  38
TORSDOF 7
ENDMDL
MODEL       60
REMARK 921   NORMALIZED FREE ENERGY PREDICTED BY IDOCK:   -5.14 KCAL/MOL
REMARK 922        TOTAL FREE ENERGY PREDICTED BY IDOCK:   -8.70 KCAL/MOL
REMARK 923 INTER-LIGAND FREE ENERGY PREDICTED BY IDOCK:   -8.11 KCAL/MOL
REMARK 924 INTRA-LIGAND FREE ENERGY PREDICTED BY IDOCK:   -0.60 KCAL/MOL
REMARK 927      BINDING AFFINITY PREDICTED BY RF-SCORE:    0.00 PKD
ROOT
HETATM    1  C   UNL     1     -10.475  12.832  68.121  1.00  0.00    -0.236 C  
HETATM    2  S   UNL     1      -8.676  12.602  68.115  1.00  0.00    -0.179 SA 
HETATM    3  C   UNL     1      -8.342  14.369  67.914  1.00  0.00    -0.162 C  
HETATM    4  C   UNL     1      -9.130  15.036  66.793  1.00  0.00    -0.287 C  
HETATM    5  C   UNL     1     -11.358  11.559  67.729  1.00  0.00    -0.296 C  
HETATM    6  C   UNL     1     -10.331  14.578  66.324  1.00  0.00    -0.294 C  
HETATM    7  N   UNL     1     -10.868  13.431  66.855  1.00  0.00    -0.276 N  
HETATM    8  C   UNL     1     -11.037  15.326  65.199  1.00  0.00    -0.404 C  
HETATM    9  O   UNL     1     -10.593  16.346  64.690  1.00  0.00    -0.639 OA 
HETATM   10  O   UNL     1     -12.235  14.878  64.795  1.00  0.00    -0.373 OA 
HETATM   11  O   UNL     1     -12.761  12.657  65.773  1.00  0.00    -0.481 OA 
HETATM   12  C   UNL     1     -11.874  12.570  66.594  1.00  0.00    -0.352 C  
ENDROOT
BRANCH   4  13
HETATM   13  C   UNL     1      -8.351  16.222  66.215  1.00  0.00    -0.308 C  
BRANCH  13  14
HETATM   14  S   UNL     1      -6.866  16.567  67.202  1.00  0.00    -0.210 SA 
BRANCH  14  15
HETATM   15  C   UNL     1      -7.216  18.178  67.721  1.00  0.00    -0.213 A  
HETATM   16  N   UNL     1      -8.117  18.978  67.201  1.00  0.00    -0.260 NA 
HETATM   17  C   UNL     1      -5.520  18.411  69.603  1.00  0.00    -0.209 C  
HETATM   18  N   UNL     1      -8.001  20.168  67.883  1.00  0.00    -0.270 NA 
HETATM   19  N   UNL     1      -6.562  18.847  68.717  1.00  0.00    -0.262 NA 
HETATM   20  N   UNL     1      -7.057  20.095  68.812  1.00  0.00    -0.230 NA 
ENDBRANCH  14  15
ENDBRANCH  13  14
ENDBRANCH   4  13
BRANCH   5  21
HETATM   21  N   UNL     1     -10.553  10.375  67.309  1.00  0.00    -0.252 N  
HETATM   22  O   UNL     1     -10.651   9.248  69.277  1.00  0.00    -0.221 OA 
HETATM   23  H   UNL     1     -10.208  10.360  66.350  1.00  0.00     0.000 HD 
HETATM   24  C   UNL     1     -10.238   9.298  68.114  1.00  0.00    -0.205 C  
BRANCH  24  25
HETATM   25  C   UNL     1      -9.369   8.166  67.453  1.00  0.00    -0.141 C  
HETATM   26  S   UNL     1      -8.311   8.724  66.058  1.00  0.00    -0.133 SA 
HETATM   27  C   UNL     1      -7.440   7.377  66.779  1.00  0.00    -0.096 C  
HETATM   28  C   UNL     1      -6.660   6.409  66.240  1.00  0.00    -0.048 C  
HETATM   29  S   UNL     1      -7.863   7.795  68.429  1.00  0.00    -0.122 SA 
HETATM   30  O   UNL     1      -5.319   4.433  66.496  1.00  0.00    -0.012 OA 
HETATM   31  C   UNL     1      -6.045   5.384  67.135  1.00  0.00    -0.030 C  
HETATM   32  O   UNL     1      -6.142   5.361  68.350  1.00  0.00    -0.023 OA 
BRANCH  28  33
HETATM   33  C   UNL     1      -6.458   6.327  64.766  1.00  0.00    -0.034 C  
HETATM   34  O   UNL     1      -7.419   6.119  64.026  1.00  0.00    -0.068 OA 
HETATM   35  N   UNL     1      -5.218   6.426  64.230  1.00  0.00    -0.021 N  
HETATM   36  H1  UNL     1      -5.080   6.370  63.221  1.00  0.00     0.000 HD 
HETATM   37  H2  UNL     1      -4.413   6.558  64.842  1.00  0.00     0.000 HD 
ENDBRANCH  28  33
ENDBRANCH  24  25
ENDBRANCH   5  21
BRANCH   5  38
HETATM   38  O   UNL     1     -12.375  11.201  68.705  1.00  0.00    -0.539 OA 
HETATM   39  C   UNL     1     -12.284  11.869  69.963  1.00  0.00    -0.217 C  
ENDBRANCH   5  38
TORSDOF 7
ENDMDL
MODEL       61
REMARK 921   NORMALIZED FREE ENERGY PREDICTED BY IDOCK:   -5.13 KCAL/MOL
REMARK 922        TOTAL FREE ENERGY PREDICTED BY IDOCK:   -8.68 KCAL/MOL
REMARK 923 INTER-LIGAND FREE ENERGY PREDICTED BY IDOCK:   -8.31 KCAL/MOL
REMARK 924 INTRA-LIGAND FREE ENERGY PREDICTED BY IDOCK:   -0.38 KCAL/MOL
REMARK 927      BINDING AFFINITY PREDICTED BY RF-SCORE:    0.00 PKD
ROOT
HETATM    1  C   UNL     1     -11.494  13.550  66.448  1.00  0.00    -0.331 C  
HETATM    2  S   UNL     1     -10.783  14.338  64.978  1.00  0.00    -0.441 SA 
HETATM    3  C   UNL     1     -11.107  12.906  63.920  1.00  0.00    -0.411 C  
HETATM    4  C   UNL     1     -10.637  11.577  64.498  1.00  0.00    -0.387 C  
HETATM    5  C   UNL     1     -11.018  14.117  67.864  1.00  0.00    -0.251 C  
HETATM    6  C   UNL     1     -10.489  11.333  65.836  1.00  0.00    -0.259 C  
HETATM    7  N   UNL     1     -10.739  12.340  66.735  1.00  0.00    -0.234 N  
HETATM    8  C   UNL     1     -10.016   9.962  66.306  1.00  0.00    -0.256 C  
HETATM    9  O   UNL     1      -9.774   9.038  65.543  1.00  0.00    -0.203 OA 
HETATM   10  O   UNL     1      -9.927   9.742  67.626  1.00  0.00    -0.159 OA 
HETATM   11  O   UNL     1     -10.188  11.842  68.926  1.00  0.00    -0.188 OA 
HETATM   12  C   UNL     1     -10.563  12.590  68.050  1.00  0.00    -0.223 C  
ENDROOT
BRANCH   4  13
HETATM   13  C   UNL     1     -10.276  10.597  63.377  1.00  0.00    -0.115 C  
BRANCH  13  14
HETATM   14  S   UNL     1      -8.722  11.076  62.570  1.00  0.00    -0.251 SA 
BRANCH  14  15
HETATM   15  C   UNL     1      -7.828   9.607  62.739  1.00  0.00    -0.122 A  
HETATM   16  N   UNL     1      -8.316   8.391  62.653  1.00  0.00    -0.177 NA 
HETATM   17  C   UNL     1      -5.512  10.553  63.201  1.00  0.00    -0.161 C  
HETATM   18  N   UNL     1      -7.264   7.544  62.916  1.00  0.00    -0.081 NA 
HETATM   19  N   UNL     1      -6.496   9.522  63.032  1.00  0.00    -0.100 NA 
HETATM   20  N   UNL     1      -6.149   8.225  63.145  1.00  0.00    -0.077 NA 
ENDBRANCH  14  15
ENDBRANCH  13  14
ENDBRANCH   4  13
BRANCH   5  21
HETATM   21  N   UNL     1      -9.960  15.165  67.766  1.00  0.00    -0.224 N  
HETATM   22  O   UNL     1      -8.170  13.770  67.783  1.00  0.00    -0.146 OA 
HETATM   23  H   UNL     1     -10.267  16.135  67.711  1.00  0.00     0.000 HD 
HETATM   24  C   UNL     1      -8.600  14.927  67.745  1.00  0.00    -0.167 C  
BRANCH  24  25
HETATM   25  C   UNL     1      -7.673  16.194  67.643  1.00  0.00    -0.142 C  
HETATM   26  S   UNL     1      -7.954  17.235  66.155  1.00  0.00    -0.186 SA 
HETATM   27  C   UNL     1      -7.398  18.353  67.393  1.00  0.00    -0.217 C  
HETATM   28  C   UNL     1      -6.629  19.466  67.331  1.00  0.00    -0.210 C  
HETATM   29  S   UNL     1      -8.268  17.568  68.699  1.00  0.00    -0.234 SA 
HETATM   30  O   UNL     1      -5.515  21.291  68.425  1.00  0.00    -0.314 OA 
HETATM   31  C   UNL     1      -6.328  20.218  68.585  1.00  0.00    -0.310 C  
HETATM   32  O   UNL     1      -6.761  19.943  69.692  1.00  0.00    -0.346 OA 
BRANCH  28  33
HETATM   33  C   UNL     1      -6.040  19.913  66.037  1.00  0.00    -0.175 C  
HETATM   34  O   UNL     1      -5.367  19.129  65.367  1.00  0.00    -0.149 OA 
HETATM   35  N   UNL     1      -6.190  21.189  65.610  1.00  0.00    -0.414 N  
HETATM   36  H1  UNL     1      -5.787  21.495  64.724  1.00  0.00     0.000 HD 
HETATM   37  H2  UNL     1      -6.712  21.853  66.182  1.00  0.00     0.000 HD 
ENDBRANCH  28  33
ENDBRANCH  24  25
ENDBRANCH   5  21
BRANCH   5  38
HETATM   38  O   UNL     1     -12.098  14.522  68.750  1.00  0.00    -0.293 OA 
HETATM   39  C   UNL     1     -11.777  15.554  69.682  1.00  0.00    -0.357 C  
ENDBRANCH   5  38
TORSDOF 7
ENDMDL
MODEL       62
REMARK 921   NORMALIZED FREE ENERGY PREDICTED BY IDOCK:   -5.09 KCAL/MOL
REMARK 922        TOTAL FREE ENERGY PREDICTED BY IDOCK:   -8.63 KCAL/MOL
REMARK 923 INTER-LIGAND FREE ENERGY PREDICTED BY IDOCK:   -7.13 KCAL/MOL
REMARK 924 INTRA-LIGAND FREE ENERGY PREDICTED BY IDOCK:   -1.50 KCAL/MOL
REMARK 927      BINDING AFFINITY PREDICTED BY RF-SCORE:    0.00 PKD
ROOT
HETATM    1  C   UNL     1      -8.648  11.891  67.208  1.00  0.00    -0.170 C  
HETATM    2  S   UNL     1      -7.487  10.548  67.581  1.00  0.00    -0.092 SA 
HETATM    3  C   UNL     1      -6.815  10.517  65.900  1.00  0.00    -0.132 C  
HETATM    4  C   UNL     1      -7.870  10.466  64.801  1.00  0.00    -0.086 C  
HETATM    5  C   UNL     1      -9.922  12.018  68.164  1.00  0.00    -0.203 C  
HETATM    6  C   UNL     1      -9.149  10.930  64.945  1.00  0.00    -0.182 C  
HETATM    7  N   UNL     1      -9.545  11.447  66.154  1.00  0.00    -0.210 N  
HETATM    8  C   UNL     1     -10.123  10.833  63.777  1.00  0.00    -0.327 C  
HETATM    9  O   UNL     1      -9.818  10.372  62.685  1.00  0.00    -0.249 OA 
HETATM   10  O   UNL     1     -11.355  11.339  63.936  1.00  0.00    -0.317 OA 
HETATM   11  O   UNL     1     -11.802  11.938  66.304  1.00  0.00    -0.546 OA 
HETATM   12  C   UNL     1     -10.686  11.830  66.765  1.00  0.00    -0.253 C  
ENDROOT
BRANCH   4  13
HETATM   13  C   UNL     1      -7.324   9.751  63.561  1.00  0.00    -0.123 C  
BRANCH  13  14
HETATM   14  S   UNL     1      -6.186   8.416  64.029  1.00  0.00    -0.068 SA 
BRANCH  14  15
HETATM   15  C   UNL     1      -7.242   7.055  63.890  1.00  0.00    -0.070 A  
HETATM   16  N   UNL     1      -7.437   6.336  62.809  1.00  0.00    -0.060 NA 
HETATM   17  C   UNL     1      -8.195   6.997  66.247  1.00  0.00    -0.120 C  
HETATM   18  N   UNL     1      -8.398   5.409  63.142  1.00  0.00    -0.117 NA 
HETATM   19  N   UNL     1      -8.052   6.579  64.881  1.00  0.00    -0.128 NA 
HETATM   20  N   UNL     1      -8.777   5.548  64.406  1.00  0.00    -0.030 NA 
ENDBRANCH  14  15
ENDBRANCH  13  14
ENDBRANCH   4  13
BRANCH   5  21
HETATM   21  N   UNL     1     -10.024  10.930  69.179  1.00  0.00    -0.335 N  
HETATM   22  O   UNL     1     -12.253  11.103  69.568  1.00  0.00    -0.323 OA 
HETATM   23  H   UNL     1      -9.168  10.427  69.412  1.00  0.00     0.000 HD 
HETATM   24  C   UNL     1     -11.181  10.547  69.828  1.00  0.00    -0.298 C  
BRANCH  24  25
HETATM   25  C   UNL     1     -11.042   9.374  70.866  1.00  0.00    -0.319 C  
HETATM   26  S   UNL     1     -11.145   7.689  70.141  1.00  0.00    -0.171 SA 
HETATM   27  C   UNL     1     -10.101   7.516  71.545  1.00  0.00    -0.181 C  
HETATM   28  C   UNL     1      -9.938   6.508  72.435  1.00  0.00    -0.183 C  
HETATM   29  S   UNL     1      -9.296   9.057  71.318  1.00  0.00    -0.220 SA 
HETATM   30  O   UNL     1      -8.892   5.620  74.406  1.00  0.00    -0.120 OA 
HETATM   31  C   UNL     1      -8.950   6.664  73.543  1.00  0.00    -0.126 C  
HETATM   32  O   UNL     1      -8.217   7.626  73.702  1.00  0.00    -0.137 OA 
BRANCH  28  33
HETATM   33  C   UNL     1     -10.771   5.275  72.350  1.00  0.00    -0.229 C  
HETATM   34  O   UNL     1     -10.455   4.375  71.571  1.00  0.00    -0.085 OA 
HETATM   35  N   UNL     1     -11.903   5.150  73.081  1.00  0.00    -0.504 N  
HETATM   36  H1  UNL     1     -12.473   4.306  73.023  1.00  0.00     0.000 HD 
HETATM   37  H2  UNL     1     -12.190   5.911  73.698  1.00  0.00     0.000 HD 
ENDBRANCH  28  33
ENDBRANCH  24  25
ENDBRANCH   5  21
BRANCH   5  38
HETATM   38  O   UNL     1     -10.104  13.332  68.762  1.00  0.00    -0.186 OA 
HETATM   39  C   UNL     1     -10.185  14.422  67.845  1.00  0.00    -0.232 C  
ENDBRANCH   5  38
TORSDOF 7
ENDMDL
MODEL       63
REMARK 921   NORMALIZED FREE ENERGY PREDICTED BY IDOCK:   -4.99 KCAL/MOL
REMARK 922        TOTAL FREE ENERGY PREDICTED BY IDOCK:   -8.48 KCAL/MOL
REMARK 923 INTER-LIGAND FREE ENERGY PREDICTED BY IDOCK:   -7.74 KCAL/MOL
REMARK 924 INTRA-LIGAND FREE ENERGY PREDICTED BY IDOCK:   -0.75 KCAL/MOL
REMARK 927      BINDING AFFINITY PREDICTED BY RF-SCORE:    0.00 PKD
ROOT
HETATM    1  C   UNL     1      -8.887   9.626  70.271  1.00  0.00    -0.211 C  
HETATM    2  S   UNL     1      -7.758   9.470  68.861  1.00  0.00    -0.078 SA 
HETATM    3  C   UNL     1      -8.004  11.184  68.335  1.00  0.00    -0.137 C  
HETATM    4  C   UNL     1      -9.465  11.606  68.228  1.00  0.00    -0.191 C  
HETATM    5  C   UNL     1      -9.518   8.269  70.834  1.00  0.00    -0.162 C  
HETATM    6  C   UNL     1     -10.483  11.025  68.932  1.00  0.00    -0.204 C  
HETATM    7  N   UNL     1     -10.208   9.972  69.769  1.00  0.00    -0.238 N  
HETATM    8  C   UNL     1     -11.911  11.529  68.751  1.00  0.00    -0.330 C  
HETATM    9  O   UNL     1     -12.205  12.457  68.011  1.00  0.00    -0.356 OA 
HETATM   10  O   UNL     1     -12.879  10.969  69.491  1.00  0.00    -0.188 OA 
HETATM   11  O   UNL     1     -12.071   8.941  70.675  1.00  0.00    -0.173 OA 
HETATM   12  C   UNL     1     -10.880   9.038  70.476  1.00  0.00    -0.251 C  
ENDROOT
BRANCH   4  13
HETATM   13  C   UNL     1      -9.635  12.699  67.168  1.00  0.00    -0.207 C  
BRANCH  13  14
HETATM   14  S   UNL     1     -10.012  11.977  65.545  1.00  0.00    -0.233 SA 
BRANCH  14  15
HETATM   15  C   UNL     1     -10.955  13.252  64.858  1.00  0.00    -0.330 A  
HETATM   16  N   UNL     1     -10.804  14.536  65.089  1.00  0.00    -0.368 NA 
HETATM   17  C   UNL     1     -12.573  11.890  63.445  1.00  0.00    -0.431 C  
HETATM   18  N   UNL     1     -11.806  15.165  64.387  1.00  0.00    -0.373 NA 
HETATM   19  N   UNL     1     -12.018  13.084  64.017  1.00  0.00    -0.423 NA 
HETATM   20  N   UNL     1     -12.550  14.287  63.727  1.00  0.00    -0.782 NA 
ENDBRANCH  14  15
ENDBRANCH  13  14
ENDBRANCH   4  13
BRANCH   5  21
HETATM   21  N   UNL     1      -9.155   7.062  70.036  1.00  0.00    -0.145 N  
HETATM   22  O   UNL     1     -11.126   5.960  70.267  1.00  0.00    -0.327 OA 
HETATM   23  H   UNL     1      -8.224   7.037  69.622  1.00  0.00     0.000 HD 
HETATM   24  C   UNL     1      -9.978   5.975  69.812  1.00  0.00    -0.175 C  
BRANCH  24  25
HETATM   25  C   UNL     1      -9.375   4.812  68.943  1.00  0.00    -0.135 C  
HETATM   26  S   UNL     1      -9.867   4.841  67.172  1.00  0.00    -0.188 SA 
HETATM   27  C   UNL     1      -8.270   4.105  67.188  1.00  0.00    -0.100 C  
HETATM   28  C   UNL     1      -7.714   3.127  66.432  1.00  0.00    -0.077 C  
HETATM   29  S   UNL     1      -7.642   5.147  68.451  1.00  0.00    -0.080 SA 
HETATM   30  O   UNL     1      -5.854   1.700  65.915  1.00  0.00    -0.016 OA 
HETATM   31  C   UNL     1      -6.304   2.715  66.693  1.00  0.00    -0.025 C  
HETATM   32  O   UNL     1      -5.563   3.223  67.519  1.00  0.00    -0.019 OA 
BRANCH  28  33
HETATM   33  C   UNL     1      -8.512   2.428  65.386  1.00  0.00    -0.102 C  
HETATM   34  O   UNL     1      -9.283   1.523  65.706  1.00  0.00    -0.093 OA 
HETATM   35  N   UNL     1      -8.362   2.738  64.076  1.00  0.00    -0.085 N  
HETATM   36  H1  UNL     1      -8.908   2.259  63.360  1.00  0.00     0.000 HD 
HETATM   37  H2  UNL     1      -7.694   3.459  63.803  1.00  0.00     0.000 HD 
ENDBRANCH  28  33
ENDBRANCH  24  25
ENDBRANCH   5  21
BRANCH   5  38
HETATM   38  O   UNL     1      -9.320   8.053  72.259  1.00  0.00    -0.159 OA 
HETATM   39  C   UNL     1     -10.509   7.876  73.027  1.00  0.00    -0.343 C  
ENDBRANCH   5  38
TORSDOF 7
ENDMDL
MODEL       64
REMARK 921   NORMALIZED FREE ENERGY PREDICTED BY IDOCK:   -4.95 KCAL/MOL
REMARK 922        TOTAL FREE ENERGY PREDICTED BY IDOCK:   -8.43 KCAL/MOL
REMARK 923 INTER-LIGAND FREE ENERGY PREDICTED BY IDOCK:   -7.06 KCAL/MOL
REMARK 924 INTRA-LIGAND FREE ENERGY PREDICTED BY IDOCK:   -1.37 KCAL/MOL
REMARK 927      BINDING AFFINITY PREDICTED BY RF-SCORE:    0.00 PKD
ROOT
HETATM    1  C   UNL     1      -8.818   9.760  66.234  1.00  0.00    -0.147 C  
HETATM    2  S   UNL     1     -10.352   9.776  67.200  1.00  0.00    -0.246 SA 
HETATM    3  C   UNL     1     -10.716  11.502  66.796  1.00  0.00    -0.270 C  
HETATM    4  C   UNL     1      -9.550  12.460  67.013  1.00  0.00    -0.211 C  
HETATM    5  C   UNL     1      -7.736   8.653  66.630  1.00  0.00    -0.096 C  
HETATM    6  C   UNL     1      -8.235  12.083  66.982  1.00  0.00    -0.169 C  
HETATM    7  N   UNL     1      -7.917  10.763  66.779  1.00  0.00    -0.132 N  
HETATM    8  C   UNL     1      -7.146  13.126  67.208  1.00  0.00    -0.020 C  
HETATM    9  O   UNL     1      -7.381  14.311  67.401  1.00  0.00    -0.181 OA 
HETATM   10  O   UNL     1      -5.866  12.733  67.125  1.00  0.00    -0.323 OA 
HETATM   11  O   UNL     1      -5.671  10.260  67.019  1.00  0.00    -0.045 OA 
HETATM   12  C   UNL     1      -6.833   9.962  66.847  1.00  0.00    -0.087 C  
ENDROOT
BRANCH   4  13
HETATM   13  C   UNL     1     -10.060  13.864  67.353  1.00  0.00    -0.244 C  
BRANCH  13  14
HETATM   14  S   UNL     1     -11.869  13.882  67.500  1.00  0.00    -0.393 SA 
BRANCH  14  15
HETATM   15  C   UNL     1     -12.033  14.337  69.159  1.00  0.00    -0.335 A  
HETATM   16  N   UNL     1     -12.010  15.563  69.629  1.00  0.00    -0.357 NA 
HETATM   17  C   UNL     1     -12.262  12.039  70.225  1.00  0.00    -0.266 C  
HETATM   18  N   UNL     1     -12.111  15.443  70.996  1.00  0.00    -0.329 NA 
HETATM   19  N   UNL     1     -12.161  13.471  70.207  1.00  0.00    -0.350 NA 
HETATM   20  N   UNL     1     -12.207  14.170  71.358  1.00  0.00    -0.337 NA 
ENDBRANCH  14  15
ENDBRANCH  13  14
ENDBRANCH   4  13
BRANCH   5  21
HETATM   21  N   UNL     1      -8.112   7.846  67.826  1.00  0.00    -0.127 N  
HETATM   22  O   UNL     1      -6.010   7.463  68.591  1.00  0.00    -0.025 OA 
HETATM   23  H   UNL     1      -9.106   7.692  67.993  1.00  0.00     0.000 HD 
HETATM   24  C   UNL     1      -7.225   7.289  68.727  1.00  0.00    -0.090 C  
BRANCH  24  25
HETATM   25  C   UNL     1      -7.857   6.470  69.911  1.00  0.00    -0.115 C  
HETATM   26  S   UNL     1      -9.441   7.145  70.554  1.00  0.00    -0.161 SA 
HETATM   27  C   UNL     1      -9.543   5.411  70.825  1.00  0.00    -0.173 C  
HETATM   28  C   UNL     1     -10.106   4.679  71.817  1.00  0.00    -0.261 C  
HETATM   29  S   UNL     1      -8.747   4.981  69.322  1.00  0.00    -0.092 SA 
HETATM   30  O   UNL     1     -10.580   2.550  72.821  1.00  0.00    -0.157 OA 
HETATM   31  C   UNL     1     -10.025   3.190  71.762  1.00  0.00    -0.122 C  
HETATM   32  O   UNL     1      -9.523   2.544  70.856  1.00  0.00    -0.136 OA 
BRANCH  28  33
HETATM   33  C   UNL     1     -10.754   5.346  72.980  1.00  0.00    -0.257 C  
HETATM   34  O   UNL     1     -10.060   5.818  73.881  1.00  0.00    -0.190 OA 
HETATM   35  N   UNL     1     -12.103   5.395  73.090  1.00  0.00    -0.437 N  
HETATM   36  H1  UNL     1     -12.547   5.852  73.887  1.00  0.00     0.000 HD 
HETATM   37  H2  UNL     1     -12.682   4.970  72.366  1.00  0.00     0.000 HD 
ENDBRANCH  28  33
ENDBRANCH  24  25
ENDBRANCH   5  21
BRANCH   5  38
HETATM   38  O   UNL     1      -7.297   7.811  65.528  1.00  0.00    -0.069 OA 
HETATM   39  C   UNL     1      -8.235   6.828  65.091  1.00  0.00    -0.114 C  
ENDBRANCH   5  38
TORSDOF 7
ENDMDL
MODEL       65
REMARK 921   NORMALIZED FREE ENERGY PREDICTED BY IDOCK:   -4.95 KCAL/MOL
REMARK 922        TOTAL FREE ENERGY PREDICTED BY IDOCK:   -8.43 KCAL/MOL
REMARK 923 INTER-LIGAND FREE ENERGY PREDICTED BY IDOCK:   -7.04 KCAL/MOL
REMARK 924 INTRA-LIGAND FREE ENERGY PREDICTED BY IDOCK:   -1.39 KCAL/MOL
REMARK 927      BINDING AFFINITY PREDICTED BY RF-SCORE:    0.00 PKD
ROOT
HETATM    1  C   UNL     1      -8.562   9.265  69.398  1.00  0.00    -0.142 C  
HETATM    2  S   UNL     1      -7.880   9.243  67.718  1.00  0.00    -0.092 SA 
HETATM    3  C   UNL     1      -7.984  11.041  67.536  1.00  0.00    -0.116 C  
HETATM    4  C   UNL     1      -9.338  11.635  67.910  1.00  0.00    -0.174 C  
HETATM    5  C   UNL     1      -9.227   7.908  69.916  1.00  0.00    -0.153 C  
HETATM    6  C   UNL     1     -10.214  11.051  68.783  1.00  0.00    -0.198 C  
HETATM    7  N   UNL     1      -9.897   9.840  69.347  1.00  0.00    -0.192 N  
HETATM    8  C   UNL     1     -11.542  11.735  69.090  1.00  0.00    -0.310 C  
HETATM    9  O   UNL     1     -11.871  12.808  68.605  1.00  0.00    -0.304 OA 
HETATM   10  O   UNL     1     -12.358  11.160  69.986  1.00  0.00    -0.304 OA 
HETATM   11  O   UNL     1     -11.595   8.875  70.588  1.00  0.00    -0.271 OA 
HETATM   12  C   UNL     1     -10.497   8.874  70.075  1.00  0.00    -0.213 C  
ENDROOT
BRANCH   4  13
HETATM   13  C   UNL     1      -9.607  12.913  67.110  1.00  0.00    -0.225 C  
BRANCH  13  14
HETATM   14  S   UNL     1      -8.413  14.212  67.537  1.00  0.00    -0.200 SA 
BRANCH  14  15
HETATM   15  C   UNL     1      -9.466  15.355  68.292  1.00  0.00    -0.200 A  
HETATM   16  N   UNL     1      -9.666  15.486  69.583  1.00  0.00    -0.281 NA 
HETATM   17  C   UNL     1     -10.404  16.515  66.232  1.00  0.00    -0.320 C  
HETATM   18  N   UNL     1     -10.622  16.466  69.718  1.00  0.00    -0.309 NA 
HETATM   19  N   UNL     1     -10.268  16.244  67.635  1.00  0.00    -0.266 NA 
HETATM   20  N   UNL     1     -10.993  16.937  68.535  1.00  0.00    -0.331 NA 
ENDBRANCH  14  15
ENDBRANCH  13  14
ENDBRANCH   4  13
BRANCH   5  21
HETATM   21  N   UNL     1      -9.279   6.832  68.884  1.00  0.00    -0.132 N  
HETATM   22  O   UNL     1     -10.842   5.535  69.896  1.00  0.00    -0.326 OA 
HETATM   23  H   UNL     1      -8.678   6.938  68.067  1.00  0.00     0.000 HD 
HETATM   24  C   UNL     1     -10.075   5.705  68.943  1.00  0.00    -0.192 C  
BRANCH  24  25
HETATM   25  C   UNL     1      -9.956   4.703  67.737  1.00  0.00    -0.092 C  
HETATM   26  S   UNL     1     -10.755   5.272  66.183  1.00  0.00    -0.017 SA 
HETATM   27  C   UNL     1      -9.417   4.258  65.660  1.00  0.00    -0.176 C  
HETATM   28  C   UNL     1      -9.275   3.413  64.612  1.00  0.00    -0.140 C  
HETATM   29  S   UNL     1      -8.321   4.805  66.916  1.00  0.00    -0.105 SA 
HETATM   30  O   UNL     1      -7.959   1.826  63.380  1.00  0.00    -0.059 OA 
HETATM   31  C   UNL     1      -7.987   2.680  64.432  1.00  0.00    -0.078 C  
HETATM   32  O   UNL     1      -7.000   2.808  65.138  1.00  0.00    -0.050 OA 
BRANCH  28  33
HETATM   33  C   UNL     1     -10.406   3.169  63.672  1.00  0.00    -0.216 C  
HETATM   34  O   UNL     1     -10.711   4.028  62.844  1.00  0.00    -0.194 OA 
HETATM   35  N   UNL     1     -11.141   2.035  63.749  1.00  0.00    -0.461 N  
HETATM   36  H1  UNL     1     -11.914   1.868  63.106  1.00  0.00     0.000 HD 
HETATM   37  H2  UNL     1     -10.917   1.338  64.461  1.00  0.00     0.000 HD 
ENDBRANCH  28  33
ENDBRANCH  24  25
ENDBRANCH   5  21
BRANCH   5  38
HETATM   38  O   UNL     1      -8.699   7.417  71.180  1.00  0.00    -0.135 OA 
HETATM   39  C   UNL     1      -7.402   7.896  71.534  1.00  0.00    -0.068 C  
ENDBRANCH   5  38
TORSDOF 7
ENDMDL
MODEL       66
REMARK 921   NORMALIZED FREE ENERGY PREDICTED BY IDOCK:   -4.94 KCAL/MOL
REMARK 922        TOTAL FREE ENERGY PREDICTED BY IDOCK:   -8.42 KCAL/MOL
REMARK 923 INTER-LIGAND FREE ENERGY PREDICTED BY IDOCK:   -7.38 KCAL/MOL
REMARK 924 INTRA-LIGAND FREE ENERGY PREDICTED BY IDOCK:   -1.04 KCAL/MOL
REMARK 927      BINDING AFFINITY PREDICTED BY RF-SCORE:    0.00 PKD
ROOT
HETATM    1  C   UNL     1      -9.054  16.218  69.368  1.00  0.00    -0.091 C  
HETATM    2  S   UNL     1      -7.292  15.908  69.071  1.00  0.00    -0.198 SA 
HETATM    3  C   UNL     1      -6.810  17.595  69.516  1.00  0.00    -0.051 C  
HETATM    4  C   UNL     1      -7.622  18.685  68.827  1.00  0.00    -0.327 C  
HETATM    5  C   UNL     1     -10.084  15.246  68.627  1.00  0.00    -0.222 C  
HETATM    6  C   UNL     1      -8.897  18.510  68.361  1.00  0.00    -0.322 C  
HETATM    7  N   UNL     1      -9.493  17.279  68.476  1.00  0.00    -0.277 N  
HETATM    8  C   UNL     1      -9.620  19.673  67.690  1.00  0.00    -0.346 C  
HETATM    9  O   UNL     1      -9.126  20.783  67.556  1.00  0.00    -0.297 OA 
HETATM   10  O   UNL     1     -10.885  19.482  67.286  1.00  0.00    -0.493 OA 
HETATM   11  O   UNL     1     -11.536  17.088  67.405  1.00  0.00     0.224 OA 
HETATM   12  C   UNL     1     -10.595  16.643  68.026  1.00  0.00    -0.338 C  
ENDROOT
BRANCH   4  13
HETATM   13  C   UNL     1      -6.785  19.956  68.655  1.00  0.00    -0.313 C  
BRANCH  13  14
HETATM   14  S   UNL     1      -5.178  19.580  67.899  1.00  0.00    -0.168 SA 
BRANCH  14  15
HETATM   15  C   UNL     1      -5.559  19.842  66.234  1.00  0.00    -0.166 A  
HETATM   16  N   UNL     1      -5.323  20.938  65.550  1.00  0.00    -0.200 NA 
HETATM   17  C   UNL     1      -6.651  17.612  65.678  1.00  0.00    -0.011 C  
HETATM   18  N   UNL     1      -5.847  20.719  64.297  1.00  0.00    -0.255 NA 
HETATM   19  N   UNL     1      -6.202  18.952  65.421  1.00  0.00    -0.255 NA 
HETATM   20  N   UNL     1      -6.383  19.509  64.208  1.00  0.00    -0.376 NA 
ENDBRANCH  14  15
ENDBRANCH  13  14
ENDBRANCH   4  13
BRANCH   5  21
HETATM   21  N   UNL     1      -9.434  14.272  67.703  1.00  0.00    -0.207 N  
HETATM   22  O   UNL     1     -11.319  13.195  67.043  1.00  0.00    -0.286 OA 
HETATM   23  H   UNL     1      -8.421  14.330  67.599  1.00  0.00     0.000 HD 
HETATM   24  C   UNL     1     -10.090  13.298  66.977  1.00  0.00    -0.242 C  
BRANCH  24  25
HETATM   25  C   UNL     1      -9.191  12.379  66.071  1.00  0.00    -0.050 C  
HETATM   26  S   UNL     1      -8.426  10.952  66.941  1.00  0.00    -0.139 SA 
HETATM   27  C   UNL     1      -8.644  10.410  65.282  1.00  0.00    -0.176 C  
HETATM   28  C   UNL     1      -7.906   9.596  64.490  1.00  0.00    -0.134 C  
HETATM   29  S   UNL     1     -10.188  11.215  65.067  1.00  0.00    -0.313 SA 
HETATM   30  O   UNL     1      -7.536   8.531  62.370  1.00  0.00    -0.101 OA 
HETATM   31  C   UNL     1      -8.365   9.320  63.097  1.00  0.00    -0.196 C  
HETATM   32  O   UNL     1      -9.400   9.733  62.602  1.00  0.00    -0.277 OA 
BRANCH  28  33
HETATM   33  C   UNL     1      -6.619   9.023  64.976  1.00  0.00    -0.069 C  
HETATM   34  O   UNL     1      -5.601   9.715  64.978  1.00  0.00    -0.056 OA 
HETATM   35  N   UNL     1      -6.540   7.729  65.369  1.00  0.00    -0.044 N  
HETATM   36  H1  UNL     1      -5.660   7.337  65.702  1.00  0.00     0.000 HD 
HETATM   37  H2  UNL     1      -7.372   7.140  65.331  1.00  0.00     0.000 HD 
ENDBRANCH  28  33
ENDBRANCH  24  25
ENDBRANCH   5  21
BRANCH   5  38
HETATM   38  O   UNL     1     -11.045  14.596  69.506  1.00  0.00    -0.255 OA 
HETATM   39  C   UNL     1     -12.098  15.428  69.991  1.00  0.00    -0.359 C  
ENDBRANCH   5  38
TORSDOF 7
ENDMDL
MODEL       67
REMARK 921   NORMALIZED FREE ENERGY PREDICTED BY IDOCK:   -4.92 KCAL/MOL
REMARK 922        TOTAL FREE ENERGY PREDICTED BY IDOCK:   -8.39 KCAL/MOL
REMARK 923 INTER-LIGAND FREE ENERGY PREDICTED BY IDOCK:   -7.67 KCAL/MOL
REMARK 924 INTRA-LIGAND FREE ENERGY PREDICTED BY IDOCK:   -0.73 KCAL/MOL
REMARK 927      BINDING AFFINITY PREDICTED BY RF-SCORE:    0.00 PKD
ROOT
HETATM    1  C   UNL     1     -10.628   7.920  70.102  1.00  0.00    -0.237 C  
HETATM    2  S   UNL     1     -11.085   7.645  68.368  1.00  0.00     0.428 SA 
HETATM    3  C   UNL     1     -10.514   5.928  68.377  1.00  0.00    -0.237 C  
HETATM    4  C   UNL     1      -9.112   5.733  68.942  1.00  0.00    -0.121 C  
HETATM    5  C   UNL     1     -10.391   9.436  70.546  1.00  0.00    -0.281 C  
HETATM    6  C   UNL     1      -8.521   6.583  69.836  1.00  0.00    -0.135 C  
HETATM    7  N   UNL     1      -9.196   7.708  70.242  1.00  0.00    -0.157 N  
HETATM    8  C   UNL     1      -7.112   6.290  70.340  1.00  0.00    -0.071 C  
HETATM    9  O   UNL     1      -6.470   5.307  70.000  1.00  0.00    -0.032 OA 
HETATM   10  O   UNL     1      -6.581   7.118  71.251  1.00  0.00    -0.044 OA 
HETATM   11  O   UNL     1      -7.956   9.165  71.543  1.00  0.00    -0.335 OA 
HETATM   12  C   UNL     1      -8.949   8.845  70.926  1.00  0.00    -0.222 C  
ENDROOT
BRANCH   4  13
HETATM   13  C   UNL     1      -8.437   4.514  68.304  1.00  0.00    -0.093 C  
BRANCH  13  14
HETATM   14  S   UNL     1      -9.280   2.979  68.782  1.00  0.00    -0.168 SA 
BRANCH  14  15
HETATM   15  C   UNL     1      -9.131   3.075  70.502  1.00  0.00    -0.120 A  
HETATM   16  N   UNL     1      -9.986   3.643  71.321  1.00  0.00    -0.138 NA 
HETATM   17  C   UNL     1      -6.898   1.897  70.815  1.00  0.00    -0.032 C  
HETATM   18  N   UNL     1      -9.431   3.537  72.575  1.00  0.00    -0.119 NA 
HETATM   19  N   UNL     1      -8.073   2.611  71.230  1.00  0.00    -0.056 NA 
HETATM   20  N   UNL     1      -8.265   2.906  72.530  1.00  0.00    -0.066 NA 
ENDBRANCH  14  15
ENDBRANCH  13  14
ENDBRANCH   4  13
BRANCH   5  21
HETATM   21  N   UNL     1     -10.483  10.413  69.422  1.00  0.00    -0.224 N  
HETATM   22  O   UNL     1      -8.364  11.216  69.562  1.00  0.00     0.118 OA 
HETATM   23  H   UNL     1     -11.368  10.465  68.918  1.00  0.00     0.000 HD 
HETATM   24  C   UNL     1      -9.467  11.252  69.007  1.00  0.00    -0.013 C  
BRANCH  24  25
HETATM   25  C   UNL     1      -9.799  12.204  67.800  1.00  0.00    -0.199 C  
HETATM   26  S   UNL     1     -11.590  12.365  67.417  1.00  0.00    -0.356 SA 
HETATM   27  C   UNL     1     -10.882  13.903  66.939  1.00  0.00    -0.286 C  
HETATM   28  C   UNL     1     -11.168  14.757  65.927  1.00  0.00    -0.340 C  
HETATM   29  S   UNL     1      -9.758  13.970  68.284  1.00  0.00    -0.227 SA 
HETATM   30  O   UNL     1     -10.703  16.777  64.715  1.00  0.00    -0.726 OA 
HETATM   31  C   UNL     1     -10.371  16.011  65.783  1.00  0.00    -0.378 C  
HETATM   32  O   UNL     1      -9.488  16.376  66.541  1.00  0.00    -0.240 OA 
BRANCH  28  33
HETATM   33  C   UNL     1     -12.227  14.430  64.932  1.00  0.00    -0.433 C  
HETATM   34  O   UNL     1     -13.381  14.223  65.310  1.00  0.00    -0.660 OA 
HETATM   35  N   UNL     1     -11.930  14.306  63.617  1.00  0.00    -0.830 N  
HETATM   36  H1  UNL     1     -12.655  14.083  62.936  1.00  0.00     0.000 HD 
HETATM   37  H2  UNL     1     -10.968  14.438  63.304  1.00  0.00     0.000 HD 
ENDBRANCH  28  33
ENDBRANCH  24  25
ENDBRANCH   5  21
BRANCH   5  38
HETATM   38  O   UNL     1     -11.174   9.863  71.695  1.00  0.00    -0.257 OA 
HETATM   39  C   UNL     1     -12.493   9.323  71.777  1.00  0.00    -0.381 C  
ENDBRANCH   5  38
TORSDOF 7
ENDMDL
MODEL       68
REMARK 921   NORMALIZED FREE ENERGY PREDICTED BY IDOCK:   -4.91 KCAL/MOL
REMARK 922        TOTAL FREE ENERGY PREDICTED BY IDOCK:   -8.38 KCAL/MOL
REMARK 923 INTER-LIGAND FREE ENERGY PREDICTED BY IDOCK:   -7.19 KCAL/MOL
REMARK 924 INTRA-LIGAND FREE ENERGY PREDICTED BY IDOCK:   -1.19 KCAL/MOL
REMARK 927      BINDING AFFINITY PREDICTED BY RF-SCORE:    0.00 PKD
ROOT
HETATM    1  C   UNL     1      -7.974  12.058  67.167  1.00  0.00    -0.175 C  
HETATM    2  S   UNL     1      -9.682  11.525  66.873  1.00  0.00    -0.189 SA 
HETATM    3  C   UNL     1     -10.227  13.179  66.382  1.00  0.00    -0.286 C  
HETATM    4  C   UNL     1      -9.824  14.288  67.346  1.00  0.00    -0.235 C  
HETATM    5  C   UNL     1      -7.101  11.146  68.148  1.00  0.00    -0.071 C  
HETATM    6  C   UNL     1      -8.744  14.218  68.184  1.00  0.00    -0.174 C  
HETATM    7  N   UNL     1      -7.980  13.078  68.203  1.00  0.00    -0.144 N  
HETATM    8  C   UNL     1      -8.428  15.390  69.107  1.00  0.00    -0.241 C  
HETATM    9  O   UNL     1      -9.086  16.421  69.131  1.00  0.00    -0.250 OA 
HETATM   10  O   UNL     1      -7.337  15.309  69.882  1.00  0.00    -0.180 OA 
HETATM   11  O   UNL     1      -6.362  13.025  69.858  1.00  0.00    -0.113 OA 
HETATM   12  C   UNL     1      -6.995  12.533  68.949  1.00  0.00    -0.088 C  
ENDROOT
BRANCH   4  13
HETATM   13  C   UNL     1     -10.837  15.436  67.305  1.00  0.00    -0.316 C  
BRANCH  13  14
HETATM   14  S   UNL     1     -10.879  16.209  65.663  1.00  0.00    -0.181 SA 
BRANCH  14  15
HETATM   15  C   UNL     1      -9.543  17.295  65.806  1.00  0.00     0.066 A  
HETATM   16  N   UNL     1      -8.273  16.962  65.806  1.00  0.00    -0.357 NA 
HETATM   17  C   UNL     1     -10.792  19.500  66.033  1.00  0.00    -0.327 C  
HETATM   18  N   UNL     1      -7.577  18.132  66.006  1.00  0.00    -0.465 NA 
HETATM   19  N   UNL     1      -9.638  18.646  65.986  1.00  0.00    -0.496 NA 
HETATM   20  N   UNL     1      -8.402  19.165  66.114  1.00  0.00    -0.425 NA 
ENDBRANCH  14  15
ENDBRANCH  13  14
ENDBRANCH   4  13
BRANCH   5  21
HETATM   21  N   UNL     1      -7.866  10.026  68.768  1.00  0.00    -0.090 N  
HETATM   22  O   UNL     1      -6.778  10.000  70.759  1.00  0.00    -0.260 OA 
HETATM   23  H   UNL     1      -8.611   9.605  68.213  1.00  0.00     0.000 HD 
HETATM   24  C   UNL     1      -7.649   9.513  70.032  1.00  0.00    -0.133 C  
BRANCH  24  25
HETATM   25  C   UNL     1      -8.580   8.323  70.470  1.00  0.00    -0.131 C  
HETATM   26  S   UNL     1      -7.757   6.681  70.519  1.00  0.00    -0.106 SA 
HETATM   27  C   UNL     1      -9.012   6.597  71.748  1.00  0.00    -0.140 C  
HETATM   28  C   UNL     1      -9.805   5.582  72.167  1.00  0.00    -0.198 C  
HETATM   29  S   UNL     1      -8.798   8.253  72.287  1.00  0.00    -0.223 SA 
HETATM   30  O   UNL     1     -11.570   4.765  73.574  1.00  0.00    -0.281 OA 
HETATM   31  C   UNL     1     -10.795   5.830  73.257  1.00  0.00    -0.272 C  
HETATM   32  O   UNL     1     -10.932   6.883  73.858  1.00  0.00    -0.112 OA 
BRANCH  28  33
HETATM   33  C   UNL     1      -9.734   4.243  71.518  1.00  0.00    -0.174 C  
HETATM   34  O   UNL     1      -9.945   4.136  70.309  1.00  0.00    -0.201 OA 
HETATM   35  N   UNL     1      -9.492   3.129  72.248  1.00  0.00    -0.115 N  
HETATM   36  H1  UNL     1      -9.444   2.213  71.803  1.00  0.00     0.000 HD 
HETATM   37  H2  UNL     1      -9.357   3.208  73.256  1.00  0.00     0.000 HD 
ENDBRANCH  28  33
ENDBRANCH  24  25
ENDBRANCH   5  21
BRANCH   5  38
HETATM   38  O   UNL     1      -5.837  10.691  67.589  1.00  0.00    -0.044 OA 
HETATM   39  C   UNL     1      -5.924   9.597  66.678  1.00  0.00    -0.059 C  
ENDBRANCH   5  38
TORSDOF 7
ENDMDL
MODEL       69
REMARK 921   NORMALIZED FREE ENERGY PREDICTED BY IDOCK:   -4.88 KCAL/MOL
REMARK 922        TOTAL FREE ENERGY PREDICTED BY IDOCK:   -8.33 KCAL/MOL
REMARK 923 INTER-LIGAND FREE ENERGY PREDICTED BY IDOCK:   -7.12 KCAL/MOL
REMARK 924 INTRA-LIGAND FREE ENERGY PREDICTED BY IDOCK:   -1.21 KCAL/MOL
REMARK 927      BINDING AFFINITY PREDICTED BY RF-SCORE:    0.00 PKD
ROOT
HETATM    1  C   UNL     1      -7.862   8.606  68.717  1.00  0.00    -0.106 C  
HETATM    2  S   UNL     1      -7.302   9.710  70.042  1.00  0.00    -0.148 SA 
HETATM    3  C   UNL     1      -7.488   8.444  71.323  1.00  0.00    -0.089 C  
HETATM    4  C   UNL     1      -8.833   7.727  71.308  1.00  0.00    -0.144 C  
HETATM    5  C   UNL     1      -8.436   9.307  67.400  1.00  0.00    -0.122 C  
HETATM    6  C   UNL     1      -9.622   7.601  70.198  1.00  0.00    -0.168 C  
HETATM    7  N   UNL     1      -9.219   8.175  69.018  1.00  0.00    -0.148 N  
HETATM    8  C   UNL     1     -10.950   6.858  70.295  1.00  0.00    -0.281 C  
HETATM    9  O   UNL     1     -11.354   6.338  71.325  1.00  0.00    -0.286 OA 
HETATM   10  O   UNL     1     -11.676   6.713  69.177  1.00  0.00    -0.136 OA 
HETATM   11  O   UNL     1     -10.785   8.095  67.316  1.00  0.00    -0.298 OA 
HETATM   12  C   UNL     1      -9.728   8.442  67.796  1.00  0.00    -0.162 C  
ENDROOT
BRANCH   4  13
HETATM   13  C   UNL     1      -9.208   7.252  72.716  1.00  0.00    -0.143 C  
BRANCH  13  14
HETATM   14  S   UNL     1      -8.071   5.958  73.291  1.00  0.00    -0.115 SA 
BRANCH  14  15
HETATM   15  C   UNL     1      -8.664   4.611  72.385  1.00  0.00    -0.118 A  
HETATM   16  N   UNL     1      -8.208   4.199  71.224  1.00  0.00    -0.076 NA 
HETATM   17  C   UNL     1     -10.544   3.844  73.918  1.00  0.00    -0.217 C  
HETATM   18  N   UNL     1      -9.015   3.148  70.855  1.00  0.00    -0.086 NA 
HETATM   19  N   UNL     1      -9.723   3.825  72.740  1.00  0.00    -0.133 NA 
HETATM   20  N   UNL     1      -9.940   2.910  71.775  1.00  0.00    -0.153 NA 
ENDBRANCH  14  15
ENDBRANCH  13  14
ENDBRANCH   4  13
BRANCH   5  21
HETATM   21  N   UNL     1      -8.521  10.793  67.498  1.00  0.00    -0.119 N  
HETATM   22  O   UNL     1     -10.314  11.071  66.136  1.00  0.00    -0.239 OA 
HETATM   23  H   UNL     1      -7.838  11.262  68.093  1.00  0.00     0.000 HD 
HETATM   24  C   UNL     1      -9.447  11.585  66.850  1.00  0.00    -0.182 C  
BRANCH  24  25
HETATM   25  C   UNL     1      -9.338  13.134  67.101  1.00  0.00    -0.235 C  
HETATM   26  S   UNL     1      -9.994  14.182  65.741  1.00  0.00    -0.284 SA 
HETATM   27  C   UNL     1     -10.239  15.128  67.203  1.00  0.00    -0.247 C  
HETATM   28  C   UNL     1     -10.182  16.460  67.441  1.00  0.00    -0.281 C  
HETATM   29  S   UNL     1     -10.669  13.749  68.199  1.00  0.00    -0.254 SA 
HETATM   30  O   UNL     1     -10.323  18.310  68.966  1.00  0.00    -0.320 OA 
HETATM   31  C   UNL     1     -10.447  16.968  68.820  1.00  0.00    -0.347 C  
HETATM   32  O   UNL     1     -10.765  16.279  69.775  1.00  0.00    -0.317 OA 
BRANCH  28  33
HETATM   33  C   UNL     1      -9.809  17.412  66.358  1.00  0.00    -0.302 C  
HETATM   34  O   UNL     1      -8.628  17.720  66.192  1.00  0.00    -0.446 OA 
HETATM   35  N   UNL     1     -10.757  17.988  65.581  1.00  0.00    -0.226 N  
HETATM   36  H1  UNL     1     -10.501  18.639  64.840  1.00  0.00     0.000 HD 
HETATM   37  H2  UNL     1     -11.740  17.767  65.741  1.00  0.00     0.000 HD 
ENDBRANCH  28  33
ENDBRANCH  24  25
ENDBRANCH   5  21
BRANCH   5  38
HETATM   38  O   UNL     1      -7.800   8.884  66.162  1.00  0.00    -0.099 OA 
HETATM   39  C   UNL     1      -6.832   9.785  65.626  1.00  0.00    -0.096 C  
ENDBRANCH   5  38
TORSDOF 7
ENDMDL
MODEL       70
REMARK 921   NORMALIZED FREE ENERGY PREDICTED BY IDOCK:   -4.88 KCAL/MOL
REMARK 922        TOTAL FREE ENERGY PREDICTED BY IDOCK:   -8.33 KCAL/MOL
REMARK 923 INTER-LIGAND FREE ENERGY PREDICTED BY IDOCK:   -7.75 KCAL/MOL
REMARK 924 INTRA-LIGAND FREE ENERGY PREDICTED BY IDOCK:   -0.58 KCAL/MOL
REMARK 927      BINDING AFFINITY PREDICTED BY RF-SCORE:    0.00 PKD
ROOT
HETATM    1  C   UNL     1      -9.002  12.122  66.932  1.00  0.00    -0.201 C  
HETATM    2  S   UNL     1      -7.442  12.425  67.803  1.00  0.00    -0.141 SA 
HETATM    3  C   UNL     1      -7.390  10.760  68.513  1.00  0.00    -0.096 C  
HETATM    4  C   UNL     1      -8.684  10.323  69.188  1.00  0.00    -0.176 C  
HETATM    5  C   UNL     1      -9.863  13.411  66.542  1.00  0.00    -0.286 C  
HETATM    6  C   UNL     1      -9.919  10.820  68.871  1.00  0.00    -0.202 C  
HETATM    7  N   UNL     1     -10.025  11.798  67.914  1.00  0.00    -0.177 N  
HETATM    8  C   UNL     1     -11.151  10.307  69.608  1.00  0.00    -0.274 C  
HETATM    9  O   UNL     1     -11.104   9.444  70.473  1.00  0.00    -0.240 OA 
HETATM   10  O   UNL     1     -12.351  10.781  69.241  1.00  0.00    -0.368 OA 
HETATM   11  O   UNL     1     -12.140  12.710  67.690  1.00  0.00    -0.391 OA 
HETATM   12  C   UNL     1     -10.957  12.652  67.438  1.00  0.00    -0.254 C  
ENDROOT
BRANCH   4  13
HETATM   13  C   UNL     1      -8.396   9.326  70.316  1.00  0.00    -0.186 C  
BRANCH  13  14
HETATM   14  S   UNL     1      -7.539   7.857  69.682  1.00  0.00    -0.100 SA 
BRANCH  14  15
HETATM   15  C   UNL     1      -6.839   7.261  71.146  1.00  0.00    -0.055 A  
HETATM   16  N   UNL     1      -6.823   7.881  72.303  1.00  0.00    -0.062 NA 
HETATM   17  C   UNL     1      -5.929   5.033  70.322  1.00  0.00    -0.018 C  
HETATM   18  N   UNL     1      -6.112   7.068  73.156  1.00  0.00    -0.057 NA 
HETATM   19  N   UNL     1      -6.168   6.078  71.277  1.00  0.00    -0.041 NA 
HETATM   20  N   UNL     1      -5.711   5.964  72.539  1.00  0.00    -0.031 NA 
ENDBRANCH  14  15
ENDBRANCH  13  14
ENDBRANCH   4  13
BRANCH   5  21
HETATM   21  N   UNL     1      -9.293  14.691  67.053  1.00  0.00    -0.222 N  
HETATM   22  O   UNL     1     -11.259  15.683  67.605  1.00  0.00    -0.326 OA 
HETATM   23  H   UNL     1      -8.279  14.790  67.040  1.00  0.00     0.000 HD 
HETATM   24  C   UNL     1     -10.027  15.754  67.541  1.00  0.00    -0.236 C  
BRANCH  24  25
HETATM   25  C   UNL     1      -9.206  17.007  68.020  1.00  0.00    -0.241 C  
HETATM   26  S   UNL     1      -7.744  16.616  69.064  1.00  0.00    -0.184 SA 
HETATM   27  C   UNL     1      -7.316  18.098  68.220  1.00  0.00    -0.261 C  
HETATM   28  C   UNL     1      -6.586  19.176  68.594  1.00  0.00    -0.296 C  
HETATM   29  S   UNL     1      -8.086  17.636  66.713  1.00  0.00    -0.251 SA 
HETATM   30  O   UNL     1      -5.688  21.351  68.114  1.00  0.00    -0.312 OA 
HETATM   31  C   UNL     1      -6.396  20.300  67.631  1.00  0.00    -0.234 C  
HETATM   32  O   UNL     1      -6.811  20.322  66.484  1.00  0.00    -0.220 OA 
BRANCH  28  33
HETATM   33  C   UNL     1      -6.020  19.271  69.969  1.00  0.00    -0.252 C  
HETATM   34  O   UNL     1      -5.223  18.420  70.364  1.00  0.00    -0.215 OA 
HETATM   35  N   UNL     1      -6.409  20.256  70.813  1.00  0.00    -0.485 N  
HETATM   36  H1  UNL     1      -6.021  20.321  71.754  1.00  0.00     0.000 HD 
HETATM   37  H2  UNL     1      -7.100  20.940  70.504  1.00  0.00     0.000 HD 
ENDBRANCH  28  33
ENDBRANCH  24  25
ENDBRANCH   5  21
BRANCH   5  38
HETATM   38  O   UNL     1     -10.217  13.502  65.134  1.00  0.00    -0.330 OA 
HETATM   39  C   UNL     1     -11.570  13.179  64.815  1.00  0.00    -0.333 C  
ENDBRANCH   5  38
TORSDOF 7
ENDMDL
MODEL       71
REMARK 921   NORMALIZED FREE ENERGY PREDICTED BY IDOCK:   -4.88 KCAL/MOL
REMARK 922        TOTAL FREE ENERGY PREDICTED BY IDOCK:   -8.33 KCAL/MOL
REMARK 923 INTER-LIGAND FREE ENERGY PREDICTED BY IDOCK:   -7.58 KCAL/MOL
REMARK 924 INTRA-LIGAND FREE ENERGY PREDICTED BY IDOCK:   -0.75 KCAL/MOL
REMARK 927      BINDING AFFINITY PREDICTED BY RF-SCORE:    0.00 PKD
ROOT
HETATM    1  C   UNL     1     -10.998   9.755  68.251  1.00  0.00    -0.164 C  
HETATM    2  S   UNL     1     -10.058  10.389  66.836  1.00  0.00    -0.228 SA 
HETATM    3  C   UNL     1      -9.612   8.734  66.253  1.00  0.00    -0.259 C  
HETATM    4  C   UNL     1      -9.041   7.819  67.329  1.00  0.00    -0.147 C  
HETATM    5  C   UNL     1     -11.203  10.757  69.478  1.00  0.00    -0.281 C  
HETATM    6  C   UNL     1      -9.303   7.952  68.665  1.00  0.00    -0.145 C  
HETATM    7  N   UNL     1     -10.100   8.984  69.095  1.00  0.00    -0.190 N  
HETATM    8  C   UNL     1      -8.680   6.977  69.658  1.00  0.00    -0.141 C  
HETATM    9  O   UNL     1      -7.958   6.049  69.322  1.00  0.00    -0.100 OA 
HETATM   10  O   UNL     1      -8.995   7.106  70.955  1.00  0.00    -0.148 OA 
HETATM   11  O   UNL     1     -10.226   9.218  71.394  1.00  0.00    -0.320 OA 
HETATM   12  C   UNL     1     -10.458   9.569  70.258  1.00  0.00    -0.268 C  
ENDROOT
BRANCH   4  13
HETATM   13  C   UNL     1      -8.074   6.801  66.716  1.00  0.00    -0.109 C  
BRANCH  13  14
HETATM   14  S   UNL     1      -8.961   5.608  65.674  1.00  0.00    -0.090 SA 
BRANCH  14  15
HETATM   15  C   UNL     1      -7.771   5.331  64.452  1.00  0.00    -0.090 A  
HETATM   16  N   UNL     1      -7.006   4.269  64.345  1.00  0.00    -0.045 NA 
HETATM   17  C   UNL     1      -7.991   7.491  63.126  1.00  0.00    -0.103 C  
HETATM   18  N   UNL     1      -6.176   4.510  63.273  1.00  0.00    -0.021 NA 
HETATM   19  N   UNL     1      -7.438   6.209  63.459  1.00  0.00    -0.071 NA 
HETATM   20  N   UNL     1      -6.435   5.690  62.725  1.00  0.00    -0.024 NA 
ENDBRANCH  14  15
ENDBRANCH  13  14
ENDBRANCH   4  13
BRANCH   5  21
HETATM   21  N   UNL     1     -10.489  12.057  69.319  1.00  0.00    -0.430 N  
HETATM   22  O   UNL     1     -12.123  13.147  68.182  1.00  0.00    -0.319 OA 
HETATM   23  H   UNL     1      -9.556  12.131  69.722  1.00  0.00     0.000 HD 
HETATM   24  C   UNL     1     -10.988  13.169  68.669  1.00  0.00    -0.265 C  
BRANCH  24  25
HETATM   25  C   UNL     1     -10.048  14.429  68.620  1.00  0.00    -0.242 C  
HETATM   26  S   UNL     1      -9.211  14.703  67.007  1.00  0.00    -0.250 SA 
HETATM   27  C   UNL     1      -9.408  16.309  67.696  1.00  0.00    -0.218 C  
HETATM   28  C   UNL     1      -8.633  17.419  67.644  1.00  0.00    -0.217 C  
HETATM   29  S   UNL     1     -10.990  15.982  68.379  1.00  0.00    -0.346 SA 
HETATM   30  O   UNL     1      -8.218  19.699  68.272  1.00  0.00    -0.324 OA 
HETATM   31  C   UNL     1      -9.083  18.657  68.345  1.00  0.00    -0.324 C  
HETATM   32  O   UNL     1     -10.139  18.784  68.942  1.00  0.00    -0.390 OA 
BRANCH  28  33
HETATM   33  C   UNL     1      -7.318  17.397  66.943  1.00  0.00    -0.202 C  
HETATM   34  O   UNL     1      -6.365  16.802  67.446  1.00  0.00    -0.137 OA 
HETATM   35  N   UNL     1      -7.140  18.069  65.781  1.00  0.00    -0.265 N  
HETATM   36  H1  UNL     1      -6.241  18.054  65.301  1.00  0.00     0.000 HD 
HETATM   37  H2  UNL     1      -7.916  18.597  65.380  1.00  0.00     0.000 HD 
ENDBRANCH  28  33
ENDBRANCH  24  25
ENDBRANCH   5  21
BRANCH   5  38
HETATM   38  O   UNL     1     -12.588  10.949  69.882  1.00  0.00    -0.289 OA 
HETATM   39  C   UNL     1     -12.796  11.206  71.270  1.00  0.00    -0.412 C  
ENDBRANCH   5  38
TORSDOF 7
ENDMDL
MODEL       72
REMARK 921   NORMALIZED FREE ENERGY PREDICTED BY IDOCK:   -4.86 KCAL/MOL
REMARK 922        TOTAL FREE ENERGY PREDICTED BY IDOCK:   -8.30 KCAL/MOL
REMARK 923 INTER-LIGAND FREE ENERGY PREDICTED BY IDOCK:   -7.52 KCAL/MOL
REMARK 924 INTRA-LIGAND FREE ENERGY PREDICTED BY IDOCK:   -0.78 KCAL/MOL
REMARK 927      BINDING AFFINITY PREDICTED BY RF-SCORE:    0.00 PKD
ROOT
HETATM    1  C   UNL     1     -10.794   5.948  69.568  1.00  0.00    -0.372 C  
HETATM    2  S   UNL     1     -10.753   5.917  67.755  1.00  0.00    -0.233 SA 
HETATM    3  C   UNL     1      -9.982   4.280  67.693  1.00  0.00    -0.025 C  
HETATM    4  C   UNL     1      -8.757   4.127  68.587  1.00  0.00    -0.126 C  
HETATM    5  C   UNL     1     -10.880   7.388  70.255  1.00  0.00    -0.245 C  
HETATM    6  C   UNL     1      -8.531   4.872  69.712  1.00  0.00    -0.083 C  
HETATM    7  N   UNL     1      -9.430   5.849  70.063  1.00  0.00    -0.156 N  
HETATM    8  C   UNL     1      -7.272   4.632  70.537  1.00  0.00    -0.049 C  
HETATM    9  O   UNL     1      -6.440   3.780  70.258  1.00  0.00    -0.030 OA 
HETATM   10  O   UNL     1      -7.105   5.347  71.659  1.00  0.00    -0.067 OA 
HETATM   11  O   UNL     1      -8.766   7.185  71.832  1.00  0.00    -0.120 OA 
HETATM   12  C   UNL     1      -9.517   6.879  70.932  1.00  0.00    -0.157 C  
ENDROOT
BRANCH   4  13
HETATM   13  C   UNL     1      -7.787   3.094  68.002  1.00  0.00    -0.066 C  
BRANCH  13  14
HETATM   14  S   UNL     1      -6.511   3.900  66.992  1.00  0.00    -0.042 SA 
BRANCH  14  15
HETATM   15  C   UNL     1      -7.430   4.256  65.573  1.00  0.00    -0.081 A  
HETATM   16  N   UNL     1      -7.922   3.377  64.730  1.00  0.00    -0.089 NA 
HETATM   17  C   UNL     1      -7.438   6.798  65.681  1.00  0.00    -0.082 C  
HETATM   18  N   UNL     1      -8.517   4.110  63.728  1.00  0.00    -0.096 NA 
HETATM   19  N   UNL     1      -7.724   5.509  65.116  1.00  0.00    -0.087 NA 
HETATM   20  N   UNL     1      -8.404   5.411  63.957  1.00  0.00    -0.134 NA 
ENDBRANCH  14  15
ENDBRANCH  13  14
ENDBRANCH   4  13
BRANCH   5  21
HETATM   21  N   UNL     1     -10.809   8.521  69.287  1.00  0.00    -0.407 N  
HETATM   22  O   UNL     1      -9.584   9.929  70.577  1.00  0.00    -0.180 OA 
HETATM   23  H   UNL     1     -11.266   8.394  68.384  1.00  0.00     0.000 HD 
HETATM   24  C   UNL     1     -10.176   9.728  69.513  1.00  0.00    -0.221 C  
BRANCH  24  25
HETATM   25  C   UNL     1     -10.240  10.777  68.344  1.00  0.00    -0.175 C  
HETATM   26  S   UNL     1     -10.900  10.124  66.757  1.00  0.00     0.023 SA 
HETATM   27  C   UNL     1     -11.341  11.826  66.766  1.00  0.00    -0.320 C  
HETATM   28  C   UNL     1     -11.435  12.743  65.774  1.00  0.00    -0.388 C  
HETATM   29  S   UNL     1     -11.700  11.875  68.482  1.00  0.00    -0.316 SA 
HETATM   30  O   UNL     1     -11.868  14.992  65.052  1.00  0.00    -0.329 OA 
HETATM   31  C   UNL     1     -11.846  14.139  66.106  1.00  0.00    -0.407 C  
HETATM   32  O   UNL     1     -12.160  14.536  67.216  1.00  0.00    -0.392 OA 
BRANCH  28  33
HETATM   33  C   UNL     1     -11.082  12.386  64.371  1.00  0.00    -0.333 C  
HETATM   34  O   UNL     1     -11.942  11.921  63.622  1.00  0.00    -0.473 OA 
HETATM   35  N   UNL     1      -9.812  12.516  63.920  1.00  0.00    -0.596 N  
HETATM   36  H1  UNL     1      -9.571  12.272  62.960  1.00  0.00     0.000 HD 
HETATM   37  H2  UNL     1      -9.088  12.863  64.549  1.00  0.00     0.000 HD 
ENDBRANCH  28  33
ENDBRANCH  24  25
ENDBRANCH   5  21
BRANCH   5  38
HETATM   38  O   UNL     1     -11.979   7.549  71.194  1.00  0.00    -0.298 OA 
HETATM   39  C   UNL     1     -11.604   7.835  72.540  1.00  0.00    -0.367 C  
ENDBRANCH   5  38
TORSDOF 7
ENDMDL
MODEL       73
REMARK 921   NORMALIZED FREE ENERGY PREDICTED BY IDOCK:   -4.84 KCAL/MOL
REMARK 922        TOTAL FREE ENERGY PREDICTED BY IDOCK:   -8.27 KCAL/MOL
REMARK 923 INTER-LIGAND FREE ENERGY PREDICTED BY IDOCK:   -7.49 KCAL/MOL
REMARK 924 INTRA-LIGAND FREE ENERGY PREDICTED BY IDOCK:   -0.78 KCAL/MOL
REMARK 927      BINDING AFFINITY PREDICTED BY RF-SCORE:    0.00 PKD
ROOT
HETATM    1  C   UNL     1      -9.553   8.349  68.925  1.00  0.00    -0.153 C  
HETATM    2  S   UNL     1     -10.660   8.596  67.510  1.00  0.00    -0.154 SA 
HETATM    3  C   UNL     1     -10.283   6.977  66.795  1.00  0.00    -0.211 C  
HETATM    4  C   UNL     1      -8.795   6.669  66.682  1.00  0.00    -0.140 C  
HETATM    5  C   UNL     1      -9.031   9.668  69.661  1.00  0.00    -0.203 C  
HETATM    6  C   UNL     1      -7.835   7.229  67.480  1.00  0.00    -0.112 C  
HETATM    7  N   UNL     1      -8.201   8.154  68.425  1.00  0.00    -0.128 N  
HETATM    8  C   UNL     1      -6.372   6.846  67.283  1.00  0.00    -0.048 C  
HETATM    9  O   UNL     1      -5.997   6.034  66.449  1.00  0.00    -0.023 OA 
HETATM   10  O   UNL     1      -5.462   7.378  68.112  1.00  0.00    -0.024 OA 
HETATM   11  O   UNL     1      -6.435   9.192  69.501  1.00  0.00    -0.042 OA 
HETATM   12  C   UNL     1      -7.612   9.040  69.257  1.00  0.00    -0.079 C  
ENDROOT
BRANCH   4  13
HETATM   13  C   UNL     1      -8.525   5.724  65.506  1.00  0.00    -0.150 C  
BRANCH  13  14
HETATM   14  S   UNL     1      -8.974   4.016  65.929  1.00  0.00    -0.136 SA 
BRANCH  14  15
HETATM   15  C   UNL     1      -9.598   3.483  64.408  1.00  0.00    -0.162 A  
HETATM   16  N   UNL     1     -10.831   3.634  63.983  1.00  0.00    -0.268 NA 
HETATM   17  C   UNL     1      -7.515   2.394  63.435  1.00  0.00    -0.054 C  
HETATM   18  N   UNL     1     -10.888   3.005  62.761  1.00  0.00    -0.183 NA 
HETATM   19  N   UNL     1      -8.895   2.789  63.464  1.00  0.00    -0.088 NA 
HETATM   20  N   UNL     1      -9.710   2.489  62.435  1.00  0.00    -0.089 NA 
ENDBRANCH  14  15
ENDBRANCH  13  14
ENDBRANCH   4  13
BRANCH   5  21
HETATM   21  N   UNL     1      -9.460  10.935  69.000  1.00  0.00    -0.328 N  
HETATM   22  O   UNL     1      -7.427  11.944  68.963  1.00  0.00    -0.093 OA 
HETATM   23  H   UNL     1     -10.444  11.021  68.747  1.00  0.00     0.000 HD 
HETATM   24  C   UNL     1      -8.633  12.001  68.703  1.00  0.00    -0.011 C  
BRANCH  24  25
HETATM   25  C   UNL     1      -9.313  13.237  68.008  1.00  0.00    -0.218 C  
HETATM   26  S   UNL     1      -8.167  14.613  67.596  1.00  0.00    -0.186 SA 
HETATM   27  C   UNL     1      -9.431  14.693  66.376  1.00  0.00    -0.299 C  
HETATM   28  C   UNL     1     -10.011  15.738  65.739  1.00  0.00    -0.389 C  
HETATM   29  S   UNL     1      -9.594  12.954  66.220  1.00  0.00    -0.205 SA 
HETATM   30  O   UNL     1     -11.629  16.587  64.180  1.00  0.00    -1.052 OA 
HETATM   31  C   UNL     1     -11.080  15.476  64.729  1.00  0.00    -0.407 C  
HETATM   32  O   UNL     1     -11.462  14.372  64.378  1.00  0.00    -0.354 OA 
BRANCH  28  33
HETATM   33  C   UNL     1      -9.633  17.140  66.073  1.00  0.00    -0.163 C  
HETATM   34  O   UNL     1      -8.528  17.572  65.742  1.00  0.00    -0.530 OA 
HETATM   35  N   UNL     1     -10.467  17.933  66.786  1.00  0.00    -0.337 N  
HETATM   36  H1  UNL     1     -10.208  18.892  67.014  1.00  0.00     0.000 HD 
HETATM   37  H2  UNL     1     -11.366  17.566  67.097  1.00  0.00     0.000 HD 
ENDBRANCH  28  33
ENDBRANCH  24  25
ENDBRANCH   5  21
BRANCH   5  38
HETATM   38  O   UNL     1      -9.275   9.699  71.095  1.00  0.00    -0.171 OA 
HETATM   39  C   UNL     1     -10.296   8.821  71.567  1.00  0.00    -0.303 C  
ENDBRANCH   5  38
TORSDOF 7
ENDMDL
MODEL       74
REMARK 921   NORMALIZED FREE ENERGY PREDICTED BY IDOCK:   -4.83 KCAL/MOL
REMARK 922        TOTAL FREE ENERGY PREDICTED BY IDOCK:   -8.25 KCAL/MOL
REMARK 923 INTER-LIGAND FREE ENERGY PREDICTED BY IDOCK:   -7.49 KCAL/MOL
REMARK 924 INTRA-LIGAND FREE ENERGY PREDICTED BY IDOCK:   -0.76 KCAL/MOL
REMARK 927      BINDING AFFINITY PREDICTED BY RF-SCORE:    0.00 PKD
ROOT
HETATM    1  C   UNL     1     -10.488   9.099  68.778  1.00  0.00    -0.212 C  
HETATM    2  S   UNL     1     -10.173   9.723  67.105  1.00  0.00    -0.239 SA 
HETATM    3  C   UNL     1      -9.555   8.129  66.509  1.00  0.00    -0.234 C  
HETATM    4  C   UNL     1      -8.501   7.489  67.404  1.00  0.00    -0.115 C  
HETATM    5  C   UNL     1     -10.545  10.187  69.946  1.00  0.00    -0.285 C  
HETATM    6  C   UNL     1      -8.382   7.734  68.744  1.00  0.00    -0.128 C  
HETATM    7  N   UNL     1      -9.230   8.634  69.341  1.00  0.00    -0.149 N  
HETATM    8  C   UNL     1      -7.291   7.034  69.547  1.00  0.00    -0.094 C  
HETATM    9  O   UNL     1      -6.508   6.233  69.057  1.00  0.00    -0.039 OA 
HETATM   10  O   UNL     1      -7.232   7.261  70.867  1.00  0.00    -0.067 OA 
HETATM   11  O   UNL     1      -8.725   9.126  71.545  1.00  0.00    -0.334 OA 
HETATM   12  C   UNL     1      -9.354   9.278  70.521  1.00  0.00    -0.264 C  
ENDROOT
BRANCH   4  13
HETATM   13  C   UNL     1      -7.552   6.613  66.579  1.00  0.00    -0.090 C  
BRANCH  13  14
HETATM   14  S   UNL     1      -8.478   5.416  65.576  1.00  0.00    -0.145 SA 
BRANCH  14  15
HETATM   15  C   UNL     1      -8.547   4.087  66.678  1.00  0.00    -0.109 A  
HETATM   16  N   UNL     1      -7.779   3.023  66.655  1.00  0.00    -0.076 NA 
HETATM   17  C   UNL     1     -10.478   4.841  68.154  1.00  0.00     0.203 C  
HETATM   18  N   UNL     1      -8.230   2.210  67.670  1.00  0.00    -0.064 NA 
HETATM   19  N   UNL     1      -9.449   3.950  67.696  1.00  0.00    -0.188 NA 
HETATM   20  N   UNL     1      -9.247   2.770  68.312  1.00  0.00    -0.179 NA 
ENDBRANCH  14  15
ENDBRANCH  13  14
ENDBRANCH   4  13
BRANCH   5  21
HETATM   21  N   UNL     1     -10.224  11.572  69.494  1.00  0.00    -0.396 N  
HETATM   22  O   UNL     1     -12.255  12.066  68.609  1.00  0.00    -0.299 OA 
HETATM   23  H   UNL     1      -9.284  11.920  69.682  1.00  0.00     0.000 HD 
HETATM   24  C   UNL     1     -11.095  12.422  68.841  1.00  0.00    -0.258 C  
BRANCH  24  25
HETATM   25  C   UNL     1     -10.529  13.838  68.455  1.00  0.00    -0.252 C  
HETATM   26  S   UNL     1     -11.259  14.568  66.934  1.00  0.00    -0.345 SA 
HETATM   27  C   UNL     1     -10.827  15.946  67.938  1.00  0.00    -0.327 C  
HETATM   28  C   UNL     1     -10.370  17.183  67.632  1.00  0.00    -0.344 C  
HETATM   29  S   UNL     1     -11.290  15.178  69.446  1.00  0.00    -0.317 SA 
HETATM   30  O   UNL     1      -9.596  19.348  68.327  1.00  0.00    -0.336 OA 
HETATM   31  C   UNL     1     -10.092  18.153  68.733  1.00  0.00    -0.376 C  
HETATM   32  O   UNL     1     -10.288  17.946  69.919  1.00  0.00     0.244 OA 
BRANCH  28  33
HETATM   33  C   UNL     1     -10.092  17.564  66.218  1.00  0.00    -0.336 C  
HETATM   34  O   UNL     1      -9.246  16.945  65.572  1.00  0.00    -0.443 OA 
HETATM   35  N   UNL     1     -10.720  18.619  65.647  1.00  0.00    -0.291 N  
HETATM   36  H1  UNL     1     -10.530  18.879  64.680  1.00  0.00     0.000 HD 
HETATM   37  H2  UNL     1     -11.392  19.160  66.192  1.00  0.00     0.000 HD 
ENDBRANCH  28  33
ENDBRANCH  24  25
ENDBRANCH   5  21
BRANCH   5  38
HETATM   38  O   UNL     1     -11.756  10.151  70.752  1.00  0.00    -0.302 OA 
HETATM   39  C   UNL     1     -12.155   8.858  71.206  1.00  0.00    -0.306 C  
ENDBRANCH   5  38
TORSDOF 7
ENDMDL
MODEL       75
REMARK 921   NORMALIZED FREE ENERGY PREDICTED BY IDOCK:   -4.73 KCAL/MOL
REMARK 922        TOTAL FREE ENERGY PREDICTED BY IDOCK:   -8.12 KCAL/MOL
REMARK 923 INTER-LIGAND FREE ENERGY PREDICTED BY IDOCK:   -7.44 KCAL/MOL
REMARK 924 INTRA-LIGAND FREE ENERGY PREDICTED BY IDOCK:   -0.68 KCAL/MOL
REMARK 927      BINDING AFFINITY PREDICTED BY RF-SCORE:    0.00 PKD
ROOT
HETATM    1  C   UNL     1      -9.184  11.312  68.877  1.00  0.00    -0.064 C  
HETATM    2  S   UNL     1      -7.970  11.142  67.540  1.00  0.00    -0.122 SA 
HETATM    3  C   UNL     1      -7.854  12.928  67.273  1.00  0.00    -0.131 C  
HETATM    4  C   UNL     1      -9.198  13.633  67.133  1.00  0.00    -0.244 C  
HETATM    5  C   UNL     1     -10.098  10.036  69.177  1.00  0.00    -0.208 C  
HETATM    6  C   UNL     1     -10.367  13.164  67.667  1.00  0.00    -0.223 C  
HETATM    7  N   UNL     1     -10.366  11.971  68.346  1.00  0.00    -0.210 N  
HETATM    8  C   UNL     1     -11.657  13.953  67.470  1.00  0.00    -0.360 C  
HETATM    9  O   UNL     1     -11.708  15.015  66.865  1.00  0.00    -0.300 OA 
HETATM   10  O   UNL     1     -12.776  13.490  68.045  1.00  0.00     0.404 OA 
HETATM   11  O   UNL     1     -12.463  11.199  68.951  1.00  0.00    -0.460 OA 
HETATM   12  C   UNL     1     -11.260  11.094  68.851  1.00  0.00    -0.256 C  
ENDROOT
BRANCH   4  13
HETATM   13  C   UNL     1      -9.067  14.876  66.247  1.00  0.00    -0.227 C  
BRANCH  13  14
HETATM   14  S   UNL     1      -8.161  16.195  67.106  1.00  0.00    -0.214 SA 
BRANCH  14  15
HETATM   15  C   UNL     1      -9.293  17.491  66.949  1.00  0.00    -0.269 A  
HETATM   16  N   UNL     1      -9.405  18.298  65.919  1.00  0.00    -0.474 NA 
HETATM   17  C   UNL     1     -10.483  17.309  69.190  1.00  0.00    -0.263 C  
HETATM   18  N   UNL     1     -10.383  19.205  66.257  1.00  0.00    -0.444 NA 
HETATM   19  N   UNL     1     -10.191  17.876  67.903  1.00  0.00    -0.352 NA 
HETATM   20  N   UNL     1     -10.870  18.953  67.465  1.00  0.00    -0.428 NA 
ENDBRANCH  14  15
ENDBRANCH  13  14
ENDBRANCH   4  13
BRANCH   5  21
HETATM   21  N   UNL     1      -9.883   8.906  68.227  1.00  0.00    -0.162 N  
HETATM   22  O   UNL     1      -8.350   7.777  69.463  1.00  0.00    -0.126 OA 
HETATM   23  H   UNL     1     -10.423   8.912  67.362  1.00  0.00     0.000 HD 
HETATM   24  C   UNL     1      -9.012   7.852  68.423  1.00  0.00    -0.133 C  
BRANCH  24  25
HETATM   25  C   UNL     1      -8.949   6.777  67.276  1.00  0.00    -0.117 C  
HETATM   26  S   UNL     1      -8.210   5.168  67.769  1.00  0.00    -0.098 SA 
HETATM   27  C   UNL     1      -9.366   4.769  66.505  1.00  0.00    -0.144 C  
HETATM   28  C   UNL     1      -9.353   3.832  65.527  1.00  0.00    -0.160 C  
HETATM   29  S   UNL     1     -10.561   5.944  67.024  1.00  0.00    -0.320 SA 
HETATM   30  O   UNL     1     -10.382   2.800  63.619  1.00  0.00    -0.169 OA 
HETATM   31  C   UNL     1     -10.510   3.739  64.588  1.00  0.00    -0.140 C  
HETATM   32  O   UNL     1     -11.521   4.419  64.647  1.00  0.00    -0.192 OA 
BRANCH  28  33
HETATM   33  C   UNL     1      -8.177   2.934  65.349  1.00  0.00    -0.091 C  
HETATM   34  O   UNL     1      -7.975   2.022  66.151  1.00  0.00    -0.075 OA 
HETATM   35  N   UNL     1      -7.293   3.139  64.344  1.00  0.00    -0.065 N  
HETATM   36  H1  UNL     1      -6.489   2.525  64.222  1.00  0.00     0.000 HD 
HETATM   37  H2  UNL     1      -7.434   3.919  63.701  1.00  0.00     0.000 HD 
ENDBRANCH  28  33
ENDBRANCH  24  25
ENDBRANCH   5  21
BRANCH   5  38
HETATM   38  O   UNL     1     -10.080   9.587  70.560  1.00  0.00    -0.251 OA 
HETATM   39  C   UNL     1     -11.359   9.424  71.173  1.00  0.00    -0.351 C  
ENDBRANCH   5  38
TORSDOF 7
ENDMDL
MODEL       76
REMARK 921   NORMALIZED FREE ENERGY PREDICTED BY IDOCK:   -4.70 KCAL/MOL
REMARK 922        TOTAL FREE ENERGY PREDICTED BY IDOCK:   -8.08 KCAL/MOL
REMARK 923 INTER-LIGAND FREE ENERGY PREDICTED BY IDOCK:   -6.88 KCAL/MOL
REMARK 924 INTRA-LIGAND FREE ENERGY PREDICTED BY IDOCK:   -1.20 KCAL/MOL
REMARK 927      BINDING AFFINITY PREDICTED BY RF-SCORE:    0.00 PKD
ROOT
HETATM    1  C   UNL     1      -8.167  11.091  69.158  1.00  0.00    -0.045 C  
HETATM    2  S   UNL     1      -7.447  10.962  67.499  1.00  0.00    -0.100 SA 
HETATM    3  C   UNL     1      -7.620  12.733  67.168  1.00  0.00    -0.043 C  
HETATM    4  C   UNL     1      -9.004  13.298  67.467  1.00  0.00    -0.208 C  
HETATM    5  C   UNL     1      -8.788   9.753  69.772  1.00  0.00    -0.224 C  
HETATM    6  C   UNL     1      -9.876  12.751  68.368  1.00  0.00    -0.196 C  
HETATM    7  N   UNL     1      -9.523  11.604  69.035  1.00  0.00     0.042 N  
HETATM    8  C   UNL     1     -11.236  13.401  68.593  1.00  0.00    -0.269 C  
HETATM    9  O   UNL     1     -11.598  14.417  68.016  1.00  0.00    -0.293 OA 
HETATM   10  O   UNL     1     -12.048  12.867  69.517  1.00  0.00    -0.285 OA 
HETATM   11  O   UNL     1     -11.208  10.671  70.318  1.00  0.00    -0.298 OA 
HETATM   12  C   UNL     1     -10.100  10.675  69.827  1.00  0.00    -0.006 C  
ENDROOT
BRANCH   4  13
HETATM   13  C   UNL     1      -9.307  14.495  66.560  1.00  0.00    -0.284 C  
BRANCH  13  14
HETATM   14  S   UNL     1      -8.218  15.896  66.947  1.00  0.00    -0.272 SA 
BRANCH  14  15
HETATM   15  C   UNL     1      -9.260  17.212  66.537  1.00  0.00    -0.266 A  
HETATM   16  N   UNL     1     -10.263  17.168  65.691  1.00  0.00    -0.602 NA 
HETATM   17  C   UNL     1      -8.234  19.048  67.968  1.00  0.00    -0.300 C  
HETATM   18  N   UNL     1     -10.762  18.449  65.633  1.00  0.00    -0.497 NA 
HETATM   19  N   UNL     1      -9.145  18.488  67.009  1.00  0.00    -0.274 NA 
HETATM   20  N   UNL     1     -10.087  19.261  66.436  1.00  0.00    -0.395 NA 
ENDBRANCH  14  15
ENDBRANCH  13  14
ENDBRANCH   4  13
BRANCH   5  21
HETATM   21  N   UNL     1      -8.775   8.596  68.830  1.00  0.00    -0.134 N  
HETATM   22  O   UNL     1     -10.548   7.486  69.709  1.00  0.00    -0.232 OA 
HETATM   23  H   UNL     1      -8.062   8.595  68.101  1.00  0.00     0.000 HD 
HETATM   24  C   UNL     1      -9.648   7.527  68.864  1.00  0.00    -0.149 C  
BRANCH  24  25
HETATM   25  C   UNL     1      -9.436   6.419  67.769  1.00  0.00    -0.115 C  
HETATM   26  S   UNL     1      -8.884   7.049  66.133  1.00  0.00    -0.125 SA 
HETATM   27  C   UNL     1      -8.199   5.434  66.252  1.00  0.00    -0.110 C  
HETATM   28  C   UNL     1      -7.975   4.473  65.324  1.00  0.00    -0.098 C  
HETATM   29  S   UNL     1      -7.831   5.557  67.963  1.00  0.00    -0.096 SA 
HETATM   30  O   UNL     1      -7.222   2.266  64.752  1.00  0.00    -0.051 OA 
HETATM   31  C   UNL     1      -7.364   3.178  65.745  1.00  0.00    -0.072 C  
HETATM   32  O   UNL     1      -6.992   2.910  66.876  1.00  0.00    -0.048 OA 
BRANCH  28  33
HETATM   33  C   UNL     1      -8.381   4.677  63.905  1.00  0.00    -0.121 C  
HETATM   34  O   UNL     1      -7.647   5.304  63.141  1.00  0.00    -0.059 OA 
HETATM   35  N   UNL     1      -9.575   4.226  63.453  1.00  0.00    -0.262 N  
HETATM   36  H1  UNL     1      -9.853   4.365  62.481  1.00  0.00     0.000 HD 
HETATM   37  H2  UNL     1     -10.205   3.740  64.092  1.00  0.00     0.000 HD 
ENDBRANCH  28  33
ENDBRANCH  24  25
ENDBRANCH   5  21
BRANCH   5  38
HETATM   38  O   UNL     1      -8.270   9.388  71.081  1.00  0.00    -0.314 OA 
HETATM   39  C   UNL     1      -6.993   8.750  71.083  1.00  0.00    -0.082 C  
ENDBRANCH   5  38
TORSDOF 7
ENDMDL
MODEL       77
REMARK 921   NORMALIZED FREE ENERGY PREDICTED BY IDOCK:   -4.69 KCAL/MOL
REMARK 922        TOTAL FREE ENERGY PREDICTED BY IDOCK:   -8.06 KCAL/MOL
REMARK 923 INTER-LIGAND FREE ENERGY PREDICTED BY IDOCK:   -7.14 KCAL/MOL
REMARK 924 INTRA-LIGAND FREE ENERGY PREDICTED BY IDOCK:   -0.92 KCAL/MOL
REMARK 927      BINDING AFFINITY PREDICTED BY RF-SCORE:    0.00 PKD
ROOT
HETATM    1  C   UNL     1     -12.218  13.677  66.662  1.00  0.00    -0.389 C  
HETATM    2  S   UNL     1     -11.236  13.316  68.143  1.00  0.00    -0.290 SA 
HETATM    3  C   UNL     1     -11.407  14.995  68.798  1.00  0.00    -0.291 C  
HETATM    4  C   UNL     1     -11.084  16.097  67.797  1.00  0.00    -0.254 C  
HETATM    5  C   UNL     1     -11.984  12.724  65.401  1.00  0.00    -0.436 C  
HETATM    6  C   UNL     1     -11.182  15.952  66.440  1.00  0.00     0.098 C  
HETATM    7  N   UNL     1     -11.559  14.739  65.919  1.00  0.00    -0.326 N  
HETATM    8  C   UNL     1     -10.838  17.125  65.528  1.00  0.00    -0.055 C  
HETATM    9  O   UNL     1     -10.489  18.220  65.946  1.00  0.00    -0.532 OA 
HETATM   10  O   UNL     1     -10.990  16.964  64.205  1.00  0.00    -0.929 OA 
HETATM   11  O   UNL     1     -11.419  14.590  63.613  1.00  0.00     0.339 OA 
HETATM   12  C   UNL     1     -11.612  14.127  64.716  1.00  0.00    -0.396 C  
ENDROOT
BRANCH   4  13
HETATM   13  C   UNL     1     -10.557  17.343  68.516  1.00  0.00    -0.340 C  
BRANCH  13  14
HETATM   14  S   UNL     1      -8.940  17.021  69.276  1.00  0.00     0.212 SA 
BRANCH  14  15
HETATM   15  C   UNL     1      -7.964  18.147  68.399  1.00  0.00    -0.302 A  
HETATM   16  N   UNL     1      -7.817  19.421  68.677  1.00  0.00    -0.357 NA 
HETATM   17  C   UNL     1      -7.067  16.620  66.573  1.00  0.00    -0.177 C  
HETATM   18  N   UNL     1      -7.010  19.931  67.686  1.00  0.00    -0.239 NA 
HETATM   19  N   UNL     1      -7.253  17.862  67.268  1.00  0.00    -0.182 NA 
HETATM   20  N   UNL     1      -6.659  18.986  66.823  1.00  0.00    -0.189 NA 
ENDBRANCH  14  15
ENDBRANCH  13  14
ENDBRANCH   4  13
BRANCH   5  21
HETATM   21  N   UNL     1     -10.898  11.722  65.598  1.00  0.00    -0.286 N  
HETATM   22  O   UNL     1     -10.043  11.804  63.498  1.00  0.00    -0.365 OA 
HETATM   23  H   UNL     1     -10.810  11.303  66.524  1.00  0.00     0.000 HD 
HETATM   24  C   UNL     1     -10.001  11.313  64.630  1.00  0.00    -0.281 C  
BRANCH  24  25
HETATM   25  C   UNL     1      -8.943  10.236  65.070  1.00  0.00    -0.196 C  
HETATM   26  S   UNL     1      -8.115  10.582  66.674  1.00  0.00    -0.132 SA 
HETATM   27  C   UNL     1      -8.139   8.828  66.544  1.00  0.00    -0.103 C  
HETATM   28  C   UNL     1      -7.261   7.877  66.941  1.00  0.00    -0.089 C  
HETATM   29  S   UNL     1      -9.732   8.759  65.813  1.00  0.00     0.089 SA 
HETATM   30  O   UNL     1      -6.613   5.569  67.079  1.00  0.00    -0.053 OA 
HETATM   31  C   UNL     1      -7.574   6.440  66.684  1.00  0.00    -0.094 C  
HETATM   32  O   UNL     1      -8.601   6.023  66.174  1.00  0.00    -0.131 OA 
BRANCH  28  33
HETATM   33  C   UNL     1      -5.969   8.254  67.580  1.00  0.00    -0.047 C  
HETATM   34  O   UNL     1      -5.132   8.893  66.941  1.00  0.00    -0.034 OA 
HETATM   35  N   UNL     1      -5.676   7.856  68.841  1.00  0.00    -0.030 N  
HETATM   36  H1  UNL     1      -4.791   8.114  69.278  1.00  0.00     0.000 HD 
HETATM   37  H2  UNL     1      -6.349   7.292  69.360  1.00  0.00     0.000 HD 
ENDBRANCH  28  33
ENDBRANCH  24  25
ENDBRANCH   5  21
BRANCH   5  38
HETATM   38  O   UNL     1     -13.192  12.112  64.870  1.00  0.00    -0.438 OA 
HETATM   39  C   UNL     1     -13.136  11.725  63.498  1.00  0.00     0.084 C  
ENDBRANCH   5  38
TORSDOF 7
ENDMDL
MODEL       78
REMARK 921   NORMALIZED FREE ENERGY PREDICTED BY IDOCK:   -4.68 KCAL/MOL
REMARK 922        TOTAL FREE ENERGY PREDICTED BY IDOCK:   -8.05 KCAL/MOL
REMARK 923 INTER-LIGAND FREE ENERGY PREDICTED BY IDOCK:   -7.43 KCAL/MOL
REMARK 924 INTRA-LIGAND FREE ENERGY PREDICTED BY IDOCK:   -0.62 KCAL/MOL
REMARK 927      BINDING AFFINITY PREDICTED BY RF-SCORE:    0.00 PKD
ROOT
HETATM    1  C   UNL     1      -8.000  10.916  68.809  1.00  0.00    -0.139 C  
HETATM    2  S   UNL     1      -9.777  11.250  68.939  1.00  0.00    -0.066 SA 
HETATM    3  C   UNL     1     -10.235   9.533  68.595  1.00  0.00    -0.195 C  
HETATM    4  C   UNL     1      -9.557   8.933  67.369  1.00  0.00    -0.201 C  
HETATM    5  C   UNL     1      -7.061  12.167  68.483  1.00  0.00    -0.099 C  
HETATM    6  C   UNL     1      -8.357   9.363  66.871  1.00  0.00    -0.127 C  
HETATM    7  N   UNL     1      -7.719  10.420  67.471  1.00  0.00    -0.094 N  
HETATM    8  C   UNL     1      -7.766   8.688  65.638  1.00  0.00    -0.091 C  
HETATM    9  O   UNL     1      -8.303   7.750  65.065  1.00  0.00    -0.142 OA 
HETATM   10  O   UNL     1      -6.567   9.103  65.203  1.00  0.00    -0.071 OA 
HETATM   11  O   UNL     1      -5.845  11.184  66.349  1.00  0.00    -0.124 OA 
HETATM   12  C   UNL     1      -6.676  11.242  67.229  1.00  0.00    -0.104 C  
ENDROOT
BRANCH   4  13
HETATM   13  C   UNL     1     -10.442   7.856  66.733  1.00  0.00    -0.247 C  
BRANCH  13  14
HETATM   14  S   UNL     1     -10.833   6.547  67.929  1.00  0.00    -0.302 SA 
BRANCH  14  15
HETATM   15  C   UNL     1     -10.076   5.198  67.157  1.00  0.00    -0.206 A  
HETATM   16  N   UNL     1      -9.978   5.004  65.862  1.00  0.00    -0.179 NA 
HETATM   17  C   UNL     1      -9.350   3.872  69.203  1.00  0.00    -0.170 C  
HETATM   18  N   UNL     1      -9.362   3.782  65.711  1.00  0.00    -0.157 NA 
HETATM   19  N   UNL     1      -9.519   4.130  67.801  1.00  0.00    -0.172 NA 
HETATM   20  N   UNL     1      -9.075   3.243  66.889  1.00  0.00    -0.160 NA 
ENDBRANCH  14  15
ENDBRANCH  13  14
ENDBRANCH   4  13
BRANCH   5  21
HETATM   21  N   UNL     1      -7.811  13.431  68.228  1.00  0.00    -0.135 N  
HETATM   22  O   UNL     1      -6.985  14.615  69.979  1.00  0.00    -0.161 OA 
HETATM   23  H   UNL     1      -8.429  13.452  67.417  1.00  0.00     0.000 HD 
HETATM   24  C   UNL     1      -7.736  14.574  68.999  1.00  0.00    -0.113 C  
BRANCH  24  25
HETATM   25  C   UNL     1      -8.627  15.785  68.537  1.00  0.00    -0.183 C  
HETATM   26  S   UNL     1      -7.833  17.434  68.712  1.00  0.00    -0.213 SA 
HETATM   27  C   UNL     1      -8.928  17.599  67.346  1.00  0.00    -0.231 C  
HETATM   28  C   UNL     1      -9.681  18.636  66.907  1.00  0.00    -0.333 C  
HETATM   29  S   UNL     1      -8.620  15.991  66.717  1.00  0.00    -0.286 SA 
HETATM   30  O   UNL     1     -11.273  19.542  65.355  1.00  0.00    -0.326 OA 
HETATM   31  C   UNL     1     -10.524  18.462  65.687  1.00  0.00    -0.099 C  
HETATM   32  O   UNL     1     -10.566  17.457  64.998  1.00  0.00    -0.617 OA 
BRANCH  28  33
HETATM   33  C   UNL     1      -9.715  19.923  67.657  1.00  0.00    -0.385 C  
HETATM   34  O   UNL     1     -10.222  19.965  68.779  1.00  0.00    -0.451 OA 
HETATM   35  N   UNL     1      -9.243  21.063  67.102  1.00  0.00    -0.613 N  
HETATM   36  H1  UNL     1      -9.266  21.944  67.615  1.00  0.00     0.000 HD 
HETATM   37  H2  UNL     1      -8.859  21.041  66.156  1.00  0.00     0.000 HD 
ENDBRANCH  28  33
ENDBRANCH  24  25
ENDBRANCH   5  21
BRANCH   5  38
HETATM   38  O   UNL     1      -5.969  12.368  69.423  1.00  0.00    -0.083 OA 
HETATM   39  C   UNL     1      -5.823  11.362  70.424  1.00  0.00    -0.153 C  
ENDBRANCH   5  38
TORSDOF 7
ENDMDL
MODEL       79
REMARK 921   NORMALIZED FREE ENERGY PREDICTED BY IDOCK:   -4.61 KCAL/MOL
REMARK 922        TOTAL FREE ENERGY PREDICTED BY IDOCK:   -7.95 KCAL/MOL
REMARK 923 INTER-LIGAND FREE ENERGY PREDICTED BY IDOCK:   -7.36 KCAL/MOL
REMARK 924 INTRA-LIGAND FREE ENERGY PREDICTED BY IDOCK:   -0.59 KCAL/MOL
REMARK 927      BINDING AFFINITY PREDICTED BY RF-SCORE:    0.00 PKD
ROOT
HETATM    1  C   UNL     1     -11.239   5.727  70.706  1.00  0.00    -0.128 C  
HETATM    2  S   UNL     1     -10.172   5.435  69.270  1.00  0.00    -0.242 SA 
HETATM    3  C   UNL     1      -9.332   4.030  70.044  1.00  0.00    -0.172 C  
HETATM    4  C   UNL     1      -8.825   4.299  71.456  1.00  0.00    -0.147 C  
HETATM    5  C   UNL     1     -11.854   7.195  70.851  1.00  0.00    -0.339 C  
HETATM    6  C   UNL     1      -9.360   5.237  72.296  1.00  0.00    -0.142 C  
HETATM    7  N   UNL     1     -10.397   6.021  71.856  1.00  0.00    -0.204 N  
HETATM    8  C   UNL     1      -8.776   5.420  73.692  1.00  0.00    -0.116 C  
HETATM    9  O   UNL     1      -7.848   4.752  74.124  1.00  0.00    -0.098 OA 
HETATM   10  O   UNL     1      -9.355   6.315  74.507  1.00  0.00    -0.165 OA 
HETATM   11  O   UNL     1     -11.006   7.724  73.300  1.00  0.00    -0.382 OA 
HETATM   12  C   UNL     1     -11.073   7.121  72.251  1.00  0.00    -0.254 C  
ENDROOT
BRANCH   4  13
HETATM   13  C   UNL     1      -7.591   3.443  71.759  1.00  0.00    -0.053 C  
BRANCH  13  14
HETATM   14  S   UNL     1      -6.077   4.251  71.165  1.00  0.00    -0.018 SA 
BRANCH  14  15
HETATM   15  C   UNL     1      -6.125   3.796  69.499  1.00  0.00    -0.027 A  
HETATM   16  N   UNL     1      -5.977   2.581  69.025  1.00  0.00    -0.023 NA 
HETATM   17  C   UNL     1      -6.500   6.075  68.432  1.00  0.00    -0.049 C  
HETATM   18  N   UNL     1      -6.025   2.703  67.655  1.00  0.00    -0.023 NA 
HETATM   19  N   UNL     1      -6.279   4.657  68.449  1.00  0.00    -0.031 NA 
HETATM   20  N   UNL     1      -6.212   3.966  67.295  1.00  0.00    -0.035 NA 
ENDBRANCH  14  15
ENDBRANCH  13  14
ENDBRANCH   4  13
BRANCH   5  21
HETATM   21  N   UNL     1     -11.368   8.155  69.818  1.00  0.00    -0.453 N  
HETATM   22  O   UNL     1     -10.709   9.798  71.238  1.00  0.00    -0.304 OA 
HETATM   23  H   UNL     1     -11.434   7.865  68.843  1.00  0.00     0.000 HD 
HETATM   24  C   UNL     1     -10.837   9.403  70.075  1.00  0.00    -0.241 C  
BRANCH  24  25
HETATM   25  C   UNL     1     -10.396  10.244  68.821  1.00  0.00    -0.195 C  
HETATM   26  S   UNL     1     -10.660   9.410  67.204  1.00  0.00    -0.170 SA 
HETATM   27  C   UNL     1     -10.817  11.128  66.861  1.00  0.00    -0.279 C  
HETATM   28  C   UNL     1     -10.477  11.871  65.781  1.00  0.00    -0.295 C  
HETATM   29  S   UNL     1     -11.647  11.501  68.360  1.00  0.00    -0.306 SA 
HETATM   30  O   UNL     1     -10.331  14.002  64.683  1.00  0.00    -0.440 OA 
HETATM   31  C   UNL     1     -10.747  13.339  65.790  1.00  0.00    -0.277 C  
HETATM   32  O   UNL     1     -11.305  13.947  66.689  1.00  0.00    -0.312 OA 
BRANCH  28  33
HETATM   33  C   UNL     1      -9.792  11.249  64.613  1.00  0.00    -0.268 C  
HETATM   34  O   UNL     1     -10.458  10.786  63.686  1.00  0.00    -0.299 OA 
HETATM   35  N   UNL     1      -8.443  11.136  64.579  1.00  0.00    -0.354 N  
HETATM   36  H1  UNL     1      -7.974  10.710  63.780  1.00  0.00     0.000 HD 
HETATM   37  H2  UNL     1      -7.889  11.481  65.364  1.00  0.00     0.000 HD 
ENDBRANCH  28  33
ENDBRANCH  24  25
ENDBRANCH   5  21
BRANCH   5  38
HETATM   38  O   UNL     1     -13.302   7.236  70.986  1.00  0.00    -0.268 OA 
HETATM   39  C   UNL     1     -13.852   8.501  71.352  1.00  0.00    -0.252 C  
ENDBRANCH   5  38
TORSDOF 7
ENDMDL
MODEL       80
REMARK 921   NORMALIZED FREE ENERGY PREDICTED BY IDOCK:   -4.59 KCAL/MOL
REMARK 922        TOTAL FREE ENERGY PREDICTED BY IDOCK:   -7.92 KCAL/MOL
REMARK 923 INTER-LIGAND FREE ENERGY PREDICTED BY IDOCK:   -7.47 KCAL/MOL
REMARK 924 INTRA-LIGAND FREE ENERGY PREDICTED BY IDOCK:   -0.45 KCAL/MOL
REMARK 927      BINDING AFFINITY PREDICTED BY RF-SCORE:    0.00 PKD
ROOT
HETATM    1  C   UNL     1      -9.377  14.236  67.207  1.00  0.00    -0.213 C  
HETATM    2  S   UNL     1     -10.309  14.724  68.684  1.00  0.00    -0.251 SA 
HETATM    3  C   UNL     1      -9.681  16.421  68.652  1.00  0.00    -0.239 C  
HETATM    4  C   UNL     1      -8.167  16.530  68.512  1.00  0.00    -0.212 C  
HETATM    5  C   UNL     1      -9.092  12.674  67.027  1.00  0.00    -0.215 C  
HETATM    6  C   UNL     1      -7.381  15.571  67.935  1.00  0.00    -0.140 C  
HETATM    7  N   UNL     1      -7.959  14.413  67.476  1.00  0.00    -0.178 N  
HETATM    8  C   UNL     1      -5.874  15.785  67.842  1.00  0.00    -0.140 C  
HETATM    9  O   UNL     1      -5.314  16.794  68.245  1.00  0.00    -0.110 OA 
HETATM   10  O   UNL     1      -5.138  14.846  67.229  1.00  0.00    -0.303 OA 
HETATM   11  O   UNL     1      -6.462  12.794  66.774  1.00  0.00     0.017 OA 
HETATM   12  C   UNL     1      -7.575  13.198  67.028  1.00  0.00     0.140 C  
ENDROOT
BRANCH   4  13
HETATM   13  C   UNL     1      -7.653  17.809  69.180  1.00  0.00    -0.053 C  
BRANCH  13  14
HETATM   14  S   UNL     1      -7.357  19.112  67.950  1.00  0.00    -0.256 SA 
BRANCH  14  15
HETATM   15  C   UNL     1      -8.905  19.161  67.183  1.00  0.00    -0.288 A  
HETATM   16  N   UNL     1      -9.160  18.836  65.937  1.00  0.00    -0.408 NA 
HETATM   17  C   UNL     1     -10.320  20.032  69.109  1.00  0.00    -0.030 C  
HETATM   18  N   UNL     1     -10.500  19.089  65.750  1.00  0.00    -0.569 NA 
HETATM   19  N   UNL     1     -10.062  19.594  67.766  1.00  0.00    -0.387 NA 
HETATM   20  N   UNL     1     -11.058  19.549  66.861  1.00  0.00    -0.308 NA 
ENDBRANCH  14  15
ENDBRANCH  13  14
ENDBRANCH   4  13
BRANCH   5  21
HETATM   21  N   UNL     1      -9.555  11.842  68.175  1.00  0.00    -0.190 N  
HETATM   22  O   UNL     1      -7.855  10.339  68.148  1.00  0.00    -0.101 OA 
HETATM   23  H   UNL     1     -10.415  12.127  68.642  1.00  0.00     0.000 HD 
HETATM   24  C   UNL     1      -8.914  10.718  68.657  1.00  0.00    -0.162 C  
BRANCH  24  25
HETATM   25  C   UNL     1      -9.595   9.997  69.878  1.00  0.00    -0.192 C  
HETATM   26  S   UNL     1     -10.531   8.474  69.448  1.00  0.00    -0.199 SA 
HETATM   27  C   UNL     1      -9.959   8.208  71.089  1.00  0.00    -0.180 C  
HETATM   28  C   UNL     1     -10.508   7.566  72.148  1.00  0.00    -0.255 C  
HETATM   29  S   UNL     1      -8.405   8.980  70.829  1.00  0.00    -0.203 SA 
HETATM   30  O   UNL     1     -10.409   6.883  74.448  1.00  0.00    -0.296 OA 
HETATM   31  C   UNL     1      -9.757   7.508  73.437  1.00  0.00    -0.291 C  
HETATM   32  O   UNL     1      -8.639   7.959  73.622  1.00  0.00    -0.205 OA 
BRANCH  28  33
HETATM   33  C   UNL     1     -11.869   6.967  72.053  1.00  0.00    -0.298 C  
HETATM   34  O   UNL     1     -12.862   7.694  72.091  1.00  0.00    -0.241 OA 
HETATM   35  N   UNL     1     -12.034   5.626  71.978  1.00  0.00     0.031 N  
HETATM   36  H1  UNL     1     -12.965   5.216  71.913  1.00  0.00     0.000 HD 
HETATM   37  H2  UNL     1     -11.215   5.017  71.987  1.00  0.00     0.000 HD 
ENDBRANCH  28  33
ENDBRANCH  24  25
ENDBRANCH   5  21
BRANCH   5  38
HETATM   38  O   UNL     1      -9.522  12.121  65.752  1.00  0.00    -0.227 OA 
HETATM   39  C   UNL     1     -10.506  12.880  65.051  1.00  0.00    -0.318 C  
ENDBRANCH   5  38
TORSDOF 7
ENDMDL
MODEL       81
REMARK 921   NORMALIZED FREE ENERGY PREDICTED BY IDOCK:   -4.59 KCAL/MOL
REMARK 922        TOTAL FREE ENERGY PREDICTED BY IDOCK:   -7.92 KCAL/MOL
REMARK 923 INTER-LIGAND FREE ENERGY PREDICTED BY IDOCK:   -6.45 KCAL/MOL
REMARK 924 INTRA-LIGAND FREE ENERGY PREDICTED BY IDOCK:   -1.47 KCAL/MOL
REMARK 927      BINDING AFFINITY PREDICTED BY RF-SCORE:    0.00 PKD
ROOT
HETATM    1  C   UNL     1      -7.788   9.175  65.906  1.00  0.00    -0.105 C  
HETATM    2  S   UNL     1      -9.581   8.916  65.978  1.00  0.00    -0.219 SA 
HETATM    3  C   UNL     1      -9.954  10.549  65.291  1.00  0.00    -0.299 C  
HETATM    4  C   UNL     1      -9.220  11.700  65.969  1.00  0.00    -0.218 C  
HETATM    5  C   UNL     1      -6.897   8.280  66.885  1.00  0.00    -0.069 C  
HETATM    6  C   UNL     1      -8.029  11.565  66.630  1.00  0.00    -0.127 C  
HETATM    7  N   UNL     1      -7.453  10.324  66.732  1.00  0.00    -0.104 N  
HETATM    8  C   UNL     1      -7.379  12.787  67.270  1.00  0.00    -0.090 C  
HETATM    9  O   UNL     1      -7.860  13.910  67.212  1.00  0.00    -0.175 OA 
HETATM   10  O   UNL     1      -6.190  12.630  67.869  1.00  0.00    -0.080 OA 
HETATM   11  O   UNL     1      -5.588  10.231  68.100  1.00  0.00    -0.038 OA 
HETATM   12  C   UNL     1      -6.442   9.729  67.402  1.00  0.00    -0.069 C  
ENDROOT
BRANCH   4  13
HETATM   13  C   UNL     1     -10.041  12.990  65.883  1.00  0.00    -0.288 C  
BRANCH  13  14
HETATM   14  S   UNL     1     -11.814  12.647  66.073  1.00  0.00    -0.422 SA 
BRANCH  14  15
HETATM   15  C   UNL     1     -11.875  12.305  67.766  1.00  0.00    -0.273 A  
HETATM   16  N   UNL     1     -11.989  11.116  68.311  1.00  0.00    -0.619 NA 
HETATM   17  C   UNL     1     -11.728  14.668  68.697  1.00  0.00    -0.329 C  
HETATM   18  N   UNL     1     -12.061  11.329  69.668  1.00  0.00    -0.326 NA 
HETATM   19  N   UNL     1     -11.861  13.240  68.762  1.00  0.00    -0.326 NA 
HETATM   20  N   UNL     1     -11.980  12.622  69.953  1.00  0.00    -0.323 NA 
ENDBRANCH  14  15
ENDBRANCH  13  14
ENDBRANCH   4  13
BRANCH   5  21
HETATM   21  N   UNL     1      -7.696   7.419  67.805  1.00  0.00    -0.110 N  
HETATM   22  O   UNL     1      -6.037   6.957  69.283  1.00  0.00    -0.024 OA 
HETATM   23  H   UNL     1      -8.679   7.276  67.576  1.00  0.00     0.000 HD 
HETATM   24  C   UNL     1      -7.214   6.799  68.941  1.00  0.00    -0.091 C  
BRANCH  24  25
HETATM   25  C   UNL     1      -8.244   5.932  69.753  1.00  0.00    -0.113 C  
HETATM   26  S   UNL     1      -7.488   4.753  70.943  1.00  0.00    -0.066 SA 
HETATM   27  C   UNL     1      -9.041   5.179  71.650  1.00  0.00    -0.141 C  
HETATM   28  C   UNL     1      -9.932   4.464  72.379  1.00  0.00    -0.232 C  
HETATM   29  S   UNL     1      -8.970   6.860  71.156  1.00  0.00    -0.143 SA 
HETATM   30  O   UNL     1     -12.034   4.313  73.530  1.00  0.00    -0.072 OA 
HETATM   31  C   UNL     1     -11.187   5.122  72.846  1.00  0.00    -0.294 C  
HETATM   32  O   UNL     1     -11.477   6.294  72.668  1.00  0.00    -0.267 OA 
BRANCH  28  33
HETATM   33  C   UNL     1      -9.695   3.023  72.670  1.00  0.00    -0.132 C  
HETATM   34  O   UNL     1      -8.858   2.696  73.512  1.00  0.00    -0.074 OA 
HETATM   35  N   UNL     1     -10.351   2.059  71.982  1.00  0.00    -0.118 N  
HETATM   36  H1  UNL     1     -10.190   1.072  72.181  1.00  0.00     0.000 HD 
HETATM   37  H2  UNL     1     -11.017   2.323  71.255  1.00  0.00     0.000 HD 
ENDBRANCH  28  33
ENDBRANCH  24  25
ENDBRANCH   5  21
BRANCH   5  38
HETATM   38  O   UNL     1      -5.839   7.529  66.228  1.00  0.00    -0.035 OA 
HETATM   39  C   UNL     1      -6.270   6.449  65.402  1.00  0.00    -0.034 C  
ENDBRANCH   5  38
TORSDOF 7
ENDMDL
MODEL       82
REMARK 921   NORMALIZED FREE ENERGY PREDICTED BY IDOCK:   -4.57 KCAL/MOL
REMARK 922        TOTAL FREE ENERGY PREDICTED BY IDOCK:   -7.89 KCAL/MOL
REMARK 923 INTER-LIGAND FREE ENERGY PREDICTED BY IDOCK:   -7.15 KCAL/MOL
REMARK 924 INTRA-LIGAND FREE ENERGY PREDICTED BY IDOCK:   -0.74 KCAL/MOL
REMARK 927      BINDING AFFINITY PREDICTED BY RF-SCORE:    0.00 PKD
ROOT
HETATM    1  C   UNL     1     -10.411  10.296  66.400  1.00  0.00    -0.163 C  
HETATM    2  S   UNL     1      -9.774  11.317  65.044  1.00  0.00    -0.258 SA 
HETATM    3  C   UNL     1      -9.056   9.902  64.173  1.00  0.00    -0.252 C  
HETATM    4  C   UNL     1      -8.198   8.994  65.046  1.00  0.00    -0.154 C  
HETATM    5  C   UNL     1     -10.694  11.043  67.784  1.00  0.00    -0.227 C  
HETATM    6  C   UNL     1      -8.344   8.874  66.401  1.00  0.00    -0.116 C  
HETATM    7  N   UNL     1      -9.290   9.631  67.045  1.00  0.00    -0.144 N  
HETATM    8  C   UNL     1      -7.433   7.930  67.177  1.00  0.00    -0.092 C  
HETATM    9  O   UNL     1      -6.571   7.243  66.648  1.00  0.00    -0.052 OA 
HETATM   10  O   UNL     1      -7.633   7.801  68.497  1.00  0.00    -0.101 OA 
HETATM   11  O   UNL     1      -9.225   9.503  69.355  1.00  0.00    -0.156 OA 
HETATM   12  C   UNL     1      -9.641   9.951  68.309  1.00  0.00    -0.140 C  
ENDROOT
BRANCH   4  13
HETATM   13  C   UNL     1      -7.108   8.313  64.211  1.00  0.00    -0.082 C  
BRANCH  13  14
HETATM   14  S   UNL     1      -7.835   7.349  62.854  1.00  0.00    -0.112 SA 
BRANCH  14  15
HETATM   15  C   UNL     1      -7.227   5.778  63.241  1.00  0.00    -0.053 A  
HETATM   16  N   UNL     1      -6.018   5.501  63.669  1.00  0.00    -0.021 NA 
HETATM   17  C   UNL     1      -9.275   4.370  62.698  1.00  0.00    -0.126 C  
HETATM   18  N   UNL     1      -5.963   4.131  63.782  1.00  0.00    -0.017 NA 
HETATM   19  N   UNL     1      -7.919   4.608  63.104  1.00  0.00    -0.077 NA 
HETATM   20  N   UNL     1      -7.120   3.578  63.443  1.00  0.00    -0.048 NA 
ENDBRANCH  14  15
ENDBRANCH  13  14
ENDBRANCH   4  13
BRANCH   5  21
HETATM   21  N   UNL     1     -10.287  12.478  67.786  1.00  0.00    -0.217 N  
HETATM   22  O   UNL     1     -12.132  13.303  66.755  1.00  0.00    -0.384 OA 
HETATM   23  H   UNL     1      -9.389  12.709  68.211  1.00  0.00     0.000 HD 
HETATM   24  C   UNL     1     -11.026  13.519  67.260  1.00  0.00    -0.280 C  
BRANCH  24  25
HETATM   25  C   UNL     1     -10.389  14.952  67.372  1.00  0.00    -0.243 C  
HETATM   26  S   UNL     1      -8.586  15.022  67.021  1.00  0.00    -0.247 SA 
HETATM   27  C   UNL     1      -9.205  16.595  66.536  1.00  0.00    -0.270 C  
HETATM   28  C   UNL     1      -8.668  17.837  66.590  1.00  0.00    -0.281 C  
HETATM   29  S   UNL     1     -10.704  15.965  65.878  1.00  0.00    -0.259 SA 
HETATM   30  O   UNL     1      -8.853  20.204  66.225  1.00  0.00    -0.309 OA 
HETATM   31  C   UNL     1      -9.459  18.999  66.087  1.00  0.00    -0.234 C  
HETATM   32  O   UNL     1     -10.562  18.928  65.570  1.00  0.00    -0.572 OA 
BRANCH  28  33
HETATM   33  C   UNL     1      -7.324  18.060  67.195  1.00  0.00    -0.195 C  
HETATM   34  O   UNL     1      -6.330  17.537  66.690  1.00  0.00    -0.165 OA 
HETATM   35  N   UNL     1      -7.184  18.789  68.327  1.00  0.00    -0.252 N  
HETATM   36  H1  UNL     1      -6.265  18.941  68.741  1.00  0.00     0.000 HD 
HETATM   37  H2  UNL     1      -8.010  19.191  68.772  1.00  0.00     0.000 HD 
ENDBRANCH  28  33
ENDBRANCH  24  25
ENDBRANCH   5  21
BRANCH   5  38
HETATM   38  O   UNL     1     -12.039  10.863  68.308  1.00  0.00    -0.562 OA 
HETATM   39  C   UNL     1     -12.199  11.127  69.701  1.00  0.00    -0.290 C  
ENDBRANCH   5  38
TORSDOF 7
ENDMDL
MODEL       83
REMARK 921   NORMALIZED FREE ENERGY PREDICTED BY IDOCK:   -4.56 KCAL/MOL
REMARK 922        TOTAL FREE ENERGY PREDICTED BY IDOCK:   -7.87 KCAL/MOL
REMARK 923 INTER-LIGAND FREE ENERGY PREDICTED BY IDOCK:   -6.63 KCAL/MOL
REMARK 924 INTRA-LIGAND FREE ENERGY PREDICTED BY IDOCK:   -1.24 KCAL/MOL
REMARK 927      BINDING AFFINITY PREDICTED BY RF-SCORE:    0.00 PKD
ROOT
HETATM    1  C   UNL     1     -10.484   7.588  69.687  1.00  0.00    -0.234 C  
HETATM    2  S   UNL     1     -10.014   7.821  67.952  1.00  0.00    -0.181 SA 
HETATM    3  C   UNL     1      -8.743   6.534  68.011  1.00  0.00    -0.116 C  
HETATM    4  C   UNL     1      -7.782   6.650  69.188  1.00  0.00    -0.106 C  
HETATM    5  C   UNL     1     -11.210   8.820  70.402  1.00  0.00    -0.223 C  
HETATM    6  C   UNL     1      -8.091   7.266  70.370  1.00  0.00    -0.116 C  
HETATM    7  N   UNL     1      -9.323   7.854  70.521  1.00  0.00    -0.162 N  
HETATM    8  C   UNL     1      -7.054   7.322  71.486  1.00  0.00    -0.067 C  
HETATM    9  O   UNL     1      -5.942   6.821  71.394  1.00  0.00    -0.035 OA 
HETATM   10  O   UNL     1      -7.405   7.892  72.648  1.00  0.00    -0.083 OA 
HETATM   11  O   UNL     1      -9.582   9.074  72.470  1.00  0.00    -0.182 OA 
HETATM   12  C   UNL     1      -9.953   8.675  71.388  1.00  0.00    -0.254 C  
ENDROOT
BRANCH   4  13
HETATM   13  C   UNL     1      -6.413   6.065  68.829  1.00  0.00    -0.049 C  
BRANCH  13  14
HETATM   14  S   UNL     1      -6.555   4.317  68.360  1.00  0.00    -0.047 SA 
BRANCH  14  15
HETATM   15  C   UNL     1      -7.245   3.671  69.807  1.00  0.00    -0.042 A  
HETATM   16  N   UNL     1      -8.527   3.524  70.053  1.00  0.00    -0.055 NA 
HETATM   17  C   UNL     1      -5.126   3.208  71.136  1.00  0.00     0.000 C  
HETATM   18  N   UNL     1      -8.609   3.039  71.338  1.00  0.00    -0.064 NA 
HETATM   19  N   UNL     1      -6.542   3.271  70.908  1.00  0.00    -0.030 NA 
HETATM   20  N   UNL     1      -7.403   2.878  71.866  1.00  0.00    -0.042 NA 
ENDBRANCH  14  15
ENDBRANCH  13  14
ENDBRANCH   4  13
BRANCH   5  21
HETATM   21  N   UNL     1     -11.304  10.039  69.548  1.00  0.00    -0.377 N  
HETATM   22  O   UNL     1     -12.291  11.391  71.080  1.00  0.00    -0.353 OA 
HETATM   23  H   UNL     1     -10.934   9.976  68.600  1.00  0.00     0.000 HD 
HETATM   24  C   UNL     1     -11.850  11.247  69.936  1.00  0.00    -0.360 C  
BRANCH  24  25
HETATM   25  C   UNL     1     -11.845  12.392  68.858  1.00  0.00    -0.301 C  
HETATM   26  S   UNL     1     -10.184  13.084  68.480  1.00  0.00    -0.174 SA 
HETATM   27  C   UNL     1     -11.102  13.265  66.991  1.00  0.00    -0.282 C  
HETATM   28  C   UNL     1     -11.095  14.221  66.032  1.00  0.00    -0.319 C  
HETATM   29  S   UNL     1     -11.943  11.734  67.152  1.00  0.00     0.360 SA 
HETATM   30  O   UNL     1     -11.960  15.116  63.978  1.00  0.00    -0.460 OA 
HETATM   31  C   UNL     1     -12.010  14.087  64.860  1.00  0.00    -0.404 C  
HETATM   32  O   UNL     1     -12.756  13.144  64.653  1.00  0.00    -0.653 OA 
BRANCH  28  33
HETATM   33  C   UNL     1     -10.226  15.424  66.162  1.00  0.00    -0.308 C  
HETATM   34  O   UNL     1     -10.612  16.390  66.823  1.00  0.00    -0.299 OA 
HETATM   35  N   UNL     1      -9.036  15.494  65.521  1.00  0.00    -0.194 N  
HETATM   36  H1  UNL     1      -8.442  16.318  65.610  1.00  0.00     0.000 HD 
HETATM   37  H2  UNL     1      -8.731  14.713  64.939  1.00  0.00     0.000 HD 
ENDBRANCH  28  33
ENDBRANCH  24  25
ENDBRANCH   5  21
BRANCH   5  38
HETATM   38  O   UNL     1     -12.486   8.497  71.022  1.00  0.00    -0.225 OA 
HETATM   39  C   UNL     1     -12.432   7.544  72.083  1.00  0.00    -0.194 C  
ENDBRANCH   5  38
TORSDOF 7
ENDMDL
MODEL       84
REMARK 921   NORMALIZED FREE ENERGY PREDICTED BY IDOCK:   -4.52 KCAL/MOL
REMARK 922        TOTAL FREE ENERGY PREDICTED BY IDOCK:   -7.82 KCAL/MOL
REMARK 923 INTER-LIGAND FREE ENERGY PREDICTED BY IDOCK:   -7.30 KCAL/MOL
REMARK 924 INTRA-LIGAND FREE ENERGY PREDICTED BY IDOCK:   -0.51 KCAL/MOL
REMARK 927      BINDING AFFINITY PREDICTED BY RF-SCORE:    0.00 PKD
ROOT
HETATM    1  C   UNL     1     -10.827   8.404  69.497  1.00  0.00    -0.117 C  
HETATM    2  S   UNL     1      -9.928   8.837  67.983  1.00  0.00    -0.191 SA 
HETATM    3  C   UNL     1      -9.223   7.181  67.798  1.00  0.00    -0.125 C  
HETATM    4  C   UNL     1      -8.571   6.629  69.061  1.00  0.00    -0.130 C  
HETATM    5  C   UNL     1     -11.228   9.614  70.460  1.00  0.00    -0.297 C  
HETATM    6  C   UNL     1      -8.907   7.018  70.329  1.00  0.00    -0.148 C  
HETATM    7  N   UNL     1      -9.864   7.988  70.504  1.00  0.00    -0.182 N  
HETATM    8  C   UNL     1      -8.193   6.397  71.524  1.00  0.00    -0.117 C  
HETATM    9  O   UNL     1      -7.329   5.538  71.417  1.00  0.00    -0.077 OA 
HETATM   10  O   UNL     1      -8.579   6.766  72.754  1.00  0.00    -0.121 OA 
HETATM   11  O   UNL     1     -10.121   8.712  72.687  1.00  0.00    -0.251 OA 
HETATM   12  C   UNL     1     -10.353   8.759  71.498  1.00  0.00    -0.303 C  
ENDROOT
BRANCH   4  13
HETATM   13  C   UNL     1      -7.441   5.658  68.706  1.00  0.00    -0.084 C  
BRANCH  13  14
HETATM   14  S   UNL     1      -8.105   4.046  68.197  1.00  0.00    -0.084 SA 
BRANCH  14  15
HETATM   15  C   UNL     1      -7.707   4.073  66.515  1.00  0.00    -0.089 A  
HETATM   16  N   UNL     1      -6.497   4.020  66.007  1.00  0.00    -0.036 NA 
HETATM   17  C   UNL     1     -10.038   4.272  65.516  1.00  0.00    -0.223 C  
HETATM   18  N   UNL     1      -6.657   4.134  64.645  1.00  0.00    -0.042 NA 
HETATM   19  N   UNL     1      -8.604   4.201  65.493  1.00  0.00    -0.116 NA 
HETATM   20  N   UNL     1      -7.940   4.242  64.322  1.00  0.00    -0.088 NA 
ENDBRANCH  14  15
ENDBRANCH  13  14
ENDBRANCH   4  13
BRANCH   5  21
HETATM   21  N   UNL     1     -10.705  10.937  70.013  1.00  0.00    -0.463 N  
HETATM   22  O   UNL     1     -12.084  11.207  68.231  1.00  0.00    -0.620 OA 
HETATM   23  H   UNL     1      -9.951  11.351  70.561  1.00  0.00     0.000 HD 
HETATM   24  C   UNL     1     -11.156  11.647  68.918  1.00  0.00    -0.232 C  
BRANCH  24  25
HETATM   25  C   UNL     1     -10.445  13.021  68.636  1.00  0.00    -0.219 C  
HETATM   26  S   UNL     1      -8.649  12.896  68.267  1.00  0.00    -0.138 SA 
HETATM   27  C   UNL     1      -9.198  14.313  67.381  1.00  0.00    -0.200 C  
HETATM   28  C   UNL     1      -8.598  15.493  67.097  1.00  0.00    -0.240 C  
HETATM   29  S   UNL     1     -10.741  13.612  66.928  1.00  0.00    -0.276 SA 
HETATM   30  O   UNL     1      -8.672  17.682  66.111  1.00  0.00    -0.445 OA 
HETATM   31  C   UNL     1      -9.340  16.518  66.305  1.00  0.00    -0.302 C  
HETATM   32  O   UNL     1     -10.456  16.372  65.835  1.00  0.00    -0.338 OA 
BRANCH  28  33
HETATM   33  C   UNL     1      -7.232  15.796  67.610  1.00  0.00    -0.166 C  
HETATM   34  O   UNL     1      -6.253  15.239  67.112  1.00  0.00    -0.293 OA 
HETATM   35  N   UNL     1      -7.054  16.638  68.655  1.00  0.00    -0.173 N  
HETATM   36  H1  UNL     1      -6.119  16.846  69.006  1.00  0.00     0.000 HD 
HETATM   37  H2  UNL     1      -7.866  17.071  69.097  1.00  0.00     0.000 HD 
ENDBRANCH  28  33
ENDBRANCH  24  25
ENDBRANCH   5  21
BRANCH   5  38
HETATM   38  O   UNL     1     -12.642   9.679  70.797  1.00  0.00    -0.247 OA 
HETATM   39  C   UNL     1     -13.216   8.470  71.291  1.00  0.00    -0.132 C  
ENDBRANCH   5  38
TORSDOF 7
ENDMDL
MODEL       85
REMARK 921   NORMALIZED FREE ENERGY PREDICTED BY IDOCK:   -4.49 KCAL/MOL
REMARK 922        TOTAL FREE ENERGY PREDICTED BY IDOCK:   -7.79 KCAL/MOL
REMARK 923 INTER-LIGAND FREE ENERGY PREDICTED BY IDOCK:   -7.39 KCAL/MOL
REMARK 924 INTRA-LIGAND FREE ENERGY PREDICTED BY IDOCK:   -0.39 KCAL/MOL
REMARK 927      BINDING AFFINITY PREDICTED BY RF-SCORE:    0.00 PKD
ROOT
HETATM    1  C   UNL     1     -10.439   5.983  69.138  1.00  0.00    -0.257 C  
HETATM    2  S   UNL     1     -10.738   5.916  67.351  1.00  0.00    -0.256 SA 
HETATM    3  C   UNL     1      -9.606   4.525  67.105  1.00  0.00    -0.186 C  
HETATM    4  C   UNL     1      -8.234   4.708  67.744  1.00  0.00    -0.099 C  
HETATM    5  C   UNL     1     -10.752   7.373  69.862  1.00  0.00    -0.243 C  
HETATM    6  C   UNL     1      -7.994   5.516  68.822  1.00  0.00    -0.095 C  
HETATM    7  N   UNL     1      -9.026   6.244  69.361  1.00  0.00    -0.126 N  
HETATM    8  C   UNL     1      -6.581   5.623  69.385  1.00  0.00    -0.054 C  
HETATM    9  O   UNL     1      -5.630   5.001  68.933  1.00  0.00    -0.010 OA 
HETATM   10  O   UNL     1      -6.389   6.386  70.471  1.00  0.00    -0.037 OA 
HETATM   11  O   UNL     1      -8.395   7.750  71.001  1.00  0.00    -0.110 OA 
HETATM   12  C   UNL     1      -9.202   7.241  70.254  1.00  0.00    -0.155 C  
ENDROOT
BRANCH   4  13
HETATM   13  C   UNL     1      -7.166   3.939  66.962  1.00  0.00    -0.064 C  
BRANCH  13  14
HETATM   14  S   UNL     1      -6.623   4.878  65.506  1.00  0.00    -0.041 SA 
BRANCH  14  15
HETATM   15  C   UNL     1      -7.810   4.369  64.358  1.00  0.00    -0.086 A  
HETATM   16  N   UNL     1      -8.755   5.118  63.839  1.00  0.00    -0.094 NA 
HETATM   17  C   UNL     1      -7.158   1.922  64.108  1.00  0.00    -0.047 C  
HETATM   18  N   UNL     1      -9.496   4.285  63.033  1.00  0.00    -0.141 NA 
HETATM   19  N   UNL     1      -7.948   3.098  63.874  1.00  0.00    -0.081 NA 
HETATM   20  N   UNL     1      -9.009   3.051  63.046  1.00  0.00    -0.092 NA 
ENDBRANCH  14  15
ENDBRANCH  13  14
ENDBRANCH   4  13
BRANCH   5  21
HETATM   21  N   UNL     1     -11.156   8.461  68.925  1.00  0.00    -0.405 N  
HETATM   22  O   UNL     1      -9.603   9.987  69.566  1.00  0.00    -0.207 OA 
HETATM   23  H   UNL     1     -11.933   8.270  68.293  1.00  0.00     0.000 HD 
HETATM   24  C   UNL     1     -10.564   9.707  68.843  1.00  0.00    -0.217 C  
BRANCH  24  25
HETATM   25  C   UNL     1     -11.167  10.696  67.780  1.00  0.00    -0.313 C  
HETATM   26  S   UNL     1     -10.404  12.368  67.766  1.00  0.00    -0.221 SA 
HETATM   27  C   UNL     1     -10.927  12.094  66.110  1.00  0.00    -0.298 C  
HETATM   28  C   UNL     1     -11.418  12.930  65.164  1.00  0.00    -0.348 C  
HETATM   29  S   UNL     1     -10.498  10.393  66.101  1.00  0.00    -0.101 SA 
HETATM   30  O   UNL     1     -12.301  13.290  62.960  1.00  0.00    -0.589 OA 
HETATM   31  C   UNL     1     -11.777  12.383  63.821  1.00  0.00    -0.483 C  
HETATM   32  O   UNL     1     -11.622  11.226  63.468  1.00  0.00    -0.218 OA 
BRANCH  28  33
HETATM   33  C   UNL     1     -11.652  14.369  65.467  1.00  0.00    -0.347 C  
HETATM   34  O   UNL     1     -12.425  14.688  66.371  1.00  0.00    -0.206 OA 
HETATM   35  N   UNL     1     -11.066  15.339  64.726  1.00  0.00    -0.569 N  
HETATM   36  H1  UNL     1     -11.226  16.325  64.934  1.00  0.00     0.000 HD 
HETATM   37  H2  UNL     1     -10.456  15.080  63.950  1.00  0.00     0.000 HD 
ENDBRANCH  28  33
ENDBRANCH  24  25
ENDBRANCH   5  21
BRANCH   5  38
HETATM   38  O   UNL     1     -11.657   7.276  70.997  1.00  0.00    -0.279 OA 
HETATM   39  C   UNL     1     -11.800   8.464  71.776  1.00  0.00    -0.316 C  
ENDBRANCH   5  38
TORSDOF 7
ENDMDL
MODEL       86
REMARK 921   NORMALIZED FREE ENERGY PREDICTED BY IDOCK:   -4.49 KCAL/MOL
REMARK 922        TOTAL FREE ENERGY PREDICTED BY IDOCK:   -7.78 KCAL/MOL
REMARK 923 INTER-LIGAND FREE ENERGY PREDICTED BY IDOCK:   -6.94 KCAL/MOL
REMARK 924 INTRA-LIGAND FREE ENERGY PREDICTED BY IDOCK:   -0.85 KCAL/MOL
REMARK 927      BINDING AFFINITY PREDICTED BY RF-SCORE:    0.00 PKD
ROOT
HETATM    1  C   UNL     1      -9.399  12.515  66.620  1.00  0.00    -0.236 C  
HETATM    2  S   UNL     1     -10.783  12.441  67.788  1.00  0.00    -0.229 SA 
HETATM    3  C   UNL     1     -11.080  14.225  67.716  1.00  0.00    -0.280 C  
HETATM    4  C   UNL     1      -9.832  15.079  67.910  1.00  0.00    -0.217 C  
HETATM    5  C   UNL     1      -8.352  11.309  66.677  1.00  0.00    -0.163 C  
HETATM    6  C   UNL     1      -8.562  14.654  67.631  1.00  0.00    -0.176 C  
HETATM    7  N   UNL     1      -8.366  13.372  67.180  1.00  0.00    -0.172 N  
HETATM    8  C   UNL     1      -7.384  15.594  67.858  1.00  0.00    -0.137 C  
HETATM    9  O   UNL     1      -7.509  16.740  68.266  1.00  0.00    -0.172 OA 
HETATM   10  O   UNL     1      -6.157  15.162  67.530  1.00  0.00    -0.280 OA 
HETATM   11  O   UNL     1      -6.148  12.733  67.012  1.00  0.00    -0.282 OA 
HETATM   12  C   UNL     1      -7.340  12.521  66.964  1.00  0.00     0.020 C  
ENDROOT
BRANCH   4  13
HETATM   13  C   UNL     1     -10.194  16.430  68.535  1.00  0.00    -0.257 C  
BRANCH  13  14
HETATM   14  S   UNL     1     -11.061  17.489  67.342  1.00  0.00     0.284 SA 
BRANCH  14  15
HETATM   15  C   UNL     1      -9.914  18.773  67.187  1.00  0.00    -0.336 A  
HETATM   16  N   UNL     1      -9.127  18.986  66.158  1.00  0.00    -0.463 NA 
HETATM   17  C   UNL     1     -10.244  19.928  69.430  1.00  0.00    -0.032 C  
HETATM   18  N   UNL     1      -8.348  20.068  66.499  1.00  0.00    -0.321 NA 
HETATM   19  N   UNL     1      -9.645  19.711  68.143  1.00  0.00    -0.360 NA 
HETATM   20  N   UNL     1      -8.660  20.519  67.707  1.00  0.00    -0.159 NA 
ENDBRANCH  14  15
ENDBRANCH  13  14
ENDBRANCH   4  13
BRANCH   5  21
HETATM   21  N   UNL     1      -8.618  10.334  67.775  1.00  0.00    -0.118 N  
HETATM   22  O   UNL     1      -9.914   8.903  66.581  1.00  0.00    -0.230 OA 
HETATM   23  H   UNL     1      -8.192  10.522  68.682  1.00  0.00     0.000 HD 
HETATM   24  C   UNL     1      -9.394   9.197  67.662  1.00  0.00    -0.135 C  
BRANCH  24  25
HETATM   25  C   UNL     1      -9.537   8.320  68.960  1.00  0.00    -0.156 C  
HETATM   26  S   UNL     1      -7.970   8.044  69.879  1.00  0.00    -0.113 SA 
HETATM   27  C   UNL     1      -9.228   8.008  71.107  1.00  0.00    -0.149 C  
HETATM   28  C   UNL     1      -9.362   7.289  72.247  1.00  0.00    -0.162 C  
HETATM   29  S   UNL     1     -10.181   9.287  70.377  1.00  0.00    -0.253 SA 
HETATM   30  O   UNL     1     -10.635   6.693  74.194  1.00  0.00    -0.310 OA 
HETATM   31  C   UNL     1     -10.572   7.489  73.099  1.00  0.00    -0.388 C  
HETATM   32  O   UNL     1     -11.459   8.298  72.883  1.00  0.00    -0.347 OA 
BRANCH  28  33
HETATM   33  C   UNL     1      -8.346   6.269  72.628  1.00  0.00    -0.120 C  
HETATM   34  O   UNL     1      -7.237   6.627  73.025  1.00  0.00    -0.080 OA 
HETATM   35  N   UNL     1      -8.605   4.947  72.493  1.00  0.00    -0.119 N  
HETATM   36  H1  UNL     1      -7.909   4.248  72.754  1.00  0.00     0.000 HD 
HETATM   37  H2  UNL     1      -9.508   4.646  72.126  1.00  0.00     0.000 HD 
ENDBRANCH  28  33
ENDBRANCH  24  25
ENDBRANCH   5  21
BRANCH   5  38
HETATM   38  O   UNL     1      -8.124  10.640  65.406  1.00  0.00    -0.156 OA 
HETATM   39  C   UNL     1      -6.785  10.212  65.165  1.00  0.00    -0.131 C  
ENDBRANCH   5  38
TORSDOF 7
ENDMDL
MODEL       87
REMARK 921   NORMALIZED FREE ENERGY PREDICTED BY IDOCK:   -4.45 KCAL/MOL
REMARK 922        TOTAL FREE ENERGY PREDICTED BY IDOCK:   -7.72 KCAL/MOL
REMARK 923 INTER-LIGAND FREE ENERGY PREDICTED BY IDOCK:   -6.13 KCAL/MOL
REMARK 924 INTRA-LIGAND FREE ENERGY PREDICTED BY IDOCK:   -1.59 KCAL/MOL
REMARK 927      BINDING AFFINITY PREDICTED BY RF-SCORE:    0.00 PKD
ROOT
HETATM    1  C   UNL     1      -6.890   7.107  67.452  1.00  0.00    -0.070 C  
HETATM    2  S   UNL     1      -6.789   8.043  69.002  1.00  0.00    -0.058 SA 
HETATM    3  C   UNL     1      -6.674   6.552  70.021  1.00  0.00    -0.049 C  
HETATM    4  C   UNL     1      -7.733   5.498  69.716  1.00  0.00    -0.078 C  
HETATM    5  C   UNL     1      -7.551   7.858  66.206  1.00  0.00    -0.083 C  
HETATM    6  C   UNL     1      -8.363   5.372  68.509  1.00  0.00    -0.097 C  
HETATM    7  N   UNL     1      -8.069   6.257  67.501  1.00  0.00    -0.112 N  
HETATM    8  C   UNL     1      -9.405   4.278  68.311  1.00  0.00    -0.152 C  
HETATM    9  O   UNL     1      -9.706   3.473  69.181  1.00  0.00    -0.139 OA 
HETATM   10  O   UNL     1      -9.970   4.152  67.101  1.00  0.00    -0.184 OA 
HETATM   11  O   UNL     1      -9.409   6.068  65.624  1.00  0.00    -0.043 OA 
HETATM   12  C   UNL     1      -8.544   6.601  66.285  1.00  0.00    -0.138 C  
ENDROOT
BRANCH   4  13
HETATM   13  C   UNL     1      -8.047   4.670  70.967  1.00  0.00    -0.086 C  
BRANCH  13  14
HETATM   14  S   UNL     1      -8.415   5.746  72.383  1.00  0.00    -0.117 SA 
BRANCH  14  15
HETATM   15  C   UNL     1      -9.999   6.286  71.949  1.00  0.00    -0.172 A  
HETATM   16  N   UNL     1     -10.281   7.298  71.162  1.00  0.00    -0.191 NA 
HETATM   17  C   UNL     1     -11.405   4.627  73.269  1.00  0.00    -0.304 C  
HETATM   18  N   UNL     1     -11.654   7.397  71.154  1.00  0.00    -0.278 NA 
HETATM   19  N   UNL     1     -11.169   5.753  72.410  1.00  0.00    -0.279 NA 
HETATM   20  N   UNL     1     -12.204   6.456  71.910  1.00  0.00    -0.336 NA 
ENDBRANCH  14  15
ENDBRANCH  13  14
ENDBRANCH   4  13
BRANCH   5  21
HETATM   21  N   UNL     1      -8.090   9.209  66.537  1.00  0.00    -0.107 N  
HETATM   22  O   UNL     1      -9.305   9.507  64.642  1.00  0.00    -0.240 OA 
HETATM   23  H   UNL     1      -7.821   9.614  67.433  1.00  0.00     0.000 HD 
HETATM   24  C   UNL     1      -8.924   9.957  65.728  1.00  0.00    -0.156 C  
BRANCH  24  25
HETATM   25  C   UNL     1      -9.361  11.361  66.286  1.00  0.00    -0.212 C  
HETATM   26  S   UNL     1     -10.388  11.298  67.809  1.00  0.00    -0.189 SA 
HETATM   27  C   UNL     1      -9.505  12.815  67.919  1.00  0.00    -0.208 C  
HETATM   28  C   UNL     1      -9.843  14.027  68.421  1.00  0.00    -0.232 C  
HETATM   29  S   UNL     1      -8.022  12.170  67.240  1.00  0.00    -0.174 SA 
HETATM   30  O   UNL     1      -9.299  16.325  68.855  1.00  0.00    -0.227 OA 
HETATM   31  C   UNL     1      -8.851  15.141  68.368  1.00  0.00    -0.174 C  
HETATM   32  O   UNL     1      -7.711  15.051  67.943  1.00  0.00    -0.115 OA 
BRANCH  28  33
HETATM   33  C   UNL     1     -11.205  14.269  68.973  1.00  0.00    -0.266 C  
HETATM   34  O   UNL     1     -12.151  14.459  68.209  1.00  0.00    -0.309 OA 
HETATM   35  N   UNL     1     -11.410  14.335  70.310  1.00  0.00    -0.473 N  
HETATM   36  H1  UNL     1     -12.343  14.500  70.688  1.00  0.00     0.000 HD 
HETATM   37  H2  UNL     1     -10.622  14.218  70.947  1.00  0.00     0.000 HD 
ENDBRANCH  28  33
ENDBRANCH  24  25
ENDBRANCH   5  21
BRANCH   5  38
HETATM   38  O   UNL     1      -6.729   7.885  65.006  1.00  0.00    -0.050 OA 
HETATM   39  C   UNL     1      -5.426   7.317  65.138  1.00  0.00    -0.032 C  
ENDBRANCH   5  38
TORSDOF 7
ENDMDL
MODEL       88
REMARK 921   NORMALIZED FREE ENERGY PREDICTED BY IDOCK:   -4.44 KCAL/MOL
REMARK 922        TOTAL FREE ENERGY PREDICTED BY IDOCK:   -7.71 KCAL/MOL
REMARK 923 INTER-LIGAND FREE ENERGY PREDICTED BY IDOCK:   -7.10 KCAL/MOL
REMARK 924 INTRA-LIGAND FREE ENERGY PREDICTED BY IDOCK:   -0.61 KCAL/MOL
REMARK 927      BINDING AFFINITY PREDICTED BY RF-SCORE:    0.00 PKD
ROOT
HETATM    1  C   UNL     1     -10.354  10.828  64.979  1.00  0.00    -0.287 C  
HETATM    2  S   UNL     1      -8.609  11.030  64.534  1.00  0.00     0.235 SA 
HETATM    3  C   UNL     1      -8.223   9.284  64.814  1.00  0.00    -0.149 C  
HETATM    4  C   UNL     1      -8.715   8.736  66.149  1.00  0.00    -0.184 C  
HETATM    5  C   UNL     1     -11.129  12.144  65.449  1.00  0.00    -0.317 C  
HETATM    6  C   UNL     1      -9.774   9.254  66.844  1.00  0.00    -0.190 C  
HETATM    7  N   UNL     1     -10.430  10.354  66.351  1.00  0.00    -0.210 N  
HETATM    8  C   UNL     1     -10.185   8.624  68.171  1.00  0.00    -0.205 C  
HETATM    9  O   UNL     1      -9.625   7.650  68.653  1.00  0.00    -0.150 OA 
HETATM   10  O   UNL     1     -11.256   9.126  68.804  1.00  0.00     0.063 OA 
HETATM   11  O   UNL     1     -12.016  11.254  67.776  1.00  0.00    -0.637 OA 
HETATM   12  C   UNL     1     -11.352  11.251  66.763  1.00  0.00    -0.111 C  
ENDROOT
BRANCH   4  13
HETATM   13  C   UNL     1      -7.812   7.597  66.632  1.00  0.00    -0.106 C  
BRANCH  13  14
HETATM   14  S   UNL     1      -6.688   7.054  65.314  1.00  0.00    -0.052 SA 
BRANCH  14  15
HETATM   15  C   UNL     1      -6.549   5.377  65.708  1.00  0.00    -0.044 A  
HETATM   16  N   UNL     1      -6.855   4.826  66.860  1.00  0.00    -0.055 NA 
HETATM   17  C   UNL     1      -5.605   4.488  63.520  1.00  0.00    -0.013 C  
HETATM   18  N   UNL     1      -6.525   3.495  66.740  1.00  0.00    -0.039 NA 
HETATM   19  N   UNL     1      -6.053   4.409  64.881  1.00  0.00    -0.025 NA 
HETATM   20  N   UNL     1      -6.038   3.231  65.535  1.00  0.00    -0.026 NA 
ENDBRANCH  14  15
ENDBRANCH  13  14
ENDBRANCH   4  13
BRANCH   5  21
HETATM   21  N   UNL     1     -10.256  13.350  65.551  1.00  0.00    -0.301 N  
HETATM   22  O   UNL     1     -11.436  14.425  67.164  1.00  0.00    -0.330 OA 
HETATM   23  H   UNL     1      -9.434  13.385  64.950  1.00  0.00     0.000 HD 
HETATM   24  C   UNL     1     -10.471  14.423  66.394  1.00  0.00    -0.295 C  
BRANCH  24  25
HETATM   25  C   UNL     1      -9.416  15.587  66.322  1.00  0.00    -0.323 C  
HETATM   26  S   UNL     1     -10.118  17.274  66.520  1.00  0.00    -0.317 SA 
HETATM   27  C   UNL     1      -8.484  17.384  67.161  1.00  0.00    -0.211 C  
HETATM   28  C   UNL     1      -7.567  18.381  67.142  1.00  0.00    -0.232 C  
HETATM   29  S   UNL     1      -8.511  15.794  67.902  1.00  0.00    -0.159 SA 
HETATM   30  O   UNL     1      -5.377  19.205  67.679  1.00  0.00    -0.171 OA 
HETATM   31  C   UNL     1      -6.239  18.165  67.789  1.00  0.00    -0.176 C  
HETATM   32  O   UNL     1      -5.905  17.159  68.393  1.00  0.00    -0.136 OA 
BRANCH  28  33
HETATM   33  C   UNL     1      -7.852  19.664  66.440  1.00  0.00    -0.309 C  
HETATM   34  O   UNL     1      -7.751  19.727  65.214  1.00  0.00    -0.317 OA 
HETATM   35  N   UNL     1      -8.171  20.780  67.136  1.00  0.00    -0.546 N  
HETATM   36  H1  UNL     1      -8.367  21.658  66.655  1.00  0.00     0.000 HD 
HETATM   37  H2  UNL     1      -8.217  20.743  68.154  1.00  0.00     0.000 HD 
ENDBRANCH  28  33
ENDBRANCH  24  25
ENDBRANCH   5  21
BRANCH   5  38
HETATM   38  O   UNL     1     -12.352  12.425  64.713  1.00  0.00    -0.453 OA 
HETATM   39  C   UNL     1     -12.383  13.674  64.023  1.00  0.00    -0.325 C  
ENDBRANCH   5  38
TORSDOF 7
ENDMDL
MODEL       89
REMARK 921   NORMALIZED FREE ENERGY PREDICTED BY IDOCK:   -4.42 KCAL/MOL
REMARK 922        TOTAL FREE ENERGY PREDICTED BY IDOCK:   -7.69 KCAL/MOL
REMARK 923 INTER-LIGAND FREE ENERGY PREDICTED BY IDOCK:   -6.66 KCAL/MOL
REMARK 924 INTRA-LIGAND FREE ENERGY PREDICTED BY IDOCK:   -1.03 KCAL/MOL
REMARK 927      BINDING AFFINITY PREDICTED BY RF-SCORE:    0.00 PKD
ROOT
HETATM    1  C   UNL     1      -9.153   9.143  69.899  1.00  0.00    -0.178 C  
HETATM    2  S   UNL     1      -8.845   9.854  68.260  1.00  0.00    -0.120 SA 
HETATM    3  C   UNL     1      -9.478  11.483  68.728  1.00  0.00    -0.089 C  
HETATM    4  C   UNL     1     -10.838  11.457  69.416  1.00  0.00    -0.214 C  
HETATM    5  C   UNL     1      -9.297   7.553  69.973  1.00  0.00    -0.154 C  
HETATM    6  C   UNL     1     -11.323  10.384  70.111  1.00  0.00    -0.323 C  
HETATM    7  N   UNL     1     -10.576   9.234  70.183  1.00  0.00    -0.217 N  
HETATM    8  C   UNL     1     -12.698  10.467  70.765  1.00  0.00    -0.381 C  
HETATM    9  O   UNL     1     -13.403  11.466  70.720  1.00  0.00     0.138 OA 
HETATM   10  O   UNL     1     -13.125   9.415  71.479  1.00  0.00    -0.343 OA 
HETATM   11  O   UNL     1     -11.654   7.438  71.167  1.00  0.00    -0.271 OA 
HETATM   12  C   UNL     1     -10.726   7.953  70.582  1.00  0.00    -0.228 C  
ENDROOT
BRANCH   4  13
HETATM   13  C   UNL     1     -11.606  12.754  69.143  1.00  0.00    -0.319 C  
BRANCH  13  14
HETATM   14  S   UNL     1     -11.481  13.230  67.395  1.00  0.00    -0.352 SA 
BRANCH  14  15
HETATM   15  C   UNL     1     -11.081  14.903  67.565  1.00  0.00    -0.317 A  
HETATM   16  N   UNL     1     -11.381  15.669  68.589  1.00  0.00    -0.337 NA 
HETATM   17  C   UNL     1      -9.883  15.295  65.356  1.00  0.00    -0.283 C  
HETATM   18  N   UNL     1     -10.925  16.926  68.264  1.00  0.00    -0.349 NA 
HETATM   19  N   UNL     1     -10.437  15.660  66.629  1.00  0.00    -0.296 NA 
HETATM   20  N   UNL     1     -10.344  16.929  67.071  1.00  0.00    -0.311 NA 
ENDBRANCH  14  15
ENDBRANCH  13  14
ENDBRANCH   4  13
BRANCH   5  21
HETATM   21  N   UNL     1      -9.256   6.884  68.640  1.00  0.00    -0.131 N  
HETATM   22  O   UNL     1     -10.028   4.858  69.309  1.00  0.00    -0.192 OA 
HETATM   23  H   UNL     1      -8.940   7.441  67.846  1.00  0.00     0.000 HD 
HETATM   24  C   UNL     1      -9.613   5.573  68.392  1.00  0.00    -0.124 C  
BRANCH  24  25
HETATM   25  C   UNL     1      -9.482   5.084  66.903  1.00  0.00    -0.142 C  
HETATM   26  S   UNL     1      -7.816   5.316  66.162  1.00  0.00    -0.104 SA 
HETATM   27  C   UNL     1      -8.480   3.902  65.355  1.00  0.00    -0.109 C  
HETATM   28  C   UNL     1      -8.359   3.440  64.087  1.00  0.00    -0.090 C  
HETATM   29  S   UNL     1      -9.264   3.269  66.791  1.00  0.00    -0.144 SA 
HETATM   30  O   UNL     1      -8.911   1.826  62.397  1.00  0.00    -0.072 OA 
HETATM   31  C   UNL     1      -9.058   2.180  63.698  1.00  0.00    -0.096 C  
HETATM   32  O   UNL     1      -9.715   1.478  64.449  1.00  0.00    -0.127 OA 
BRANCH  28  33
HETATM   33  C   UNL     1      -7.581   4.203  63.071  1.00  0.00    -0.057 C  
HETATM   34  O   UNL     1      -7.980   5.306  62.694  1.00  0.00    -0.072 OA 
HETATM   35  N   UNL     1      -6.465   3.678  62.513  1.00  0.00    -0.021 N  
HETATM   36  H1  UNL     1      -5.932   4.200  61.817  1.00  0.00     0.000 HD 
HETATM   37  H2  UNL     1      -6.152   2.748  62.792  1.00  0.00     0.000 HD 
ENDBRANCH  28  33
ENDBRANCH  24  25
ENDBRANCH   5  21
BRANCH   5  38
HETATM   38  O   UNL     1      -8.410   6.906  70.927  1.00  0.00    -0.127 OA 
HETATM   39  C   UNL     1      -8.349   7.509  72.219  1.00  0.00    -0.103 C  
ENDBRANCH   5  38
TORSDOF 7
ENDMDL
MODEL       90
REMARK 921   NORMALIZED FREE ENERGY PREDICTED BY IDOCK:   -4.41 KCAL/MOL
REMARK 922        TOTAL FREE ENERGY PREDICTED BY IDOCK:   -7.67 KCAL/MOL
REMARK 923 INTER-LIGAND FREE ENERGY PREDICTED BY IDOCK:   -7.14 KCAL/MOL
REMARK 924 INTRA-LIGAND FREE ENERGY PREDICTED BY IDOCK:   -0.54 KCAL/MOL
REMARK 927      BINDING AFFINITY PREDICTED BY RF-SCORE:    0.00 PKD
ROOT
HETATM    1  C   UNL     1     -10.474  10.343  66.396  1.00  0.00    -0.177 C  
HETATM    2  S   UNL     1      -9.830  11.183  64.924  1.00  0.00    -0.285 SA 
HETATM    3  C   UNL     1      -9.094   9.673  64.251  1.00  0.00    -0.218 C  
HETATM    4  C   UNL     1      -8.239   8.892  65.242  1.00  0.00    -0.139 C  
HETATM    5  C   UNL     1     -10.774  11.262  67.669  1.00  0.00    -0.226 C  
HETATM    6  C   UNL     1      -8.398   8.949  66.600  1.00  0.00    -0.111 C  
HETATM    7  N   UNL     1      -9.355   9.777  67.132  1.00  0.00    -0.141 N  
HETATM    8  C   UNL     1      -7.488   8.121  67.501  1.00  0.00    -0.094 C  
HETATM    9  O   UNL     1      -6.617   7.377  67.073  1.00  0.00    -0.057 OA 
HETATM   10  O   UNL     1      -7.700   8.163  68.825  1.00  0.00    -0.103 OA 
HETATM   11  O   UNL     1      -9.311   9.951  69.439  1.00  0.00    -0.187 OA 
HETATM   12  C   UNL     1      -9.720  10.256  68.340  1.00  0.00    -0.156 C  
ENDROOT
BRANCH   4  13
HETATM   13  C   UNL     1      -7.138   8.117  64.513  1.00  0.00    -0.077 C  
BRANCH  13  14
HETATM   14  S   UNL     1      -7.844   6.817  63.461  1.00  0.00    -0.079 SA 
BRANCH  14  15
HETATM   15  C   UNL     1      -7.842   5.494  64.572  1.00  0.00    -0.109 A  
HETATM   16  N   UNL     1      -8.851   5.112  65.322  1.00  0.00    -0.153 NA 
HETATM   17  C   UNL     1      -5.446   4.686  64.289  1.00  0.00    -0.013 C  
HETATM   18  N   UNL     1      -8.378   4.070  66.086  1.00  0.00    -0.108 NA 
HETATM   19  N   UNL     1      -6.767   4.698  64.851  1.00  0.00    -0.044 NA 
HETATM   20  N   UNL     1      -7.108   3.809  65.803  1.00  0.00    -0.065 NA 
ENDBRANCH  14  15
ENDBRANCH  13  14
ENDBRANCH   4  13
BRANCH   5  21
HETATM   21  N   UNL     1     -10.376  12.688  67.487  1.00  0.00    -0.216 N  
HETATM   22  O   UNL     1      -8.376  12.568  68.553  1.00  0.00    -0.147 OA 
HETATM   23  H   UNL     1     -11.021  13.292  66.978  1.00  0.00     0.000 HD 
HETATM   24  C   UNL     1      -9.207  13.257  67.952  1.00  0.00    -0.213 C  
BRANCH  24  25
HETATM   25  C   UNL     1      -9.006  14.786  67.645  1.00  0.00    -0.182 C  
HETATM   26  S   UNL     1     -10.542  15.793  67.717  1.00  0.00    -0.298 SA 
HETATM   27  C   UNL     1      -9.253  16.897  68.178  1.00  0.00    -0.234 C  
HETATM   28  C   UNL     1      -9.070  18.221  67.956  1.00  0.00    -0.300 C  
HETATM   29  S   UNL     1      -8.357  15.700  69.095  1.00  0.00    -0.261 SA 
HETATM   30  O   UNL     1      -7.734  20.203  68.178  1.00  0.00    -0.276 OA 
HETATM   31  C   UNL     1      -7.847  18.889  68.490  1.00  0.00    -0.337 C  
HETATM   32  O   UNL     1      -6.989  18.349  69.169  1.00  0.00    -0.274 OA 
BRANCH  28  33
HETATM   33  C   UNL     1     -10.047  18.999  67.143  1.00  0.00    -0.364 C  
HETATM   34  O   UNL     1     -11.137  19.308  67.625  1.00  0.00    -0.377 OA 
HETATM   35  N   UNL     1      -9.775  19.327  65.858  1.00  0.00    -0.213 N  
HETATM   36  H1  UNL     1     -10.443  19.859  65.301  1.00  0.00     0.000 HD 
HETATM   37  H2  UNL     1      -8.890  19.037  65.441  1.00  0.00     0.000 HD 
ENDBRANCH  28  33
ENDBRANCH  24  25
ENDBRANCH   5  21
BRANCH   5  38
HETATM   38  O   UNL     1     -12.123  11.142  68.200  1.00  0.00    -0.633 OA 
HETATM   39  C   UNL     1     -12.250  11.327  69.609  1.00  0.00    -0.271 C  
ENDBRANCH   5  38
TORSDOF 7
ENDMDL
MODEL       91
REMARK 921   NORMALIZED FREE ENERGY PREDICTED BY IDOCK:   -4.40 KCAL/MOL
REMARK 922        TOTAL FREE ENERGY PREDICTED BY IDOCK:   -7.66 KCAL/MOL
REMARK 923 INTER-LIGAND FREE ENERGY PREDICTED BY IDOCK:   -7.12 KCAL/MOL
REMARK 924 INTRA-LIGAND FREE ENERGY PREDICTED BY IDOCK:   -0.54 KCAL/MOL
REMARK 927      BINDING AFFINITY PREDICTED BY RF-SCORE:    0.00 PKD
ROOT
HETATM    1  C   UNL     1     -11.968  13.998  67.416  1.00  0.00    -0.404 C  
HETATM    2  S   UNL     1     -11.689  14.112  69.204  1.00  0.00    -0.348 SA 
HETATM    3  C   UNL     1     -11.690  15.922  69.199  1.00  0.00    -0.363 C  
HETATM    4  C   UNL     1     -10.788  16.549  68.143  1.00  0.00    -0.345 C  
HETATM    5  C   UNL     1     -11.527  12.634  66.710  1.00  0.00    -0.351 C  
HETATM    6  C   UNL     1     -10.427  15.929  66.977  1.00  0.00    -0.306 C  
HETATM    7  N   UNL     1     -10.863  14.651  66.733  1.00  0.00    -0.306 N  
HETATM    8  C   UNL     1      -9.521  16.652  65.987  1.00  0.00    -0.251 C  
HETATM    9  O   UNL     1      -9.102  17.787  66.166  1.00  0.00    -0.457 OA 
HETATM   10  O   UNL     1      -9.225  16.035  64.833  1.00  0.00     0.548 OA 
HETATM   11  O   UNL     1      -9.950  13.660  64.851  1.00  0.00    -0.281 OA 
HETATM   12  C   UNL     1     -10.624  13.650  65.858  1.00  0.00    -0.289 C  
ENDROOT
BRANCH   4  13
HETATM   13  C   UNL     1     -10.280  17.917  68.609  1.00  0.00    -0.385 C  
BRANCH  13  14
HETATM   14  S   UNL     1      -8.647  17.773  69.390  1.00  0.00     0.668 SA 
BRANCH  14  15
HETATM   15  C   UNL     1      -7.880  19.183  68.750  1.00  0.00    -0.348 A  
HETATM   16  N   UNL     1      -8.457  20.115  68.027  1.00  0.00    -0.209 NA 
HETATM   17  C   UNL     1      -5.506  18.809  69.583  1.00  0.00    -0.209 C  
HETATM   18  N   UNL     1      -7.459  21.001  67.690  1.00  0.00    -0.263 NA 
HETATM   19  N   UNL     1      -6.554  19.487  68.874  1.00  0.00    -0.289 NA 
HETATM   20  N   UNL     1      -6.295  20.627  68.205  1.00  0.00    -0.317 NA 
ENDBRANCH  14  15
ENDBRANCH  13  14
ENDBRANCH   4  13
BRANCH   5  21
HETATM   21  N   UNL     1     -10.844  11.676  67.627  1.00  0.00    -0.213 N  
HETATM   22  O   UNL     1     -10.099  10.237  66.039  1.00  0.00    -0.235 OA 
HETATM   23  H   UNL     1     -10.868  11.886  68.624  1.00  0.00     0.000 HD 
HETATM   24  C   UNL     1     -10.183  10.529  67.236  1.00  0.00    -0.215 C  
BRANCH  24  25
HETATM   25  C   UNL     1      -9.542   9.668  68.385  1.00  0.00    -0.144 C  
HETATM   26  S   UNL     1      -7.870  10.215  68.916  1.00  0.00    -0.109 SA 
HETATM   27  C   UNL     1      -8.590   9.499  70.351  1.00  0.00    -0.206 C  
HETATM   28  C   UNL     1      -8.059   8.782  71.371  1.00  0.00    -0.189 C  
HETATM   29  S   UNL     1     -10.198  10.123  70.034  1.00  0.00    -0.156 SA 
HETATM   30  O   UNL     1      -8.333   7.559  73.419  1.00  0.00    -0.116 OA 
HETATM   31  C   UNL     1      -8.950   8.305  72.469  1.00  0.00    -0.236 C  
HETATM   32  O   UNL     1     -10.143   8.545  72.564  1.00  0.00    -0.298 OA 
BRANCH  28  33
HETATM   33  C   UNL     1      -6.613   8.423  71.377  1.00  0.00    -0.060 C  
HETATM   34  O   UNL     1      -5.786   9.218  71.823  1.00  0.00    -0.072 OA 
HETATM   35  N   UNL     1      -6.187   7.251  70.849  1.00  0.00    -0.036 N  
HETATM   36  H1  UNL     1      -5.197   7.005  70.854  1.00  0.00     0.000 HD 
HETATM   37  H2  UNL     1      -6.864   6.606  70.441  1.00  0.00     0.000 HD 
ENDBRANCH  28  33
ENDBRANCH  24  25
ENDBRANCH   5  21
BRANCH   5  38
HETATM   38  O   UNL     1     -12.574  11.985  65.935  1.00  0.00    -0.060 OA 
HETATM   39  C   UNL     1     -12.889  12.601  64.687  1.00  0.00    -0.275 C  
ENDBRANCH   5  38
TORSDOF 7
ENDMDL
MODEL       92
REMARK 921   NORMALIZED FREE ENERGY PREDICTED BY IDOCK:   -4.39 KCAL/MOL
REMARK 922        TOTAL FREE ENERGY PREDICTED BY IDOCK:   -7.64 KCAL/MOL
REMARK 923 INTER-LIGAND FREE ENERGY PREDICTED BY IDOCK:   -6.92 KCAL/MOL
REMARK 924 INTRA-LIGAND FREE ENERGY PREDICTED BY IDOCK:   -0.72 KCAL/MOL
REMARK 927      BINDING AFFINITY PREDICTED BY RF-SCORE:    0.00 PKD
ROOT
HETATM    1  C   UNL     1      -9.915  12.174  67.614  1.00  0.00    -0.197 C  
HETATM    2  S   UNL     1     -10.968  11.827  69.049  1.00  0.00    -0.209 SA 
HETATM    3  C   UNL     1     -11.500  13.549  69.211  1.00  0.00    -0.291 C  
HETATM    4  C   UNL     1     -10.362  14.564  69.201  1.00  0.00    -0.197 C  
HETATM    5  C   UNL     1      -8.737  11.133  67.325  1.00  0.00    -0.139 C  
HETATM    6  C   UNL     1      -9.148  14.346  68.608  1.00  0.00    -0.178 C  
HETATM    7  N   UNL     1      -8.899  13.137  68.008  1.00  0.00    -0.184 N  
HETATM    8  C   UNL     1      -8.080  15.434  68.654  1.00  0.00    -0.156 C  
HETATM    9  O   UNL     1      -8.253  16.522  69.185  1.00  0.00    -0.233 OA 
HETATM   10  O   UNL     1      -6.918  15.207  68.024  1.00  0.00    -0.108 OA 
HETATM   11  O   UNL     1      -6.718  12.842  67.292  1.00  0.00    -0.158 OA 
HETATM   12  C   UNL     1      -7.851  12.460  67.491  1.00  0.00    -0.169 C  
ENDROOT
BRANCH   4  13
HETATM   13  C   UNL     1     -10.738  15.806  70.014  1.00  0.00    -0.341 C  
BRANCH  13  14
HETATM   14  S   UNL     1     -12.515  15.826  70.387  1.00  0.00    -0.151 SA 
BRANCH  14  15
HETATM   15  C   UNL     1     -12.461  15.810  72.115  1.00  0.00    -0.455 A  
HETATM   16  N   UNL     1     -12.159  16.827  72.888  1.00  0.00    -0.254 NA 
HETATM   17  C   UNL     1     -13.066  13.377  72.549  1.00  0.00    -0.319 C  
HETATM   18  N   UNL     1     -12.180  16.340  74.175  1.00  0.00    -0.497 NA 
HETATM   19  N   UNL     1     -12.682  14.715  72.902  1.00  0.00    -0.413 NA 
HETATM   20  N   UNL     1     -12.502  15.053  74.193  1.00  0.00    -0.534 NA 
ENDBRANCH  14  15
ENDBRANCH  13  14
ENDBRANCH   4  13
BRANCH   5  21
HETATM   21  N   UNL     1      -8.613  10.064  68.358  1.00  0.00    -0.111 N  
HETATM   22  O   UNL     1     -10.117   8.620  67.463  1.00  0.00    -0.184 OA 
HETATM   23  H   UNL     1      -7.951  10.222  69.118  1.00  0.00     0.000 HD 
HETATM   24  C   UNL     1      -9.320   8.878  68.370  1.00  0.00    -0.136 C  
BRANCH  24  25
HETATM   25  C   UNL     1      -9.025   7.903  69.568  1.00  0.00    -0.142 C  
HETATM   26  S   UNL     1      -9.403   6.136  69.233  1.00  0.00    -0.134 SA 
HETATM   27  C   UNL     1      -8.079   6.106  70.390  1.00  0.00    -0.112 C  
HETATM   28  C   UNL     1      -7.783   5.263  71.408  1.00  0.00    -0.106 C  
HETATM   29  S   UNL     1      -7.246   7.484  69.694  1.00  0.00    -0.079 SA 
HETATM   30  O   UNL     1      -6.374   4.636  73.248  1.00  0.00    -0.038 OA 
HETATM   31  C   UNL     1      -6.559   5.507  72.226  1.00  0.00    -0.058 C  
HETATM   32  O   UNL     1      -5.746   6.396  72.031  1.00  0.00    -0.035 OA 
BRANCH  28  33
HETATM   33  C   UNL     1      -8.693   4.134  71.750  1.00  0.00    -0.112 C  
HETATM   34  O   UNL     1      -9.618   4.310  72.543  1.00  0.00    -0.129 OA 
HETATM   35  N   UNL     1      -8.485   2.897  71.240  1.00  0.00    -0.062 N  
HETATM   36  H1  UNL     1      -9.108   2.124  71.473  1.00  0.00     0.000 HD 
HETATM   37  H2  UNL     1      -7.696   2.736  70.613  1.00  0.00     0.000 HD 
ENDBRANCH  28  33
ENDBRANCH  24  25
ENDBRANCH   5  21
BRANCH   5  38
HETATM   38  O   UNL     1      -8.728  10.584  65.978  1.00  0.00    -0.153 OA 
HETATM   39  C   UNL     1      -7.440  10.293  65.439  1.00  0.00    -0.145 C  
ENDBRANCH   5  38
TORSDOF 7
ENDMDL
MODEL       93
REMARK 921   NORMALIZED FREE ENERGY PREDICTED BY IDOCK:   -4.39 KCAL/MOL
REMARK 922        TOTAL FREE ENERGY PREDICTED BY IDOCK:   -7.64 KCAL/MOL
REMARK 923 INTER-LIGAND FREE ENERGY PREDICTED BY IDOCK:   -7.03 KCAL/MOL
REMARK 924 INTRA-LIGAND FREE ENERGY PREDICTED BY IDOCK:   -0.60 KCAL/MOL
REMARK 927      BINDING AFFINITY PREDICTED BY RF-SCORE:    0.00 PKD
ROOT
HETATM    1  C   UNL     1     -11.511  10.247  68.307  1.00  0.00    -0.075 C  
HETATM    2  S   UNL     1     -10.631  10.985  66.904  1.00  0.00    -0.265 SA 
HETATM    3  C   UNL     1     -10.321   9.384  66.117  1.00  0.00    -0.092 C  
HETATM    4  C   UNL     1      -9.733   8.329  67.046  1.00  0.00    -0.274 C  
HETATM    5  C   UNL     1     -11.577  11.117  69.646  1.00  0.00    -0.326 C  
HETATM    6  C   UNL     1      -9.899   8.327  68.405  1.00  0.00    -0.172 C  
HETATM    7  N   UNL     1     -10.605   9.343  68.998  1.00  0.00    -0.220 N  
HETATM    8  C   UNL     1      -9.269   7.218  69.240  1.00  0.00    -0.144 C  
HETATM    9  O   UNL     1      -8.625   6.297  68.757  1.00  0.00    -0.121 OA 
HETATM   10  O   UNL     1      -9.490   7.219  70.563  1.00  0.00    -0.165 OA 
HETATM   11  O   UNL     1     -10.565   9.329  71.312  1.00  0.00    -0.299 OA 
HETATM   12  C   UNL     1     -10.851   9.814  70.239  1.00  0.00    -0.301 C  
ENDROOT
BRANCH   4  13
HETATM   13  C   UNL     1      -8.869   7.338  66.260  1.00  0.00    -0.159 C  
BRANCH  13  14
HETATM   14  S   UNL     1      -7.467   8.179  65.472  1.00  0.00    -0.084 SA 
BRANCH  14  15
HETATM   15  C   UNL     1      -6.616   8.726  66.874  1.00  0.00    -0.061 A  
HETATM   16  N   UNL     1      -6.043   7.964  67.776  1.00  0.00    -0.045 NA 
HETATM   17  C   UNL     1      -6.890  11.240  66.601  1.00  0.00    -0.130 C  
HETATM   18  N   UNL     1      -5.550   8.820  68.734  1.00  0.00    -0.040 NA 
HETATM   19  N   UNL     1      -6.471  10.031  67.251  1.00  0.00    -0.067 NA 
HETATM   20  N   UNL     1      -5.803  10.084  68.420  1.00  0.00    -0.042 NA 
ENDBRANCH  14  15
ENDBRANCH  13  14
ENDBRANCH   4  13
BRANCH   5  21
HETATM   21  N   UNL     1     -10.801  12.389  69.574  1.00  0.00    -0.452 N  
HETATM   22  O   UNL     1     -12.501  13.726  68.886  1.00  0.00    -0.173 OA 
HETATM   23  H   UNL     1      -9.816  12.351  69.833  1.00  0.00     0.000 HD 
HETATM   24  C   UNL     1     -11.308  13.614  69.186  1.00  0.00    -0.285 C  
BRANCH  24  25
HETATM   25  C   UNL     1     -10.297  14.817  69.182  1.00  0.00    -0.233 C  
HETATM   26  S   UNL     1      -8.749  14.518  68.237  1.00  0.00    -0.179 SA 
HETATM   27  C   UNL     1      -9.026  16.251  68.119  1.00  0.00    -0.187 C  
HETATM   28  C   UNL     1      -8.176  17.304  68.081  1.00  0.00    -0.231 C  
HETATM   29  S   UNL     1     -10.768  16.110  67.973  1.00  0.00    -0.330 SA 
HETATM   30  O   UNL     1      -7.801  19.674  67.987  1.00  0.00    -0.293 OA 
HETATM   31  C   UNL     1      -8.730  18.686  67.972  1.00  0.00    -0.303 C  
HETATM   32  O   UNL     1      -9.913  18.965  67.865  1.00  0.00    -0.320 OA 
BRANCH  28  33
HETATM   33  C   UNL     1      -6.705  17.100  68.200  1.00  0.00    -0.163 C  
HETATM   34  O   UNL     1      -6.060  17.753  69.021  1.00  0.00    -0.193 OA 
HETATM   35  N   UNL     1      -6.054  16.242  67.379  1.00  0.00    -0.157 N  
HETATM   36  H1  UNL     1      -5.047  16.102  67.461  1.00  0.00     0.000 HD 
HETATM   37  H2  UNL     1      -6.578  15.729  66.670  1.00  0.00     0.000 HD 
ENDBRANCH  28  33
ENDBRANCH  24  25
ENDBRANCH   5  21
BRANCH   5  38
HETATM   38  O   UNL     1     -12.918  11.332  70.166  1.00  0.00    -0.023 OA 
HETATM   39  C   UNL     1     -13.036  11.337  71.588  1.00  0.00    -0.432 C  
ENDBRANCH   5  38
TORSDOF 7
ENDMDL
MODEL       94
REMARK 921   NORMALIZED FREE ENERGY PREDICTED BY IDOCK:   -4.38 KCAL/MOL
REMARK 922        TOTAL FREE ENERGY PREDICTED BY IDOCK:   -7.63 KCAL/MOL
REMARK 923 INTER-LIGAND FREE ENERGY PREDICTED BY IDOCK:   -6.26 KCAL/MOL
REMARK 924 INTRA-LIGAND FREE ENERGY PREDICTED BY IDOCK:   -1.37 KCAL/MOL
REMARK 927      BINDING AFFINITY PREDICTED BY RF-SCORE:    0.00 PKD
ROOT
HETATM    1  C   UNL     1      -8.079  10.513  69.267  1.00  0.00    -0.148 C  
HETATM    2  S   UNL     1      -9.688  11.163  68.740  1.00  0.00    -0.152 SA 
HETATM    3  C   UNL     1     -10.265   9.554  68.147  1.00  0.00    -0.193 C  
HETATM    4  C   UNL     1      -9.285   8.831  67.230  1.00  0.00    -0.165 C  
HETATM    5  C   UNL     1      -6.888  11.571  69.393  1.00  0.00    -0.099 C  
HETATM    6  C   UNL     1      -7.932   9.034  67.245  1.00  0.00    -0.099 C  
HETATM    7  N   UNL     1      -7.400   9.963  68.104  1.00  0.00    -0.079 N  
HETATM    8  C   UNL     1      -7.041   8.252  66.286  1.00  0.00    -0.070 C  
HETATM    9  O   UNL     1      -7.470   7.422  65.498  1.00  0.00    -0.081 OA 
HETATM   10  O   UNL     1      -5.715   8.440  66.358  1.00  0.00    -0.038 OA 
HETATM   11  O   UNL     1      -5.139  10.367  67.815  1.00  0.00    -0.034 OA 
HETATM   12  C   UNL     1      -6.219  10.582  68.321  1.00  0.00    -0.054 C  
ENDROOT
BRANCH   4  13
HETATM   13  C   UNL     1     -10.032   7.926  66.245  1.00  0.00    -0.013 C  
BRANCH  13  14
HETATM   14  S   UNL     1     -10.892   6.586  67.117  1.00  0.00    -0.405 SA 
BRANCH  14  15
HETATM   15  C   UNL     1      -9.545   5.590  67.543  1.00  0.00    -0.122 A  
HETATM   16  N   UNL     1      -8.914   5.594  68.695  1.00  0.00    -0.111 NA 
HETATM   17  C   UNL     1      -9.247   4.302  65.369  1.00  0.00    -0.152 C  
HETATM   18  N   UNL     1      -7.881   4.695  68.561  1.00  0.00    -0.079 NA 
HETATM   19  N   UNL     1      -8.930   4.695  66.713  1.00  0.00    -0.111 NA 
HETATM   20  N   UNL     1      -7.885   4.139  67.356  1.00  0.00    -0.091 NA 
ENDBRANCH  14  15
ENDBRANCH  13  14
ENDBRANCH   4  13
BRANCH   5  21
HETATM   21  N   UNL     1      -7.258  12.948  68.952  1.00  0.00    -0.220 N  
HETATM   22  O   UNL     1      -5.163  13.818  68.932  1.00  0.00    -0.070 OA 
HETATM   23  H   UNL     1      -8.245  13.133  68.777  1.00  0.00     0.000 HD 
HETATM   24  C   UNL     1      -6.373  13.991  68.761  1.00  0.00    -0.090 C  
BRANCH  24  25
HETATM   25  C   UNL     1      -6.998  15.358  68.298  1.00  0.00    -0.116 C  
HETATM   26  S   UNL     1      -8.469  15.896  69.260  1.00  0.00    -0.195 SA 
HETATM   27  C   UNL     1      -7.702  17.387  68.729  1.00  0.00    -0.258 C  
HETATM   28  C   UNL     1      -8.211  18.586  68.357  1.00  0.00    -0.351 C  
HETATM   29  S   UNL     1      -6.065  16.795  68.948  1.00  0.00    -0.166 SA 
HETATM   30  O   UNL     1      -7.888  20.826  67.555  1.00  0.00    -0.303 OA 
HETATM   31  C   UNL     1      -7.281  19.681  67.952  1.00  0.00    -0.273 C  
HETATM   32  O   UNL     1      -6.063  19.613  67.969  1.00  0.00    -0.210 OA 
BRANCH  28  33
HETATM   33  C   UNL     1      -9.684  18.802  68.297  1.00  0.00    -0.362 C  
HETATM   34  O   UNL     1     -10.347  18.266  67.408  1.00  0.00    -0.356 OA 
HETATM   35  N   UNL     1     -10.302  19.625  69.177  1.00  0.00    -0.597 N  
HETATM   36  H1  UNL     1     -11.310  19.773  69.136  1.00  0.00     0.000 HD 
HETATM   37  H2  UNL     1      -9.751  20.104  69.890  1.00  0.00     0.000 HD 
ENDBRANCH  28  33
ENDBRANCH  24  25
ENDBRANCH   5  21
BRANCH   5  38
HETATM   38  O   UNL     1      -6.218  11.581  70.684  1.00  0.00    -0.322 OA 
HETATM   39  C   UNL     1      -5.562  10.367  71.047  1.00  0.00    -0.075 C  
ENDBRANCH   5  38
TORSDOF 7
ENDMDL
MODEL       95
REMARK 921   NORMALIZED FREE ENERGY PREDICTED BY IDOCK:   -4.30 KCAL/MOL
REMARK 922        TOTAL FREE ENERGY PREDICTED BY IDOCK:   -7.51 KCAL/MOL
REMARK 923 INTER-LIGAND FREE ENERGY PREDICTED BY IDOCK:   -6.59 KCAL/MOL
REMARK 924 INTRA-LIGAND FREE ENERGY PREDICTED BY IDOCK:   -0.92 KCAL/MOL
REMARK 927      BINDING AFFINITY PREDICTED BY RF-SCORE:    0.00 PKD
ROOT
HETATM    1  C   UNL     1      -9.459   8.344  71.157  1.00  0.00    -0.179 C  
HETATM    2  S   UNL     1      -9.322   9.255  69.596  1.00  0.00    -0.192 SA 
HETATM    3  C   UNL     1     -10.504  10.527  70.109  1.00  0.00    -0.026 C  
HETATM    4  C   UNL     1     -11.808   9.982  70.678  1.00  0.00    -0.411 C  
HETATM    5  C   UNL     1      -9.050   6.800  71.121  1.00  0.00    -0.151 C  
HETATM    6  C   UNL     1     -11.933   8.752  71.264  1.00  0.00    -0.301 C  
HETATM    7  N   UNL     1     -10.841   7.923  71.327  1.00  0.00    -0.232 N  
HETATM    8  C   UNL     1     -13.287   8.307  71.806  1.00  0.00    -0.352 C  
HETATM    9  O   UNL     1     -14.289   9.007  71.764  1.00  0.00    -0.299 OA 
HETATM   10  O   UNL     1     -13.364   7.115  72.416  1.00  0.00     0.127 OA 
HETATM   11  O   UNL     1     -11.287   5.789  72.106  1.00  0.00    -0.280 OA 
HETATM   12  C   UNL     1     -10.562   6.637  71.633  1.00  0.00    -0.217 C  
ENDROOT
BRANCH   4  13
HETATM   13  C   UNL     1     -12.960  10.959  70.423  1.00  0.00    -0.103 C  
BRANCH  13  14
HETATM   14  S   UNL     1     -13.200  12.067  71.841  1.00  0.00    -0.217 SA 
BRANCH  14  15
HETATM   15  C   UNL     1     -12.729  13.571  71.133  1.00  0.00    -0.344 A  
HETATM   16  N   UNL     1     -12.108  13.724  69.986  1.00  0.00    -0.333 NA 
HETATM   17  C   UNL     1     -13.542  15.177  72.930  1.00  0.00    -0.459 C  
HETATM   18  N   UNL     1     -11.882  15.076  69.858  1.00  0.00    -0.303 NA 
HETATM   19  N   UNL     1     -12.902  14.801  71.701  1.00  0.00    -0.314 NA 
HETATM   20  N   UNL     1     -12.366  15.741  70.899  1.00  0.00    -0.420 NA 
ENDBRANCH  14  15
ENDBRANCH  13  14
ENDBRANCH   4  13
BRANCH   5  21
HETATM   21  N   UNL     1      -8.706   6.301  69.757  1.00  0.00    -0.136 N  
HETATM   22  O   UNL     1      -9.005   4.090  70.174  1.00  0.00    -0.081 OA 
HETATM   23  H   UNL     1      -8.461   6.997  69.053  1.00  0.00     0.000 HD 
HETATM   24  C   UNL     1      -8.692   4.976  69.371  1.00  0.00    -0.091 C  
BRANCH  24  25
HETATM   25  C   UNL     1      -8.291   4.689  67.878  1.00  0.00    -0.099 C  
HETATM   26  S   UNL     1      -9.533   3.735  66.916  1.00  0.00    -0.175 SA 
HETATM   27  C   UNL     1      -8.722   4.750  65.731  1.00  0.00    -0.127 C  
HETATM   28  C   UNL     1      -8.393   4.542  64.433  1.00  0.00    -0.113 C  
HETATM   29  S   UNL     1      -8.586   6.137  66.795  1.00  0.00    -0.114 SA 
HETATM   30  O   UNL     1      -7.368   5.302  62.399  1.00  0.00    -0.043 OA 
HETATM   31  C   UNL     1      -7.694   5.622  63.675  1.00  0.00    -0.095 C  
HETATM   32  O   UNL     1      -7.423   6.728  64.113  1.00  0.00    -0.079 OA 
BRANCH  28  33
HETATM   33  C   UNL     1      -8.672   3.234  63.777  1.00  0.00    -0.089 C  
HETATM   34  O   UNL     1      -9.638   3.121  63.023  1.00  0.00    -0.093 OA 
HETATM   35  N   UNL     1      -7.906   2.149  64.039  1.00  0.00    -0.068 N  
HETATM   36  H1  UNL     1      -8.097   1.254  63.589  1.00  0.00     0.000 HD 
HETATM   37  H2  UNL     1      -7.128   2.228  64.694  1.00  0.00     0.000 HD 
ENDBRANCH  28  33
ENDBRANCH  24  25
ENDBRANCH   5  21
BRANCH   5  38
HETATM   38  O   UNL     1      -8.051   6.413  72.104  1.00  0.00    -0.107 OA 
HETATM   39  C   UNL     1      -7.439   7.487  72.818  1.00  0.00    -0.080 C  
ENDBRANCH   5  38
TORSDOF 7
ENDMDL
MODEL       96
REMARK 921   NORMALIZED FREE ENERGY PREDICTED BY IDOCK:   -4.24 KCAL/MOL
REMARK 922        TOTAL FREE ENERGY PREDICTED BY IDOCK:   -7.43 KCAL/MOL
REMARK 923 INTER-LIGAND FREE ENERGY PREDICTED BY IDOCK:   -6.86 KCAL/MOL
REMARK 924 INTRA-LIGAND FREE ENERGY PREDICTED BY IDOCK:   -0.57 KCAL/MOL
REMARK 927      BINDING AFFINITY PREDICTED BY RF-SCORE:    0.00 PKD
ROOT
HETATM    1  C   UNL     1      -7.143   8.629  67.391  1.00  0.00    -0.080 C  
HETATM    2  S   UNL     1      -7.720   8.405  69.095  1.00  0.00    -0.093 SA 
HETATM    3  C   UNL     1      -7.206   6.670  69.155  1.00  0.00    -0.091 C  
HETATM    4  C   UNL     1      -7.671   5.834  67.969  1.00  0.00    -0.096 C  
HETATM    5  C   UNL     1      -7.806   9.826  66.565  1.00  0.00    -0.109 C  
HETATM    6  C   UNL     1      -7.959   6.349  66.735  1.00  0.00    -0.109 C  
HETATM    7  N   UNL     1      -7.865   7.704  66.532  1.00  0.00    -0.103 N  
HETATM    8  C   UNL     1      -8.414   5.419  65.615  1.00  0.00    -0.138 C  
HETATM    9  O   UNL     1      -8.521   4.208  65.751  1.00  0.00    -0.109 OA 
HETATM   10  O   UNL     1      -8.643   5.950  64.405  1.00  0.00    -0.047 OA 
HETATM   11  O   UNL     1      -8.637   8.432  64.476  1.00  0.00    -0.114 OA 
HETATM   12  C   UNL     1      -8.202   8.612  65.593  1.00  0.00    -0.123 C  
ENDROOT
BRANCH   4  13
HETATM   13  C   UNL     1      -7.852   4.369  68.379  1.00  0.00    -0.079 C  
BRANCH  13  14
HETATM   14  S   UNL     1      -9.587   4.015  68.781  1.00  0.00    -0.084 SA 
BRANCH  14  15
HETATM   15  C   UNL     1      -9.673   4.693  70.369  1.00  0.00    -0.222 A  
HETATM   16  N   UNL     1      -8.946   4.335  71.402  1.00  0.00    -0.115 NA 
HETATM   17  C   UNL     1     -11.529   6.397  70.019  1.00  0.00    -0.428 C  
HETATM   18  N   UNL     1      -9.397   5.092  72.459  1.00  0.00    -0.135 NA 
HETATM   19  N   UNL     1     -10.548   5.663  70.768  1.00  0.00    -0.263 NA 
HETATM   20  N   UNL     1     -10.372   5.907  72.080  1.00  0.00    -0.195 NA 
ENDBRANCH  14  15
ENDBRANCH  13  14
ENDBRANCH   4  13
BRANCH   5  21
HETATM   21  N   UNL     1      -8.896  10.531  67.299  1.00  0.00    -0.136 N  
HETATM   22  O   UNL     1     -10.081  11.202  65.483  1.00  0.00    -0.234 OA 
HETATM   23  H   UNL     1      -8.852  10.529  68.317  1.00  0.00     0.000 HD 
HETATM   24  C   UNL     1      -9.960  11.187  66.712  1.00  0.00    -0.208 C  
BRANCH  24  25
HETATM   25  C   UNL     1     -10.986  11.866  67.692  1.00  0.00    -0.235 C  
HETATM   26  S   UNL     1     -10.800  11.384  69.456  1.00  0.00    -0.035 SA 
HETATM   27  C   UNL     1     -11.436  13.023  69.497  1.00  0.00    -0.222 C  
HETATM   28  C   UNL     1     -12.293  13.642  70.344  1.00  0.00    -0.415 C  
HETATM   29  S   UNL     1     -10.498  13.578  68.123  1.00  0.00    -0.250 SA 
HETATM   30  O   UNL     1     -13.543  15.589  70.985  1.00  0.00    -0.528 OA 
HETATM   31  C   UNL     1     -12.645  15.073  70.110  1.00  0.00    -0.269 C  
HETATM   32  O   UNL     1     -12.184  15.776  69.226  1.00  0.00    -0.298 OA 
BRANCH  28  33
HETATM   33  C   UNL     1     -12.924  12.895  71.469  1.00  0.00    -0.294 C  
HETATM   34  O   UNL     1     -13.194  11.701  71.336  1.00  0.00    -0.307 OA 
HETATM   35  N   UNL     1     -13.255  13.525  72.620  1.00  0.00    -0.456 N  
HETATM   36  H1  UNL     1     -13.687  13.013  73.390  1.00  0.00     0.000 HD 
HETATM   37  H2  UNL     1     -13.071  14.523  72.720  1.00  0.00     0.000 HD 
ENDBRANCH  28  33
ENDBRANCH  24  25
ENDBRANCH   5  21
BRANCH   5  38
HETATM   38  O   UNL     1      -6.856  10.761  65.982  1.00  0.00    -0.131 OA 
HETATM   39  C   UNL     1      -5.895  11.307  66.884  1.00  0.00    -0.108 C  
ENDBRANCH   5  38
TORSDOF 7
ENDMDL
MODEL       97
REMARK 921   NORMALIZED FREE ENERGY PREDICTED BY IDOCK:   -4.19 KCAL/MOL
REMARK 922        TOTAL FREE ENERGY PREDICTED BY IDOCK:   -7.36 KCAL/MOL
REMARK 923 INTER-LIGAND FREE ENERGY PREDICTED BY IDOCK:   -6.67 KCAL/MOL
REMARK 924 INTRA-LIGAND FREE ENERGY PREDICTED BY IDOCK:   -0.70 KCAL/MOL
REMARK 927      BINDING AFFINITY PREDICTED BY RF-SCORE:    0.00 PKD
ROOT
HETATM    1  C   UNL     1      -7.926   7.558  67.288  1.00  0.00    -0.118 C  
HETATM    2  S   UNL     1      -7.184   8.101  68.851  1.00  0.00    -0.080 SA 
HETATM    3  C   UNL     1      -6.278   6.552  69.084  1.00  0.00    -0.034 C  
HETATM    4  C   UNL     1      -7.125   5.295  68.922  1.00  0.00    -0.061 C  
HETATM    5  C   UNL     1      -9.273   8.295  66.843  1.00  0.00    -0.158 C  
HETATM    6  C   UNL     1      -8.268   5.234  68.172  1.00  0.00    -0.098 C  
HETATM    7  N   UNL     1      -8.722   6.367  67.543  1.00  0.00    -0.114 N  
HETATM    8  C   UNL     1      -9.038   3.922  68.075  1.00  0.00    -0.142 C  
HETATM    9  O   UNL     1      -8.678   2.891  68.624  1.00  0.00    -0.076 OA 
HETATM   10  O   UNL     1     -10.128   3.884  67.294  1.00  0.00    -0.023 OA 
HETATM   11  O   UNL     1     -10.797   6.154  66.541  1.00  0.00    -0.242 OA 
HETATM   12  C   UNL     1      -9.826   6.789  66.890  1.00  0.00    -0.175 C  
ENDROOT
BRANCH   4  13
HETATM   13  C   UNL     1      -6.569   4.154  69.778  1.00  0.00    -0.033 C  
BRANCH  13  14
HETATM   14  S   UNL     1      -7.505   3.986  71.326  1.00  0.00    -0.052 SA 
BRANCH  14  15
HETATM   15  C   UNL     1      -6.816   5.283  72.237  1.00  0.00    -0.077 A  
HETATM   16  N   UNL     1      -5.643   5.274  72.828  1.00  0.00    -0.021 NA 
HETATM   17  C   UNL     1      -8.698   6.986  72.070  1.00  0.00    -0.123 C  
HETATM   18  N   UNL     1      -5.542   6.481  73.481  1.00  0.00    -0.045 NA 
HETATM   19  N   UNL     1      -7.427   6.475  72.502  1.00  0.00    -0.090 NA 
HETATM   20  N   UNL     1      -6.625   7.222  73.285  1.00  0.00    -0.064 NA 
ENDBRANCH  14  15
ENDBRANCH  13  14
ENDBRANCH   4  13
BRANCH   5  21
HETATM   21  N   UNL     1      -9.785   9.269  67.850  1.00  0.00    -0.149 N  
HETATM   22  O   UNL     1      -8.883  11.137  66.929  1.00  0.00    -0.149 OA 
HETATM   23  H   UNL     1     -10.357   8.901  68.609  1.00  0.00     0.000 HD 
HETATM   24  C   UNL     1      -9.548  10.630  67.838  1.00  0.00    -0.162 C  
BRANCH  24  25
HETATM   25  C   UNL     1     -10.188  11.459  69.011  1.00  0.00    -0.117 C  
HETATM   26  S   UNL     1     -10.826  13.113  68.525  1.00  0.00    -0.268 SA 
HETATM   27  C   UNL     1     -11.848  12.607  69.864  1.00  0.00    -0.294 C  
HETATM   28  C   UNL     1     -12.437  13.301  70.867  1.00  0.00    -0.424 C  
HETATM   29  S   UNL     1     -11.901  10.923  69.378  1.00  0.00    -0.322 SA 
HETATM   30  O   UNL     1     -13.775  13.346  72.860  1.00  0.00    -0.623 OA 
HETATM   31  C   UNL     1     -13.265  12.571  71.872  1.00  0.00    -0.392 C  
HETATM   32  O   UNL     1     -13.507  11.375  71.850  1.00  0.00    -0.360 OA 
BRANCH  28  33
HETATM   33  C   UNL     1     -12.224  14.769  71.004  1.00  0.00    -0.329 C  
HETATM   34  O   UNL     1     -12.881  15.551  70.316  1.00  0.00    -0.361 OA 
HETATM   35  N   UNL     1     -11.279  15.258  71.841  1.00  0.00    -0.516 N  
HETATM   36  H1  UNL     1     -11.133  16.263  71.936  1.00  0.00     0.000 HD 
HETATM   37  H2  UNL     1     -10.704  14.612  72.384  1.00  0.00     0.000 HD 
ENDBRANCH  28  33
ENDBRANCH  24  25
ENDBRANCH   5  21
BRANCH   5  38
HETATM   38  O   UNL     1      -9.238   8.868  65.507  1.00  0.00    -0.220 OA 
HETATM   39  C   UNL     1      -8.217   8.366  64.646  1.00  0.00    -0.154 C  
ENDBRANCH   5  38
TORSDOF 7
ENDMDL
MODEL       98
REMARK 921   NORMALIZED FREE ENERGY PREDICTED BY IDOCK:   -4.15 KCAL/MOL
REMARK 922        TOTAL FREE ENERGY PREDICTED BY IDOCK:   -7.31 KCAL/MOL
REMARK 923 INTER-LIGAND FREE ENERGY PREDICTED BY IDOCK:   -6.37 KCAL/MOL
REMARK 924 INTRA-LIGAND FREE ENERGY PREDICTED BY IDOCK:   -0.94 KCAL/MOL
REMARK 927      BINDING AFFINITY PREDICTED BY RF-SCORE:    0.00 PKD
ROOT
HETATM    1  C   UNL     1     -12.429  13.618  66.609  1.00  0.00    -0.240 C  
HETATM    2  S   UNL     1     -11.672  12.838  68.059  1.00  0.00    -0.346 SA 
HETATM    3  C   UNL     1     -11.692  14.367  69.027  1.00  0.00    -0.310 C  
HETATM    4  C   UNL     1     -11.120  15.579  68.302  1.00  0.00    -0.322 C  
HETATM    5  C   UNL     1     -12.185  12.899  65.203  1.00  0.00    -0.470 C  
HETATM    6  C   UNL     1     -11.086  15.711  66.941  1.00  0.00    -0.181 C  
HETATM    7  N   UNL     1     -11.559  14.691  66.154  1.00  0.00    -0.355 N  
HETATM    8  C   UNL     1     -10.493  16.971  66.319  1.00  0.00    -0.258 C  
HETATM    9  O   UNL     1     -10.052  17.901  66.979  1.00  0.00    -0.311 OA 
HETATM   10  O   UNL     1     -10.518  17.089  64.983  1.00  0.00    -0.660 OA 
HETATM   11  O   UNL     1     -11.187  14.964  63.886  1.00  0.00     0.268 OA 
HETATM   12  C   UNL     1     -11.559  14.334  64.852  1.00  0.00    -0.384 C  
ENDROOT
BRANCH   4  13
HETATM   13  C   UNL     1     -10.516  16.572  69.301  1.00  0.00    -0.326 C  
BRANCH  13  14
HETATM   14  S   UNL     1      -9.103  15.838  70.174  1.00  0.00     0.953 SA 
BRANCH  14  15
HETATM   15  C   UNL     1      -8.082  15.461  68.832  1.00  0.00    -0.185 A  
HETATM   16  N   UNL     1      -7.935  14.278  68.282  1.00  0.00    -0.131 NA 
HETATM   17  C   UNL     1      -7.061  17.750  68.400  1.00  0.00    -0.239 C  
HETATM   18  N   UNL     1      -6.985  14.436  67.299  1.00  0.00    -0.196 NA 
HETATM   19  N   UNL     1      -7.254  16.342  68.197  1.00  0.00    -0.139 NA 
HETATM   20  N   UNL     1      -6.566  15.693  67.238  1.00  0.00    -0.276 NA 
ENDBRANCH  14  15
ENDBRANCH  13  14
ENDBRANCH   4  13
BRANCH   5  21
HETATM   21  N   UNL     1     -11.268  11.725  65.279  1.00  0.00    -0.288 N  
HETATM   22  O   UNL     1      -9.975  12.250  63.489  1.00  0.00    -0.388 OA 
HETATM   23  H   UNL     1     -11.422  11.059  66.036  1.00  0.00     0.000 HD 
HETATM   24  C   UNL     1     -10.227  11.466  64.410  1.00  0.00    -0.308 C  
BRANCH  24  25
HETATM   25  C   UNL     1      -9.397  10.159  64.686  1.00  0.00    -0.277 C  
HETATM   26  S   UNL     1      -8.511   9.486  63.222  1.00  0.00    -0.214 SA 
HETATM   27  C   UNL     1      -7.525   9.023  64.603  1.00  0.00    -0.103 C  
HETATM   28  C   UNL     1      -6.777   7.922  64.853  1.00  0.00    -0.051 C  
HETATM   29  S   UNL     1      -7.784  10.522  65.477  1.00  0.00    -0.088 SA 
HETATM   30  O   UNL     1      -5.353   6.664  66.321  1.00  0.00    -0.016 OA 
HETATM   31  C   UNL     1      -6.037   7.821  66.146  1.00  0.00    -0.038 C  
HETATM   32  O   UNL     1      -6.004   8.684  67.008  1.00  0.00    -0.051 OA 
BRANCH  28  33
HETATM   33  C   UNL     1      -6.729   6.796  63.879  1.00  0.00    -0.048 C  
HETATM   34  O   UNL     1      -7.588   5.914  63.919  1.00  0.00    -0.072 OA 
HETATM   35  N   UNL     1      -5.722   6.698  62.980  1.00  0.00    -0.034 N  
HETATM   36  H1  UNL     1      -5.689   5.927  62.313  1.00  0.00     0.000 HD 
HETATM   37  H2  UNL     1      -4.986   7.404  62.970  1.00  0.00     0.000 HD 
ENDBRANCH  28  33
ENDBRANCH  24  25
ENDBRANCH   5  21
BRANCH   5  38
HETATM   38  O   UNL     1     -13.397  12.588  64.461  1.00  0.00    -0.780 OA 
HETATM   39  C   UNL     1     -13.252  11.628  63.415  1.00  0.00     0.495 C  
ENDBRANCH   5  38
TORSDOF 7
ENDMDL
MODEL       99
REMARK 921   NORMALIZED FREE ENERGY PREDICTED BY IDOCK:   -4.15 KCAL/MOL
REMARK 922        TOTAL FREE ENERGY PREDICTED BY IDOCK:   -7.30 KCAL/MOL
REMARK 923 INTER-LIGAND FREE ENERGY PREDICTED BY IDOCK:   -6.87 KCAL/MOL
REMARK 924 INTRA-LIGAND FREE ENERGY PREDICTED BY IDOCK:   -0.43 KCAL/MOL
REMARK 927      BINDING AFFINITY PREDICTED BY RF-SCORE:    0.00 PKD
ROOT
HETATM    1  C   UNL     1     -10.345   6.549  68.879  1.00  0.00    -0.196 C  
HETATM    2  S   UNL     1     -11.149   6.540  67.254  1.00  0.00    -0.246 SA 
HETATM    3  C   UNL     1     -10.475   4.920  66.810  1.00  0.00    -0.182 C  
HETATM    4  C   UNL     1      -8.973   4.780  67.030  1.00  0.00    -0.111 C  
HETATM    5  C   UNL     1     -10.120   7.980  69.555  1.00  0.00    -0.196 C  
HETATM    6  C   UNL     1      -8.261   5.517  67.937  1.00  0.00    -0.100 C  
HETATM    7  N   UNL     1      -8.906   6.472  68.683  1.00  0.00    -0.122 N  
HETATM    8  C   UNL     1      -6.760   5.293  68.079  1.00  0.00    -0.055 C  
HETATM    9  O   UNL     1      -6.141   4.461  67.430  1.00  0.00    -0.026 OA 
HETATM   10  O   UNL     1      -6.100   5.998  69.009  1.00  0.00    -0.028 OA 
HETATM   11  O   UNL     1      -7.514   7.800  69.969  1.00  0.00    -0.077 OA 
HETATM   12  C   UNL     1      -8.593   7.490  69.513  1.00  0.00    -0.133 C  
ENDROOT
BRANCH   4  13
HETATM   13  C   UNL     1      -8.373   3.774  66.043  1.00  0.00    -0.109 C  
BRANCH  13  14
HETATM   14  S   UNL     1      -8.608   4.325  64.329  1.00  0.00    -0.127 SA 
BRANCH  14  15
HETATM   15  C   UNL     1      -7.220   5.338  64.144  1.00  0.00    -0.051 A  
HETATM   16  N   UNL     1      -6.036   4.958  63.723  1.00  0.00    -0.021 NA 
HETATM   17  C   UNL     1      -8.186   7.555  64.934  1.00  0.00    -0.083 C  
HETATM   18  N   UNL     1      -5.234   6.073  63.797  1.00  0.00    -0.017 NA 
HETATM   19  N   UNL     1      -7.163   6.666  64.460  1.00  0.00    -0.064 NA 
HETATM   20  N   UNL     1      -5.914   7.121  64.243  1.00  0.00    -0.036 NA 
ENDBRANCH  14  15
ENDBRANCH  13  14
ENDBRANCH   4  13
BRANCH   5  21
HETATM   21  N   UNL     1     -10.521   9.125  68.687  1.00  0.00    -0.229 N  
HETATM   22  O   UNL     1      -8.666  10.393  69.007  1.00  0.00    -0.149 OA 
HETATM   23  H   UNL     1     -11.420   9.058  68.210  1.00  0.00     0.000 HD 
HETATM   24  C   UNL     1      -9.775  10.267  68.476  1.00  0.00    -0.161 C  
BRANCH  24  25
HETATM   25  C   UNL     1     -10.406  11.346  67.522  1.00  0.00    -0.195 C  
HETATM   26  S   UNL     1      -9.209  12.559  66.832  1.00  0.00    -0.213 SA 
HETATM   27  C   UNL     1     -10.466  12.415  65.610  1.00  0.00    -0.261 C  
HETATM   28  C   UNL     1     -11.005  13.316  64.755  1.00  0.00    -0.365 C  
HETATM   29  S   UNL     1     -10.691  10.690  65.835  1.00  0.00     0.044 SA 
HETATM   30  O   UNL     1     -12.585  13.862  63.031  1.00  0.00    -0.694 OA 
HETATM   31  C   UNL     1     -12.079  12.878  63.815  1.00  0.00    -0.508 C  
HETATM   32  O   UNL     1     -12.500  11.738  63.708  1.00  0.00    -0.421 OA 
BRANCH  28  33
HETATM   33  C   UNL     1     -10.576  14.743  64.781  1.00  0.00    -0.328 C  
HETATM   34  O   UNL     1      -9.624  15.084  65.483  1.00  0.00    -0.313 OA 
HETATM   35  N   UNL     1     -11.253  15.684  64.082  1.00  0.00    -0.675 N  
HETATM   36  H1  UNL     1     -10.959  16.660  64.100  1.00  0.00     0.000 HD 
HETATM   37  H2  UNL     1     -12.068  15.413  63.531  1.00  0.00     0.000 HD 
ENDBRANCH  28  33
ENDBRANCH  24  25
ENDBRANCH   5  21
BRANCH   5  38
HETATM   38  O   UNL     1     -10.661   8.108  70.900  1.00  0.00    -0.215 OA 
HETATM   39  C   UNL     1     -12.075   8.284  70.982  1.00  0.00    -0.208 C  
ENDBRANCH   5  38
TORSDOF 7
ENDMDL
MODEL      100
REMARK 921   NORMALIZED FREE ENERGY PREDICTED BY IDOCK:   -4.09 KCAL/MOL
REMARK 922        TOTAL FREE ENERGY PREDICTED BY IDOCK:   -7.22 KCAL/MOL
REMARK 923 INTER-LIGAND FREE ENERGY PREDICTED BY IDOCK:   -5.97 KCAL/MOL
REMARK 924 INTRA-LIGAND FREE ENERGY PREDICTED BY IDOCK:   -1.24 KCAL/MOL
REMARK 927      BINDING AFFINITY PREDICTED BY RF-SCORE:    0.00 PKD
ROOT
HETATM    1  C   UNL     1      -7.486  11.141  66.560  1.00  0.00    -0.131 C  
HETATM    2  S   UNL     1      -6.602   9.567  66.733  1.00  0.00    -0.068 SA 
HETATM    3  C   UNL     1      -6.258   9.440  64.961  1.00  0.00    -0.068 C  
HETATM    4  C   UNL     1      -7.475   9.652  64.067  1.00  0.00    -0.128 C  
HETATM    5  C   UNL     1      -8.514  11.514  67.725  1.00  0.00    -0.137 C  
HETATM    6  C   UNL     1      -8.575  10.379  64.431  1.00  0.00    -0.179 C  
HETATM    7  N   UNL     1      -8.630  10.934  65.686  1.00  0.00    -0.178 N  
HETATM    8  C   UNL     1      -9.737  10.531  63.455  1.00  0.00    -0.319 C  
HETATM    9  O   UNL     1      -9.736  10.047  62.332  1.00  0.00    -0.197 OA 
HETATM   10  O   UNL     1     -10.780  11.288  63.826  1.00  0.00    -0.370 OA 
HETATM   11  O   UNL     1     -10.661  11.900  66.230  1.00  0.00    -0.251 OA 
HETATM   12  C   UNL     1      -9.534  11.538  66.487  1.00  0.00    -0.204 C  
ENDROOT
BRANCH   4  13
HETATM   13  C   UNL     1      -7.325   8.872  62.757  1.00  0.00    -0.096 C  
BRANCH  13  14
HETATM   14  S   UNL     1      -6.250   7.426  62.980  1.00  0.00    -0.054 SA 
BRANCH  14  15
HETATM   15  C   UNL     1      -7.433   6.226  63.363  1.00  0.00    -0.079 A  
HETATM   16  N   UNL     1      -8.338   5.743  62.543  1.00  0.00    -0.101 NA 
HETATM   17  C   UNL     1      -6.873   5.825  65.812  1.00  0.00    -0.060 C  
HETATM   18  N   UNL     1      -9.095   4.870  63.291  1.00  0.00    -0.039 NA 
HETATM   19  N   UNL     1      -7.611   5.656  64.592  1.00  0.00    -0.079 NA 
HETATM   20  N   UNL     1      -8.656   4.808  64.541  1.00  0.00    -0.140 NA 
ENDBRANCH  14  15
ENDBRANCH  13  14
ENDBRANCH   4  13
BRANCH   5  21
HETATM   21  N   UNL     1      -8.672  10.444  68.752  1.00  0.00    -0.137 N  
HETATM   22  O   UNL     1      -6.828  10.945  69.978  1.00  0.00    -0.156 OA 
HETATM   23  H   UNL     1      -9.481   9.830  68.668  1.00  0.00     0.000 HD 
HETATM   24  C   UNL     1      -7.812  10.217  69.809  1.00  0.00    -0.139 C  
BRANCH  24  25
HETATM   25  C   UNL     1      -8.181   9.023  70.763  1.00  0.00    -0.181 C  
HETATM   26  S   UNL     1      -9.980   8.815  71.075  1.00  0.00    -0.258 SA 
HETATM   27  C   UNL     1      -9.306   7.195  71.200  1.00  0.00    -0.157 C  
HETATM   28  C   UNL     1      -9.624   6.140  71.988  1.00  0.00    -0.164 C  
HETATM   29  S   UNL     1      -8.159   7.412  69.891  1.00  0.00    -0.128 SA 
HETATM   30  O   UNL     1      -9.214   3.888  72.716  1.00  0.00    -0.109 OA 
HETATM   31  C   UNL     1      -8.850   4.870  71.854  1.00  0.00    -0.128 C  
HETATM   32  O   UNL     1      -7.960   4.669  71.045  1.00  0.00    -0.078 OA 
BRANCH  28  33
HETATM   33  C   UNL     1     -10.695   6.252  73.017  1.00  0.00    -0.253 C  
HETATM   34  O   UNL     1     -10.557   7.026  73.964  1.00  0.00    -0.341 OA 
HETATM   35  N   UNL     1     -11.802   5.475  72.954  1.00  0.00    -0.529 N  
HETATM   36  H1  UNL     1     -12.536   5.552  73.658  1.00  0.00     0.000 HD 
HETATM   37  H2  UNL     1     -11.903   4.803  72.193  1.00  0.00     0.000 HD 
ENDBRANCH  28  33
ENDBRANCH  24  25
ENDBRANCH   5  21
BRANCH   5  38
HETATM   38  O   UNL     1      -8.295  12.817  68.333  1.00  0.00    -0.159 OA 
HETATM   39  C   UNL     1      -7.317  13.639  67.697  1.00  0.00    -0.176 C  
ENDBRANCH   5  38
TORSDOF 7
ENDMDL
MODEL      101
REMARK 921   NORMALIZED FREE ENERGY PREDICTED BY IDOCK:   -4.07 KCAL/MOL
REMARK 922        TOTAL FREE ENERGY PREDICTED BY IDOCK:   -7.20 KCAL/MOL
REMARK 923 INTER-LIGAND FREE ENERGY PREDICTED BY IDOCK:   -7.23 KCAL/MOL
REMARK 924 INTRA-LIGAND FREE ENERGY PREDICTED BY IDOCK:    0.03 KCAL/MOL
REMARK 927      BINDING AFFINITY PREDICTED BY RF-SCORE:    0.00 PKD
ROOT
HETATM    1  C   UNL     1     -11.884  14.392  67.660  1.00  0.00    -0.378 C  
HETATM    2  S   UNL     1     -11.598  14.715  69.421  1.00  0.00    -0.324 SA 
HETATM    3  C   UNL     1     -11.533  16.509  69.192  1.00  0.00    -0.084 C  
HETATM    4  C   UNL     1     -10.609  16.968  68.070  1.00  0.00    -0.373 C  
HETATM    5  C   UNL     1     -11.494  12.936  67.129  1.00  0.00    -0.336 C  
HETATM    6  C   UNL     1     -10.274  16.196  66.991  1.00  0.00    -0.285 C  
HETATM    7  N   UNL     1     -10.756  14.914  66.905  1.00  0.00    -0.302 N  
HETATM    8  C   UNL     1      -9.343  16.758  65.922  1.00  0.00    -0.127 C  
HETATM    9  O   UNL     1      -8.882  17.890  65.960  1.00  0.00    -0.492 OA 
HETATM   10  O   UNL     1      -9.071  15.992  64.854  1.00  0.00     0.803 OA 
HETATM   11  O   UNL     1      -9.882  13.665  65.163  1.00  0.00    -0.213 OA 
HETATM   12  C   UNL     1     -10.555  13.805  66.161  1.00  0.00    -0.291 C  
ENDROOT
BRANCH   4  13
HETATM   13  C   UNL     1     -10.051  18.364  68.366  1.00  0.00    -0.390 C  
BRANCH  13  14
HETATM   14  S   UNL     1      -8.509  18.259  69.320  1.00  0.00     0.408 SA 
BRANCH  14  15
HETATM   15  C   UNL     1      -7.472  19.219  68.325  1.00  0.00    -0.300 A  
HETATM   16  N   UNL     1      -7.632  20.491  68.044  1.00  0.00    -0.159 NA 
HETATM   17  C   UNL     1      -5.758  17.462  67.655  1.00  0.00    -0.132 C  
HETATM   18  N   UNL     1      -6.615  20.815  67.176  1.00  0.00    -0.280 NA 
HETATM   19  N   UNL     1      -6.370  18.761  67.660  1.00  0.00    -0.203 NA 
HETATM   20  N   UNL     1      -5.837  19.767  66.939  1.00  0.00    -0.173 NA 
ENDBRANCH  14  15
ENDBRANCH  13  14
ENDBRANCH   4  13
BRANCH   5  21
HETATM   21  N   UNL     1     -10.845  12.074  68.160  1.00  0.00    -0.210 N  
HETATM   22  O   UNL     1     -12.732  11.074  68.930  1.00  0.00    -0.216 OA 
HETATM   23  H   UNL     1      -9.831  12.132  68.246  1.00  0.00     0.000 HD 
HETATM   24  C   UNL     1     -11.506  11.205  69.006  1.00  0.00    -0.296 C  
BRANCH  24  25
HETATM   25  C   UNL     1     -10.609  10.403  70.018  1.00  0.00    -0.229 C  
HETATM   26  S   UNL     1     -11.543   9.410  71.253  1.00  0.00    -0.393 SA 
HETATM   27  C   UNL     1     -10.038   8.534  71.009  1.00  0.00    -0.205 C  
HETATM   28  C   UNL     1      -9.263   7.810  71.852  1.00  0.00    -0.182 C  
HETATM   29  S   UNL     1      -9.960   8.854  69.286  1.00  0.00    -0.198 SA 
HETATM   30  O   UNL     1      -7.289   6.506  72.263  1.00  0.00    -0.088 OA 
HETATM   31  C   UNL     1      -8.018   7.171  71.333  1.00  0.00    -0.102 C  
HETATM   32  O   UNL     1      -7.642   7.201  70.173  1.00  0.00    -0.087 OA 
BRANCH  28  33
HETATM   33  C   UNL     1      -9.613   7.692  73.295  1.00  0.00    -0.268 C  
HETATM   34  O   UNL     1     -10.771   7.436  73.626  1.00  0.00    -0.371 OA 
HETATM   35  N   UNL     1      -8.685   7.914  74.255  1.00  0.00    -0.419 N  
HETATM   36  H1  UNL     1      -8.925   7.833  75.243  1.00  0.00     0.000 HD 
HETATM   37  H2  UNL     1      -7.733   8.166  73.987  1.00  0.00     0.000 HD 
ENDBRANCH  28  33
ENDBRANCH  24  25
ENDBRANCH   5  21
BRANCH   5  38
HETATM   38  O   UNL     1     -12.565  12.235  66.437  1.00  0.00    -0.109 OA 
HETATM   39  C   UNL     1     -12.598  12.404  65.020  1.00  0.00    -0.223 C  
ENDBRANCH   5  38
TORSDOF 7
ENDMDL
MODEL      102
REMARK 921   NORMALIZED FREE ENERGY PREDICTED BY IDOCK:   -4.00 KCAL/MOL
REMARK 922        TOTAL FREE ENERGY PREDICTED BY IDOCK:   -7.09 KCAL/MOL
REMARK 923 INTER-LIGAND FREE ENERGY PREDICTED BY IDOCK:   -6.29 KCAL/MOL
REMARK 924 INTRA-LIGAND FREE ENERGY PREDICTED BY IDOCK:   -0.80 KCAL/MOL
REMARK 927      BINDING AFFINITY PREDICTED BY RF-SCORE:    0.00 PKD
ROOT
HETATM    1  C   UNL     1     -10.594  14.515  68.993  1.00  0.00    -0.247 C  
HETATM    2  S   UNL     1      -8.809  14.286  69.212  1.00  0.00     0.409 SA 
HETATM    3  C   UNL     1      -8.402  15.880  68.459  1.00  0.00    -0.182 C  
HETATM    4  C   UNL     1      -9.081  16.135  67.118  1.00  0.00    -0.218 C  
HETATM    5  C   UNL     1     -11.487  13.190  68.980  1.00  0.00    -0.296 C  
HETATM    6  C   UNL     1     -10.258  15.554  66.734  1.00  0.00    -0.280 C  
HETATM    7  N   UNL     1     -10.871  14.656  67.573  1.00  0.00    -0.279 N  
HETATM    8  C   UNL     1     -10.853  15.883  65.369  1.00  0.00    -0.349 C  
HETATM    9  O   UNL     1     -10.339  16.669  64.586  1.00  0.00    -0.233 OA 
HETATM   10  O   UNL     1     -12.032  15.333  65.043  1.00  0.00    -0.179 OA 
HETATM   11  O   UNL     1     -12.703  13.574  66.663  1.00  0.00    -0.173 OA 
HETATM   12  C   UNL     1     -11.883  13.763  67.535  1.00  0.00    -0.387 C  
ENDROOT
BRANCH   4  13
HETATM   13  C   UNL     1      -8.222  17.052  66.242  1.00  0.00    -0.287 C  
BRANCH  13  14
HETATM   14  S   UNL     1      -6.522  17.148  66.873  1.00  0.00    -0.223 SA 
BRANCH  14  15
HETATM   15  C   UNL     1      -6.564  18.706  67.620  1.00  0.00    -0.203 A  
HETATM   16  N   UNL     1      -6.164  18.990  68.838  1.00  0.00    -0.239 NA 
HETATM   17  C   UNL     1      -7.600  20.068  65.737  1.00  0.00    -0.269 C  
HETATM   18  N   UNL     1      -6.442  20.325  69.023  1.00  0.00    -0.305 NA 
HETATM   19  N   UNL     1      -7.066  19.842  67.051  1.00  0.00    -0.211 NA 
HETATM   20  N   UNL     1      -6.990  20.854  67.937  1.00  0.00    -0.258 NA 
ENDBRANCH  14  15
ENDBRANCH  13  14
ENDBRANCH   4  13
BRANCH   5  21
HETATM   21  N   UNL     1     -10.693  11.929  69.049  1.00  0.00    -0.350 N  
HETATM   22  O   UNL     1     -12.305  10.530  68.279  1.00  0.00     0.027 OA 
HETATM   23  H   UNL     1      -9.730  12.000  69.377  1.00  0.00     0.000 HD 
HETATM   24  C   UNL     1     -11.155  10.674  68.706  1.00  0.00    -0.265 C  
BRANCH  24  25
HETATM   25  C   UNL     1     -10.136   9.488  68.868  1.00  0.00    -0.188 C  
HETATM   26  S   UNL     1      -8.761   9.483  67.648  1.00  0.00    -0.121 SA 
HETATM   27  C   UNL     1      -8.090   8.735  69.091  1.00  0.00    -0.118 C  
HETATM   28  C   UNL     1      -7.190   7.737  69.260  1.00  0.00    -0.081 C  
HETATM   29  S   UNL     1      -8.925   9.798  70.208  1.00  0.00    -0.052 SA 
HETATM   30  O   UNL     1      -5.940   6.284  70.707  1.00  0.00    -0.028 OA 
HETATM   31  C   UNL     1      -6.813   7.319  70.643  1.00  0.00    -0.053 C  
HETATM   32  O   UNL     1      -7.218   7.838  71.670  1.00  0.00    -0.061 OA 
BRANCH  28  33
HETATM   33  C   UNL     1      -6.616   7.022  68.085  1.00  0.00    -0.055 C  
HETATM   34  O   UNL     1      -5.741   7.561  67.407  1.00  0.00    -0.032 OA 
HETATM   35  N   UNL     1      -7.082   5.804  67.719  1.00  0.00    -0.069 N  
HETATM   36  H1  UNL     1      -6.689   5.315  66.915  1.00  0.00     0.000 HD 
HETATM   37  H2  UNL     1      -7.835   5.371  68.254  1.00  0.00     0.000 HD 
ENDBRANCH  28  33
ENDBRANCH  24  25
ENDBRANCH   5  21
BRANCH   5  38
HETATM   38  O   UNL     1     -12.586  13.189  69.934  1.00  0.00    -0.080 OA 
HETATM   39  C   UNL     1     -12.637  14.308  70.818  1.00  0.00    -0.356 C  
ENDBRANCH   5  38
TORSDOF 7
ENDMDL
MODEL      103
REMARK 921   NORMALIZED FREE ENERGY PREDICTED BY IDOCK:   -3.95 KCAL/MOL
REMARK 922        TOTAL FREE ENERGY PREDICTED BY IDOCK:   -7.02 KCAL/MOL
REMARK 923 INTER-LIGAND FREE ENERGY PREDICTED BY IDOCK:   -6.44 KCAL/MOL
REMARK 924 INTRA-LIGAND FREE ENERGY PREDICTED BY IDOCK:   -0.58 KCAL/MOL
REMARK 927      BINDING AFFINITY PREDICTED BY RF-SCORE:    0.00 PKD
ROOT
HETATM    1  C   UNL     1      -7.832   8.049  67.815  1.00  0.00    -0.126 C  
HETATM    2  S   UNL     1      -7.250   8.871  69.322  1.00  0.00    -0.067 SA 
HETATM    3  C   UNL     1      -6.811   7.313  70.133  1.00  0.00    -0.059 C  
HETATM    4  C   UNL     1      -7.906   6.254  70.096  1.00  0.00    -0.106 C  
HETATM    5  C   UNL     1      -8.858   8.870  66.905  1.00  0.00    -0.127 C  
HETATM    6  C   UNL     1      -8.886   6.199  69.142  1.00  0.00    -0.123 C  
HETATM    7  N   UNL     1      -8.931   7.163  68.166  1.00  0.00    -0.128 N  
HETATM    8  C   UNL     1      -9.932   5.091  69.198  1.00  0.00    -0.196 C  
HETATM    9  O   UNL     1      -9.938   4.216  70.052  1.00  0.00    -0.213 OA 
HETATM   10  O   UNL     1     -10.850   5.038  68.222  1.00  0.00     0.168 OA 
HETATM   11  O   UNL     1     -10.795   7.072  66.799  1.00  0.00    -0.318 OA 
HETATM   12  C   UNL     1      -9.769   7.581  67.194  1.00  0.00    -0.173 C  
ENDROOT
BRANCH   4  13
HETATM   13  C   UNL     1      -7.804   5.328  71.312  1.00  0.00    -0.107 C  
BRANCH  13  14
HETATM   14  S   UNL     1      -8.906   5.881  72.645  1.00  0.00    -0.120 SA 
BRANCH  14  15
HETATM   15  C   UNL     1      -7.937   7.133  73.338  1.00  0.00    -0.103 A  
HETATM   16  N   UNL     1      -8.146   8.424  73.224  1.00  0.00    -0.363 NA 
HETATM   17  C   UNL     1      -6.153   5.726  74.480  1.00  0.00    -0.064 C  
HETATM   18  N   UNL     1      -7.099   9.034  73.877  1.00  0.00    -0.335 NA 
HETATM   19  N   UNL     1      -6.793   6.940  74.059  1.00  0.00    -0.078 NA 
HETATM   20  N   UNL     1      -6.271   8.135  74.392  1.00  0.00    -0.106 NA 
ENDBRANCH  14  15
ENDBRANCH  13  14
ENDBRANCH   4  13
BRANCH   5  21
HETATM   21  N   UNL     1      -9.272  10.176  67.494  1.00  0.00    -0.137 N  
HETATM   22  O   UNL     1      -7.566  11.421  66.663  1.00  0.00    -0.148 OA 
HETATM   23  H   UNL     1     -10.126  10.189  68.051  1.00  0.00     0.000 HD 
HETATM   24  C   UNL     1      -8.593  11.370  67.348  1.00  0.00    -0.142 C  
BRANCH  24  25
HETATM   25  C   UNL     1      -9.218  12.620  68.068  1.00  0.00    -0.208 C  
HETATM   26  S   UNL     1      -9.665  14.009  66.950  1.00  0.00    -0.280 SA 
HETATM   27  C   UNL     1     -10.807  14.113  68.284  1.00  0.00    -0.247 C  
HETATM   28  C   UNL     1     -11.385  15.171  68.902  1.00  0.00    -0.314 C  
HETATM   29  S   UNL     1     -10.993  12.377  68.453  1.00  0.00    -0.256 SA 
HETATM   30  O   UNL     1     -12.826  16.051  70.609  1.00  0.00    -0.376 OA 
HETATM   31  C   UNL     1     -12.335  14.929  70.027  1.00  0.00    -0.312 C  
HETATM   32  O   UNL     1     -12.689  13.832  70.428  1.00  0.00    -0.276 OA 
BRANCH  28  33
HETATM   33  C   UNL     1     -11.041  16.565  68.506  1.00  0.00    -0.335 C  
HETATM   34  O   UNL     1     -11.280  16.954  67.362  1.00  0.00    -0.049 OA 
HETATM   35  N   UNL     1     -10.418  17.399  69.371  1.00  0.00    -0.342 N  
HETATM   36  H1  UNL     1     -10.183  18.354  69.100  1.00  0.00     0.000 HD 
HETATM   37  H2  UNL     1     -10.181  17.068  70.307  1.00  0.00     0.000 HD 
ENDBRANCH  28  33
ENDBRANCH  24  25
ENDBRANCH   5  21
BRANCH   5  38
HETATM   38  O   UNL     1      -8.458   9.008  65.513  1.00  0.00    -0.127 OA 
HETATM   39  C   UNL     1      -8.017   7.811  64.875  1.00  0.00    -0.139 C  
ENDBRANCH   5  38
TORSDOF 7
ENDMDL
MODEL      104
REMARK 921   NORMALIZED FREE ENERGY PREDICTED BY IDOCK:   -3.89 KCAL/MOL
REMARK 922        TOTAL FREE ENERGY PREDICTED BY IDOCK:   -6.94 KCAL/MOL
REMARK 923 INTER-LIGAND FREE ENERGY PREDICTED BY IDOCK:   -5.97 KCAL/MOL
REMARK 924 INTRA-LIGAND FREE ENERGY PREDICTED BY IDOCK:   -0.97 KCAL/MOL
REMARK 927      BINDING AFFINITY PREDICTED BY RF-SCORE:    0.00 PKD
ROOT
HETATM    1  C   UNL     1      -6.767   7.177  68.924  1.00  0.00    -0.060 C  
HETATM    2  S   UNL     1      -6.814   8.166  70.442  1.00  0.00    -0.037 SA 
HETATM    3  C   UNL     1      -6.905   6.712  71.516  1.00  0.00    -0.066 C  
HETATM    4  C   UNL     1      -7.969   5.697  71.113  1.00  0.00    -0.112 C  
HETATM    5  C   UNL     1      -7.228   7.910  67.580  1.00  0.00    -0.088 C  
HETATM    6  C   UNL     1      -8.448   5.555  69.840  1.00  0.00    -0.116 C  
HETATM    7  N   UNL     1      -7.985   6.385  68.850  1.00  0.00    -0.109 N  
HETATM    8  C   UNL     1      -9.511   4.503  69.547  1.00  0.00    -0.174 C  
HETATM    9  O   UNL     1      -9.960   3.747  70.397  1.00  0.00    -0.137 OA 
HETATM   10  O   UNL     1      -9.925   4.357  68.279  1.00  0.00    -0.101 OA 
HETATM   11  O   UNL     1      -9.086   6.186  66.824  1.00  0.00    -0.125 OA 
HETATM   12  C   UNL     1      -8.286   6.704  67.573  1.00  0.00    -0.122 C  
ENDROOT
BRANCH   4  13
HETATM   13  C   UNL     1      -8.479   4.934  72.340  1.00  0.00    -0.120 C  
BRANCH  13  14
HETATM   14  S   UNL     1      -9.264   6.061  73.527  1.00  0.00    -0.131 SA 
BRANCH  14  15
HETATM   15  C   UNL     1     -10.714   6.445  72.667  1.00  0.00    -0.234 A  
HETATM   16  N   UNL     1     -11.758   5.662  72.526  1.00  0.00    -0.265 NA 
HETATM   17  C   UNL     1     -10.129   8.778  71.840  1.00  0.00    -0.339 C  
HETATM   18  N   UNL     1     -12.637   6.349  71.721  1.00  0.00    -0.202 NA 
HETATM   19  N   UNL     1     -10.941   7.602  71.978  1.00  0.00    -0.236 NA 
HETATM   20  N   UNL     1     -12.148   7.536  71.384  1.00  0.00    -0.314 NA 
ENDBRANCH  14  15
ENDBRANCH  13  14
ENDBRANCH   4  13
BRANCH   5  21
HETATM   21  N   UNL     1      -7.735   9.296  67.795  1.00  0.00    -0.089 N  
HETATM   22  O   UNL     1      -9.941   8.780  67.926  1.00  0.00    -0.169 OA 
HETATM   23  H   UNL     1      -7.045  10.045  67.837  1.00  0.00     0.000 HD 
HETATM   24  C   UNL     1      -9.062   9.648  67.942  1.00  0.00    -0.125 C  
BRANCH  24  25
HETATM   25  C   UNL     1      -9.359  11.178  68.153  1.00  0.00    -0.176 C  
HETATM   26  S   UNL     1      -8.000  12.303  67.636  1.00  0.00    -0.174 SA 
HETATM   27  C   UNL     1      -9.474  13.230  67.395  1.00  0.00    -0.218 C  
HETATM   28  C   UNL     1      -9.749  14.549  67.537  1.00  0.00    -0.211 C  
HETATM   29  S   UNL     1     -10.413  11.864  66.821  1.00  0.00    -0.228 SA 
HETATM   30  O   UNL     1     -11.314  16.369  67.462  1.00  0.00    -0.100 OA 
HETATM   31  C   UNL     1     -11.128  15.043  67.248  1.00  0.00    -0.334 C  
HETATM   32  O   UNL     1     -12.050  14.357  66.838  1.00  0.00    -0.425 OA 
BRANCH  28  33
HETATM   33  C   UNL     1      -8.708  15.495  68.028  1.00  0.00    -0.163 C  
HETATM   34  O   UNL     1      -7.804  15.856  67.274  1.00  0.00    -0.152 OA 
HETATM   35  N   UNL     1      -8.711  15.926  69.311  1.00  0.00    -0.257 N  
HETATM   36  H1  UNL     1      -7.999  16.574  69.647  1.00  0.00     0.000 HD 
HETATM   37  H2  UNL     1      -9.436  15.598  69.951  1.00  0.00     0.000 HD 
ENDBRANCH  28  33
ENDBRANCH  24  25
ENDBRANCH   5  21
BRANCH   5  38
HETATM   38  O   UNL     1      -6.261   7.852  66.494  1.00  0.00    -0.044 OA 
HETATM   39  C   UNL     1      -5.199   6.915  66.664  1.00  0.00    -0.017 C  
ENDBRANCH   5  38
TORSDOF 7
ENDMDL
MODEL      105
REMARK 921   NORMALIZED FREE ENERGY PREDICTED BY IDOCK:   -3.86 KCAL/MOL
REMARK 922        TOTAL FREE ENERGY PREDICTED BY IDOCK:   -6.89 KCAL/MOL
REMARK 923 INTER-LIGAND FREE ENERGY PREDICTED BY IDOCK:   -6.55 KCAL/MOL
REMARK 924 INTRA-LIGAND FREE ENERGY PREDICTED BY IDOCK:   -0.34 KCAL/MOL
REMARK 927      BINDING AFFINITY PREDICTED BY RF-SCORE:    0.00 PKD
ROOT
HETATM    1  C   UNL     1     -10.293  10.692  67.604  1.00  0.00    -0.209 C  
HETATM    2  S   UNL     1     -10.335  11.272  65.886  1.00  0.00    -0.258 SA 
HETATM    3  C   UNL     1      -9.877   9.654  65.216  1.00  0.00    -0.199 C  
HETATM    4  C   UNL     1      -8.663   9.017  65.882  1.00  0.00    -0.193 C  
HETATM    5  C   UNL     1     -10.087  11.808  68.729  1.00  0.00    -0.140 C  
HETATM    6  C   UNL     1      -8.259   9.291  67.159  1.00  0.00    -0.117 C  
HETATM    7  N   UNL     1      -8.950  10.219  67.899  1.00  0.00    -0.131 N  
HETATM    8  C   UNL     1      -7.030   8.592  67.729  1.00  0.00    -0.075 C  
HETATM    9  O   UNL     1      -6.379   7.766  67.105  1.00  0.00    -0.051 OA 
HETATM   10  O   UNL     1      -6.688   8.848  69.001  1.00  0.00    -0.050 OA 
HETATM   11  O   UNL     1      -7.981  10.754  69.931  1.00  0.00     0.057 OA 
HETATM   12  C   UNL     1      -8.812  10.893  69.061  1.00  0.00    -0.096 C  
ENDROOT
BRANCH   4  13
HETATM   13  C   UNL     1      -7.923   8.106  64.897  1.00  0.00    -0.145 C  
BRANCH  13  14
HETATM   14  S   UNL     1      -8.508   6.392  65.030  1.00  0.00     0.042 SA 
BRANCH  14  15
HETATM   15  C   UNL     1      -7.196   5.565  64.267  1.00  0.00    -0.051 A  
HETATM   16  N   UNL     1      -5.942   5.955  64.250  1.00  0.00    -0.024 NA 
HETATM   17  C   UNL     1      -8.445   3.584  63.274  1.00  0.00    -0.090 C  
HETATM   18  N   UNL     1      -5.272   5.031  63.480  1.00  0.00    -0.009 NA 
HETATM   19  N   UNL     1      -7.304   4.415  63.537  1.00  0.00    -0.053 NA 
HETATM   20  N   UNL     1      -6.095   4.087  63.044  1.00  0.00    -0.017 NA 
ENDBRANCH  14  15
ENDBRANCH  13  14
ENDBRANCH   4  13
BRANCH   5  21
HETATM   21  N   UNL     1      -9.854  13.177  68.182  1.00  0.00    -0.224 N  
HETATM   22  O   UNL     1     -12.022  13.689  67.750  1.00  0.00    -0.363 OA 
HETATM   23  H   UNL     1      -8.891  13.510  68.151  1.00  0.00     0.000 HD 
HETATM   24  C   UNL     1     -10.835  14.028  67.714  1.00  0.00    -0.247 C  
BRANCH  24  25
HETATM   25  C   UNL     1     -10.349  15.424  67.177  1.00  0.00    -0.271 C  
HETATM   26  S   UNL     1     -10.774  16.853  68.253  1.00  0.00    -0.363 SA 
HETATM   27  C   UNL     1      -9.279  17.317  67.451  1.00  0.00    -0.231 C  
HETATM   28  C   UNL     1      -8.821  18.512  67.007  1.00  0.00    -0.278 C  
HETATM   29  S   UNL     1      -8.572  15.713  67.521  1.00  0.00    -0.179 SA 
HETATM   30  O   UNL     1      -7.131  19.815  65.906  1.00  0.00    -0.265 OA 
HETATM   31  C   UNL     1      -7.480  18.584  66.355  1.00  0.00    -0.251 C  
HETATM   32  O   UNL     1      -6.712  17.646  66.219  1.00  0.00    -0.227 OA 
BRANCH  28  33
HETATM   33  C   UNL     1      -9.661  19.737  67.117  1.00  0.00    -0.376 C  
HETATM   34  O   UNL     1     -10.263  19.977  68.164  1.00  0.00    -0.422 OA 
HETATM   35  N   UNL     1      -9.817  20.569  66.059  1.00  0.00    -0.609 N  
HETATM   36  H1  UNL     1     -10.392  21.408  66.134  1.00  0.00     0.000 HD 
HETATM   37  H2  UNL     1      -9.353  20.353  65.177  1.00  0.00     0.000 HD 
ENDBRANCH  28  33
ENDBRANCH  24  25
ENDBRANCH   5  21
BRANCH   5  38
HETATM   38  O   UNL     1     -11.099  11.811  69.774  1.00  0.00    -0.145 OA 
HETATM   39  C   UNL     1     -12.004  10.708  69.759  1.00  0.00    -0.291 C  
ENDBRANCH   5  38
TORSDOF 7
ENDMDL
MODEL      106
REMARK 921   NORMALIZED FREE ENERGY PREDICTED BY IDOCK:   -3.85 KCAL/MOL
REMARK 922        TOTAL FREE ENERGY PREDICTED BY IDOCK:   -6.87 KCAL/MOL
REMARK 923 INTER-LIGAND FREE ENERGY PREDICTED BY IDOCK:   -5.37 KCAL/MOL
REMARK 924 INTRA-LIGAND FREE ENERGY PREDICTED BY IDOCK:   -1.50 KCAL/MOL
REMARK 927      BINDING AFFINITY PREDICTED BY RF-SCORE:    0.00 PKD
ROOT
HETATM    1  C   UNL     1      -7.539   7.547  69.791  1.00  0.00    -0.094 C  
HETATM    2  S   UNL     1      -7.100   8.748  71.076  1.00  0.00    -0.093 SA 
HETATM    3  C   UNL     1      -7.167   7.518  72.402  1.00  0.00    -0.073 C  
HETATM    4  C   UNL     1      -8.433   6.669  72.410  1.00  0.00    -0.117 C  
HETATM    5  C   UNL     1      -8.171   8.138  68.448  1.00  0.00    -0.129 C  
HETATM    6  C   UNL     1      -9.198   6.425  71.303  1.00  0.00    -0.156 C  
HETATM    7  N   UNL     1      -8.847   6.994  70.104  1.00  0.00    -0.145 N  
HETATM    8  C   UNL     1     -10.446   5.557  71.424  1.00  0.00    -0.240 C  
HETATM    9  O   UNL     1     -10.802   5.037  72.471  1.00  0.00    -0.214 OA 
HETATM   10  O   UNL     1     -11.147   5.298  70.310  1.00  0.00    -0.065 OA 
HETATM   11  O   UNL     1     -10.388   6.695  68.402  1.00  0.00    -0.166 OA 
HETATM   12  C   UNL     1      -9.373   7.163  68.872  1.00  0.00    -0.139 C  
ENDROOT
BRANCH   4  13
HETATM   13  C   UNL     1      -8.768   6.211  73.834  1.00  0.00    -0.123 C  
BRANCH  13  14
HETATM   14  S   UNL     1      -7.478   5.109  74.482  1.00  0.00    -0.089 SA 
BRANCH  14  15
HETATM   15  C   UNL     1      -7.917   3.634  73.695  1.00  0.00    -0.079 A  
HETATM   16  N   UNL     1      -8.863   2.807  74.076  1.00  0.00    -0.075 NA 
HETATM   17  C   UNL     1      -6.234   3.637  71.788  1.00  0.00    -0.014 C  
HETATM   18  N   UNL     1      -8.813   1.749  73.198  1.00  0.00    -0.062 NA 
HETATM   19  N   UNL     1      -7.301   3.113  72.594  1.00  0.00    -0.047 NA 
HETATM   20  N   UNL     1      -7.865   1.928  72.288  1.00  0.00    -0.044 NA 
ENDBRANCH  14  15
ENDBRANCH  13  14
ENDBRANCH   4  13
BRANCH   5  21
HETATM   21  N   UNL     1      -8.405   9.611  68.491  1.00  0.00    -0.116 N  
HETATM   22  O   UNL     1     -10.037   9.691  66.916  1.00  0.00    -0.199 OA 
HETATM   23  H   UNL     1      -7.847  10.154  69.149  1.00  0.00     0.000 HD 
HETATM   24  C   UNL     1      -9.315  10.299  67.713  1.00  0.00    -0.144 C  
BRANCH  24  25
HETATM   25  C   UNL     1      -9.381  11.855  67.929  1.00  0.00    -0.187 C  
HETATM   26  S   UNL     1      -9.869  12.819  66.442  1.00  0.00    -0.271 SA 
HETATM   27  C   UNL     1     -10.449  13.765  67.806  1.00  0.00    -0.240 C  
HETATM   28  C   UNL     1     -10.547  15.101  68.008  1.00  0.00    -0.258 C  
HETATM   29  S   UNL     1     -10.934  12.371  68.754  1.00  0.00    -0.239 SA 
HETATM   30  O   UNL     1     -11.111  16.957  69.423  1.00  0.00    -0.192 OA 
HETATM   31  C   UNL     1     -11.095  15.606  69.300  1.00  0.00    -0.293 C  
HETATM   32  O   UNL     1     -11.520  14.909  70.206  1.00  0.00    -0.252 OA 
BRANCH  28  33
HETATM   33  C   UNL     1     -10.065  16.063  66.977  1.00  0.00    -0.271 C  
HETATM   34  O   UNL     1     -10.802  16.380  66.043  1.00  0.00    -0.225 OA 
HETATM   35  N   UNL     1      -8.805  16.556  67.023  1.00  0.00    -0.187 N  
HETATM   36  H1  UNL     1      -8.476  17.215  66.317  1.00  0.00     0.000 HD 
HETATM   37  H2  UNL     1      -8.177  16.265  67.772  1.00  0.00     0.000 HD 
ENDBRANCH  28  33
ENDBRANCH  24  25
ENDBRANCH   5  21
BRANCH   5  38
HETATM   38  O   UNL     1      -7.489   7.736  67.227  1.00  0.00    -0.089 OA 
HETATM   39  C   UNL     1      -6.246   7.060  67.410  1.00  0.00    -0.041 C  
ENDBRANCH   5  38
TORSDOF 7
ENDMDL
MODEL      107
REMARK 921   NORMALIZED FREE ENERGY PREDICTED BY IDOCK:   -3.82 KCAL/MOL
REMARK 922        TOTAL FREE ENERGY PREDICTED BY IDOCK:   -6.83 KCAL/MOL
REMARK 923 INTER-LIGAND FREE ENERGY PREDICTED BY IDOCK:   -6.28 KCAL/MOL
REMARK 924 INTRA-LIGAND FREE ENERGY PREDICTED BY IDOCK:   -0.55 KCAL/MOL
REMARK 927      BINDING AFFINITY PREDICTED BY RF-SCORE:    0.00 PKD
ROOT
HETATM    1  C   UNL     1      -7.964   9.182  68.850  1.00  0.00    -0.099 C  
HETATM    2  S   UNL     1      -9.240  10.031  69.818  1.00  0.00    -0.151 SA 
HETATM    3  C   UNL     1     -10.039   8.487  70.321  1.00  0.00    -0.186 C  
HETATM    4  C   UNL     1     -10.324   7.523  69.175  1.00  0.00    -0.215 C  
HETATM    5  C   UNL     1      -7.251  10.036  67.703  1.00  0.00    -0.088 C  
HETATM    6  C   UNL     1      -9.621   7.500  68.001  1.00  0.00    -0.143 C  
HETATM    7  N   UNL     1      -8.615   8.411  67.802  1.00  0.00    -0.130 N  
HETATM    8  C   UNL     1      -9.989   6.488  66.921  1.00  0.00    -0.173 C  
HETATM    9  O   UNL     1     -10.883   5.664  67.051  1.00  0.00    -0.275 OA 
HETATM   10  O   UNL     1      -9.250   6.461  65.802  1.00  0.00    -0.076 OA 
HETATM   11  O   UNL     1      -7.710   8.405  65.672  1.00  0.00    -0.092 OA 
HETATM   12  C   UNL     1      -7.828   8.846  66.794  1.00  0.00    -0.097 C  
ENDROOT
BRANCH   4  13
HETATM   13  C   UNL     1     -11.549   6.658  69.488  1.00  0.00    -0.195 C  
BRANCH  13  14
HETATM   14  S   UNL     1     -11.706   6.375  71.275  1.00  0.00    -0.247 SA 
BRANCH  14  15
HETATM   15  C   UNL     1     -10.648   5.021  71.461  1.00  0.00    -0.105 A  
HETATM   16  N   UNL     1     -10.003   4.407  70.497  1.00  0.00    -0.213 NA 
HETATM   17  C   UNL     1     -10.817   4.675  73.976  1.00  0.00    -0.263 C  
HETATM   18  N   UNL     1      -9.341   3.360  71.096  1.00  0.00    -0.126 NA 
HETATM   19  N   UNL     1     -10.382   4.382  72.639  1.00  0.00    -0.183 NA 
HETATM   20  N   UNL     1      -9.564   3.339  72.403  1.00  0.00    -0.125 NA 
ENDBRANCH  14  15
ENDBRANCH  13  14
ENDBRANCH   4  13
BRANCH   5  21
HETATM   21  N   UNL     1      -7.824  11.402  67.527  1.00  0.00    -0.120 N  
HETATM   22  O   UNL     1      -6.767  12.386  69.277  1.00  0.00    -0.104 OA 
HETATM   23  H   UNL     1      -8.466  11.544  66.748  1.00  0.00     0.000 HD 
HETATM   24  C   UNL     1      -7.556  12.491  68.334  1.00  0.00    -0.129 C  
BRANCH  24  25
HETATM   25  C   UNL     1      -8.284  13.833  67.957  1.00  0.00    -0.164 C  
HETATM   26  S   UNL     1      -7.162  15.214  67.497  1.00  0.00    -0.199 SA 
HETATM   27  C   UNL     1      -8.637  15.503  66.584  1.00  0.00    -0.290 C  
HETATM   28  C   UNL     1      -9.268  16.644  66.218  1.00  0.00    -0.328 C  
HETATM   29  S   UNL     1      -8.932  13.808  66.244  1.00  0.00     0.270 SA 
HETATM   30  O   UNL     1     -11.108  17.754  65.146  1.00  0.00    -0.554 OA 
HETATM   31  C   UNL     1     -10.530  16.560  65.425  1.00  0.00    -0.269 C  
HETATM   32  O   UNL     1     -11.040  15.527  65.021  1.00  0.00    -0.388 OA 
BRANCH  28  33
HETATM   33  C   UNL     1      -8.746  17.973  66.644  1.00  0.00    -0.259 C  
HETATM   34  O   UNL     1      -9.299  18.585  67.559  1.00  0.00    -0.276 OA 
HETATM   35  N   UNL     1      -7.699  18.546  66.004  1.00  0.00    -0.216 N  
HETATM   36  H1  UNL     1      -7.342  19.455  66.296  1.00  0.00     0.000 HD 
HETATM   37  H2  UNL     1      -7.263  18.061  65.219  1.00  0.00     0.000 HD 
ENDBRANCH  28  33
ENDBRANCH  24  25
ENDBRANCH   5  21
BRANCH   5  38
HETATM   38  O   UNL     1      -5.799  10.067  67.781  1.00  0.00    -0.043 OA 
HETATM   39  C   UNL     1      -5.191   8.934  68.399  1.00  0.00    -0.034 C  
ENDBRANCH   5  38
TORSDOF 7
ENDMDL
MODEL      108
REMARK 921   NORMALIZED FREE ENERGY PREDICTED BY IDOCK:   -3.76 KCAL/MOL
REMARK 922        TOTAL FREE ENERGY PREDICTED BY IDOCK:   -6.76 KCAL/MOL
REMARK 923 INTER-LIGAND FREE ENERGY PREDICTED BY IDOCK:   -7.04 KCAL/MOL
REMARK 924 INTRA-LIGAND FREE ENERGY PREDICTED BY IDOCK:    0.28 KCAL/MOL
REMARK 927      BINDING AFFINITY PREDICTED BY RF-SCORE:    0.00 PKD
ROOT
HETATM    1  C   UNL     1     -10.484   7.580  69.674  1.00  0.00    -0.234 C  
HETATM    2  S   UNL     1     -10.061   7.843  67.930  1.00  0.00    -0.202 SA 
HETATM    3  C   UNL     1      -8.806   6.538  67.926  1.00  0.00    -0.114 C  
HETATM    4  C   UNL     1      -7.810   6.619  69.077  1.00  0.00    -0.111 C  
HETATM    5  C   UNL     1     -11.172   8.806  70.433  1.00  0.00    -0.223 C  
HETATM    6  C   UNL     1      -8.076   7.215  70.280  1.00  0.00    -0.118 C  
HETATM    7  N   UNL     1      -9.295   7.815  70.478  1.00  0.00    -0.163 N  
HETATM    8  C   UNL     1      -7.006   7.235  71.366  1.00  0.00    -0.063 C  
HETATM    9  O   UNL     1      -5.904   6.722  71.231  1.00  0.00    -0.034 OA 
HETATM   10  O   UNL     1      -7.316   7.785  72.549  1.00  0.00    -0.074 OA 
HETATM   11  O   UNL     1      -9.482   8.998  72.458  1.00  0.00    -0.205 OA 
HETATM   12  C   UNL     1      -9.889   8.626  71.380  1.00  0.00    -0.256 C  
ENDROOT
BRANCH   4  13
HETATM   13  C   UNL     1      -6.459   6.024  68.666  1.00  0.00    -0.049 C  
BRANCH  13  14
HETATM   14  S   UNL     1      -5.483   7.223  67.714  1.00  0.00    -0.026 SA 
BRANCH  14  15
HETATM   15  C   UNL     1      -6.516   7.433  66.344  1.00  0.00    -0.048 A  
HETATM   16  N   UNL     1      -7.411   8.381  66.191  1.00  0.00    -0.087 NA 
HETATM   17  C   UNL     1      -5.780   5.450  64.931  1.00  0.00    -0.017 C  
HETATM   18  N   UNL     1      -8.033   8.119  64.991  1.00  0.00    -0.131 NA 
HETATM   19  N   UNL     1      -6.565   6.607  65.258  1.00  0.00    -0.048 NA 
HETATM   20  N   UNL     1      -7.521   7.041  64.414  1.00  0.00    -0.092 NA 
ENDBRANCH  14  15
ENDBRANCH  13  14
ENDBRANCH   4  13
BRANCH   5  21
HETATM   21  N   UNL     1     -11.274  10.044  69.607  1.00  0.00    -0.298 N  
HETATM   22  O   UNL     1     -12.191  11.379  71.197  1.00  0.00    -0.319 OA 
HETATM   23  H   UNL     1     -10.936   9.994  68.646  1.00  0.00     0.000 HD 
HETATM   24  C   UNL     1     -11.790  11.251  70.036  1.00  0.00    -0.367 C  
BRANCH  24  25
HETATM   25  C   UNL     1     -11.801  12.418  68.982  1.00  0.00    -0.300 C  
HETATM   26  S   UNL     1     -10.145  13.106  68.578  1.00  0.00    -0.154 SA 
HETATM   27  C   UNL     1     -11.096  13.322  67.115  1.00  0.00    -0.286 C  
HETATM   28  C   UNL     1     -11.105  14.297  66.175  1.00  0.00    -0.324 C  
HETATM   29  S   UNL     1     -11.945  11.794  67.265  1.00  0.00     0.299 SA 
HETATM   30  O   UNL     1     -12.012  15.239  64.161  1.00  0.00    -0.485 OA 
HETATM   31  C   UNL     1     -12.048  14.193  65.023  1.00  0.00    -0.421 C  
HETATM   32  O   UNL     1     -12.806  13.260  64.815  1.00  0.00    -0.690 OA 
BRANCH  28  33
HETATM   33  C   UNL     1     -10.225  15.492  66.309  1.00  0.00    -0.294 C  
HETATM   34  O   UNL     1     -10.585  16.444  67.001  1.00  0.00    -0.305 OA 
HETATM   35  N   UNL     1      -9.052  15.569  65.636  1.00  0.00    -0.306 N  
HETATM   36  H1  UNL     1      -8.449  16.386  65.728  1.00  0.00     0.000 HD 
HETATM   37  H2  UNL     1      -8.768  14.799  65.029  1.00  0.00     0.000 HD 
ENDBRANCH  28  33
ENDBRANCH  24  25
ENDBRANCH   5  21
BRANCH   5  38
HETATM   38  O   UNL     1     -12.433   8.487  71.084  1.00  0.00    -0.273 OA 
HETATM   39  C   UNL     1     -12.364   7.504  72.116  1.00  0.00    -0.217 C  
ENDBRANCH   5  38
TORSDOF 7
ENDMDL
MODEL      109
REMARK 921   NORMALIZED FREE ENERGY PREDICTED BY IDOCK:   -3.60 KCAL/MOL
REMARK 922        TOTAL FREE ENERGY PREDICTED BY IDOCK:   -6.53 KCAL/MOL
REMARK 923 INTER-LIGAND FREE ENERGY PREDICTED BY IDOCK:   -7.64 KCAL/MOL
REMARK 924 INTRA-LIGAND FREE ENERGY PREDICTED BY IDOCK:    1.11 KCAL/MOL
REMARK 927      BINDING AFFINITY PREDICTED BY RF-SCORE:    0.00 PKD
ROOT
HETATM    1  C   UNL     1      -8.975  11.894  66.449  1.00  0.00    -0.180 C  
HETATM    2  S   UNL     1      -7.476  12.354  67.360  1.00  0.00    -0.147 SA 
HETATM    3  C   UNL     1      -7.456  10.819  68.318  1.00  0.00    -0.092 C  
HETATM    4  C   UNL     1      -8.788  10.466  68.970  1.00  0.00    -0.176 C  
HETATM    5  C   UNL     1      -9.820  13.092  65.813  1.00  0.00    -0.209 C  
HETATM    6  C   UNL     1     -10.004  10.887  68.504  1.00  0.00    -0.182 C  
HETATM    7  N   UNL     1     -10.056  11.705  67.404  1.00  0.00    -0.197 N  
HETATM    8  C   UNL     1     -11.277  10.471  69.233  1.00  0.00    -0.262 C  
HETATM    9  O   UNL     1     -11.279   9.751  70.222  1.00  0.00    -0.254 OA 
HETATM   10  O   UNL     1     -12.454  10.861  68.723  1.00  0.00    -0.431 OA 
HETATM   11  O   UNL     1     -12.160  12.533  66.911  1.00  0.00    -0.537 OA 
HETATM   12  C   UNL     1     -10.962  12.459  66.745  1.00  0.00    -0.263 C  
ENDROOT
BRANCH   4  13
HETATM   13  C   UNL     1      -8.565   9.660  70.254  1.00  0.00    -0.197 C  
BRANCH  13  14
HETATM   14  S   UNL     1      -7.939   7.997  69.877  1.00  0.00    -0.113 SA 
BRANCH  14  15
HETATM   15  C   UNL     1      -7.886   8.079  68.151  1.00  0.00    -0.126 A  
HETATM   16  N   UNL     1      -6.861   8.465  67.427  1.00  0.00    -0.069 NA 
HETATM   17  C   UNL     1     -10.248   7.312  67.602  1.00  0.00    -0.200 C  
HETATM   18  N   UNL     1      -7.289   8.431  66.120  1.00  0.00    -0.083 NA 
HETATM   19  N   UNL     1      -8.927   7.794  67.314  1.00  0.00    -0.126 NA 
HETATM   20  N   UNL     1      -8.548   8.020  66.041  1.00  0.00    -0.138 NA 
ENDBRANCH  14  15
ENDBRANCH  13  14
ENDBRANCH   4  13
BRANCH   5  21
HETATM   21  N   UNL     1      -9.294  14.446  66.156  1.00  0.00    -0.490 N  
HETATM   22  O   UNL     1     -10.987  15.652  65.244  1.00  0.00    -0.365 OA 
HETATM   23  H   UNL     1      -8.413  14.490  66.665  1.00  0.00     0.000 HD 
HETATM   24  C   UNL     1      -9.905  15.643  65.839  1.00  0.00    -0.350 C  
BRANCH  24  25
HETATM   25  C   UNL     1      -9.158  16.949  66.300  1.00  0.00    -0.267 C  
HETATM   26  S   UNL     1      -8.977  17.129  68.120  1.00  0.00    -0.247 SA 
HETATM   27  C   UNL     1      -7.581  17.954  67.440  1.00  0.00    -0.206 C  
HETATM   28  C   UNL     1      -6.900  19.058  67.832  1.00  0.00    -0.240 C  
HETATM   29  S   UNL     1      -7.339  16.792  66.148  1.00  0.00     0.161 SA 
HETATM   30  O   UNL     1      -5.143  20.655  67.476  1.00  0.00    -0.172 OA 
HETATM   31  C   UNL     1      -5.730  19.518  67.027  1.00  0.00    -0.174 C  
HETATM   32  O   UNL     1      -5.284  18.951  66.043  1.00  0.00    -0.140 OA 
BRANCH  28  33
HETATM   33  C   UNL     1      -7.339  19.841  69.021  1.00  0.00    -0.279 C  
HETATM   34  O   UNL     1      -8.511  20.205  69.116  1.00  0.00     0.139 OA 
HETATM   35  N   UNL     1      -6.453  20.205  69.978  1.00  0.00    -0.335 N  
HETATM   36  H1  UNL     1      -6.754  20.741  70.791  1.00  0.00     0.000 HD 
HETATM   37  H2  UNL     1      -5.472  19.941  69.883  1.00  0.00     0.000 HD 
ENDBRANCH  28  33
ENDBRANCH  24  25
ENDBRANCH   5  21
BRANCH   5  38
HETATM   38  O   UNL     1     -10.082  12.960  64.388  1.00  0.00    -0.326 OA 
HETATM   39  C   UNL     1     -10.635  11.711  63.975  1.00  0.00    -0.373 C  
ENDBRANCH   5  38
TORSDOF 7
ENDMDL
MODEL      110
REMARK 921   NORMALIZED FREE ENERGY PREDICTED BY IDOCK:   -3.53 KCAL/MOL
REMARK 922        TOTAL FREE ENERGY PREDICTED BY IDOCK:   -6.42 KCAL/MOL
REMARK 923 INTER-LIGAND FREE ENERGY PREDICTED BY IDOCK:   -5.54 KCAL/MOL
REMARK 924 INTRA-LIGAND FREE ENERGY PREDICTED BY IDOCK:   -0.88 KCAL/MOL
REMARK 927      BINDING AFFINITY PREDICTED BY RF-SCORE:    0.00 PKD
ROOT
HETATM    1  C   UNL     1     -12.034  14.080  67.312  1.00  0.00    -0.413 C  
HETATM    2  S   UNL     1     -11.585  14.118  69.068  1.00  0.00    -0.326 SA 
HETATM    3  C   UNL     1     -11.677  15.923  69.164  1.00  0.00    -0.363 C  
HETATM    4  C   UNL     1     -10.916  16.652  68.062  1.00  0.00    -0.311 C  
HETATM    5  C   UNL     1     -11.598  12.780  66.492  1.00  0.00    -0.376 C  
HETATM    6  C   UNL     1     -10.642  16.113  66.835  1.00  0.00    -0.283 C  
HETATM    7  N   UNL     1     -11.035  14.826  66.563  1.00  0.00    -0.320 N  
HETATM    8  C   UNL     1      -9.876  16.933  65.804  1.00  0.00    -0.137 C  
HETATM    9  O   UNL     1      -9.498  18.079  66.004  1.00  0.00    -0.504 OA 
HETATM   10  O   UNL     1      -9.665  16.392  64.595  1.00  0.00     0.766 OA 
HETATM   11  O   UNL     1     -10.265  13.983  64.550  1.00  0.00    -0.381 OA 
HETATM   12  C   UNL     1     -10.834  13.885  65.615  1.00  0.00    -0.292 C  
ENDROOT
BRANCH   4  13
HETATM   13  C   UNL     1     -10.433  18.020  68.553  1.00  0.00    -0.280 C  
BRANCH  13  14
HETATM   14  S   UNL     1      -8.885  17.866  69.490  1.00  0.00     0.916 SA 
BRANCH  14  15
HETATM   15  C   UNL     1      -7.876  18.938  68.585  1.00  0.00    -0.340 A  
HETATM   16  N   UNL     1      -8.196  20.147  68.185  1.00  0.00    -0.182 NA 
HETATM   17  C   UNL     1      -5.814  17.474  68.311  1.00  0.00    -0.158 C  
HETATM   18  N   UNL     1      -7.122  20.597  67.452  1.00  0.00    -0.327 NA 
HETATM   19  N   UNL     1      -6.623  18.645  68.126  1.00  0.00    -0.218 NA 
HETATM   20  N   UNL     1      -6.156  19.688  67.414  1.00  0.00    -0.189 NA 
ENDBRANCH  14  15
ENDBRANCH  13  14
ENDBRANCH   4  13
BRANCH   5  21
HETATM   21  N   UNL     1     -10.781  11.816  67.284  1.00  0.00    -0.227 N  
HETATM   22  O   UNL     1      -9.843  10.721  65.531  1.00  0.00    -0.225 OA 
HETATM   23  H   UNL     1     -10.830  11.885  68.300  1.00  0.00     0.000 HD 
HETATM   24  C   UNL     1      -9.963  10.837  66.755  1.00  0.00    -0.206 C  
BRANCH  24  25
HETATM   25  C   UNL     1      -9.201   9.931  67.790  1.00  0.00    -0.130 C  
HETATM   26  S   UNL     1      -9.265   8.129  67.429  1.00  0.00    -0.140 SA 
HETATM   27  C   UNL     1      -7.734   8.372  68.259  1.00  0.00    -0.106 C  
HETATM   28  C   UNL     1      -7.040   7.598  69.127  1.00  0.00    -0.077 C  
HETATM   29  S   UNL     1      -7.393   9.911  67.489  1.00  0.00    -0.090 SA 
HETATM   30  O   UNL     1      -5.144   7.265  70.563  1.00  0.00    -0.022 OA 
HETATM   31  C   UNL     1      -5.739   8.092  69.668  1.00  0.00    -0.026 C  
HETATM   32  O   UNL     1      -5.200   9.141  69.357  1.00  0.00    -0.035 OA 
BRANCH  28  33
HETATM   33  C   UNL     1      -7.587   6.291  69.586  1.00  0.00    -0.094 C  
HETATM   34  O   UNL     1      -7.645   5.342  68.803  1.00  0.00    -0.079 OA 
HETATM   35  N   UNL     1      -8.073   6.143  70.841  1.00  0.00    -0.119 N  
HETATM   36  H1  UNL     1      -8.448   5.248  71.155  1.00  0.00     0.000 HD 
HETATM   37  H2  UNL     1      -8.065   6.938  71.481  1.00  0.00     0.000 HD 
ENDBRANCH  28  33
ENDBRANCH  24  25
ENDBRANCH   5  21
BRANCH   5  38
HETATM   38  O   UNL     1     -12.682  12.114  65.786  1.00  0.00    -0.101 OA 
HETATM   39  C   UNL     1     -13.032  12.676  64.522  1.00  0.00    -0.146 C  
ENDBRANCH   5  38
TORSDOF 7
ENDMDL
MODEL      111
REMARK 921   NORMALIZED FREE ENERGY PREDICTED BY IDOCK:   -3.51 KCAL/MOL
REMARK 922        TOTAL FREE ENERGY PREDICTED BY IDOCK:   -6.40 KCAL/MOL
REMARK 923 INTER-LIGAND FREE ENERGY PREDICTED BY IDOCK:   -5.44 KCAL/MOL
REMARK 924 INTRA-LIGAND FREE ENERGY PREDICTED BY IDOCK:   -0.96 KCAL/MOL
REMARK 927      BINDING AFFINITY PREDICTED BY RF-SCORE:    0.00 PKD
ROOT
HETATM    1  C   UNL     1      -8.862  11.493  67.472  1.00  0.00    -0.155 C  
HETATM    2  S   UNL     1     -10.295  11.338  68.572  1.00  0.00    -0.209 SA 
HETATM    3  C   UNL     1     -10.572  13.126  68.641  1.00  0.00    -0.239 C  
HETATM    4  C   UNL     1      -9.326  13.945  68.957  1.00  0.00     0.179 C  
HETATM    5  C   UNL     1      -7.829  10.274  67.469  1.00  0.00    -0.102 C  
HETATM    6  C   UNL     1      -8.049  13.528  68.694  1.00  0.00    -0.055 C  
HETATM    7  N   UNL     1      -7.846  12.287  68.145  1.00  0.00    -0.139 N  
HETATM    8  C   UNL     1      -6.873  14.431  69.048  1.00  0.00    -0.111 C  
HETATM    9  O   UNL     1      -7.005  15.540  69.547  1.00  0.00    -0.168 OA 
HETATM   10  O   UNL     1      -5.638  14.013  68.735  1.00  0.00    -0.077 OA 
HETATM   11  O   UNL     1      -5.629  11.637  68.012  1.00  0.00    -0.043 OA 
HETATM   12  C   UNL     1      -6.820  11.445  67.899  1.00  0.00    -0.072 C  
ENDROOT
BRANCH   4  13
HETATM   13  C   UNL     1      -9.701  15.242  69.680  1.00  0.00    -0.200 C  
BRANCH  13  14
HETATM   14  S   UNL     1     -11.210  15.967  68.977  1.00  0.00    -0.349 SA 
BRANCH  14  15
HETATM   15  C   UNL     1     -10.605  16.502  67.449  1.00  0.00    -0.300 A  
HETATM   16  N   UNL     1     -10.251  15.733  66.446  1.00  0.00    -0.280 NA 
HETATM   17  C   UNL     1     -10.611  19.017  67.832  1.00  0.00    -0.358 C  
HETATM   18  N   UNL     1      -9.776  16.581  65.471  1.00  0.00    -0.511 NA 
HETATM   19  N   UNL     1     -10.371  17.803  67.104  1.00  0.00    -0.347 NA 
HETATM   20  N   UNL     1      -9.848  17.847  65.864  1.00  0.00    -0.551 NA 
ENDBRANCH  14  15
ENDBRANCH  13  14
ENDBRANCH   4  13
BRANCH   5  21
HETATM   21  N   UNL     1      -8.150   9.213  68.467  1.00  0.00    -0.102 N  
HETATM   22  O   UNL     1      -6.043   8.406  68.717  1.00  0.00    -0.043 OA 
HETATM   23  H   UNL     1      -9.121   9.129  68.765  1.00  0.00     0.000 HD 
HETATM   24  C   UNL     1      -7.239   8.335  69.021  1.00  0.00    -0.073 C  
BRANCH  24  25
HETATM   25  C   UNL     1      -7.811   7.294  70.051  1.00  0.00    -0.111 C  
HETATM   26  S   UNL     1      -8.121   5.619  69.360  1.00  0.00    -0.100 SA 
HETATM   27  C   UNL     1      -7.734   5.348  71.054  1.00  0.00    -0.098 C  
HETATM   28  C   UNL     1      -8.186   4.442  71.953  1.00  0.00    -0.102 C  
HETATM   29  S   UNL     1      -6.501   6.594  71.123  1.00  0.00    -0.050 SA 
HETATM   30  O   UNL     1      -8.198   3.549  74.183  1.00  0.00    -0.077 OA 
HETATM   31  C   UNL     1      -7.651   4.466  73.347  1.00  0.00    -0.078 C  
HETATM   32  O   UNL     1      -6.782   5.219  73.755  1.00  0.00    -0.071 OA 
BRANCH  28  33
HETATM   33  C   UNL     1      -9.245   3.462  71.581  1.00  0.00    -0.123 C  
HETATM   34  O   UNL     1      -8.996   2.567  70.773  1.00  0.00    -0.076 OA 
HETATM   35  N   UNL     1     -10.499   3.573  72.079  1.00  0.00     0.030 N  
HETATM   36  H1  UNL     1     -11.224   2.903  71.824  1.00  0.00     0.000 HD 
HETATM   37  H2  UNL     1     -10.722   4.338  72.717  1.00  0.00     0.000 HD 
ENDBRANCH  28  33
ENDBRANCH  24  25
ENDBRANCH   5  21
BRANCH   5  38
HETATM   38  O   UNL     1      -7.556   9.713  66.155  1.00  0.00    -0.099 OA 
HETATM   39  C   UNL     1      -8.673   9.123  65.491  1.00  0.00    -0.181 C  
ENDBRANCH   5  38
TORSDOF 7
ENDMDL
MODEL      112
REMARK 921   NORMALIZED FREE ENERGY PREDICTED BY IDOCK:   -3.46 KCAL/MOL
REMARK 922        TOTAL FREE ENERGY PREDICTED BY IDOCK:   -6.33 KCAL/MOL
REMARK 923 INTER-LIGAND FREE ENERGY PREDICTED BY IDOCK:   -5.45 KCAL/MOL
REMARK 924 INTRA-LIGAND FREE ENERGY PREDICTED BY IDOCK:   -0.88 KCAL/MOL
REMARK 927      BINDING AFFINITY PREDICTED BY RF-SCORE:    0.00 PKD
ROOT
HETATM    1  C   UNL     1     -10.888   7.569  71.219  1.00  0.00    -0.235 C  
HETATM    2  S   UNL     1     -11.101   6.313  69.929  1.00  0.00    -0.425 SA 
HETATM    3  C   UNL     1     -11.143   4.946  71.115  1.00  0.00     0.567 C  
HETATM    4  C   UNL     1     -10.006   4.957  72.129  1.00  0.00    -0.235 C  
HETATM    5  C   UNL     1     -10.242   8.958  70.763  1.00  0.00    -0.226 C  
HETATM    6  C   UNL     1      -9.332   6.085  72.511  1.00  0.00    -0.141 C  
HETATM    7  N   UNL     1      -9.655   7.289  71.938  1.00  0.00    -0.149 N  
HETATM    8  C   UNL     1      -8.210   5.982  73.539  1.00  0.00    -0.109 C  
HETATM    9  O   UNL     1      -7.881   4.930  74.070  1.00  0.00    -0.099 OA 
HETATM   10  O   UNL     1      -7.601   7.112  73.927  1.00  0.00    -0.102 OA 
HETATM   11  O   UNL     1      -8.248   9.039  72.499  1.00  0.00    -0.331 OA 
HETATM   12  C   UNL     1      -9.167   8.547  71.881  1.00  0.00    -0.255 C  
ENDROOT
BRANCH   4  13
HETATM   13  C   UNL     1      -9.673   3.532  72.584  1.00  0.00    -0.142 C  
BRANCH  13  14
HETATM   14  S   UNL     1      -9.204   2.492  71.172  1.00  0.00    -0.136 SA 
BRANCH  14  15
HETATM   15  C   UNL     1      -7.674   3.192  70.777  1.00  0.00    -0.039 A  
HETATM   16  N   UNL     1      -6.578   3.112  71.496  1.00  0.00    -0.022 NA 
HETATM   17  C   UNL     1      -8.266   4.330  68.580  1.00  0.00    -0.083 C  
HETATM   18  N   UNL     1      -5.637   3.864  70.832  1.00  0.00    -0.012 NA 
HETATM   19  N   UNL     1      -7.418   3.963  69.679  1.00  0.00    -0.052 NA 
HETATM   20  N   UNL     1      -6.140   4.385  69.721  1.00  0.00    -0.022 NA 
ENDBRANCH  14  15
ENDBRANCH  13  14
ENDBRANCH   4  13
BRANCH   5  21
HETATM   21  N   UNL     1      -9.808   8.979  69.336  1.00  0.00    -0.178 N  
HETATM   22  O   UNL     1      -7.786   7.993  69.635  1.00  0.00    -0.097 OA 
HETATM   23  H   UNL     1     -10.456   9.375  68.656  1.00  0.00     0.000 HD 
HETATM   24  C   UNL     1      -8.600   8.507  68.861  1.00  0.00    -0.127 C  
BRANCH  24  25
HETATM   25  C   UNL     1      -8.360   8.641  67.313  1.00  0.00    -0.108 C  
HETATM   26  S   UNL     1      -9.720   9.466  66.392  1.00  0.00    -0.271 SA 
HETATM   27  C   UNL     1      -8.262   9.846  65.485  1.00  0.00    -0.136 C  
HETATM   28  C   UNL     1      -8.033   9.999  64.159  1.00  0.00    -0.152 C  
HETATM   29  S   UNL     1      -7.254  10.044  66.907  1.00  0.00    -0.092 SA 
HETATM   30  O   UNL     1      -6.519  10.419  62.343  1.00  0.00    -0.129 OA 
HETATM   31  C   UNL     1      -6.655  10.330  63.689  1.00  0.00    -0.084 C  
HETATM   32  O   UNL     1      -5.693  10.527  64.412  1.00  0.00    -0.140 OA 
BRANCH  28  33
HETATM   33  C   UNL     1      -9.126   9.789  63.169  1.00  0.00    -0.243 C  
HETATM   34  O   UNL     1     -10.055  10.595  63.101  1.00  0.00    -0.297 OA 
HETATM   35  N   UNL     1      -9.142   8.693  62.374  1.00  0.00    -0.493 N  
HETATM   36  H1  UNL     1      -9.890   8.549  61.696  1.00  0.00     0.000 HD 
HETATM   37  H2  UNL     1      -8.395   8.002  62.455  1.00  0.00     0.000 HD 
ENDBRANCH  28  33
ENDBRANCH  24  25
ENDBRANCH   5  21
BRANCH   5  38
HETATM   38  O   UNL     1     -11.027  10.134  71.106  1.00  0.00    -0.245 OA 
HETATM   39  C   UNL     1     -12.323   9.876  71.644  1.00  0.00    -0.406 C  
ENDBRANCH   5  38
TORSDOF 7
ENDMDL
MODEL      113
REMARK 921   NORMALIZED FREE ENERGY PREDICTED BY IDOCK:   -3.44 KCAL/MOL
REMARK 922        TOTAL FREE ENERGY PREDICTED BY IDOCK:   -6.30 KCAL/MOL
REMARK 923 INTER-LIGAND FREE ENERGY PREDICTED BY IDOCK:   -6.50 KCAL/MOL
REMARK 924 INTRA-LIGAND FREE ENERGY PREDICTED BY IDOCK:    0.20 KCAL/MOL
REMARK 927      BINDING AFFINITY PREDICTED BY RF-SCORE:    0.00 PKD
ROOT
HETATM    1  C   UNL     1     -11.154  11.869  66.863  1.00  0.00    -0.305 C  
HETATM    2  S   UNL     1     -10.339  12.465  65.357  1.00  0.00    -0.281 SA 
HETATM    3  C   UNL     1     -10.327  10.828  64.586  1.00  0.00    -0.324 C  
HETATM    4  C   UNL     1      -9.786   9.716  65.477  1.00  0.00    -0.372 C  
HETATM    5  C   UNL     1     -10.962  12.757  68.178  1.00  0.00    -0.247 C  
HETATM    6  C   UNL     1      -9.805   9.753  66.845  1.00  0.00    -0.201 C  
HETATM    7  N   UNL     1     -10.305  10.862  67.480  1.00  0.00    -0.193 N  
HETATM    8  C   UNL     1      -9.240   8.582  67.640  1.00  0.00    -0.134 C  
HETATM    9  O   UNL     1      -8.776   7.578  67.117  1.00  0.00    -0.119 OA 
HETATM   10  O   UNL     1      -9.316   8.629  68.978  1.00  0.00    -0.145 OA 
HETATM   11  O   UNL     1     -10.020  10.873  69.777  1.00  0.00     0.010 OA 
HETATM   12  C   UNL     1     -10.354  11.378  68.728  1.00  0.00    -0.204 C  
ENDROOT
BRANCH   4  13
HETATM   13  C   UNL     1      -9.148   8.608  64.633  1.00  0.00     0.311 C  
BRANCH  13  14
HETATM   14  S   UNL     1      -7.609   9.185  63.860  1.00  0.00    -0.119 SA 
BRANCH  14  15
HETATM   15  C   UNL     1      -6.503   8.932  65.164  1.00  0.00    -0.064 A  
HETATM   16  N   UNL     1      -6.008   7.777  65.544  1.00  0.00    -0.038 NA 
HETATM   17  C   UNL     1      -6.255  11.323  65.998  1.00  0.00     0.052 C  
HETATM   18  N   UNL     1      -5.233   8.046  66.649  1.00  0.00    -0.027 NA 
HETATM   19  N   UNL     1      -6.035   9.904  66.003  1.00  0.00    -0.063 NA 
HETATM   20  N   UNL     1      -5.241   9.342  66.934  1.00  0.00    -0.035 NA 
ENDBRANCH  14  15
ENDBRANCH  13  14
ENDBRANCH   4  13
BRANCH   5  21
HETATM   21  N   UNL     1     -10.039  13.914  67.992  1.00  0.00    -0.238 N  
HETATM   22  O   UNL     1     -11.201  15.415  69.236  1.00  0.00    -0.258 OA 
HETATM   23  H   UNL     1      -9.205  13.761  67.426  1.00  0.00     0.000 HD 
HETATM   24  C   UNL     1     -10.222  15.176  68.522  1.00  0.00    -0.231 C  
BRANCH  24  25
HETATM   25  C   UNL     1      -9.116  16.241  68.184  1.00  0.00    -0.188 C  
HETATM   26  S   UNL     1      -8.189  15.921  66.630  1.00  0.00    -0.269 SA 
HETATM   27  C   UNL     1      -8.187  17.671  66.808  1.00  0.00    -0.243 C  
HETATM   28  C   UNL     1      -7.265  18.613  66.497  1.00  0.00    -0.252 C  
HETATM   29  S   UNL     1      -9.824  17.755  67.433  1.00  0.00    -0.323 SA 
HETATM   30  O   UNL     1      -6.563  20.909  66.468  1.00  0.00    -0.265 OA 
HETATM   31  C   UNL     1      -7.565  20.048  66.773  1.00  0.00    -0.275 C  
HETATM   32  O   UNL     1      -8.615  20.474  67.225  1.00  0.00    -0.344 OA 
BRANCH  28  33
HETATM   33  C   UNL     1      -5.940  18.225  65.935  1.00  0.00    -0.212 C  
HETATM   34  O   UNL     1      -5.402  17.179  66.300  1.00  0.00    -0.308 OA 
HETATM   35  N   UNL     1      -5.292  19.035  65.065  1.00  0.00    -0.173 N  
HETATM   36  H1  UNL     1      -4.385  18.769  64.680  1.00  0.00     0.000 HD 
HETATM   37  H2  UNL     1      -5.715  19.921  64.791  1.00  0.00     0.000 HD 
ENDBRANCH  28  33
ENDBRANCH  24  25
ENDBRANCH   5  21
BRANCH   5  38
HETATM   38  O   UNL     1     -12.201  13.155  68.828  1.00  0.00    -0.255 OA 
HETATM   39  C   UNL     1     -12.322  12.788  70.202  1.00  0.00    -0.165 C  
ENDBRANCH   5  38
TORSDOF 7
ENDMDL
MODEL      114
REMARK 921   NORMALIZED FREE ENERGY PREDICTED BY IDOCK:   -3.42 KCAL/MOL
REMARK 922        TOTAL FREE ENERGY PREDICTED BY IDOCK:   -6.27 KCAL/MOL
REMARK 923 INTER-LIGAND FREE ENERGY PREDICTED BY IDOCK:   -5.99 KCAL/MOL
REMARK 924 INTRA-LIGAND FREE ENERGY PREDICTED BY IDOCK:   -0.28 KCAL/MOL
REMARK 927      BINDING AFFINITY PREDICTED BY RF-SCORE:    0.00 PKD
ROOT
HETATM    1  C   UNL     1     -11.985  13.602  67.408  1.00  0.00    -0.376 C  
HETATM    2  S   UNL     1     -10.974  13.794  65.916  1.00  0.00    -0.285 SA 
HETATM    3  C   UNL     1     -11.227  12.080  65.393  1.00  0.00    -0.322 C  
HETATM    4  C   UNL     1     -10.970  11.045  66.482  1.00  0.00    -0.228 C  
HETATM    5  C   UNL     1     -11.713  14.638  68.594  1.00  0.00    -0.329 C  
HETATM    6  C   UNL     1     -11.072  11.302  67.822  1.00  0.00    -0.271 C  
HETATM    7  N   UNL     1     -11.389  12.570  68.241  1.00  0.00    -0.263 N  
HETATM    8  C   UNL     1     -10.797  10.189  68.827  1.00  0.00    -0.225 C  
HETATM    9  O   UNL     1     -10.502   9.048  68.500  1.00  0.00    -0.211 OA 
HETATM   10  O   UNL     1     -10.950  10.462  70.131  1.00  0.00    -0.284 OA 
HETATM   11  O   UNL     1     -11.260  12.894  70.529  1.00  0.00     0.523 OA 
HETATM   12  C   UNL     1     -11.420  13.277  69.391  1.00  0.00    -0.263 C  
ENDROOT
BRANCH   4  13
HETATM   13  C   UNL     1     -10.503   9.720  65.869  1.00  0.00     0.043 C  
BRANCH  13  14
HETATM   14  S   UNL     1      -8.863   9.897  65.112  1.00  0.00    -0.197 SA 
BRANCH  14  15
HETATM   15  C   UNL     1      -7.916   8.967  66.219  1.00  0.00    -0.103 A  
HETATM   16  N   UNL     1      -7.271   9.432  67.264  1.00  0.00    -0.086 NA 
HETATM   17  C   UNL     1      -8.168   6.658  65.182  1.00  0.00    -0.118 C  
HETATM   18  N   UNL     1      -6.611   8.354  67.809  1.00  0.00    -0.060 NA 
HETATM   19  N   UNL     1      -7.678   7.625  66.123  1.00  0.00    -0.087 NA 
HETATM   20  N   UNL     1      -6.856   7.247  67.121  1.00  0.00    -0.074 NA 
ENDBRANCH  14  15
ENDBRANCH  13  14
ENDBRANCH   4  13
BRANCH   5  21
HETATM   21  N   UNL     1     -10.574  15.565  68.331  1.00  0.00    -0.245 N  
HETATM   22  O   UNL     1      -8.901  14.123  68.852  1.00  0.00    -0.107 OA 
HETATM   23  H   UNL     1     -10.801  16.506  68.009  1.00  0.00     0.000 HD 
HETATM   24  C   UNL     1      -9.238  15.254  68.489  1.00  0.00    -0.200 C  
BRANCH  24  25
HETATM   25  C   UNL     1      -8.212  16.399  68.157  1.00  0.00    -0.170 C  
HETATM   26  S   UNL     1      -8.528  17.279  66.574  1.00  0.00    -0.276 SA 
HETATM   27  C   UNL     1      -7.764  18.474  67.614  1.00  0.00    -0.231 C  
HETATM   28  C   UNL     1      -6.905  19.488  67.352  1.00  0.00    -0.223 C  
HETATM   29  S   UNL     1      -8.582  17.942  69.072  1.00  0.00     0.107 SA 
HETATM   30  O   UNL     1      -5.536  21.306  68.117  1.00  0.00    -0.308 OA 
HETATM   31  C   UNL     1      -6.426  20.348  68.474  1.00  0.00    -0.295 C  
HETATM   32  O   UNL     1      -6.782  20.252  69.637  1.00  0.00    -0.248 OA 
BRANCH  28  33
HETATM   33  C   UNL     1      -6.395  19.715  65.971  1.00  0.00    -0.189 C  
HETATM   34  O   UNL     1      -7.121  20.244  65.129  1.00  0.00    -0.293 OA 
HETATM   35  N   UNL     1      -5.158  19.300  65.610  1.00  0.00    -0.148 N  
HETATM   36  H1  UNL     1      -4.809  19.456  64.665  1.00  0.00     0.000 HD 
HETATM   37  H2  UNL     1      -4.567  18.825  66.293  1.00  0.00     0.000 HD 
ENDBRANCH  28  33
ENDBRANCH  24  25
ENDBRANCH   5  21
BRANCH   5  38
HETATM   38  O   UNL     1     -12.892  15.352  69.060  1.00  0.00     0.341 OA 
HETATM   39  C   UNL     1     -13.021  15.470  70.476  1.00  0.00    -0.290 C  
ENDBRANCH   5  38
TORSDOF 7
ENDMDL
MODEL      115
REMARK 921   NORMALIZED FREE ENERGY PREDICTED BY IDOCK:   -3.40 KCAL/MOL
REMARK 922        TOTAL FREE ENERGY PREDICTED BY IDOCK:   -6.25 KCAL/MOL
REMARK 923 INTER-LIGAND FREE ENERGY PREDICTED BY IDOCK:   -6.17 KCAL/MOL
REMARK 924 INTRA-LIGAND FREE ENERGY PREDICTED BY IDOCK:   -0.07 KCAL/MOL
REMARK 927      BINDING AFFINITY PREDICTED BY RF-SCORE:    0.00 PKD
ROOT
HETATM    1  C   UNL     1     -11.341  14.249  67.260  1.00  0.00    -0.334 C  
HETATM    2  S   UNL     1      -9.921  13.824  68.305  1.00  0.00    -0.244 SA 
HETATM    3  C   UNL     1      -9.816  15.481  69.025  1.00  0.00    -0.235 C  
HETATM    4  C   UNL     1      -9.828  16.613  68.004  1.00  0.00    -0.245 C  
HETATM    5  C   UNL     1     -11.576  13.337  65.970  1.00  0.00    -0.349 C  
HETATM    6  C   UNL     1     -10.387  16.516  66.760  1.00  0.00    -0.296 C  
HETATM    7  N   UNL     1     -10.949  15.327  66.366  1.00  0.00    -0.318 N  
HETATM    8  C   UNL     1     -10.347  17.714  65.818  1.00  0.00    -0.188 C  
HETATM    9  O   UNL     1      -9.849  18.789  66.121  1.00  0.00    -0.405 OA 
HETATM   10  O   UNL     1     -10.945  17.601  64.623  1.00  0.00    -0.803 OA 
HETATM   11  O   UNL     1     -11.609  15.255  64.148  1.00  0.00    -0.236 OA 
HETATM   12  C   UNL     1     -11.425  14.757  65.238  1.00  0.00    -0.352 C  
ENDROOT
BRANCH   4  13
HETATM   13  C   UNL     1      -9.057  17.827  68.534  1.00  0.00    -0.282 C  
BRANCH  13  14
HETATM   14  S   UNL     1      -7.266  17.535  68.475  1.00  0.00    -0.249 SA 
BRANCH  14  15
HETATM   15  C   UNL     1      -6.723  18.773  69.552  1.00  0.00    -0.167 A  
HETATM   16  N   UNL     1      -6.913  20.063  69.405  1.00  0.00    -0.251 NA 
HETATM   17  C   UNL     1      -5.527  17.349  71.289  1.00  0.00     0.187 C  
HETATM   18  N   UNL     1      -6.259  20.662  70.457  1.00  0.00    -0.409 NA 
HETATM   19  N   UNL     1      -5.979  18.568  70.680  1.00  0.00     0.004 NA 
HETATM   20  N   UNL     1      -5.688  19.757  71.242  1.00  0.00    -0.281 NA 
ENDBRANCH  14  15
ENDBRANCH  13  14
ENDBRANCH   4  13
BRANCH   5  21
HETATM   21  N   UNL     1     -10.512  12.313  65.756  1.00  0.00    -0.248 N  
HETATM   22  O   UNL     1     -10.607  12.266  63.489  1.00  0.00    -0.436 OA 
HETATM   23  H   UNL     1     -10.050  11.939  66.584  1.00  0.00     0.000 HD 
HETATM   24  C   UNL     1     -10.102  11.831  64.528  1.00  0.00    -0.274 C  
BRANCH  24  25
HETATM   25  C   UNL     1      -8.964  10.746  64.550  1.00  0.00    -0.166 C  
HETATM   26  S   UNL     1      -8.955   9.671  66.042  1.00  0.00    -0.173 SA 
HETATM   27  C   UNL     1      -8.300   8.668  64.755  1.00  0.00    -0.157 C  
HETATM   28  C   UNL     1      -7.346   7.706  64.751  1.00  0.00    -0.076 C  
HETATM   29  S   UNL     1      -9.382   9.289  63.521  1.00  0.00     0.778 SA 
HETATM   30  O   UNL     1      -6.010   6.104  63.562  1.00  0.00    -0.022 OA 
HETATM   31  C   UNL     1      -7.007   7.019  63.470  1.00  0.00    -0.061 C  
HETATM   32  O   UNL     1      -7.557   7.214  62.399  1.00  0.00    -0.090 OA 
BRANCH  28  33
HETATM   33  C   UNL     1      -6.600   7.369  65.996  1.00  0.00    -0.049 C  
HETATM   34  O   UNL     1      -5.431   7.732  66.127  1.00  0.00    -0.028 OA 
HETATM   35  N   UNL     1      -7.174   6.622  66.968  1.00  0.00    -0.079 N  
HETATM   36  H1  UNL     1      -6.663   6.392  67.820  1.00  0.00     0.000 HD 
HETATM   37  H2  UNL     1      -8.129   6.285  66.847  1.00  0.00     0.000 HD 
ENDBRANCH  28  33
ENDBRANCH  24  25
ENDBRANCH   5  21
BRANCH   5  38
HETATM   38  O   UNL     1     -12.907  12.760  65.868  1.00  0.00    -0.299 OA 
HETATM   39  C   UNL     1     -13.303  12.350  64.560  1.00  0.00     0.660 C  
ENDBRANCH   5  38
TORSDOF 7
ENDMDL
MODEL      116
REMARK 921   NORMALIZED FREE ENERGY PREDICTED BY IDOCK:   -3.39 KCAL/MOL
REMARK 922        TOTAL FREE ENERGY PREDICTED BY IDOCK:   -6.24 KCAL/MOL
REMARK 923 INTER-LIGAND FREE ENERGY PREDICTED BY IDOCK:   -5.06 KCAL/MOL
REMARK 924 INTRA-LIGAND FREE ENERGY PREDICTED BY IDOCK:   -1.18 KCAL/MOL
REMARK 927      BINDING AFFINITY PREDICTED BY RF-SCORE:    0.00 PKD
ROOT
HETATM    1  C   UNL     1      -9.153   9.143  69.899  1.00  0.00    -0.178 C  
HETATM    2  S   UNL     1      -8.845   9.854  68.260  1.00  0.00    -0.120 SA 
HETATM    3  C   UNL     1      -9.478  11.483  68.728  1.00  0.00    -0.089 C  
HETATM    4  C   UNL     1     -10.838  11.457  69.416  1.00  0.00    -0.214 C  
HETATM    5  C   UNL     1      -9.296   7.553  69.972  1.00  0.00    -0.154 C  
HETATM    6  C   UNL     1     -11.324  10.383  70.111  1.00  0.00    -0.323 C  
HETATM    7  N   UNL     1     -10.576   9.234  70.183  1.00  0.00    -0.217 N  
HETATM    8  C   UNL     1     -12.699  10.466  70.765  1.00  0.00    -0.371 C  
HETATM    9  O   UNL     1     -13.403  11.465  70.721  1.00  0.00     0.138 OA 
HETATM   10  O   UNL     1     -13.125   9.414  71.479  1.00  0.00    -0.343 OA 
HETATM   11  O   UNL     1     -11.653   7.437  71.167  1.00  0.00    -0.271 OA 
HETATM   12  C   UNL     1     -10.726   7.953  70.582  1.00  0.00    -0.228 C  
ENDROOT
BRANCH   4  13
HETATM   13  C   UNL     1     -11.607  12.754  69.143  1.00  0.00    -0.319 C  
BRANCH  13  14
HETATM   14  S   UNL     1     -10.920  14.132  70.105  1.00  0.00     0.335 SA 
BRANCH  14  15
HETATM   15  C   UNL     1     -12.375  14.805  70.751  1.00  0.00    -0.330 A  
HETATM   16  N   UNL     1     -13.571  14.713  70.218  1.00  0.00     0.356 NA 
HETATM   17  C   UNL     1     -11.449  15.937  72.832  1.00  0.00     0.004 C  
HETATM   18  N   UNL     1     -14.403  15.446  71.033  1.00  0.00    -0.401 NA 
HETATM   19  N   UNL     1     -12.460  15.565  71.882  1.00  0.00    -0.364 NA 
HETATM   20  N   UNL     1     -13.734  15.967  72.053  1.00  0.00    -0.287 NA 
ENDBRANCH  14  15
ENDBRANCH  13  14
ENDBRANCH   4  13
BRANCH   5  21
HETATM   21  N   UNL     1      -9.256   6.884  68.640  1.00  0.00    -0.131 N  
HETATM   22  O   UNL     1     -10.028   4.858  69.309  1.00  0.00    -0.192 OA 
HETATM   23  H   UNL     1      -8.939   7.441  67.846  1.00  0.00     0.000 HD 
HETATM   24  C   UNL     1      -9.612   5.573  68.392  1.00  0.00    -0.124 C  
BRANCH  24  25
HETATM   25  C   UNL     1      -9.481   5.085  66.903  1.00  0.00    -0.142 C  
HETATM   26  S   UNL     1      -7.815   5.316  66.161  1.00  0.00    -0.104 SA 
HETATM   27  C   UNL     1      -8.479   3.902  65.354  1.00  0.00    -0.109 C  
HETATM   28  C   UNL     1      -8.358   3.441  64.087  1.00  0.00    -0.090 C  
HETATM   29  S   UNL     1      -9.263   3.269  66.791  1.00  0.00    -0.144 SA 
HETATM   30  O   UNL     1      -8.910   1.826  62.397  1.00  0.00    -0.071 OA 
HETATM   31  C   UNL     1      -9.057   2.181  63.697  1.00  0.00    -0.096 C  
HETATM   32  O   UNL     1      -9.713   1.478  64.449  1.00  0.00    -0.127 OA 
BRANCH  28  33
HETATM   33  C   UNL     1      -7.580   4.204  63.070  1.00  0.00    -0.057 C  
HETATM   34  O   UNL     1      -8.053   5.230  62.581  1.00  0.00    -0.081 OA 
HETATM   35  N   UNL     1      -6.379   3.756  62.636  1.00  0.00    -0.021 N  
HETATM   36  H1  UNL     1      -5.846   4.279  61.940  1.00  0.00     0.000 HD 
HETATM   37  H2  UNL     1      -6.001   2.885  63.009  1.00  0.00     0.000 HD 
ENDBRANCH  28  33
ENDBRANCH  24  25
ENDBRANCH   5  21
BRANCH   5  38
HETATM   38  O   UNL     1      -8.409   6.906  70.927  1.00  0.00    -0.127 OA 
HETATM   39  C   UNL     1      -7.044   7.317  70.877  1.00  0.00    -0.068 C  
ENDBRANCH   5  38
TORSDOF 7
ENDMDL
MODEL      117
REMARK 921   NORMALIZED FREE ENERGY PREDICTED BY IDOCK:   -3.39 KCAL/MOL
REMARK 922        TOTAL FREE ENERGY PREDICTED BY IDOCK:   -6.23 KCAL/MOL
REMARK 923 INTER-LIGAND FREE ENERGY PREDICTED BY IDOCK:   -6.28 KCAL/MOL
REMARK 924 INTRA-LIGAND FREE ENERGY PREDICTED BY IDOCK:    0.05 KCAL/MOL
REMARK 927      BINDING AFFINITY PREDICTED BY RF-SCORE:    0.00 PKD
ROOT
HETATM    1  C   UNL     1      -8.573  10.822  66.485  1.00  0.00    -0.150 C  
HETATM    2  S   UNL     1      -9.869  10.382  67.675  1.00  0.00    -0.175 SA 
HETATM    3  C   UNL     1     -10.759  11.942  67.446  1.00  0.00    -0.232 C  
HETATM    4  C   UNL     1      -9.884  13.186  67.544  1.00  0.00    -0.216 C  
HETATM    5  C   UNL     1      -7.177  10.059  66.637  1.00  0.00    -0.099 C  
HETATM    6  C   UNL     1      -8.540  13.199  67.287  1.00  0.00    -0.210 C  
HETATM    7  N   UNL     1      -7.908  12.028  66.951  1.00  0.00    -0.133 N  
HETATM    8  C   UNL     1      -7.760  14.504  67.411  1.00  0.00    -0.192 C  
HETATM    9  O   UNL     1      -8.279  15.569  67.715  1.00  0.00    -0.139 OA 
HETATM   10  O   UNL     1      -6.454  14.491  67.107  1.00  0.00    -0.221 OA 
HETATM   11  O   UNL     1      -5.603  12.177  66.810  1.00  0.00    -0.301 OA 
HETATM   12  C   UNL     1      -6.649  11.565  66.799  1.00  0.00    -0.119 C  
ENDROOT
BRANCH   4  13
HETATM   13  C   UNL     1     -10.698  14.382  68.049  1.00  0.00    -0.241 C  
BRANCH  13  14
HETATM   14  S   UNL     1     -12.464  14.166  67.688  1.00  0.00     0.424 SA 
BRANCH  14  15
HETATM   15  C   UNL     1     -12.408  14.050  65.964  1.00  0.00    -0.473 A  
HETATM   16  N   UNL     1     -13.030  13.158  65.229  1.00  0.00    -0.700 NA 
HETATM   17  C   UNL     1     -10.834  15.980  65.446  1.00  0.00    -0.328 C  
HETATM   18  N   UNL     1     -12.647  13.408  63.931  1.00  0.00    -0.693 NA 
HETATM   19  N   UNL     1     -11.665  14.850  65.142  1.00  0.00    -0.329 NA 
HETATM   20  N   UNL     1     -11.817  14.440  63.868  1.00  0.00    -0.238 NA 
ENDBRANCH  14  15
ENDBRANCH  13  14
ENDBRANCH   4  13
BRANCH   5  21
HETATM   21  N   UNL     1      -7.112   9.155  67.821  1.00  0.00    -0.078 N  
HETATM   22  O   UNL     1      -7.929   7.294  66.810  1.00  0.00    -0.113 OA 
HETATM   23  H   UNL     1      -6.749   9.546  68.690  1.00  0.00     0.000 HD 
HETATM   24  C   UNL     1      -7.505   7.830  67.838  1.00  0.00    -0.104 C  
BRANCH  24  25
HETATM   25  C   UNL     1      -7.349   7.075  69.209  1.00  0.00    -0.092 C  
HETATM   26  S   UNL     1      -7.755   8.082  70.692  1.00  0.00    -0.092 SA 
HETATM   27  C   UNL     1      -8.150   6.429  71.144  1.00  0.00    -0.117 C  
HETATM   28  C   UNL     1      -8.057   5.763  72.319  1.00  0.00    -0.107 C  
HETATM   29  S   UNL     1      -8.786   5.996  69.567  1.00  0.00    -0.126 SA 
HETATM   30  O   UNL     1      -8.310   3.744  73.594  1.00  0.00    -0.086 OA 
HETATM   31  C   UNL     1      -8.483   4.334  72.385  1.00  0.00    -0.105 C  
HETATM   32  O   UNL     1      -8.966   3.700  71.462  1.00  0.00    -0.098 OA 
BRANCH  28  33
HETATM   33  C   UNL     1      -7.486   6.425  73.526  1.00  0.00    -0.089 C  
HETATM   34  O   UNL     1      -8.162   7.239  74.156  1.00  0.00    -0.132 OA 
HETATM   35  N   UNL     1      -6.211   6.184  73.913  1.00  0.00    -0.064 N  
HETATM   36  H1  UNL     1      -5.821   6.637  74.739  1.00  0.00     0.000 HD 
HETATM   37  H2  UNL     1      -5.634   5.541  73.371  1.00  0.00     0.000 HD 
ENDBRANCH  28  33
ENDBRANCH  24  25
ENDBRANCH   5  21
BRANCH   5  38
HETATM   38  O   UNL     1      -6.712   9.398  65.428  1.00  0.00    -0.075 OA 
HETATM   39  C   UNL     1      -5.304   9.180  65.347  1.00  0.00    -0.037 C  
ENDBRANCH   5  38
TORSDOF 7
ENDMDL
MODEL      118
REMARK 921   NORMALIZED FREE ENERGY PREDICTED BY IDOCK:   -3.30 KCAL/MOL
REMARK 922        TOTAL FREE ENERGY PREDICTED BY IDOCK:   -6.11 KCAL/MOL
REMARK 923 INTER-LIGAND FREE ENERGY PREDICTED BY IDOCK:   -5.17 KCAL/MOL
REMARK 924 INTRA-LIGAND FREE ENERGY PREDICTED BY IDOCK:   -0.94 KCAL/MOL
REMARK 927      BINDING AFFINITY PREDICTED BY RF-SCORE:    0.00 PKD
ROOT
HETATM    1  C   UNL     1      -8.717  11.369  67.493  1.00  0.00    -0.140 C  
HETATM    2  S   UNL     1     -10.261  11.202  68.428  1.00  0.00    -0.195 SA 
HETATM    3  C   UNL     1     -10.512  12.991  68.542  1.00  0.00    -0.249 C  
HETATM    4  C   UNL     1      -9.292  13.769  69.022  1.00  0.00     0.228 C  
HETATM    5  C   UNL     1      -7.712  10.128  67.549  1.00  0.00    -0.091 C  
HETATM    6  C   UNL     1      -8.003  13.335  68.880  1.00  0.00     0.140 C  
HETATM    7  N   UNL     1      -7.764  12.112  68.303  1.00  0.00    -0.128 N  
HETATM    8  C   UNL     1      -6.855  14.196  69.394  1.00  0.00    -0.104 C  
HETATM    9  O   UNL     1      -7.019  15.287  69.922  1.00  0.00    -0.180 OA 
HETATM   10  O   UNL     1      -5.601  13.763  69.197  1.00  0.00    -0.076 OA 
HETATM   11  O   UNL     1      -5.558  11.418  68.379  1.00  0.00    -0.046 OA 
HETATM   12  C   UNL     1      -6.733  11.257  68.132  1.00  0.00    -0.058 C  
ENDROOT
BRANCH   4  13
HETATM   13  C   UNL     1      -9.719  15.045  69.755  1.00  0.00     0.010 C  
BRANCH  13  14
HETATM   14  S   UNL     1     -11.129  15.832  68.925  1.00  0.00    -0.321 SA 
BRANCH  14  15
HETATM   15  C   UNL     1     -10.515  15.929  67.313  1.00  0.00    -0.310 A  
HETATM   16  N   UNL     1      -9.404  16.526  66.944  1.00  0.00    -0.225 NA 
HETATM   17  C   UNL     1     -12.350  14.684  66.067  1.00  0.00    -0.104 C  
HETATM   18  N   UNL     1      -9.351  16.407  65.574  1.00  0.00    -0.389 NA 
HETATM   19  N   UNL     1     -11.134  15.435  66.200  1.00  0.00    -0.280 NA 
HETATM   20  N   UNL     1     -10.401  15.740  65.112  1.00  0.00    -0.485 NA 
ENDBRANCH  14  15
ENDBRANCH  13  14
ENDBRANCH   4  13
BRANCH   5  21
HETATM   21  N   UNL     1      -8.156   9.035  68.462  1.00  0.00    -0.107 N  
HETATM   22  O   UNL     1      -6.115   8.111  68.822  1.00  0.00    -0.041 OA 
HETATM   23  H   UNL     1      -9.150   8.985  68.682  1.00  0.00     0.000 HD 
HETATM   24  C   UNL     1      -7.332   8.085  69.033  1.00  0.00    -0.084 C  
BRANCH  24  25
HETATM   25  C   UNL     1      -8.029   7.024  69.960  1.00  0.00    -0.115 C  
HETATM   26  S   UNL     1      -7.326   6.902  71.654  1.00  0.00    -0.085 SA 
HETATM   27  C   UNL     1      -9.022   6.472  71.834  1.00  0.00    -0.137 C  
HETATM   28  C   UNL     1      -9.652   5.589  72.643  1.00  0.00    -0.166 C  
HETATM   29  S   UNL     1      -9.596   7.654  70.671  1.00  0.00    -0.162 SA 
HETATM   30  O   UNL     1     -11.668   4.510  73.378  1.00  0.00    -0.270 OA 
HETATM   31  C   UNL     1     -11.136   5.451  72.560  1.00  0.00    -0.253 C  
HETATM   32  O   UNL     1     -11.866   6.113  71.840  1.00  0.00    -0.314 OA 
BRANCH  28  33
HETATM   33  C   UNL     1      -8.877   4.720  73.573  1.00  0.00    -0.105 C  
HETATM   34  O   UNL     1      -8.295   5.220  74.537  1.00  0.00    -0.103 OA 
HETATM   35  N   UNL     1      -8.756   3.391  73.344  1.00  0.00    -0.078 N  
HETATM   36  H1  UNL     1      -8.226   2.797  73.980  1.00  0.00     0.000 HD 
HETATM   37  H2  UNL     1      -9.203   2.979  72.524  1.00  0.00     0.000 HD 
ENDBRANCH  28  33
ENDBRANCH  24  25
ENDBRANCH   5  21
BRANCH   5  38
HETATM   38  O   UNL     1      -7.309   9.613  66.249  1.00  0.00    -0.092 OA 
HETATM   39  C   UNL     1      -6.814  10.584  65.328  1.00  0.00    -0.050 C  
ENDBRANCH   5  38
TORSDOF 7
ENDMDL
MODEL      119
REMARK 921   NORMALIZED FREE ENERGY PREDICTED BY IDOCK:   -3.30 KCAL/MOL
REMARK 922        TOTAL FREE ENERGY PREDICTED BY IDOCK:   -6.11 KCAL/MOL
REMARK 923 INTER-LIGAND FREE ENERGY PREDICTED BY IDOCK:   -5.41 KCAL/MOL
REMARK 924 INTRA-LIGAND FREE ENERGY PREDICTED BY IDOCK:   -0.69 KCAL/MOL
REMARK 927      BINDING AFFINITY PREDICTED BY RF-SCORE:    0.00 PKD
ROOT
HETATM    1  C   UNL     1      -7.022  15.791  68.528  1.00  0.00    -0.117 C  
HETATM    2  S   UNL     1      -6.429  15.791  66.814  1.00  0.00     0.835 SA 
HETATM    3  C   UNL     1      -6.890  17.520  66.541  1.00  0.00    -0.247 C  
HETATM    4  C   UNL     1      -8.313  17.866  66.961  1.00  0.00    -0.248 C  
HETATM    5  C   UNL     1      -7.385  14.367  69.157  1.00  0.00    -0.113 C  
HETATM    6  C   UNL     1      -9.017  17.184  67.915  1.00  0.00    -0.230 C  
HETATM    7  N   UNL     1      -8.444  16.095  68.524  1.00  0.00    -0.187 N  
HETATM    8  C   UNL     1     -10.437  17.619  68.261  1.00  0.00    -0.375 C  
HETATM    9  O   UNL     1     -10.991  18.576  67.739  1.00  0.00    -0.329 OA 
HETATM   10  O   UNL     1     -11.082  16.958  69.234  1.00  0.00    -0.212 OA 
HETATM   11  O   UNL     1      -9.862  14.904  69.913  1.00  0.00    -0.030 OA 
HETATM   12  C   UNL     1      -8.810  15.081  69.337  1.00  0.00    -0.115 C  
ENDROOT
BRANCH   4  13
HETATM   13  C   UNL     1      -8.864  19.015  66.110  1.00  0.00    -0.183 C  
BRANCH  13  14
HETATM   14  S   UNL     1      -8.918  20.561  67.060  1.00  0.00    -0.196 SA 
BRANCH  14  15
HETATM   15  C   UNL     1      -7.226  20.863  67.243  1.00  0.00    -0.350 A  
HETATM   16  N   UNL     1      -6.431  21.378  66.334  1.00  0.00    -0.331 NA 
HETATM   17  C   UNL     1      -6.880  20.005  69.612  1.00  0.00    -0.210 C  
HETATM   18  N   UNL     1      -5.172  21.374  66.890  1.00  0.00    -0.255 NA 
HETATM   19  N   UNL     1      -6.483  20.558  68.348  1.00  0.00    -0.303 NA 
HETATM   20  N   UNL     1      -5.195  20.878  68.120  1.00  0.00    -0.264 NA 
ENDBRANCH  14  15
ENDBRANCH  13  14
ENDBRANCH   4  13
BRANCH   5  21
HETATM   21  N   UNL     1      -7.276  13.237  68.190  1.00  0.00    -0.097 N  
HETATM   22  O   UNL     1      -8.925  11.947  69.065  1.00  0.00     0.095 OA 
HETATM   23  H   UNL     1      -6.576  13.318  67.453  1.00  0.00     0.000 HD 
HETATM   24  C   UNL     1      -8.044  12.090  68.211  1.00  0.00    -0.155 C  
BRANCH  24  25
HETATM   25  C   UNL     1      -7.744  11.029  67.089  1.00  0.00    -0.131 C  
HETATM   26  S   UNL     1      -8.419   9.351  67.416  1.00  0.00    -0.126 SA 
HETATM   27  C   UNL     1      -8.411   9.504  65.665  1.00  0.00    -0.133 C  
HETATM   28  C   UNL     1      -8.188   8.604  64.677  1.00  0.00    -0.167 C  
HETATM   29  S   UNL     1      -8.883  11.193  65.664  1.00  0.00    -0.111 SA 
HETATM   30  O   UNL     1      -7.975   8.087  62.342  1.00  0.00    -0.141 OA 
HETATM   31  C   UNL     1      -8.256   9.050  63.254  1.00  0.00    -0.181 C  
HETATM   32  O   UNL     1      -8.547  10.174  62.881  1.00  0.00    -0.156 OA 
BRANCH  28  33
HETATM   33  C   UNL     1      -7.826   7.195  64.998  1.00  0.00    -0.125 C  
HETATM   34  O   UNL     1      -6.701   6.934  65.426  1.00  0.00    -0.049 OA 
HETATM   35  N   UNL     1      -8.701   6.186  64.777  1.00  0.00    -0.354 N  
HETATM   36  H1  UNL     1      -8.453   5.221  64.997  1.00  0.00     0.000 HD 
HETATM   37  H2  UNL     1      -9.620   6.393  64.384  1.00  0.00     0.000 HD 
ENDBRANCH  28  33
ENDBRANCH  24  25
ENDBRANCH   5  21
BRANCH   5  38
HETATM   38  O   UNL     1      -6.713  14.069  70.412  1.00  0.00     0.015 OA 
HETATM   39  C   UNL     1      -5.482  14.758  70.632  1.00  0.00    -0.140 C  
ENDBRANCH   5  38
TORSDOF 7
ENDMDL
MODEL      120
REMARK 921   NORMALIZED FREE ENERGY PREDICTED BY IDOCK:   -3.25 KCAL/MOL
REMARK 922        TOTAL FREE ENERGY PREDICTED BY IDOCK:   -6.04 KCAL/MOL
REMARK 923 INTER-LIGAND FREE ENERGY PREDICTED BY IDOCK:   -4.64 KCAL/MOL
REMARK 924 INTRA-LIGAND FREE ENERGY PREDICTED BY IDOCK:   -1.40 KCAL/MOL
REMARK 927      BINDING AFFINITY PREDICTED BY RF-SCORE:    0.00 PKD
ROOT
HETATM    1  C   UNL     1      -8.663  10.835  67.255  1.00  0.00    -0.130 C  
HETATM    2  S   UNL     1     -10.148   9.866  67.634  1.00  0.00    -0.211 SA 
HETATM    3  C   UNL     1     -11.273  11.206  67.171  1.00  0.00    -0.249 C  
HETATM    4  C   UNL     1     -10.939  12.554  67.799  1.00  0.00    -0.270 C  
HETATM    5  C   UNL     1      -7.311  10.378  67.973  1.00  0.00    -0.085 C  
HETATM    6  C   UNL     1      -9.686  12.916  68.215  1.00  0.00    -0.217 C  
HETATM    7  N   UNL     1      -8.655  12.017  68.102  1.00  0.00    -0.167 N  
HETATM    8  C   UNL     1      -9.463  14.294  68.827  1.00  0.00    -0.131 C  
HETATM    9  O   UNL     1     -10.352  15.123  68.956  1.00  0.00    -0.226 OA 
HETATM   10  O   UNL     1      -8.214  14.634  69.181  1.00  0.00    -0.142 OA 
HETATM   11  O   UNL     1      -6.672  12.689  69.090  1.00  0.00    -0.102 OA 
HETATM   12  C   UNL     1      -7.377  11.885  68.520  1.00  0.00    -0.111 C  
ENDROOT
BRANCH   4  13
HETATM   13  C   UNL     1     -12.206  13.397  67.976  1.00  0.00    -0.100 C  
BRANCH  13  14
HETATM   14  S   UNL     1     -12.879  13.905  66.368  1.00  0.00     0.398 SA 
BRANCH  14  15
HETATM   15  C   UNL     1     -11.548  14.823  65.759  1.00  0.00    -0.290 A  
HETATM   16  N   UNL     1     -11.253  16.062  66.079  1.00  0.00     0.032 NA 
HETATM   17  C   UNL     1     -10.524  13.114  64.177  1.00  0.00    -0.326 C  
HETATM   18  N   UNL     1     -10.162  16.398  65.311  1.00  0.00    -0.589 NA 
HETATM   19  N   UNL     1     -10.652  14.389  64.824  1.00  0.00    -0.426 NA 
HETATM   20  N   UNL     1      -9.786  15.383  64.544  1.00  0.00     0.367 NA 
ENDBRANCH  14  15
ENDBRANCH  13  14
ENDBRANCH   4  13
BRANCH   5  21
HETATM   21  N   UNL     1      -7.495   9.262  68.947  1.00  0.00    -0.074 N  
HETATM   22  O   UNL     1      -5.764   9.787  70.318  1.00  0.00    -0.040 OA 
HETATM   23  H   UNL     1      -8.269   8.621  68.782  1.00  0.00     0.000 HD 
HETATM   24  C   UNL     1      -6.701   9.028  70.053  1.00  0.00    -0.044 C  
BRANCH  24  25
HETATM   25  C   UNL     1      -7.085   7.783  70.934  1.00  0.00    -0.053 C  
HETATM   26  S   UNL     1      -8.593   8.002  71.961  1.00  0.00    -0.162 SA 
HETATM   27  C   UNL     1      -8.532   6.281  71.604  1.00  0.00    -0.129 C  
HETATM   28  C   UNL     1      -8.884   5.192  72.329  1.00  0.00    -0.134 C  
HETATM   29  S   UNL     1      -7.951   6.493  69.963  1.00  0.00    -0.118 SA 
HETATM   30  O   UNL     1      -9.050   2.808  72.555  1.00  0.00    -0.080 OA 
HETATM   31  C   UNL     1      -8.711   3.833  71.736  1.00  0.00    -0.094 C  
HETATM   32  O   UNL     1      -8.313   3.603  70.606  1.00  0.00    -0.066 OA 
BRANCH  28  33
HETATM   33  C   UNL     1      -9.389   5.336  73.723  1.00  0.00    -0.132 C  
HETATM   34  O   UNL     1      -8.714   5.936  74.561  1.00  0.00    -0.117 OA 
HETATM   35  N   UNL     1     -10.560   4.770  74.100  1.00  0.00    -0.284 N  
HETATM   36  H1  UNL     1     -10.906   4.869  75.054  1.00  0.00     0.000 HD 
HETATM   37  H2  UNL     1     -11.104   4.238  73.419  1.00  0.00     0.000 HD 
ENDBRANCH  28  33
ENDBRANCH  24  25
ENDBRANCH   5  21
BRANCH   5  38
HETATM   38  O   UNL     1      -6.198  10.128  67.070  1.00  0.00    -0.061 OA 
HETATM   39  C   UNL     1      -6.514   9.387  65.892  1.00  0.00    -0.075 C  
ENDBRANCH   5  38
TORSDOF 7
ENDMDL
MODEL      121
REMARK 921   NORMALIZED FREE ENERGY PREDICTED BY IDOCK:   -3.17 KCAL/MOL
REMARK 922        TOTAL FREE ENERGY PREDICTED BY IDOCK:   -5.92 KCAL/MOL
REMARK 923 INTER-LIGAND FREE ENERGY PREDICTED BY IDOCK:   -4.49 KCAL/MOL
REMARK 924 INTRA-LIGAND FREE ENERGY PREDICTED BY IDOCK:   -1.43 KCAL/MOL
REMARK 927      BINDING AFFINITY PREDICTED BY RF-SCORE:    0.00 PKD
ROOT
HETATM    1  C   UNL     1      -7.215   5.408  66.498  1.00  0.00    -0.077 C  
HETATM    2  S   UNL     1      -5.985   6.407  67.380  1.00  0.00    -0.021 SA 
HETATM    3  C   UNL     1      -5.235   4.970  68.185  1.00  0.00    -0.007 C  
HETATM    4  C   UNL     1      -6.232   4.035  68.860  1.00  0.00    -0.032 C  
HETATM    5  C   UNL     1      -8.538   6.164  66.019  1.00  0.00    -0.145 C  
HETATM    6  C   UNL     1      -7.544   3.920  68.492  1.00  0.00    -0.058 C  
HETATM    7  N   UNL     1      -8.030   4.708  67.478  1.00  0.00    -0.096 N  
HETATM    8  C   UNL     1      -8.455   2.948  69.235  1.00  0.00    -0.063 C  
HETATM    9  O   UNL     1      -8.069   2.233  70.149  1.00  0.00    -0.042 OA 
HETATM   10  O   UNL     1      -9.724   2.826  68.818  1.00  0.00    -0.075 OA 
HETATM   11  O   UNL     1     -10.320   4.579  67.163  1.00  0.00    -0.115 OA 
HETATM   12  C   UNL     1      -9.222   5.040  66.937  1.00  0.00    -0.120 C  
ENDROOT
BRANCH   4  13
HETATM   13  C   UNL     1      -5.582   3.319  70.048  1.00  0.00    -0.017 C  
BRANCH  13  14
HETATM   14  S   UNL     1      -5.148   4.498  71.359  1.00  0.00    -0.004 SA 
BRANCH  14  15
HETATM   15  C   UNL     1      -6.728   4.984  71.864  1.00  0.00    -0.048 A  
HETATM   16  N   UNL     1      -7.363   6.067  71.478  1.00  0.00    -0.087 NA 
HETATM   17  C   UNL     1      -7.282   3.085  73.463  1.00  0.00    -0.042 C  
HETATM   18  N   UNL     1      -8.549   6.076  72.177  1.00  0.00    -0.128 NA 
HETATM   19  N   UNL     1      -7.506   4.323  72.771  1.00  0.00    -0.077 NA 
HETATM   20  N   UNL     1      -8.646   5.014  72.966  1.00  0.00    -0.114 NA 
ENDBRANCH  14  15
ENDBRANCH  13  14
ENDBRANCH   4  13
BRANCH   5  21
HETATM   21  N   UNL     1      -8.613   7.586  66.465  1.00  0.00    -0.125 N  
HETATM   22  O   UNL     1     -10.874   7.728  66.599  1.00  0.00    -0.143 OA 
HETATM   23  H   UNL     1      -7.732   8.082  66.596  1.00  0.00     0.000 HD 
HETATM   24  C   UNL     1      -9.778   8.285  66.716  1.00  0.00    -0.239 C  
BRANCH  24  25
HETATM   25  C   UNL     1      -9.609   9.780  67.172  1.00  0.00    -0.169 C  
HETATM   26  S   UNL     1      -9.249  10.963  65.811  1.00  0.00    -0.207 SA 
HETATM   27  C   UNL     1     -10.125  11.903  67.012  1.00  0.00    -0.205 C  
HETATM   28  C   UNL     1     -10.023  13.196  67.402  1.00  0.00    -0.229 C  
HETATM   29  S   UNL     1     -11.222  10.604  67.442  1.00  0.00    -0.092 SA 
HETATM   30  O   UNL     1     -10.721  15.004  68.820  1.00  0.00    -0.227 OA 
HETATM   31  C   UNL     1     -10.930  13.712  68.469  1.00  0.00    -0.267 C  
HETATM   32  O   UNL     1     -11.816  13.071  69.010  1.00  0.00    -0.302 OA 
BRANCH  28  33
HETATM   33  C   UNL     1      -8.983  14.088  66.816  1.00  0.00    -0.197 C  
HETATM   34  O   UNL     1      -7.879  14.179  67.355  1.00  0.00    -0.178 OA 
HETATM   35  N   UNL     1      -9.251  14.845  65.726  1.00  0.00    -0.480 N  
HETATM   36  H1  UNL     1      -8.539  15.455  65.325  1.00  0.00     0.000 HD 
HETATM   37  H2  UNL     1     -10.177  14.803  65.300  1.00  0.00     0.000 HD 
ENDBRANCH  28  33
ENDBRANCH  24  25
ENDBRANCH   5  21
BRANCH   5  38
HETATM   38  O   UNL     1      -8.836   6.028  64.601  1.00  0.00     0.073 OA 
HETATM   39  C   UNL     1      -8.619   4.731  64.047  1.00  0.00    -0.137 C  
ENDBRANCH   5  38
TORSDOF 7
ENDMDL
MODEL      122
REMARK 921   NORMALIZED FREE ENERGY PREDICTED BY IDOCK:   -3.16 KCAL/MOL
REMARK 922        TOTAL FREE ENERGY PREDICTED BY IDOCK:   -5.90 KCAL/MOL
REMARK 923 INTER-LIGAND FREE ENERGY PREDICTED BY IDOCK:   -5.43 KCAL/MOL
REMARK 924 INTRA-LIGAND FREE ENERGY PREDICTED BY IDOCK:   -0.47 KCAL/MOL
REMARK 927      BINDING AFFINITY PREDICTED BY RF-SCORE:    0.00 PKD
ROOT
HETATM    1  C   UNL     1     -10.664  15.751  68.692  1.00  0.00    -0.263 C  
HETATM    2  S   UNL     1      -8.990  15.824  69.383  1.00  0.00    -0.190 SA 
HETATM    3  C   UNL     1      -8.928  17.632  69.325  1.00  0.00     0.255 C  
HETATM    4  C   UNL     1      -9.335  18.234  67.986  1.00  0.00    -0.293 C  
HETATM    5  C   UNL     1     -11.088  14.379  67.990  1.00  0.00    -0.272 C  
HETATM    6  C   UNL     1     -10.165  17.616  67.089  1.00  0.00    -0.342 C  
HETATM    7  N   UNL     1     -10.647  16.363  67.372  1.00  0.00    -0.317 N  
HETATM    8  C   UNL     1     -10.511  18.312  65.778  1.00  0.00    -0.213 C  
HETATM    9  O   UNL     1     -10.098  19.424  65.479  1.00  0.00    -0.378 OA 
HETATM   10  O   UNL     1     -11.363  17.700  64.942  1.00  0.00    -0.535 OA 
HETATM   11  O   UNL     1     -11.813  15.360  65.643  1.00  0.00     0.029 OA 
HETATM   12  C   UNL     1     -11.306  15.366  66.743  1.00  0.00    -0.125 C  
ENDROOT
BRANCH   4  13
HETATM   13  C   UNL     1      -8.622  19.570  67.754  1.00  0.00    -0.315 C  
BRANCH  13  14
HETATM   14  S   UNL     1      -6.820  19.351  67.740  1.00  0.00    -0.233 SA 
BRANCH  14  15
HETATM   15  C   UNL     1      -6.471  19.821  66.114  1.00  0.00    -0.197 A  
HETATM   16  N   UNL     1      -6.787  20.967  65.556  1.00  0.00    -0.051 NA 
HETATM   17  C   UNL     1      -5.300  17.718  65.290  1.00  0.00     0.102 C  
HETATM   18  N   UNL     1      -6.372  20.875  64.247  1.00  0.00    -0.318 NA 
HETATM   19  N   UNL     1      -5.857  19.037  65.179  1.00  0.00    -0.225 NA 
HETATM   20  N   UNL     1      -5.800  19.702  64.009  1.00  0.00    -0.275 NA 
ENDBRANCH  14  15
ENDBRANCH  13  14
ENDBRANCH   4  13
BRANCH   5  21
HETATM   21  N   UNL     1      -9.985  13.377  67.915  1.00  0.00    -0.229 N  
HETATM   22  O   UNL     1      -9.174  13.988  65.886  1.00  0.00    -0.055 OA 
HETATM   23  H   UNL     1      -9.873  12.745  68.708  1.00  0.00     0.000 HD 
HETATM   24  C   UNL     1      -9.104  13.235  66.862  1.00  0.00    -0.232 C  
BRANCH  24  25
HETATM   25  C   UNL     1      -8.024  12.100  67.005  1.00  0.00    -0.138 C  
HETATM   26  S   UNL     1      -8.264  10.988  68.448  1.00  0.00    -0.143 SA 
HETATM   27  C   UNL     1      -7.478   9.991  67.232  1.00  0.00    -0.091 C  
HETATM   28  C   UNL     1      -6.572   8.988  67.327  1.00  0.00    -0.061 C  
HETATM   29  S   UNL     1      -8.354  10.691  65.882  1.00  0.00    -0.161 SA 
HETATM   30  O   UNL     1      -5.150   7.361  66.281  1.00  0.00    -0.022 OA 
HETATM   31  C   UNL     1      -6.088   8.320  66.084  1.00  0.00    -0.045 C  
HETATM   32  O   UNL     1      -6.476   8.568  64.954  1.00  0.00    -0.063 OA 
BRANCH  28  33
HETATM   33  C   UNL     1      -6.019   8.586  68.651  1.00  0.00    -0.045 C  
HETATM   34  O   UNL     1      -5.368   9.394  69.314  1.00  0.00    -0.036 OA 
HETATM   35  N   UNL     1      -6.177   7.324  69.115  1.00  0.00    -0.034 N  
HETATM   36  H1  UNL     1      -5.799   7.049  70.022  1.00  0.00     0.000 HD 
HETATM   37  H2  UNL     1      -6.681   6.640  68.551  1.00  0.00     0.000 HD 
ENDBRANCH  28  33
ENDBRANCH  24  25
ENDBRANCH   5  21
BRANCH   5  38
HETATM   38  O   UNL     1     -12.318  13.791  68.497  1.00  0.00    -0.269 OA 
HETATM   39  C   UNL     1     -12.321  12.369  68.607  1.00  0.00     0.346 C  
ENDBRANCH   5  38
TORSDOF 7
ENDMDL
MODEL      123
REMARK 921   NORMALIZED FREE ENERGY PREDICTED BY IDOCK:   -3.14 KCAL/MOL
REMARK 922        TOTAL FREE ENERGY PREDICTED BY IDOCK:   -5.88 KCAL/MOL
REMARK 923 INTER-LIGAND FREE ENERGY PREDICTED BY IDOCK:   -4.58 KCAL/MOL
REMARK 924 INTRA-LIGAND FREE ENERGY PREDICTED BY IDOCK:   -1.30 KCAL/MOL
REMARK 927      BINDING AFFINITY PREDICTED BY RF-SCORE:    0.00 PKD
ROOT
HETATM    1  C   UNL     1      -7.912  11.695  65.194  1.00  0.00     1.150 C  
HETATM    2  S   UNL     1      -7.412  11.227  66.873  1.00  0.00    -0.147 SA 
HETATM    3  C   UNL     1      -6.036  10.204  66.295  1.00  0.00    -0.070 C  
HETATM    4  C   UNL     1      -6.405   9.213  65.197  1.00  0.00    -0.068 C  
HETATM    5  C   UNL     1      -9.424  12.176  65.007  1.00  0.00     0.107 C  
HETATM    6  C   UNL     1      -7.452   9.383  64.333  1.00  0.00    -0.110 C  
HETATM    7  N   UNL     1      -8.258  10.488  64.461  1.00  0.00    -0.124 N  
HETATM    8  C   UNL     1      -7.730   8.330  63.267  1.00  0.00    -0.142 C  
HETATM    9  O   UNL     1      -7.046   7.326  63.121  1.00  0.00    -0.056 OA 
HETATM   10  O   UNL     1      -8.735   8.549  62.407  1.00  0.00    -0.179 OA 
HETATM   11  O   UNL     1     -10.128  10.486  63.099  1.00  0.00    -0.242 OA 
HETATM   12  C   UNL     1      -9.433  10.944  63.979  1.00  0.00    -0.262 C  
ENDROOT
BRANCH   4  13
HETATM   13  C   UNL     1      -5.502   7.977  65.258  1.00  0.00    -0.032 C  
BRANCH  13  14
HETATM   14  S   UNL     1      -5.703   7.102  66.836  1.00  0.00    -0.023 SA 
BRANCH  14  15
HETATM   15  C   UNL     1      -7.287   6.445  66.617  1.00  0.00    -0.078 A  
HETATM   16  N   UNL     1      -7.610   5.463  65.808  1.00  0.00    -0.082 NA 
HETATM   17  C   UNL     1      -8.601   7.928  68.212  1.00  0.00    -0.124 C  
HETATM   18  N   UNL     1      -8.975   5.322  65.915  1.00  0.00    -0.144 NA 
HETATM   19  N   UNL     1      -8.421   6.897  67.229  1.00  0.00    -0.121 NA 
HETATM   20  N   UNL     1      -9.478   6.191  66.782  1.00  0.00    -0.141 NA 
ENDBRANCH  14  15
ENDBRANCH  13  14
ENDBRANCH   4  13
BRANCH   5  21
HETATM   21  N   UNL     1     -10.246  12.070  66.248  1.00  0.00    -0.217 N  
HETATM   22  O   UNL     1     -12.264  11.829  65.238  1.00  0.00    -0.256 OA 
HETATM   23  H   UNL     1      -9.754  12.115  67.140  1.00  0.00     0.000 HD 
HETATM   24  C   UNL     1     -11.618  11.916  66.287  1.00  0.00    -0.246 C  
BRANCH  24  25
HETATM   25  C   UNL     1     -12.269  11.833  67.716  1.00  0.00     0.444 C  
HETATM   26  S   UNL     1     -11.514  10.585  68.834  1.00  0.00    -0.189 SA 
HETATM   27  C   UNL     1     -12.108  11.851  69.901  1.00  0.00    -0.272 C  
HETATM   28  C   UNL     1     -12.642  11.813  71.144  1.00  0.00    -0.412 C  
HETATM   29  S   UNL     1     -11.672  13.165  68.823  1.00  0.00    -0.333 SA 
HETATM   30  O   UNL     1     -13.620  12.940  73.026  1.00  0.00    -0.257 OA 
HETATM   31  C   UNL     1     -13.056  13.087  71.802  1.00  0.00    -0.373 C  
HETATM   32  O   UNL     1     -12.912  14.203  71.329  1.00  0.00    -0.326 OA 
BRANCH  28  33
HETATM   33  C   UNL     1     -12.868  10.512  71.836  1.00  0.00    -0.403 C  
HETATM   34  O   UNL     1     -12.021   9.622  71.759  1.00  0.00    -0.381 OA 
HETATM   35  N   UNL     1     -14.020  10.274  72.507  1.00  0.00    -0.319 N  
HETATM   36  H1  UNL     1     -14.174   9.384  72.981  1.00  0.00     0.000 HD 
HETATM   37  H2  UNL     1     -14.742  10.994  72.540  1.00  0.00     0.000 HD 
ENDBRANCH  28  33
ENDBRANCH  24  25
ENDBRANCH   5  21
BRANCH   5  38
HETATM   38  O   UNL     1      -9.574  13.475  64.371  1.00  0.00     0.135 OA 
HETATM   39  C   UNL     1      -9.913  14.553  65.242  1.00  0.00    -0.287 C  
ENDBRANCH   5  38
TORSDOF 7
ENDMDL
MODEL      124
REMARK 921   NORMALIZED FREE ENERGY PREDICTED BY IDOCK:   -3.11 KCAL/MOL
REMARK 922        TOTAL FREE ENERGY PREDICTED BY IDOCK:   -5.83 KCAL/MOL
REMARK 923 INTER-LIGAND FREE ENERGY PREDICTED BY IDOCK:   -4.73 KCAL/MOL
REMARK 924 INTRA-LIGAND FREE ENERGY PREDICTED BY IDOCK:   -1.10 KCAL/MOL
REMARK 927      BINDING AFFINITY PREDICTED BY RF-SCORE:    0.00 PKD
ROOT
HETATM    1  C   UNL     1      -9.349  11.938  68.743  1.00  0.00     0.024 C  
HETATM    2  S   UNL     1      -7.868  10.993  69.190  1.00  0.00    -0.041 SA 
HETATM    3  C   UNL     1      -6.984  11.457  67.680  1.00  0.00    -0.081 C  
HETATM    4  C   UNL     1      -7.782  11.255  66.397  1.00  0.00    -0.089 C  
HETATM    5  C   UNL     1     -10.717  11.493  69.439  1.00  0.00    -0.068 C  
HETATM    6  C   UNL     1      -9.149  11.256  66.337  1.00  0.00    -0.192 C  
HETATM    7  N   UNL     1      -9.873  11.412  67.492  1.00  0.00    -0.177 N  
HETATM    8  C   UNL     1      -9.845  11.049  64.996  1.00  0.00    -0.269 C  
HETATM    9  O   UNL     1      -9.242  10.897  63.943  1.00  0.00    -0.205 OA 
HETATM   10  O   UNL     1     -11.185  11.102  64.965  1.00  0.00    -0.105 OA 
HETATM   11  O   UNL     1     -12.157  11.127  67.250  1.00  0.00    -0.242 OA 
HETATM   12  C   UNL     1     -11.154  11.305  67.906  1.00  0.00    -0.267 C  
ENDROOT
BRANCH   4  13
HETATM   13  C   UNL     1      -6.846  10.967  65.218  1.00  0.00     0.226 C  
BRANCH  13  14
HETATM   14  S   UNL     1      -6.818   9.194  64.828  1.00  0.00    -0.087 SA 
BRANCH  14  15
HETATM   15  C   UNL     1      -6.420   8.549  66.382  1.00  0.00    -0.058 A  
HETATM   16  N   UNL     1      -5.269   8.677  67.000  1.00  0.00    -0.035 NA 
HETATM   17  C   UNL     1      -8.603   7.368  66.940  1.00  0.00    -0.120 C  
HETATM   18  N   UNL     1      -5.385   7.955  68.165  1.00  0.00    -0.031 NA 
HETATM   19  N   UNL     1      -7.243   7.777  67.152  1.00  0.00    -0.088 NA 
HETATM   20  N   UNL     1      -6.588   7.405  68.268  1.00  0.00    -0.048 NA 
ENDBRANCH  14  15
ENDBRANCH  13  14
ENDBRANCH   4  13
BRANCH   5  21
HETATM   21  N   UNL     1     -10.588  10.276  70.293  1.00  0.00    -0.419 N  
HETATM   22  O   UNL     1     -12.739   9.573  70.121  1.00  0.00     0.300 OA 
HETATM   23  H   UNL     1      -9.670  10.077  70.688  1.00  0.00     0.000 HD 
HETATM   24  C   UNL     1     -11.611   9.398  70.592  1.00  0.00    -0.269 C  
BRANCH  24  25
HETATM   25  C   UNL     1     -11.239   8.185  71.521  1.00  0.00    -0.259 C  
HETATM   26  S   UNL     1     -11.292   6.541  70.700  1.00  0.00    -0.370 SA 
HETATM   27  C   UNL     1     -10.062   6.386  71.947  1.00  0.00    -0.183 C  
HETATM   28  C   UNL     1      -9.699   5.349  72.738  1.00  0.00    -0.169 C  
HETATM   29  S   UNL     1      -9.427   8.007  71.728  1.00  0.00    -0.185 SA 
HETATM   30  O   UNL     1      -8.331   4.450  74.496  1.00  0.00    -0.090 OA 
HETATM   31  C   UNL     1      -8.590   5.532  73.721  1.00  0.00    -0.113 C  
HETATM   32  O   UNL     1      -7.927   6.548  73.852  1.00  0.00    -0.103 OA 
BRANCH  28  33
HETATM   33  C   UNL     1     -10.427   4.051  72.673  1.00  0.00    -0.146 C  
HETATM   34  O   UNL     1     -10.120   3.217  71.821  1.00  0.00    -0.151 OA 
HETATM   35  N   UNL     1     -11.462   3.793  73.507  1.00  0.00    -0.171 N  
HETATM   36  H1  UNL     1     -11.961   2.905  73.463  1.00  0.00     0.000 HD 
HETATM   37  H2  UNL     1     -11.747   4.497  74.189  1.00  0.00     0.000 HD 
ENDBRANCH  28  33
ENDBRANCH  24  25
ENDBRANCH   5  21
BRANCH   5  38
HETATM   38  O   UNL     1     -11.425  12.561  70.126  1.00  0.00    -0.130 OA 
HETATM   39  C   UNL     1     -11.716  13.715  69.338  1.00  0.00    -0.324 C  
ENDBRANCH   5  38
TORSDOF 7
ENDMDL
MODEL      125
REMARK 921   NORMALIZED FREE ENERGY PREDICTED BY IDOCK:   -3.08 KCAL/MOL
REMARK 922        TOTAL FREE ENERGY PREDICTED BY IDOCK:   -5.80 KCAL/MOL
REMARK 923 INTER-LIGAND FREE ENERGY PREDICTED BY IDOCK:   -5.01 KCAL/MOL
REMARK 924 INTRA-LIGAND FREE ENERGY PREDICTED BY IDOCK:   -0.78 KCAL/MOL
REMARK 927      BINDING AFFINITY PREDICTED BY RF-SCORE:    0.00 PKD
ROOT
HETATM    1  C   UNL     1      -7.147   9.950  66.972  1.00  0.00    -0.089 C  
HETATM    2  S   UNL     1      -7.087   8.220  67.511  1.00  0.00    -0.085 SA 
HETATM    3  C   UNL     1      -6.408   7.640  65.936  1.00  0.00    -0.042 C  
HETATM    4  C   UNL     1      -7.159   8.135  64.706  1.00  0.00    -0.079 C  
HETATM    5  C   UNL     1      -8.170  10.903  67.746  1.00  0.00    -0.116 C  
HETATM    6  C   UNL     1      -7.899   9.286  64.672  1.00  0.00    -0.120 C  
HETATM    7  N   UNL     1      -8.018  10.043  65.811  1.00  0.00    -0.121 N  
HETATM    8  C   UNL     1      -8.609   9.690  63.384  1.00  0.00    -0.209 C  
HETATM    9  O   UNL     1      -8.539   9.043  62.349  1.00  0.00    -0.201 OA 
HETATM   10  O   UNL     1      -9.287  10.847  63.372  1.00  0.00    -0.234 OA 
HETATM   11  O   UNL     1      -9.513  11.803  65.653  1.00  0.00    -0.231 OA 
HETATM   12  C   UNL     1      -8.746  11.088  66.260  1.00  0.00    -0.176 C  
ENDROOT
BRANCH   4  13
HETATM   13  C   UNL     1      -7.040   7.128  63.557  1.00  0.00    -0.069 C  
BRANCH  13  14
HETATM   14  S   UNL     1      -6.755   5.451  64.191  1.00  0.00    -0.047 SA 
BRANCH  14  15
HETATM   15  C   UNL     1      -8.386   4.953  64.473  1.00  0.00    -0.132 A  
HETATM   16  N   UNL     1      -9.159   5.361  65.452  1.00  0.00    -0.130 NA 
HETATM   17  C   UNL     1      -8.681   3.310  62.553  1.00  0.00    -0.077 C  
HETATM   18  N   UNL     1     -10.336   4.659  65.318  1.00  0.00    -0.135 NA 
HETATM   19  N   UNL     1      -9.069   4.029  63.734  1.00  0.00    -0.127 NA 
HETATM   20  N   UNL     1     -10.290   3.846  64.271  1.00  0.00    -0.238 NA 
ENDBRANCH  14  15
ENDBRANCH  13  14
ENDBRANCH   4  13
BRANCH   5  21
HETATM   21  N   UNL     1      -9.013  10.191  68.750  1.00  0.00    -0.139 N  
HETATM   22  O   UNL     1      -7.482  10.130  70.424  1.00  0.00    -0.247 OA 
HETATM   23  H   UNL     1      -9.963   9.945  68.472  1.00  0.00     0.000 HD 
HETATM   24  C   UNL     1      -8.613   9.836  70.023  1.00  0.00    -0.204 C  
BRANCH  24  25
HETATM   25  C   UNL     1      -9.676   9.083  70.903  1.00  0.00    -0.264 C  
HETATM   26  S   UNL     1     -11.356   8.986  70.165  1.00  0.00    -0.046 SA 
HETATM   27  C   UNL     1     -11.210   7.539  71.154  1.00  0.00    -0.257 C  
HETATM   28  C   UNL     1     -12.112   6.851  71.894  1.00  0.00    -0.370 C  
HETATM   29  S   UNL     1      -9.523   7.262  70.760  1.00  0.00    -0.163 SA 
HETATM   30  O   UNL     1     -12.637   5.041  73.382  1.00  0.00     0.505 OA 
HETATM   31  C   UNL     1     -11.672   5.633  72.636  1.00  0.00    -0.197 C  
HETATM   32  O   UNL     1     -10.551   5.154  72.601  1.00  0.00    -0.208 OA 
BRANCH  28  33
HETATM   33  C   UNL     1     -13.518   7.329  72.017  1.00  0.00    -0.108 C  
HETATM   34  O   UNL     1     -14.403   6.812  71.335  1.00  0.00    -0.165 OA 
HETATM   35  N   UNL     1     -13.831   8.364  72.833  1.00  0.00    -0.527 N  
HETATM   36  H1  UNL     1     -14.793   8.691  72.917  1.00  0.00     0.000 HD 
HETATM   37  H2  UNL     1     -13.094   8.822  73.370  1.00  0.00     0.000 HD 
ENDBRANCH  28  33
ENDBRANCH  24  25
ENDBRANCH   5  21
BRANCH   5  38
HETATM   38  O   UNL     1      -7.575  12.109  68.302  1.00  0.00    -0.115 OA 
HETATM   39  C   UNL     1      -8.495  13.073  68.810  1.00  0.00     0.150 C  
ENDBRANCH   5  38
TORSDOF 7
ENDMDL
MODEL      126
REMARK 921   NORMALIZED FREE ENERGY PREDICTED BY IDOCK:   -2.91 KCAL/MOL
REMARK 922        TOTAL FREE ENERGY PREDICTED BY IDOCK:   -5.55 KCAL/MOL
REMARK 923 INTER-LIGAND FREE ENERGY PREDICTED BY IDOCK:   -5.58 KCAL/MOL
REMARK 924 INTRA-LIGAND FREE ENERGY PREDICTED BY IDOCK:    0.03 KCAL/MOL
REMARK 927      BINDING AFFINITY PREDICTED BY RF-SCORE:    0.00 PKD
ROOT
HETATM    1  C   UNL     1      -9.333   8.733  71.779  1.00  0.00    -0.280 C  
HETATM    2  S   UNL     1      -8.752   9.424  70.207  1.00  0.00    -0.240 SA 
HETATM    3  C   UNL     1      -9.827  10.875  70.323  1.00  0.00     1.245 C  
HETATM    4  C   UNL     1     -11.283  10.557  70.640  1.00  0.00    -0.283 C  
HETATM    5  C   UNL     1      -9.143   7.159  71.981  1.00  0.00    -0.130 C  
HETATM    6  C   UNL     1     -11.695   9.431  71.298  1.00  0.00    -0.360 C  
HETATM    7  N   UNL     1     -10.765   8.496  71.679  1.00  0.00    -0.258 N  
HETATM    8  C   UNL     1     -13.180   9.214  71.567  1.00  0.00    -0.352 C  
HETATM    9  O   UNL     1     -14.045  10.014  71.239  1.00  0.00     0.099 OA 
HETATM   10  O   UNL     1     -13.546   8.123  72.256  1.00  0.00    -0.245 OA 
HETATM   11  O   UNL     1     -11.653   6.540  72.540  1.00  0.00    -0.265 OA 
HETATM   12  C   UNL     1     -10.736   7.234  72.160  1.00  0.00    -0.219 C  
ENDROOT
BRANCH   4  13
HETATM   13  C   UNL     1     -12.211  11.621  70.045  1.00  0.00    -0.263 C  
BRANCH  13  14
HETATM   14  S   UNL     1     -11.262  13.045  69.438  1.00  0.00    -0.083 SA 
BRANCH  14  15
HETATM   15  C   UNL     1     -11.544  12.894  67.739  1.00  0.00    -0.343 A  
HETATM   16  N   UNL     1     -11.749  11.773  67.087  1.00  0.00    -0.593 NA 
HETATM   17  C   UNL     1     -11.391  15.338  67.049  1.00  0.00    -0.230 C  
HETATM   18  N   UNL     1     -11.860  12.125  65.761  1.00  0.00    -0.513 NA 
HETATM   19  N   UNL     1     -11.543  13.925  66.843  1.00  0.00    -0.357 NA 
HETATM   20  N   UNL     1     -11.739  13.436  65.603  1.00  0.00    -0.332 NA 
ENDBRANCH  14  15
ENDBRANCH  13  14
ENDBRANCH   4  13
BRANCH   5  21
HETATM   21  N   UNL     1      -8.597   6.461  70.781  1.00  0.00    -0.134 N  
HETATM   22  O   UNL     1      -9.145   4.348  71.401  1.00  0.00    -0.119 OA 
HETATM   23  H   UNL     1      -8.171   7.039  70.057  1.00  0.00     0.000 HD 
HETATM   24  C   UNL     1      -8.620   5.096  70.571  1.00  0.00    -0.118 C  
BRANCH  24  25
HETATM   25  C   UNL     1      -7.977   4.587  69.229  1.00  0.00    -0.069 C  
HETATM   26  S   UNL     1      -9.067   3.512  68.212  1.00  0.00    -0.165 SA 
HETATM   27  C   UNL     1      -8.028   4.331  67.054  1.00  0.00    -0.097 C  
HETATM   28  C   UNL     1      -7.486   3.930  65.879  1.00  0.00    -0.081 C  
HETATM   29  S   UNL     1      -8.029   5.860  67.913  1.00  0.00    -0.105 SA 
HETATM   30  O   UNL     1      -6.100   4.368  63.968  1.00  0.00    -0.017 OA 
HETATM   31  C   UNL     1      -6.630   4.878  65.107  1.00  0.00    -0.040 C  
HETATM   32  O   UNL     1      -6.401   6.035  65.421  1.00  0.00    -0.036 OA 
BRANCH  28  33
HETATM   33  C   UNL     1      -7.693   2.541  65.381  1.00  0.00    -0.077 C  
HETATM   34  O   UNL     1      -6.835   2.008  64.675  1.00  0.00    -0.036 OA 
HETATM   35  N   UNL     1      -8.838   1.870  65.649  1.00  0.00    -0.120 N  
HETATM   36  H1  UNL     1      -8.980   0.920  65.308  1.00  0.00     0.000 HD 
HETATM   37  H2  UNL     1      -9.569   2.322  66.199  1.00  0.00     0.000 HD 
ENDBRANCH  28  33
ENDBRANCH  24  25
ENDBRANCH   5  21
BRANCH   5  38
HETATM   38  O   UNL     1      -8.431   6.784  73.193  1.00  0.00    -0.118 OA 
HETATM   39  C   UNL     1      -8.335   7.799  74.191  1.00  0.00    -0.247 C  
ENDBRANCH   5  38
TORSDOF 7
ENDMDL
MODEL      127
REMARK 921   NORMALIZED FREE ENERGY PREDICTED BY IDOCK:   -2.80 KCAL/MOL
REMARK 922        TOTAL FREE ENERGY PREDICTED BY IDOCK:   -5.40 KCAL/MOL
REMARK 923 INTER-LIGAND FREE ENERGY PREDICTED BY IDOCK:   -4.89 KCAL/MOL
REMARK 924 INTRA-LIGAND FREE ENERGY PREDICTED BY IDOCK:   -0.51 KCAL/MOL
REMARK 927      BINDING AFFINITY PREDICTED BY RF-SCORE:    0.00 PKD
ROOT
HETATM    1  C   UNL     1      -7.676  12.139  66.742  1.00  0.00     0.029 C  
HETATM    2  S   UNL     1      -9.350  11.443  66.770  1.00  0.00    -0.185 SA 
HETATM    3  C   UNL     1     -10.143  13.068  66.684  1.00  0.00    -0.251 C  
HETATM    4  C   UNL     1      -9.613  14.082  67.691  1.00  0.00    -0.221 C  
HETATM    5  C   UNL     1      -6.512  11.221  67.338  1.00  0.00    -0.080 C  
HETATM    6  C   UNL     1      -8.358  14.037  68.235  1.00  0.00    -0.162 C  
HETATM    7  N   UNL     1      -7.516  13.006  67.898  1.00  0.00    -0.121 N  
HETATM    8  C   UNL     1      -7.928  15.107  69.231  1.00  0.00    -0.213 C  
HETATM    9  O   UNL     1      -8.646  16.038  69.568  1.00  0.00    -0.211 OA 
HETATM   10  O   UNL     1      -6.676  15.060  69.710  1.00  0.00    -0.159 OA 
HETATM   11  O   UNL     1      -5.541  12.935  69.103  1.00  0.00    -0.069 OA 
HETATM   12  C   UNL     1      -6.334  12.493  68.300  1.00  0.00    -0.062 C  
ENDROOT
BRANCH   4  13
HETATM   13  C   UNL     1     -10.702  15.093  68.066  1.00  0.00    -0.264 C  
BRANCH  13  14
HETATM   14  S   UNL     1     -11.027  16.237  66.694  1.00  0.00     0.088 SA 
BRANCH  14  15
HETATM   15  C   UNL     1      -9.595  17.203  66.760  1.00  0.00    -0.270 A  
HETATM   16  N   UNL     1      -8.390  16.823  66.403  1.00  0.00    -0.284 NA 
HETATM   17  C   UNL     1     -10.558  19.350  67.728  1.00  0.00    -0.422 C  
HETATM   18  N   UNL     1      -7.562  17.886  66.685  1.00  0.00    -0.217 NA 
HETATM   19  N   UNL     1      -9.525  18.480  67.241  1.00  0.00    -0.284 NA 
HETATM   20  N   UNL     1      -8.247  18.902  67.194  1.00  0.00    -0.265 NA 
ENDBRANCH  14  15
ENDBRANCH  13  14
ENDBRANCH   4  13
BRANCH   5  21
HETATM   21  N   UNL     1      -7.000   9.944  67.935  1.00  0.00    -0.080 N  
HETATM   22  O   UNL     1      -5.929  10.129  69.928  1.00  0.00    -0.042 OA 
HETATM   23  H   UNL     1      -7.629   9.374  67.371  1.00  0.00     0.000 HD 
HETATM   24  C   UNL     1      -6.668   9.470  69.189  1.00  0.00    -0.049 C  
BRANCH  24  25
HETATM   25  C   UNL     1      -7.301   8.091  69.602  1.00  0.00    -0.085 C  
HETATM   26  S   UNL     1      -8.291   7.274  68.287  1.00  0.00    -0.125 SA 
HETATM   27  C   UNL     1      -7.641   5.955  69.252  1.00  0.00    -0.089 C  
HETATM   28  C   UNL     1      -8.148   4.747  69.596  1.00  0.00    -0.065 C  
HETATM   29  S   UNL     1      -6.086   6.722  69.518  1.00  0.00    -0.030 SA 
HETATM   30  O   UNL     1      -7.946   2.662  70.770  1.00  0.00    -0.045 OA 
HETATM   31  C   UNL     1      -7.334   3.827  70.443  1.00  0.00    -0.041 C  
HETATM   32  O   UNL     1      -6.197   4.046  70.830  1.00  0.00    -0.017 OA 
BRANCH  28  33
HETATM   33  C   UNL     1      -9.526   4.355  69.184  1.00  0.00    -0.170 C  
HETATM   34  O   UNL     1     -10.496   4.976  69.620  1.00  0.00    -0.255 OA 
HETATM   35  N   UNL     1      -9.731   3.288  68.376  1.00  0.00    -0.043 N  
HETATM   36  H1  UNL     1     -10.674   3.020  68.094  1.00  0.00     0.000 HD 
HETATM   37  H2  UNL     1      -8.933   2.746  68.045  1.00  0.00     0.000 HD 
ENDBRANCH  28  33
ENDBRANCH  24  25
ENDBRANCH   5  21
BRANCH   5  38
HETATM   38  O   UNL     1      -5.390  11.001  66.438  1.00  0.00    -0.082 OA 
HETATM   39  C   UNL     1      -5.464   9.824  65.636  1.00  0.00    -0.046 C  
ENDBRANCH   5  38
TORSDOF 7
ENDMDL
MODEL      128
REMARK 921   NORMALIZED FREE ENERGY PREDICTED BY IDOCK:   -2.79 KCAL/MOL
REMARK 922        TOTAL FREE ENERGY PREDICTED BY IDOCK:   -5.38 KCAL/MOL
REMARK 923 INTER-LIGAND FREE ENERGY PREDICTED BY IDOCK:   -5.46 KCAL/MOL
REMARK 924 INTRA-LIGAND FREE ENERGY PREDICTED BY IDOCK:    0.07 KCAL/MOL
REMARK 927      BINDING AFFINITY PREDICTED BY RF-SCORE:    0.00 PKD
ROOT
HETATM    1  C   UNL     1     -10.158  14.627  66.590  1.00  0.00    -0.273 C  
HETATM    2  S   UNL     1     -11.211  14.952  68.029  1.00  0.00    -0.320 SA 
HETATM    3  C   UNL     1     -10.474  16.577  68.336  1.00  0.00    -0.307 C  
HETATM    4  C   UNL     1      -8.950  16.583  68.362  1.00  0.00    -0.219 C  
HETATM    5  C   UNL     1      -9.956  13.094  66.185  1.00  0.00    -0.291 C  
HETATM    6  C   UNL     1      -8.170  15.665  67.715  1.00  0.00    -0.145 C  
HETATM    7  N   UNL     1      -8.769  14.644  67.019  1.00  0.00    -0.227 N  
HETATM    8  C   UNL     1      -6.651  15.767  67.805  1.00  0.00    -0.159 C  
HETATM    9  O   UNL     1      -6.074  16.653  68.420  1.00  0.00    -0.124 OA 
HETATM   10  O   UNL     1      -5.916  14.879  67.121  1.00  0.00    -0.236 OA 
HETATM   11  O   UNL     1      -7.312  13.038  66.211  1.00  0.00     1.118 OA 
HETATM   12  C   UNL     1      -8.418  13.486  66.419  1.00  0.00     0.511 C  
ENDROOT
BRANCH   4  13
HETATM   13  C   UNL     1      -8.430  17.697  69.277  1.00  0.00     0.263 C  
BRANCH  13  14
HETATM   14  S   UNL     1      -7.438  18.896  68.342  1.00  0.00    -0.311 SA 
BRANCH  14  15
HETATM   15  C   UNL     1      -8.520  19.232  67.038  1.00  0.00    -0.284 A  
HETATM   16  N   UNL     1      -8.502  18.666  65.853  1.00  0.00    -0.461 NA 
HETATM   17  C   UNL     1      -9.955  21.037  68.113  1.00  0.00     0.458 C  
HETATM   18  N   UNL     1      -9.495  19.284  65.127  1.00  0.00     0.950 NA 
HETATM   19  N   UNL     1      -9.512  20.172  67.056  1.00  0.00    -0.384 NA 
HETATM   20  N   UNL     1     -10.118  20.201  65.854  1.00  0.00    -0.423 NA 
ENDBRANCH  14  15
ENDBRANCH  13  14
ENDBRANCH   4  13
BRANCH   5  21
HETATM   21  N   UNL     1     -10.594  12.134  67.132  1.00  0.00    -0.222 N  
HETATM   22  O   UNL     1      -9.206  10.380  66.745  1.00  0.00    -0.152 OA 
HETATM   23  H   UNL     1     -11.397  12.466  67.666  1.00  0.00     0.000 HD 
HETATM   24  C   UNL     1     -10.188  10.831  67.345  1.00  0.00    -0.204 C  
BRANCH  24  25
HETATM   25  C   UNL     1     -11.021  10.003  68.390  1.00  0.00    -0.217 C  
HETATM   26  S   UNL     1     -10.013   9.084  69.622  1.00  0.00    -0.200 SA 
HETATM   27  C   UNL     1     -11.513   9.466  70.457  1.00  0.00    -0.262 C  
HETATM   28  C   UNL     1     -12.233   8.788  71.382  1.00  0.00    -0.359 C  
HETATM   29  S   UNL     1     -11.679  11.057  69.737  1.00  0.00    -0.367 SA 
HETATM   30  O   UNL     1     -14.163   8.618  72.801  1.00  0.00    -0.460 OA 
HETATM   31  C   UNL     1     -13.491   9.392  71.913  1.00  0.00    -0.426 C  
HETATM   32  O   UNL     1     -13.924  10.493  71.617  1.00  0.00     0.161 OA 
BRANCH  28  33
HETATM   33  C   UNL     1     -11.812   7.432  71.832  1.00  0.00    -0.297 C  
HETATM   34  O   UNL     1     -11.898   6.476  71.060  1.00  0.00    -0.349 OA 
HETATM   35  N   UNL     1     -11.383   7.223  73.099  1.00  0.00    -0.582 N  
HETATM   36  H1  UNL     1     -11.094   6.294  73.406  1.00  0.00     0.000 HD 
HETATM   37  H2  UNL     1     -11.348   8.004  73.754  1.00  0.00     0.000 HD 
ENDBRANCH  28  33
ENDBRANCH  24  25
ENDBRANCH   5  21
BRANCH   5  38
HETATM   38  O   UNL     1     -10.281  12.783  64.802  1.00  0.00    -0.305 OA 
HETATM   39  C   UNL     1     -11.605  12.302  64.572  1.00  0.00    -0.353 C  
ENDBRANCH   5  38
TORSDOF 7
ENDMDL
MODEL      129
REMARK 921   NORMALIZED FREE ENERGY PREDICTED BY IDOCK:   -2.65 KCAL/MOL
REMARK 922        TOTAL FREE ENERGY PREDICTED BY IDOCK:   -5.19 KCAL/MOL
REMARK 923 INTER-LIGAND FREE ENERGY PREDICTED BY IDOCK:   -5.82 KCAL/MOL
REMARK 924 INTRA-LIGAND FREE ENERGY PREDICTED BY IDOCK:    0.63 KCAL/MOL
REMARK 927      BINDING AFFINITY PREDICTED BY RF-SCORE:    0.00 PKD
ROOT
HETATM    1  C   UNL     1      -8.397  11.822  67.585  1.00  0.00    -0.145 C  
HETATM    2  S   UNL     1     -10.061  11.498  68.227  1.00  0.00    -0.204 SA 
HETATM    3  C   UNL     1     -10.630  13.187  67.910  1.00  0.00    -0.234 C  
HETATM    4  C   UNL     1      -9.699  14.274  68.434  1.00  0.00    -0.225 C  
HETATM    5  C   UNL     1      -7.235  10.848  68.089  1.00  0.00    -0.083 C  
HETATM    6  C   UNL     1      -8.356  14.102  68.632  1.00  0.00    -0.123 C  
HETATM    7  N   UNL     1      -7.791  12.876  68.382  1.00  0.00    -0.137 N  
HETATM    8  C   UNL     1      -7.516  15.261  69.158  1.00  0.00    -0.179 C  
HETATM    9  O   UNL     1      -7.977  16.367  69.402  1.00  0.00    -0.198 OA 
HETATM   10  O   UNL     1      -6.195  15.073  69.295  1.00  0.00    -0.102 OA 
HETATM   11  O   UNL     1      -5.573  12.685  69.017  1.00  0.00    -0.066 OA 
HETATM   12  C   UNL     1      -6.618  12.241  68.593  1.00  0.00    -0.078 C  
ENDROOT
BRANCH   4  13
HETATM   13  C   UNL     1     -10.489  15.538  68.787  1.00  0.00    -0.234 C  
BRANCH  13  14
HETATM   14  S   UNL     1     -10.378  15.900  70.563  1.00  0.00     0.354 SA 
BRANCH  14  15
HETATM   15  C   UNL     1     -11.975  15.464  71.060  1.00  0.00    -0.359 A  
HETATM   16  N   UNL     1     -12.942  15.048  70.276  1.00  0.00    -0.228 NA 
HETATM   17  C   UNL     1     -11.794  15.911  73.558  1.00  0.00    -0.257 C  
HETATM   18  N   UNL     1     -14.040  14.882  71.088  1.00  0.00    -0.365 NA 
HETATM   19  N   UNL     1     -12.453  15.541  72.338  1.00  0.00    -0.365 NA 
HETATM   20  N   UNL     1     -13.750  15.178  72.349  1.00  0.00    -0.452 NA 
ENDBRANCH  14  15
ENDBRANCH  13  14
ENDBRANCH   4  13
BRANCH   5  21
HETATM   21  N   UNL     1      -7.682   9.860  69.114  1.00  0.00    -0.089 N  
HETATM   22  O   UNL     1      -6.467  10.672  70.850  1.00  0.00    -0.350 OA 
HETATM   23  H   UNL     1      -8.354   9.152  68.818  1.00  0.00     0.000 HD 
HETATM   24  C   UNL     1      -7.260   9.825  70.428  1.00  0.00    -0.142 C  
BRANCH  24  25
HETATM   25  C   UNL     1      -7.866   8.683  71.324  1.00  0.00    -0.128 C  
HETATM   26  S   UNL     1      -8.723   7.349  70.394  1.00  0.00    -0.146 SA 
HETATM   27  C   UNL     1      -8.093   6.565  71.837  1.00  0.00    -0.104 C  
HETATM   28  C   UNL     1      -8.576   5.562  72.608  1.00  0.00    -0.124 C  
HETATM   29  S   UNL     1      -6.594   7.476  71.855  1.00  0.00    -0.043 SA 
HETATM   30  O   UNL     1      -8.377   4.129  74.525  1.00  0.00    -0.089 OA 
HETATM   31  C   UNL     1      -7.789   5.107  73.792  1.00  0.00    -0.099 C  
HETATM   32  O   UNL     1      -6.694   5.535  74.117  1.00  0.00    -0.074 OA 
BRANCH  28  33
HETATM   33  C   UNL     1      -9.902   4.948  72.317  1.00  0.00    -0.169 C  
HETATM   34  O   UNL     1     -10.022   4.167  71.373  1.00  0.00    -0.185 OA 
HETATM   35  N   UNL     1     -10.995   5.279  73.045  1.00  0.00    -0.275 N  
HETATM   36  H1  UNL     1     -11.903   4.859  72.846  1.00  0.00     0.000 HD 
HETATM   37  H2  UNL     1     -10.909   5.957  73.803  1.00  0.00     0.000 HD 
ENDBRANCH  28  33
ENDBRANCH  24  25
ENDBRANCH   5  21
BRANCH   5  38
HETATM   38  O   UNL     1      -6.469  10.215  67.027  1.00  0.00    -0.067 OA 
HETATM   39  C   UNL     1      -6.640  10.773  65.725  1.00  0.00    -0.061 C  
ENDBRANCH   5  38
TORSDOF 7
ENDMDL
MODEL      130
REMARK 921   NORMALIZED FREE ENERGY PREDICTED BY IDOCK:   -2.61 KCAL/MOL
REMARK 922        TOTAL FREE ENERGY PREDICTED BY IDOCK:   -5.13 KCAL/MOL
REMARK 923 INTER-LIGAND FREE ENERGY PREDICTED BY IDOCK:   -4.15 KCAL/MOL
REMARK 924 INTRA-LIGAND FREE ENERGY PREDICTED BY IDOCK:   -0.98 KCAL/MOL
REMARK 927      BINDING AFFINITY PREDICTED BY RF-SCORE:    0.00 PKD
ROOT
HETATM    1  C   UNL     1      -6.163   8.997  66.321  1.00  0.00    -0.064 C  
HETATM    2  S   UNL     1      -5.971   7.216  66.605  1.00  0.00    -0.036 SA 
HETATM    3  C   UNL     1      -5.858   6.837  64.839  1.00  0.00    -0.035 C  
HETATM    4  C   UNL     1      -6.958   7.461  63.989  1.00  0.00    -0.058 C  
HETATM    5  C   UNL     1      -6.853   9.836  67.492  1.00  0.00    -0.082 C  
HETATM    6  C   UNL     1      -7.641   8.595  64.333  1.00  0.00    -0.115 C  
HETATM    7  N   UNL     1      -7.363   9.211  65.528  1.00  0.00    -0.088 N  
HETATM    8  C   UNL     1      -8.722   9.137  63.405  1.00  0.00    -0.129 C  
HETATM    9  O   UNL     1      -9.010   8.617  62.336  1.00  0.00    -0.115 OA 
HETATM   10  O   UNL     1      -9.340  10.276  63.750  1.00  0.00    -0.255 OA 
HETATM   11  O   UNL     1      -8.784  10.954  66.073  1.00  0.00    -0.176 OA 
HETATM   12  C   UNL     1      -7.878  10.185  66.309  1.00  0.00    -0.113 C  
ENDROOT
BRANCH   4  13
HETATM   13  C   UNL     1      -7.245   6.597  62.756  1.00  0.00    -0.061 C  
BRANCH  13  14
HETATM   14  S   UNL     1      -6.841   4.856  63.074  1.00  0.00    -0.034 SA 
BRANCH  14  15
HETATM   15  C   UNL     1      -8.344   4.313  63.732  1.00  0.00    -0.100 A  
HETATM   16  N   UNL     1      -9.218   5.052  64.375  1.00  0.00     0.013 NA 
HETATM   17  C   UNL     1      -8.230   1.848  63.111  1.00  0.00    -0.072 C  
HETATM   18  N   UNL     1     -10.220   4.194  64.767  1.00  0.00    -0.215 NA 
HETATM   19  N   UNL     1      -8.797   3.024  63.709  1.00  0.00    -0.092 NA 
HETATM   20  N   UNL     1      -9.973   2.955  64.362  1.00  0.00    -0.111 NA 
ENDBRANCH  14  15
ENDBRANCH  13  14
ENDBRANCH   4  13
BRANCH   5  21
HETATM   21  N   UNL     1      -7.338   8.998  68.627  1.00  0.00    -0.076 N  
HETATM   22  O   UNL     1      -5.365   8.841  69.736  1.00  0.00    -0.029 OA 
HETATM   23  H   UNL     1      -8.325   8.741  68.629  1.00  0.00     0.000 HD 
HETATM   24  C   UNL     1      -6.561   8.541  69.673  1.00  0.00    -0.040 C  
BRANCH  24  25
HETATM   25  C   UNL     1      -7.294   7.664  70.754  1.00  0.00    -0.067 C  
HETATM   26  S   UNL     1      -9.126   7.811  70.750  1.00  0.00    -0.149 SA 
HETATM   27  C   UNL     1      -8.802   6.177  71.316  1.00  0.00    -0.136 C  
HETATM   28  C   UNL     1      -9.432   5.388  72.218  1.00  0.00    -0.165 C  
HETATM   29  S   UNL     1      -7.447   5.914  70.232  1.00  0.00    -0.091 SA 
HETATM   30  O   UNL     1      -9.577   3.324  73.436  1.00  0.00    -0.101 OA 
HETATM   31  C   UNL     1      -8.904   4.018  72.485  1.00  0.00    -0.106 C  
HETATM   32  O   UNL     1      -7.955   3.505  71.915  1.00  0.00    -0.061 OA 
BRANCH  28  33
HETATM   33  C   UNL     1     -10.607   5.894  72.982  1.00  0.00    -0.243 C  
HETATM   34  O   UNL     1     -10.448   6.735  73.867  1.00  0.00    -0.347 OA 
HETATM   35  N   UNL     1     -11.848   5.402  72.752  1.00  0.00    -0.431 N  
HETATM   36  H1  UNL     1     -12.652   5.749  73.274  1.00  0.00     0.000 HD 
HETATM   37  H2  UNL     1     -11.979   4.676  72.047  1.00  0.00     0.000 HD 
ENDBRANCH  28  33
ENDBRANCH  24  25
ENDBRANCH   5  21
BRANCH   5  38
HETATM   38  O   UNL     1      -6.080  10.978  67.958  1.00  0.00    -0.049 OA 
HETATM   39  C   UNL     1      -5.422  11.733  66.942  1.00  0.00    -0.122 C  
ENDBRANCH   5  38
TORSDOF 7
ENDMDL
MODEL      131
REMARK 921   NORMALIZED FREE ENERGY PREDICTED BY IDOCK:   -2.58 KCAL/MOL
REMARK 922        TOTAL FREE ENERGY PREDICTED BY IDOCK:   -5.08 KCAL/MOL
REMARK 923 INTER-LIGAND FREE ENERGY PREDICTED BY IDOCK:   -4.79 KCAL/MOL
REMARK 924 INTRA-LIGAND FREE ENERGY PREDICTED BY IDOCK:   -0.29 KCAL/MOL
REMARK 927      BINDING AFFINITY PREDICTED BY RF-SCORE:    0.00 PKD
ROOT
HETATM    1  C   UNL     1      -8.062  12.819  67.401  1.00  0.00    -0.185 C  
HETATM    2  S   UNL     1      -9.349  11.685  66.811  1.00  0.00    -0.191 SA 
HETATM    3  C   UNL     1     -10.349  13.017  66.103  1.00  0.00    -0.278 C  
HETATM    4  C   UNL     1     -10.597  14.189  67.046  1.00  0.00    -0.276 C  
HETATM    5  C   UNL     1      -7.143  12.294  68.598  1.00  0.00    -0.103 C  
HETATM    6  C   UNL     1      -9.772  14.523  68.085  1.00  0.00    -0.219 C  
HETATM    7  N   UNL     1      -8.663  13.754  68.338  1.00  0.00    -0.176 N  
HETATM    8  C   UNL     1     -10.113  15.720  68.966  1.00  0.00    -0.225 C  
HETATM    9  O   UNL     1     -11.093  16.428  68.784  1.00  0.00    -0.328 OA 
HETATM   10  O   UNL     1      -9.259  16.048  69.946  1.00  0.00     0.008 OA 
HETATM   11  O   UNL     1      -7.529  14.298  70.281  1.00  0.00     0.382 OA 
HETATM   12  C   UNL     1      -7.728  13.612  69.302  1.00  0.00     0.296 C  
ENDROOT
BRANCH   4  13
HETATM   13  C   UNL     1     -11.929  14.872  66.721  1.00  0.00    -0.090 C  
BRANCH  13  14
HETATM   14  S   UNL     1     -11.769  15.955  65.273  1.00  0.00     0.497 SA 
BRANCH  14  15
HETATM   15  C   UNL     1     -10.205  16.627  65.569  1.00  0.00    -0.202 A  
HETATM   16  N   UNL     1      -9.058  16.001  65.443  1.00  0.00    -0.092 NA 
HETATM   17  C   UNL     1     -10.867  18.974  66.295  1.00  0.00    -0.184 C  
HETATM   18  N   UNL     1      -8.094  16.898  65.842  1.00  0.00    -0.419 NA 
HETATM   19  N   UNL     1      -9.962  17.893  66.023  1.00  0.00    -0.540 NA 
HETATM   20  N   UNL     1      -8.636  18.056  66.195  1.00  0.00    -0.491 NA 
ENDBRANCH  14  15
ENDBRANCH  13  14
ENDBRANCH   4  13
BRANCH   5  21
HETATM   21  N   UNL     1      -7.554  10.963  69.133  1.00  0.00    -0.144 N  
HETATM   22  O   UNL     1      -6.203  10.954  70.956  1.00  0.00    -0.359 OA 
HETATM   23  H   UNL     1      -8.266  10.451  68.614  1.00  0.00     0.000 HD 
HETATM   24  C   UNL     1      -7.049  10.369  70.273  1.00  0.00    -0.049 C  
BRANCH  24  25
HETATM   25  C   UNL     1      -7.632   8.955  70.637  1.00  0.00    -0.099 C  
HETATM   26  S   UNL     1      -9.234   8.991  71.537  1.00  0.00    -0.098 SA 
HETATM   27  C   UNL     1      -9.262   7.490  70.622  1.00  0.00    -0.159 C  
HETATM   28  C   UNL     1      -9.782   6.270  70.897  1.00  0.00    -0.197 C  
HETATM   29  S   UNL     1      -8.468   8.165  69.211  1.00  0.00    -0.135 SA 
HETATM   30  O   UNL     1     -10.156   3.980  70.279  1.00  0.00    -0.120 OA 
HETATM   31  C   UNL     1      -9.642   5.173  69.894  1.00  0.00    -0.174 C  
HETATM   32  O   UNL     1      -9.125   5.286  68.794  1.00  0.00    -0.108 OA 
BRANCH  28  33
HETATM   33  C   UNL     1     -10.443   6.001  72.205  1.00  0.00    -0.206 C  
HETATM   34  O   UNL     1      -9.856   6.268  73.254  1.00  0.00    -0.158 OA 
HETATM   35  N   UNL     1     -11.663   5.417  72.259  1.00  0.00    -0.060 N  
HETATM   36  H1  UNL     1     -12.115   5.233  73.155  1.00  0.00     0.000 HD 
HETATM   37  H2  UNL     1     -12.136   5.157  71.393  1.00  0.00     0.000 HD 
ENDBRANCH  28  33
ENDBRANCH  24  25
ENDBRANCH   5  21
BRANCH   5  38
HETATM   38  O   UNL     1      -5.713  12.352  68.337  1.00  0.00    -0.053 OA 
HETATM   39  C   UNL     1      -5.304  13.298  67.351  1.00  0.00     0.145 C  
ENDBRANCH   5  38
TORSDOF 7
ENDMDL
MODEL      132
REMARK 921   NORMALIZED FREE ENERGY PREDICTED BY IDOCK:   -2.44 KCAL/MOL
REMARK 922        TOTAL FREE ENERGY PREDICTED BY IDOCK:   -4.89 KCAL/MOL
REMARK 923 INTER-LIGAND FREE ENERGY PREDICTED BY IDOCK:   -3.90 KCAL/MOL
REMARK 924 INTRA-LIGAND FREE ENERGY PREDICTED BY IDOCK:   -0.99 KCAL/MOL
REMARK 927      BINDING AFFINITY PREDICTED BY RF-SCORE:    0.00 PKD
ROOT
HETATM    1  C   UNL     1      -9.486  10.686  70.038  1.00  0.00     0.579 C  
HETATM    2  S   UNL     1      -7.824   9.978  70.194  1.00  0.00    -0.021 SA 
HETATM    3  C   UNL     1      -7.054  11.295  69.220  1.00  0.00    -0.112 C  
HETATM    4  C   UNL     1      -7.747  11.586  67.894  1.00  0.00    -0.120 C  
HETATM    5  C   UNL     1     -10.712   9.681  70.241  1.00  0.00    -0.281 C  
HETATM    6  C   UNL     1      -9.068  11.329  67.648  1.00  0.00    -0.149 C  
HETATM    7  N   UNL     1      -9.833  10.744  68.627  1.00  0.00    -0.176 N  
HETATM    8  C   UNL     1      -9.661  11.664  66.284  1.00  0.00    -0.218 C  
HETATM    9  O   UNL     1      -9.017  12.177  65.380  1.00  0.00     0.166 OA 
HETATM   10  O   UNL     1     -10.970  11.443  66.092  1.00  0.00    -0.286 OA 
HETATM   11  O   UNL     1     -11.965  10.141  67.958  1.00  0.00     0.119 OA 
HETATM   12  C   UNL     1     -11.054  10.181  68.756  1.00  0.00    -0.203 C  
ENDROOT
BRANCH   4  13
HETATM   13  C   UNL     1      -6.743  12.115  66.864  1.00  0.00     0.006 C  
BRANCH  13  14
HETATM   14  S   UNL     1      -5.858  13.565  67.504  1.00  0.00     0.131 SA 
BRANCH  14  15
HETATM   15  C   UNL     1      -7.195  14.532  68.020  1.00  0.00    -0.142 A  
HETATM   16  N   UNL     1      -8.211  14.905  67.276  1.00  0.00    -0.196 NA 
HETATM   17  C   UNL     1      -6.528  14.949  70.439  1.00  0.00    -0.075 C  
HETATM   18  N   UNL     1      -8.990  15.706  68.079  1.00  0.00    -0.177 NA 
HETATM   19  N   UNL     1      -7.344  15.075  69.264  1.00  0.00    -0.170 NA 
HETATM   20  N   UNL     1      -8.470  15.813  69.295  1.00  0.00    -0.252 NA 
ENDBRANCH  14  15
ENDBRANCH  13  14
ENDBRANCH   4  13
BRANCH   5  21
HETATM   21  N   UNL     1     -10.299   8.261  70.433  1.00  0.00    -0.202 N  
HETATM   22  O   UNL     1     -12.381   7.365  70.537  1.00  0.00    -0.105 OA 
HETATM   23  H   UNL     1      -9.299   8.064  70.457  1.00  0.00     0.000 HD 
HETATM   24  C   UNL     1     -11.160   7.191  70.582  1.00  0.00    -0.267 C  
BRANCH  24  25
HETATM   25  C   UNL     1     -10.492   5.781  70.779  1.00  0.00    -0.258 C  
HETATM   26  S   UNL     1      -9.047   5.456  69.689  1.00  0.00    -0.119 SA 
HETATM   27  C   UNL     1      -8.733   4.527  71.149  1.00  0.00    -0.115 C  
HETATM   28  C   UNL     1      -8.134   3.330  71.351  1.00  0.00    -0.061 C  
HETATM   29  S   UNL     1      -9.382   5.742  72.236  1.00  0.00    -0.143 SA 
HETATM   30  O   UNL     1      -7.439   1.573  72.834  1.00  0.00    -0.030 OA 
HETATM   31  C   UNL     1      -8.014   2.797  72.740  1.00  0.00    -0.058 C  
HETATM   32  O   UNL     1      -8.376   3.378  73.751  1.00  0.00    -0.074 OA 
BRANCH  28  33
HETATM   33  C   UNL     1      -7.644   2.520  70.200  1.00  0.00    -0.043 C  
HETATM   34  O   UNL     1      -6.456   2.569  69.878  1.00  0.00    -0.028 OA 
HETATM   35  N   UNL     1      -8.498   1.769  69.466  1.00  0.00    -0.045 N  
HETATM   36  H1  UNL     1      -8.162   1.215  68.679  1.00  0.00     0.000 HD 
HETATM   37  H2  UNL     1      -9.490   1.757  69.704  1.00  0.00     0.000 HD 
ENDBRANCH  28  33
ENDBRANCH  24  25
ENDBRANCH   5  21
BRANCH   5  38
HETATM   38  O   UNL     1     -11.681  10.101  71.242  1.00  0.00    -0.366 OA 
HETATM   39  C   UNL     1     -12.499  11.213  70.880  1.00  0.00    -0.409 C  
ENDBRANCH   5  38
TORSDOF 7
ENDMDL
MODEL      133
REMARK 921   NORMALIZED FREE ENERGY PREDICTED BY IDOCK:   -2.43 KCAL/MOL
REMARK 922        TOTAL FREE ENERGY PREDICTED BY IDOCK:   -4.88 KCAL/MOL
REMARK 923 INTER-LIGAND FREE ENERGY PREDICTED BY IDOCK:   -4.14 KCAL/MOL
REMARK 924 INTRA-LIGAND FREE ENERGY PREDICTED BY IDOCK:   -0.75 KCAL/MOL
REMARK 927      BINDING AFFINITY PREDICTED BY RF-SCORE:    0.00 PKD
ROOT
HETATM    1  C   UNL     1     -10.990  15.721  67.744  1.00  0.00    -0.314 C  
HETATM    2  S   UNL     1      -9.661  14.984  68.734  1.00  0.00    -0.232 SA 
HETATM    3  C   UNL     1      -9.265  16.545  69.561  1.00  0.00     0.141 C  
HETATM    4  C   UNL     1      -9.084  17.729  68.618  1.00  0.00    -0.262 C  
HETATM    5  C   UNL     1     -11.388  14.954  66.400  1.00  0.00    -0.308 C  
HETATM    6  C   UNL     1      -9.659  17.816  67.380  1.00  0.00    -0.264 C  
HETATM    7  N   UNL     1     -10.422  16.773  66.917  1.00  0.00    -0.296 N  
HETATM    8  C   UNL     1      -9.415  19.051  66.520  1.00  0.00    -0.345 C  
HETATM    9  O   UNL     1      -8.736  20.000  66.886  1.00  0.00    -0.318 OA 
HETATM   10  O   UNL     1     -10.030  19.126  65.330  1.00  0.00    -0.198 OA 
HETATM   11  O   UNL     1     -11.095  16.969  64.712  1.00  0.00    -0.850 OA 
HETATM   12  C   UNL     1     -10.995  16.373  65.762  1.00  0.00    -0.031 C  
ENDROOT
BRANCH   4  13
HETATM   13  C   UNL     1      -8.110  18.751  69.214  1.00  0.00     0.100 C  
BRANCH  13  14
HETATM   14  S   UNL     1      -6.404  18.133  69.156  1.00  0.00    -0.253 SA 
BRANCH  14  15
HETATM   15  C   UNL     1      -5.826  18.973  67.760  1.00  0.00    -0.193 A  
HETATM   16  N   UNL     1      -5.444  20.229  67.717  1.00  0.00    -0.182 NA 
HETATM   17  C   UNL     1      -6.010  17.121  66.026  1.00  0.00     0.239 C  
HETATM   18  N   UNL     1      -5.129  20.481  66.401  1.00  0.00    -0.156 NA 
HETATM   19  N   UNL     1      -5.737  18.448  66.502  1.00  0.00    -0.146 NA 
HETATM   20  N   UNL     1      -5.302  19.399  65.654  1.00  0.00    -0.154 NA 
ENDBRANCH  14  15
ENDBRANCH  13  14
ENDBRANCH   4  13
BRANCH   5  21
HETATM   21  N   UNL     1     -10.520  13.778  66.100  1.00  0.00    -0.292 N  
HETATM   22  O   UNL     1     -11.772  12.215  67.167  1.00  0.00    -0.465 OA 
HETATM   23  H   UNL     1      -9.682  13.945  65.544  1.00  0.00     0.000 HD 
HETATM   24  C   UNL     1     -10.759  12.483  66.513  1.00  0.00    -0.240 C  
BRANCH  24  25
HETATM   25  C   UNL     1      -9.698  11.406  66.080  1.00  0.00    -0.223 C  
HETATM   26  S   UNL     1      -8.291  12.065  65.097  1.00  0.00     1.661 SA 
HETATM   27  C   UNL     1      -7.631  10.688  65.969  1.00  0.00    -0.142 C  
HETATM   28  C   UNL     1      -6.697   9.766  65.634  1.00  0.00    -0.092 C  
HETATM   29  S   UNL     1      -8.538  10.997  67.438  1.00  0.00    -0.134 SA 
HETATM   30  O   UNL     1      -5.430   7.797  66.169  1.00  0.00    -0.028 OA 
HETATM   31  C   UNL     1      -6.342   8.696  66.613  1.00  0.00    -0.059 C  
HETATM   32  O   UNL     1      -6.795   8.596  67.742  1.00  0.00    -0.065 OA 
BRANCH  28  33
HETATM   33  C   UNL     1      -6.063   9.779  64.286  1.00  0.00    -0.113 C  
HETATM   34  O   UNL     1      -5.158  10.578  64.042  1.00  0.00    -0.127 OA 
HETATM   35  N   UNL     1      -6.503   8.958  63.304  1.00  0.00    -0.090 N  
HETATM   36  H1  UNL     1      -6.069   8.967  62.381  1.00  0.00     0.000 HD 
HETATM   37  H2  UNL     1      -7.279   8.322  63.489  1.00  0.00     0.000 HD 
ENDBRANCH  28  33
ENDBRANCH  24  25
ENDBRANCH   5  21
BRANCH   5  38
HETATM   38  O   UNL     1     -12.800  14.626  66.283  1.00  0.00     0.042 OA 
HETATM   39  C   UNL     1     -13.191  14.014  65.054  1.00  0.00     0.249 C  
ENDBRANCH   5  38
TORSDOF 7
ENDMDL
MODEL      134
REMARK 921   NORMALIZED FREE ENERGY PREDICTED BY IDOCK:   -2.35 KCAL/MOL
REMARK 922        TOTAL FREE ENERGY PREDICTED BY IDOCK:   -4.76 KCAL/MOL
REMARK 923 INTER-LIGAND FREE ENERGY PREDICTED BY IDOCK:   -5.88 KCAL/MOL
REMARK 924 INTRA-LIGAND FREE ENERGY PREDICTED BY IDOCK:    1.12 KCAL/MOL
REMARK 927      BINDING AFFINITY PREDICTED BY RF-SCORE:    0.00 PKD
ROOT
HETATM    1  C   UNL     1     -10.083  12.296  68.401  1.00  0.00    -0.215 C  
HETATM    2  S   UNL     1      -8.316  12.001  68.675  1.00  0.00     0.033 SA 
HETATM    3  C   UNL     1      -7.873  13.734  68.398  1.00  0.00    -0.143 C  
HETATM    4  C   UNL     1      -8.461  14.338  67.128  1.00  0.00    -0.220 C  
HETATM    5  C   UNL     1     -10.961  11.029  67.978  1.00  0.00    -0.258 C  
HETATM    6  C   UNL     1      -9.603  13.889  66.524  1.00  0.00    -0.287 C  
HETATM    7  N   UNL     1     -10.263  12.808  67.052  1.00  0.00    -0.240 N  
HETATM    8  C   UNL     1     -10.105  14.571  65.256  1.00  0.00    -0.357 C  
HETATM    9  O   UNL     1      -9.546  15.531  64.744  1.00  0.00     0.070 OA 
HETATM   10  O   UNL     1     -11.253  14.136  64.715  1.00  0.00    -0.349 OA 
HETATM   11  O   UNL     1     -12.017  12.019  65.765  1.00  0.00    -0.514 OA 
HETATM   12  C   UNL     1     -11.261  11.965  66.710  1.00  0.00    -0.327 C  
ENDROOT
BRANCH   4  13
HETATM   13  C   UNL     1      -7.552  15.446  66.586  1.00  0.00     0.240 C  
BRANCH  13  14
HETATM   14  S   UNL     1      -7.893  17.028  67.409  1.00  0.00    -0.176 SA 
BRANCH  14  15
HETATM   15  C   UNL     1      -9.071  16.519  68.566  1.00  0.00    -0.231 A  
HETATM   16  N   UNL     1      -8.826  15.902  69.699  1.00  0.00    -0.111 NA 
HETATM   17  C   UNL     1     -11.196  17.273  67.389  1.00  0.00     0.253 C  
HETATM   18  N   UNL     1     -10.055  15.638  70.257  1.00  0.00    -0.152 NA 
HETATM   19  N   UNL     1     -10.424  16.652  68.427  1.00  0.00    -0.303 NA 
HETATM   20  N   UNL     1     -11.036  16.095  69.490  1.00  0.00    -0.327 NA 
ENDBRANCH  14  15
ENDBRANCH  13  14
ENDBRANCH   4  13
BRANCH   5  21
HETATM   21  N   UNL     1     -10.161   9.787  67.768  1.00  0.00    -0.194 N  
HETATM   22  O   UNL     1     -10.302   9.732  65.503  1.00  0.00    -0.178 OA 
HETATM   23  H   UNL     1      -9.783   9.329  68.596  1.00  0.00     0.000 HD 
HETATM   24  C   UNL     1      -9.891   9.208  66.544  1.00  0.00    -0.264 C  
BRANCH  24  25
HETATM   25  C   UNL     1      -9.030   7.893  66.570  1.00  0.00    -0.161 C  
HETATM   26  S   UNL     1     -10.001   6.334  66.480  1.00  0.00    -0.070 SA 
HETATM   27  C   UNL     1      -8.461   5.955  65.719  1.00  0.00    -0.148 C  
HETATM   28  C   UNL     1      -7.714   4.826  65.698  1.00  0.00    -0.090 C  
HETATM   29  S   UNL     1      -8.299   7.515  64.933  1.00  0.00     0.030 SA 
HETATM   30  O   UNL     1      -5.730   3.655  65.020  1.00  0.00    -0.019 OA 
HETATM   31  C   UNL     1      -6.425   4.816  64.944  1.00  0.00    -0.036 C  
HETATM   32  O   UNL     1      -5.988   5.745  64.285  1.00  0.00    -0.024 OA 
BRANCH  28  33
HETATM   33  C   UNL     1      -8.138   3.618  66.460  1.00  0.00    -0.096 C  
HETATM   34  O   UNL     1      -8.803   2.744  65.902  1.00  0.00    -0.125 OA 
HETATM   35  N   UNL     1      -7.849   3.490  67.776  1.00  0.00    -0.076 N  
HETATM   36  H1  UNL     1      -8.139   2.664  68.298  1.00  0.00     0.000 HD 
HETATM   37  H2  UNL     1      -7.334   4.231  68.252  1.00  0.00     0.000 HD 
ENDBRANCH  28  33
ENDBRANCH  24  25
ENDBRANCH   5  21
BRANCH   5  38
HETATM   38  O   UNL     1     -12.122  10.786  68.819  1.00  0.00    -0.451 OA 
HETATM   39  C   UNL     1     -12.014  11.243  70.167  1.00  0.00    -0.369 C  
ENDBRANCH   5  38
TORSDOF 7
ENDMDL
MODEL      135
REMARK 921   NORMALIZED FREE ENERGY PREDICTED BY IDOCK:   -2.31 KCAL/MOL
REMARK 922        TOTAL FREE ENERGY PREDICTED BY IDOCK:   -4.72 KCAL/MOL
REMARK 923 INTER-LIGAND FREE ENERGY PREDICTED BY IDOCK:   -4.93 KCAL/MOL
REMARK 924 INTRA-LIGAND FREE ENERGY PREDICTED BY IDOCK:    0.22 KCAL/MOL
REMARK 927      BINDING AFFINITY PREDICTED BY RF-SCORE:    0.00 PKD
ROOT
HETATM    1  C   UNL     1     -12.165  13.076  67.704  1.00  0.00    -0.050 C  
HETATM    2  S   UNL     1     -11.937  11.303  68.012  1.00  0.00     0.127 SA 
HETATM    3  C   UNL     1     -12.910  11.333  69.538  1.00  0.00     0.520 C  
HETATM    4  C   UNL     1     -12.518  12.436  70.514  1.00  0.00    -0.270 C  
HETATM    5  C   UNL     1     -11.083  13.782  66.765  1.00  0.00    -0.308 C  
HETATM    6  C   UNL     1     -11.916  13.607  70.143  1.00  0.00    -0.337 C  
HETATM    7  N   UNL     1     -11.604  13.815  68.823  1.00  0.00    -0.303 N  
HETATM    8  C   UNL     1     -11.570  14.647  71.204  1.00  0.00    -0.220 C  
HETATM    9  O   UNL     1     -11.821  14.501  72.392  1.00  0.00    -0.143 OA 
HETATM   10  O   UNL     1     -11.024  15.804  70.802  1.00  0.00    -0.326 OA 
HETATM   11  O   UNL     1     -10.359  15.722  68.410  1.00  0.00    -0.225 OA 
HETATM   12  C   UNL     1     -10.892  14.686  68.076  1.00  0.00    -0.257 C  
ENDROOT
BRANCH   4  13
HETATM   13  C   UNL     1     -12.810  12.010  71.956  1.00  0.00    -0.146 C  
BRANCH  13  14
HETATM   14  S   UNL     1     -13.591  10.372  72.006  1.00  0.00    -0.007 SA 
BRANCH  14  15
HETATM   15  C   UNL     1     -12.192   9.366  71.873  1.00  0.00    -0.368 A  
HETATM   16  N   UNL     1     -10.943   9.764  71.952  1.00  0.00     0.249 NA 
HETATM   17  C   UNL     1     -13.306   7.114  71.475  1.00  0.00    -0.344 C  
HETATM   18  N   UNL     1     -10.176   8.644  71.728  1.00  0.00    -0.279 NA 
HETATM   19  N   UNL     1     -12.205   8.023  71.621  1.00  0.00    -0.296 NA 
HETATM   20  N   UNL     1     -10.938   7.577  71.528  1.00  0.00    -0.228 NA 
ENDBRANCH  14  15
ENDBRANCH  13  14
ENDBRANCH   4  13
BRANCH   5  21
HETATM   21  N   UNL     1      -9.965  12.884  66.355  1.00  0.00    -0.261 N  
HETATM   22  O   UNL     1      -8.745  13.050  68.261  1.00  0.00    -0.186 OA 
HETATM   23  H   UNL     1     -10.023  12.457  65.431  1.00  0.00     0.000 HD 
HETATM   24  C   UNL     1      -8.858  12.583  67.124  1.00  0.00    -0.202 C  
BRANCH  24  25
HETATM   25  C   UNL     1      -7.802  11.613  66.477  1.00  0.00    -0.025 C  
HETATM   26  S   UNL     1      -7.884   9.877  67.077  1.00  0.00    -0.102 SA 
HETATM   27  C   UNL     1      -7.294   9.760  65.424  1.00  0.00    -0.118 C  
HETATM   28  C   UNL     1      -6.413   8.918  64.834  1.00  0.00    -0.066 C  
HETATM   29  S   UNL     1      -8.317  11.047  64.812  1.00  0.00     0.321 SA 
HETATM   30  O   UNL     1      -5.188   8.213  62.892  1.00  0.00    -0.056 OA 
HETATM   31  C   UNL     1      -6.114   9.074  63.380  1.00  0.00    -0.088 C  
HETATM   32  O   UNL     1      -6.640   9.887  62.636  1.00  0.00    -0.106 OA 
BRANCH  28  33
HETATM   33  C   UNL     1      -5.703   7.877  65.630  1.00  0.00    -0.037 C  
HETATM   34  O   UNL     1      -5.191   8.175  66.709  1.00  0.00    -0.030 OA 
HETATM   35  N   UNL     1      -5.568   6.615  65.159  1.00  0.00    -0.029 N  
HETATM   36  H1  UNL     1      -5.082   5.903  65.704  1.00  0.00     0.000 HD 
HETATM   37  H2  UNL     1      -5.956   6.374  64.247  1.00  0.00     0.000 HD 
ENDBRANCH  28  33
ENDBRANCH  24  25
ENDBRANCH   5  21
BRANCH   5  38
HETATM   38  O   UNL     1     -11.640  14.502  65.630  1.00  0.00    -0.341 OA 
HETATM   39  C   UNL     1     -11.553  13.832  64.372  1.00  0.00    -0.395 C  
ENDBRANCH   5  38
TORSDOF 7
ENDMDL
MODEL      136
REMARK 921   NORMALIZED FREE ENERGY PREDICTED BY IDOCK:   -2.27 KCAL/MOL
REMARK 922        TOTAL FREE ENERGY PREDICTED BY IDOCK:   -4.65 KCAL/MOL
REMARK 923 INTER-LIGAND FREE ENERGY PREDICTED BY IDOCK:   -4.50 KCAL/MOL
REMARK 924 INTRA-LIGAND FREE ENERGY PREDICTED BY IDOCK:   -0.15 KCAL/MOL
REMARK 927      BINDING AFFINITY PREDICTED BY RF-SCORE:    0.00 PKD
ROOT
HETATM    1  C   UNL     1      -9.371  10.407  69.506  1.00  0.00    -0.127 C  
HETATM    2  S   UNL     1      -8.019  10.415  68.297  1.00  0.00    -0.115 SA 
HETATM    3  C   UNL     1      -8.002  12.220  68.167  1.00  0.00    -0.155 C  
HETATM    4  C   UNL     1      -9.371  12.848  67.934  1.00  0.00    -0.208 C  
HETATM    5  C   UNL     1     -10.218   9.057  69.619  1.00  0.00    -0.206 C  
HETATM    6  C   UNL     1     -10.553  12.267  68.307  1.00  0.00    -0.227 C  
HETATM    7  N   UNL     1     -10.537  11.029  68.899  1.00  0.00    -0.197 N  
HETATM    8  C   UNL     1     -11.868  12.987  68.029  1.00  0.00    -0.347 C  
HETATM    9  O   UNL     1     -11.932  14.086  67.497  1.00  0.00    -0.386 OA 
HETATM   10  O   UNL     1     -13.005  12.412  68.449  1.00  0.00     1.270 OA 
HETATM   11  O   UNL     1     -12.624  10.083  69.223  1.00  0.00     0.381 OA 
HETATM   12  C   UNL     1     -11.413  10.061  69.245  1.00  0.00    -0.055 C  
ENDROOT
BRANCH   4  13
HETATM   13  C   UNL     1      -9.239  14.160  67.155  1.00  0.00    -0.231 C  
BRANCH  13  14
HETATM   14  S   UNL     1      -9.287  13.861  65.364  1.00  0.00     0.729 SA 
BRANCH  14  15
HETATM   15  C   UNL     1     -10.419  15.075  64.885  1.00  0.00    -0.337 A  
HETATM   16  N   UNL     1     -10.323  16.361  65.129  1.00  0.00    -0.620 NA 
HETATM   17  C   UNL     1     -12.150  13.623  63.714  1.00  0.00    -0.382 C  
HETATM   18  N   UNL     1     -11.470  16.927  64.622  1.00  0.00    -0.720 NA 
HETATM   19  N   UNL     1     -11.593  14.844  64.226  1.00  0.00    -0.252 NA 
HETATM   20  N   UNL     1     -12.250  16.009  64.066  1.00  0.00    -0.758 NA 
ENDBRANCH  14  15
ENDBRANCH  13  14
ENDBRANCH   4  13
BRANCH   5  21
HETATM   21  N   UNL     1      -9.829   8.017  68.622  1.00  0.00    -0.170 N  
HETATM   22  O   UNL     1     -10.942   8.888  66.846  1.00  0.00    -0.056 OA 
HETATM   23  H   UNL     1      -9.220   7.266  68.943  1.00  0.00     0.000 HD 
HETATM   24  C   UNL     1     -10.225   7.990  67.299  1.00  0.00    -0.275 C  
BRANCH  24  25
HETATM   25  C   UNL     1      -9.692   6.788  66.436  1.00  0.00    -0.064 C  
HETATM   26  S   UNL     1      -8.587   5.627  67.335  1.00  0.00    -0.107 SA 
HETATM   27  C   UNL     1      -9.389   4.642  66.119  1.00  0.00    -0.153 C  
HETATM   28  C   UNL     1      -8.966   3.584  65.386  1.00  0.00    -0.139 C  
HETATM   29  S   UNL     1     -10.936   5.454  66.271  1.00  0.00     0.241 SA 
HETATM   30  O   UNL     1      -9.375   1.925  63.699  1.00  0.00    -0.095 OA 
HETATM   31  C   UNL     1      -9.905   2.946  64.416  1.00  0.00    -0.105 C  
HETATM   32  O   UNL     1     -11.069   3.268  64.247  1.00  0.00    -0.123 OA 
BRANCH  28  33
HETATM   33  C   UNL     1      -7.566   3.090  65.500  1.00  0.00    -0.074 C  
HETATM   34  O   UNL     1      -6.640   3.758  65.039  1.00  0.00    -0.041 OA 
HETATM   35  N   UNL     1      -7.298   1.886  66.060  1.00  0.00    -0.060 N  
HETATM   36  H1  UNL     1      -6.339   1.548  66.138  1.00  0.00     0.000 HD 
HETATM   37  H2  UNL     1      -8.065   1.310  66.407  1.00  0.00     0.000 HD 
ENDBRANCH  28  33
ENDBRANCH  24  25
ENDBRANCH   5  21
BRANCH   5  38
HETATM   38  O   UNL     1     -10.309   8.507  70.962  1.00  0.00    -0.195 OA 
HETATM   39  C   UNL     1      -9.083   8.040  71.522  1.00  0.00    -0.143 C  
ENDBRANCH   5  38
TORSDOF 7
ENDMDL
MODEL      137
REMARK 921   NORMALIZED FREE ENERGY PREDICTED BY IDOCK:   -2.08 KCAL/MOL
REMARK 922        TOTAL FREE ENERGY PREDICTED BY IDOCK:   -4.38 KCAL/MOL
REMARK 923 INTER-LIGAND FREE ENERGY PREDICTED BY IDOCK:   -4.32 KCAL/MOL
REMARK 924 INTRA-LIGAND FREE ENERGY PREDICTED BY IDOCK:   -0.06 KCAL/MOL
REMARK 927      BINDING AFFINITY PREDICTED BY RF-SCORE:    0.00 PKD
ROOT
HETATM    1  C   UNL     1      -8.484  13.449  65.904  1.00  0.00     1.462 C  
HETATM    2  S   UNL     1      -7.903  13.137  67.593  1.00  0.00    -0.182 SA 
HETATM    3  C   UNL     1      -6.862  11.743  67.093  1.00  0.00    -0.148 C  
HETATM    4  C   UNL     1      -7.566  10.712  66.218  1.00  0.00    -0.137 C  
HETATM    5  C   UNL     1      -9.866  14.238  65.760  1.00  0.00    -0.287 C  
HETATM    6  C   UNL     1      -8.646  10.991  65.426  1.00  0.00    -0.068 C  
HETATM    7  N   UNL     1      -9.170  12.260  65.424  1.00  0.00     0.126 N  
HETATM    8  C   UNL     1      -9.273   9.883  64.586  1.00  0.00    -0.258 C  
HETATM    9  O   UNL     1      -8.846   8.737  64.563  1.00  0.00    -0.111 OA 
HETATM   10  O   UNL     1     -10.300  10.200  63.785  1.00  0.00     0.196 OA 
HETATM   11  O   UNL     1     -11.144  12.492  64.239  1.00  0.00    -0.312 OA 
HETATM   12  C   UNL     1     -10.266  12.902  64.966  1.00  0.00    -0.269 C  
ENDROOT
BRANCH   4  13
HETATM   13  C   UNL     1      -6.955   9.322  66.421  1.00  0.00    -0.084 C  
BRANCH  13  14
HETATM   14  S   UNL     1      -7.293   8.700  68.092  1.00  0.00    -0.093 SA 
BRANCH  14  15
HETATM   15  C   UNL     1      -8.375   7.405  67.719  1.00  0.00    -0.118 A  
HETATM   16  N   UNL     1      -9.683   7.436  67.826  1.00  0.00    -0.140 NA 
HETATM   17  C   UNL     1      -6.701   5.623  67.017  1.00  0.00    -0.062 C  
HETATM   18  N   UNL     1     -10.119   6.176  67.486  1.00  0.00    -0.142 NA 
HETATM   19  N   UNL     1      -8.002   6.157  67.307  1.00  0.00    -0.102 NA 
HETATM   20  N   UNL     1      -9.099   5.390  67.166  1.00  0.00    -0.111 NA 
ENDBRANCH  14  15
ENDBRANCH  13  14
ENDBRANCH   4  13
BRANCH   5  21
HETATM   21  N   UNL     1     -10.538  14.517  67.062  1.00  0.00    -0.276 N  
HETATM   22  O   UNL     1     -12.640  13.936  66.434  1.00  0.00    -0.413 OA 
HETATM   23  H   UNL     1      -9.953  14.850  67.828  1.00  0.00     0.000 HD 
HETATM   24  C   UNL     1     -11.886  14.361  67.315  1.00  0.00    -0.405 C  
BRANCH  24  25
HETATM   25  C   UNL     1     -12.369  14.725  68.767  1.00  0.00     0.016 C  
HETATM   26  S   UNL     1     -12.213  13.365  69.994  1.00  0.00    -0.256 SA 
HETATM   27  C   UNL     1     -12.028  14.843  70.928  1.00  0.00    -0.316 C  
HETATM   28  C   UNL     1     -12.404  15.173  72.187  1.00  0.00    -0.435 C  
HETATM   29  S   UNL     1     -11.111  15.683  69.692  1.00  0.00    -0.331 SA 
HETATM   30  O   UNL     1     -12.550  16.785  73.960  1.00  0.00    -0.531 OA 
HETATM   31  C   UNL     1     -12.094  16.537  72.708  1.00  0.00    -0.370 C  
HETATM   32  O   UNL     1     -11.474  17.397  72.105  1.00  0.00     0.580 OA 
BRANCH  28  33
HETATM   33  C   UNL     1     -13.166  14.210  73.031  1.00  0.00    -0.331 C  
HETATM   34  O   UNL     1     -12.807  13.991  74.188  1.00  0.00     0.489 OA 
HETATM   35  N   UNL     1     -14.222  13.529  72.526  1.00  0.00    -0.415 N  
HETATM   36  H1  UNL     1     -14.743  12.870  73.104  1.00  0.00     0.000 HD 
HETATM   37  H2  UNL     1     -14.498  13.676  71.555  1.00  0.00     0.000 HD 
ENDBRANCH  28  33
ENDBRANCH  24  25
ENDBRANCH   5  21
BRANCH   5  38
HETATM   38  O   UNL     1      -9.803  15.425  64.920  1.00  0.00    -0.223 OA 
HETATM   39  C   UNL     1     -11.062  15.959  64.512  1.00  0.00    -0.269 C  
ENDBRANCH   5  38
TORSDOF 7
ENDMDL
MODEL      138
REMARK 921   NORMALIZED FREE ENERGY PREDICTED BY IDOCK:   -1.82 KCAL/MOL
REMARK 922        TOTAL FREE ENERGY PREDICTED BY IDOCK:   -4.02 KCAL/MOL
REMARK 923 INTER-LIGAND FREE ENERGY PREDICTED BY IDOCK:   -5.39 KCAL/MOL
REMARK 924 INTRA-LIGAND FREE ENERGY PREDICTED BY IDOCK:    1.37 KCAL/MOL
REMARK 927      BINDING AFFINITY PREDICTED BY RF-SCORE:    0.00 PKD
ROOT
HETATM    1  C   UNL     1      -9.712   6.657  67.898  1.00  0.00    -0.122 C  
HETATM    2  S   UNL     1      -9.438   7.507  66.320  1.00  0.00    -0.036 SA 
HETATM    3  C   UNL     1      -8.469   6.143  65.629  1.00  0.00    -0.151 C  
HETATM    4  C   UNL     1      -7.358   5.635  66.540  1.00  0.00    -0.079 C  
HETATM    5  C   UNL     1     -10.062   7.580  69.155  1.00  0.00    -0.192 C  
HETATM    6  C   UNL     1      -7.371   5.754  67.903  1.00  0.00    -0.077 C  
HETATM    7  N   UNL     1      -8.420   6.395  68.513  1.00  0.00    -0.119 N  
HETATM    8  C   UNL     1      -6.206   5.205  68.720  1.00  0.00    -0.031 C  
HETATM    9  O   UNL     1      -5.247   4.634  68.221  1.00  0.00    -0.006 OA 
HETATM   10  O   UNL     1      -6.272   5.296  70.056  1.00  0.00    -0.020 OA 
HETATM   11  O   UNL     1      -8.156   6.740  70.786  1.00  0.00    -0.115 OA 
HETATM   12  C   UNL     1      -8.743   6.872  69.734  1.00  0.00    -0.141 C  
ENDROOT
BRANCH   4  13
HETATM   13  C   UNL     1      -6.202   5.061  65.715  1.00  0.00    -0.034 C  
BRANCH  13  14
HETATM   14  S   UNL     1      -5.899   3.322  66.140  1.00  0.00    -0.023 SA 
BRANCH  14  15
HETATM   15  C   UNL     1      -7.497   2.686  65.969  1.00  0.00    -0.068 A  
HETATM   16  N   UNL     1      -8.323   2.399  66.948  1.00  0.00    -0.085 NA 
HETATM   17  C   UNL     1      -7.624   2.496  63.435  1.00  0.00    -0.062 C  
HETATM   18  N   UNL     1      -9.443   1.865  66.351  1.00  0.00     0.162 NA 
HETATM   19  N   UNL     1      -8.093   2.355  64.785  1.00  0.00    -0.081 NA 
HETATM   20  N   UNL     1      -9.312   1.837  65.031  1.00  0.00    -0.100 NA 
ENDBRANCH  14  15
ENDBRANCH  13  14
ENDBRANCH   4  13
BRANCH   5  21
HETATM   21  N   UNL     1     -10.009   9.041  68.860  1.00  0.00    -0.183 N  
HETATM   22  O   UNL     1     -12.008   9.594  69.783  1.00  0.00     0.072 OA 
HETATM   23  H   UNL     1      -9.180   9.393  68.382  1.00  0.00     0.000 HD 
HETATM   24  C   UNL     1     -10.992   9.957  69.181  1.00  0.00    -0.200 C  
BRANCH  24  25
HETATM   25  C   UNL     1     -10.719  11.448  68.763  1.00  0.00    -0.203 C  
HETATM   26  S   UNL     1     -11.034  11.820  66.991  1.00  0.00    -0.300 SA 
HETATM   27  C   UNL     1     -11.358  13.327  67.836  1.00  0.00    -0.284 C  
HETATM   28  C   UNL     1     -11.163  14.622  67.489  1.00  0.00    -0.343 C  
HETATM   29  S   UNL     1     -12.101  12.558  69.227  1.00  0.00    -0.073 SA 
HETATM   30  O   UNL     1     -11.277  16.960  68.023  1.00  0.00    -0.271 OA 
HETATM   31  C   UNL     1     -11.553  15.701  68.444  1.00  0.00    -0.350 C  
HETATM   32  O   UNL     1     -12.090  15.525  69.525  1.00  0.00    -0.344 OA 
BRANCH  28  33
HETATM   33  C   UNL     1     -10.519  14.973  66.192  1.00  0.00    -0.305 C  
HETATM   34  O   UNL     1      -9.356  15.378  66.176  1.00  0.00    -0.288 OA 
HETATM   35  N   UNL     1     -11.212  14.905  65.031  1.00  0.00    -0.384 N  
HETATM   36  H1  UNL     1     -10.770  15.145  64.144  1.00  0.00     0.000 HD 
HETATM   37  H2  UNL     1     -12.188  14.609  65.044  1.00  0.00     0.000 HD 
ENDBRANCH  28  33
ENDBRANCH  24  25
ENDBRANCH   5  21
BRANCH   5  38
HETATM   38  O   UNL     1     -11.283   7.214  69.856  1.00  0.00    -0.260 OA 
HETATM   39  C   UNL     1     -11.113   6.360  70.986  1.00  0.00    -0.294 C  
ENDBRANCH   5  38
TORSDOF 7
ENDMDL
MODEL      139
REMARK 921   NORMALIZED FREE ENERGY PREDICTED BY IDOCK:   -1.71 KCAL/MOL
REMARK 922        TOTAL FREE ENERGY PREDICTED BY IDOCK:   -3.87 KCAL/MOL
REMARK 923 INTER-LIGAND FREE ENERGY PREDICTED BY IDOCK:   -2.84 KCAL/MOL
REMARK 924 INTRA-LIGAND FREE ENERGY PREDICTED BY IDOCK:   -1.02 KCAL/MOL
REMARK 927      BINDING AFFINITY PREDICTED BY RF-SCORE:    0.00 PKD
ROOT
HETATM    1  C   UNL     1      -6.804   5.064  65.155  1.00  0.00    -0.053 C  
HETATM    2  S   UNL     1      -5.451   5.630  66.221  1.00  0.00    -0.013 SA 
HETATM    3  C   UNL     1      -5.154   3.980  66.903  1.00  0.00    -0.008 C  
HETATM    4  C   UNL     1      -6.406   3.270  67.403  1.00  0.00    -0.036 C  
HETATM    5  C   UNL     1      -7.852   6.174  64.682  1.00  0.00    -0.113 C  
HETATM    6  C   UNL     1      -7.668   3.528  66.942  1.00  0.00    -0.080 C  
HETATM    7  N   UNL     1      -7.852   4.506  65.996  1.00  0.00    -0.094 N  
HETATM    8  C   UNL     1      -8.853   2.754  67.509  1.00  0.00    -0.138 C  
HETATM    9  O   UNL     1      -8.739   1.881  68.359  1.00  0.00    -0.068 OA 
HETATM   10  O   UNL     1     -10.070   2.998  67.003  1.00  0.00     0.549 OA 
HETATM   11  O   UNL     1     -10.064   4.993  65.523  1.00  0.00    -0.102 OA 
HETATM   12  C   UNL     1      -8.871   5.179  65.421  1.00  0.00    -0.153 C  
ENDROOT
BRANCH   4  13
HETATM   13  C   UNL     1      -6.062   2.303  68.541  1.00  0.00    -0.025 C  
BRANCH  13  14
HETATM   14  S   UNL     1      -5.172   3.158  69.873  1.00  0.00    -0.008 SA 
BRANCH  14  15
HETATM   15  C   UNL     1      -6.507   3.776  70.780  1.00  0.00    -0.031 A  
HETATM   16  N   UNL     1      -7.587   3.110  71.118  1.00  0.00    -0.040 NA 
HETATM   17  C   UNL     1      -5.724   6.170  71.137  1.00  0.00    -0.026 C  
HETATM   18  N   UNL     1      -8.397   4.011  71.770  1.00  0.00    -0.092 NA 
HETATM   19  N   UNL     1      -6.633   5.062  71.225  1.00  0.00    -0.037 NA 
HETATM   20  N   UNL     1      -7.821   5.204  71.843  1.00  0.00    -0.108 NA 
ENDBRANCH  14  15
ENDBRANCH  13  14
ENDBRANCH   4  13
BRANCH   5  21
HETATM   21  N   UNL     1      -7.615   7.519  65.282  1.00  0.00    -0.091 N  
HETATM   22  O   UNL     1      -9.682   7.808  66.173  1.00  0.00    -0.125 OA 
HETATM   23  H   UNL     1      -6.687   7.925  65.167  1.00  0.00     0.000 HD 
HETATM   24  C   UNL     1      -8.549   8.259  65.980  1.00  0.00    -0.149 C  
BRANCH  24  25
HETATM   25  C   UNL     1      -8.070   9.658  66.516  1.00  0.00    -0.119 C  
HETATM   26  S   UNL     1      -9.426  10.821  66.951  1.00  0.00    -0.171 SA 
HETATM   27  C   UNL     1      -8.101  11.246  68.026  1.00  0.00    -0.128 C  
HETATM   28  C   UNL     1      -7.686  12.433  68.528  1.00  0.00    -0.120 C  
HETATM   29  S   UNL     1      -7.583   9.589  68.281  1.00  0.00    -0.078 SA 
HETATM   30  O   UNL     1      -6.139  13.708  69.851  1.00  0.00    -0.125 OA 
HETATM   31  C   UNL     1      -6.502  12.469  69.437  1.00  0.00    -0.102 C  
HETATM   32  O   UNL     1      -5.880  11.493  69.821  1.00  0.00    -0.077 OA 
BRANCH  28  33
HETATM   33  C   UNL     1      -8.363  13.702  68.140  1.00  0.00    -0.166 C  
HETATM   34  O   UNL     1      -8.055  14.265  67.088  1.00  0.00    -0.188 OA 
HETATM   35  N   UNL     1      -9.279  14.277  68.954  1.00  0.00    -0.373 N  
HETATM   36  H1  UNL     1      -9.743  15.146  68.688  1.00  0.00     0.000 HD 
HETATM   37  H2  UNL     1      -9.508  13.836  69.845  1.00  0.00     0.000 HD 
ENDBRANCH  28  33
ENDBRANCH  24  25
ENDBRANCH   5  21
BRANCH   5  38
HETATM   38  O   UNL     1      -8.045   6.253  63.243  1.00  0.00    -0.112 OA 
HETATM   39  C   UNL     1      -6.892   6.615  62.484  1.00  0.00    -0.046 C  
ENDBRANCH   5  38
TORSDOF 7
ENDMDL
MODEL      140
REMARK 921   NORMALIZED FREE ENERGY PREDICTED BY IDOCK:   -1.53 KCAL/MOL
REMARK 922        TOTAL FREE ENERGY PREDICTED BY IDOCK:   -3.62 KCAL/MOL
REMARK 923 INTER-LIGAND FREE ENERGY PREDICTED BY IDOCK:   -4.55 KCAL/MOL
REMARK 924 INTRA-LIGAND FREE ENERGY PREDICTED BY IDOCK:    0.94 KCAL/MOL
REMARK 927      BINDING AFFINITY PREDICTED BY RF-SCORE:    0.00 PKD
ROOT
HETATM    1  C   UNL     1      -9.608   4.988  68.869  1.00  0.00    -0.151 C  
HETATM    2  S   UNL     1      -9.781   5.839  67.277  1.00  0.00    -0.140 SA 
HETATM    3  C   UNL     1      -9.277   4.385  66.323  1.00  0.00    -0.141 C  
HETATM    4  C   UNL     1      -7.994   3.724  66.813  1.00  0.00    -0.095 C  
HETATM    5  C   UNL     1      -9.397   5.915  70.153  1.00  0.00    -0.156 C  
HETATM    6  C   UNL     1      -7.531   3.809  68.097  1.00  0.00    -0.062 C  
HETATM    7  N   UNL     1      -8.226   4.558  69.015  1.00  0.00    -0.079 N  
HETATM    8  C   UNL     1      -6.235   3.104  68.481  1.00  0.00    -0.029 C  
HETATM    9  O   UNL     1      -5.578   2.434  67.697  1.00  0.00    -0.017 OA 
HETATM   10  O   UNL     1      -5.834   3.168  69.760  1.00  0.00    -0.021 OA 
HETATM   11  O   UNL     1      -7.170   4.811  71.058  1.00  0.00    -0.055 OA 
HETATM   12  C   UNL     1      -8.057   5.039  70.265  1.00  0.00    -0.085 C  
ENDROOT
BRANCH   4  13
HETATM   13  C   UNL     1      -7.264   3.036  65.655  1.00  0.00    -0.070 C  
BRANCH  13  14
HETATM   14  S   UNL     1      -5.704   3.882  65.274  1.00  0.00    -0.022 SA 
BRANCH  14  15
HETATM   15  C   UNL     1      -6.276   5.092  64.181  1.00  0.00    -0.022 A  
HETATM   16  N   UNL     1      -6.266   5.016  62.870  1.00  0.00    -0.021 NA 
HETATM   17  C   UNL     1      -7.010   6.873  65.842  1.00  0.00    -0.064 C  
HETATM   18  N   UNL     1      -6.752   6.222  62.420  1.00  0.00    -0.037 NA 
HETATM   19  N   UNL     1      -6.771   6.313  64.542  1.00  0.00    -0.041 NA 
HETATM   20  N   UNL     1      -7.066   7.018  63.433  1.00  0.00    -0.060 NA 
ENDBRANCH  14  15
ENDBRANCH  13  14
ENDBRANCH   4  13
BRANCH   5  21
HETATM   21  N   UNL     1      -9.269   7.366  69.833  1.00  0.00    -0.145 N  
HETATM   22  O   UNL     1      -8.504   8.044  71.859  1.00  0.00    -0.115 OA 
HETATM   23  H   UNL     1      -9.518   7.660  68.889  1.00  0.00     0.000 HD 
HETATM   24  C   UNL     1      -8.843   8.344  70.710  1.00  0.00    -0.151 C  
BRANCH  24  25
HETATM   25  C   UNL     1      -8.795   9.812  70.148  1.00  0.00    -0.188 C  
HETATM   26  S   UNL     1      -8.202   9.953  68.414  1.00  0.00    -0.107 SA 
HETATM   27  C   UNL     1      -9.313  11.299  68.625  1.00  0.00    -0.164 C  
HETATM   28  C   UNL     1      -9.314  12.560  68.129  1.00  0.00    -0.210 C  
HETATM   29  S   UNL     1     -10.447  10.399  69.615  1.00  0.00    -0.225 SA 
HETATM   30  O   UNL     1     -10.310  14.740  67.989  1.00  0.00    -0.233 OA 
HETATM   31  C   UNL     1     -10.422  13.489  68.499  1.00  0.00    -0.244 C  
HETATM   32  O   UNL     1     -11.383  13.199  69.192  1.00  0.00    -0.267 OA 
BRANCH  28  33
HETATM   33  C   UNL     1      -8.198  13.040  67.266  1.00  0.00    -0.172 C  
HETATM   34  O   UNL     1      -7.200  12.336  67.107  1.00  0.00    -0.144 OA 
HETATM   35  N   UNL     1      -8.241  14.266  66.695  1.00  0.00    -0.338 N  
HETATM   36  H1  UNL     1      -7.477  14.595  66.104  1.00  0.00     0.000 HD 
HETATM   37  H2  UNL     1      -9.048  14.870  66.857  1.00  0.00     0.000 HD 
ENDBRANCH  28  33
ENDBRANCH  24  25
ENDBRANCH   5  21
BRANCH   5  38
HETATM   38  O   UNL     1     -10.344   5.682  71.232  1.00  0.00    -0.211 OA 
HETATM   39  C   UNL     1     -11.629   6.280  71.064  1.00  0.00    -0.272 C  
ENDBRANCH   5  38
TORSDOF 7
ENDMDL
MODEL      141
REMARK 921   NORMALIZED FREE ENERGY PREDICTED BY IDOCK:   -1.47 KCAL/MOL
REMARK 922        TOTAL FREE ENERGY PREDICTED BY IDOCK:   -3.53 KCAL/MOL
REMARK 923 INTER-LIGAND FREE ENERGY PREDICTED BY IDOCK:   -2.60 KCAL/MOL
REMARK 924 INTRA-LIGAND FREE ENERGY PREDICTED BY IDOCK:   -0.93 KCAL/MOL
REMARK 927      BINDING AFFINITY PREDICTED BY RF-SCORE:    0.00 PKD
ROOT
HETATM    1  C   UNL     1      -7.749  13.157  66.518  1.00  0.00     0.976 C  
HETATM    2  S   UNL     1      -9.126  12.588  65.485  1.00  0.00     0.569 SA 
HETATM    3  C   UNL     1      -9.871  14.235  65.381  1.00  0.00    -0.221 C  
HETATM    4  C   UNL     1     -10.032  14.939  66.723  1.00  0.00    -0.252 C  
HETATM    5  C   UNL     1      -7.014  12.047  67.402  1.00  0.00    -0.139 C  
HETATM    6  C   UNL     1      -9.257  14.680  67.821  1.00  0.00    -0.196 C  
HETATM    7  N   UNL     1      -8.291  13.708  67.749  1.00  0.00    -0.166 N  
HETATM    8  C   UNL     1      -9.502  15.448  69.115  1.00  0.00    -0.242 C  
HETATM    9  O   UNL     1     -10.356  16.316  69.229  1.00  0.00    -0.241 OA 
HETATM   10  O   UNL     1      -8.695  15.204  70.159  1.00  0.00     0.171 OA 
HETATM   11  O   UNL     1      -7.258  13.218  69.762  1.00  0.00     0.312 OA 
HETATM   12  C   UNL     1      -7.468  13.035  68.582  1.00  0.00    -0.093 C  
ENDROOT
BRANCH   4  13
HETATM   13  C   UNL     1     -11.225  15.899  66.690  1.00  0.00     0.061 C  
BRANCH  13  14
HETATM   14  S   UNL     1     -10.975  17.205  65.453  1.00  0.00     0.244 SA 
BRANCH  14  15
HETATM   15  C   UNL     1      -9.572  17.975  66.105  1.00  0.00    -0.173 A  
HETATM   16  N   UNL     1      -8.338  17.813  65.688  1.00  0.00    -0.288 NA 
HETATM   17  C   UNL     1     -10.643  19.333  67.970  1.00  0.00    -0.327 C  
HETATM   18  N   UNL     1      -7.553  18.564  66.533  1.00  0.00    -0.235 NA 
HETATM   19  N   UNL     1      -9.561  18.821  67.178  1.00  0.00    -0.294 NA 
HETATM   20  N   UNL     1      -8.292  19.185  67.443  1.00  0.00    -0.278 NA 
ENDBRANCH  14  15
ENDBRANCH  13  14
ENDBRANCH   4  13
BRANCH   5  21
HETATM   21  N   UNL     1      -7.648  10.699  67.324  1.00  0.00    -0.098 N  
HETATM   22  O   UNL     1      -6.822   9.876  69.270  1.00  0.00    -0.052 OA 
HETATM   23  H   UNL     1      -8.238  10.506  66.514  1.00  0.00     0.000 HD 
HETATM   24  C   UNL     1      -7.503   9.692  68.257  1.00  0.00    -0.077 C  
BRANCH  24  25
HETATM   25  C   UNL     1      -8.264   8.349  67.957  1.00  0.00    -0.127 C  
HETATM   26  S   UNL     1      -8.384   7.914  66.175  1.00  0.00    -0.134 SA 
HETATM   27  C   UNL     1      -8.368   6.371  67.019  1.00  0.00    -0.112 C  
HETATM   28  C   UNL     1      -8.986   5.193  66.767  1.00  0.00    -0.113 C  
HETATM   29  S   UNL     1      -7.204   6.880  68.229  1.00  0.00    -0.094 SA 
HETATM   30  O   UNL     1      -9.462   2.920  67.377  1.00  0.00    -0.189 OA 
HETATM   31  C   UNL     1      -8.765   4.040  67.689  1.00  0.00    -0.105 C  
HETATM   32  O   UNL     1      -8.021   4.044  68.656  1.00  0.00    -0.071 OA 
BRANCH  28  33
HETATM   33  C   UNL     1      -9.920   5.055  65.615  1.00  0.00    -0.073 C  
HETATM   34  O   UNL     1     -11.091   4.727  65.811  1.00  0.00    -0.183 OA 
HETATM   35  N   UNL     1      -9.487   5.234  64.344  1.00  0.00    -0.239 N  
HETATM   36  H1  UNL     1     -10.127   5.140  63.556  1.00  0.00     0.000 HD 
HETATM   37  H2  UNL     1      -8.508   5.466  64.174  1.00  0.00     0.000 HD 
ENDBRANCH  28  33
ENDBRANCH  24  25
ENDBRANCH   5  21
BRANCH   5  38
HETATM   38  O   UNL     1      -5.573  11.977  67.215  1.00  0.00    -0.105 OA 
HETATM   39  C   UNL     1      -5.138  11.365  66.002  1.00  0.00    -0.021 C  
ENDBRANCH   5  38
TORSDOF 7
ENDMDL
MODEL      142
REMARK 921   NORMALIZED FREE ENERGY PREDICTED BY IDOCK:   -1.44 KCAL/MOL
REMARK 922        TOTAL FREE ENERGY PREDICTED BY IDOCK:   -3.48 KCAL/MOL
REMARK 923 INTER-LIGAND FREE ENERGY PREDICTED BY IDOCK:   -5.25 KCAL/MOL
REMARK 924 INTRA-LIGAND FREE ENERGY PREDICTED BY IDOCK:    1.76 KCAL/MOL
REMARK 927      BINDING AFFINITY PREDICTED BY RF-SCORE:    0.00 PKD
ROOT
HETATM    1  C   UNL     1      -7.871   9.455  69.445  1.00  0.00    -0.087 C  
HETATM    2  S   UNL     1      -6.909  10.369  70.682  1.00  0.00     0.353 SA 
HETATM    3  C   UNL     1      -6.921   8.997  71.863  1.00  0.00     0.096 C  
HETATM    4  C   UNL     1      -8.298   8.394  72.114  1.00  0.00    -0.225 C  
HETATM    5  C   UNL     1      -8.660  10.330  68.366  1.00  0.00    -0.125 C  
HETATM    6  C   UNL     1      -9.332   8.446  71.218  1.00  0.00    -0.187 C  
HETATM    7  N   UNL     1      -9.157   9.104  70.027  1.00  0.00    -0.176 N  
HETATM    8  C   UNL     1     -10.669   7.804  71.571  1.00  0.00    -0.222 C  
HETATM    9  O   UNL     1     -10.874   7.215  72.623  1.00  0.00    -0.242 OA 
HETATM   10  O   UNL     1     -11.646   7.832  70.653  1.00  0.00    -0.281 OA 
HETATM   11  O   UNL     1     -11.075   9.324  68.751  1.00  0.00    -0.066 OA 
HETATM   12  C   UNL     1      -9.906   9.534  68.989  1.00  0.00    -0.176 C  
ENDROOT
BRANCH   4  13
HETATM   13  C   UNL     1      -8.383   7.809  73.527  1.00  0.00    -0.196 C  
BRANCH  13  14
HETATM   14  S   UNL     1      -7.126   6.522  73.775  1.00  0.00    -0.080 SA 
BRANCH  14  15
HETATM   15  C   UNL     1      -8.140   5.127  73.891  1.00  0.00    -0.101 A  
HETATM   16  N   UNL     1      -9.324   5.078  74.455  1.00  0.00    -0.121 NA 
HETATM   17  C   UNL     1      -6.655   3.408  72.746  1.00  0.00    -0.028 C  
HETATM   18  N   UNL     1      -9.727   3.765  74.370  1.00  0.00    -0.113 NA 
HETATM   19  N   UNL     1      -7.816   3.876  73.448  1.00  0.00    -0.082 NA 
HETATM   20  N   UNL     1      -8.815   3.025  73.754  1.00  0.00    -0.076 NA 
ENDBRANCH  14  15
ENDBRANCH  13  14
ENDBRANCH   4  13
BRANCH   5  21
HETATM   21  N   UNL     1      -8.568  11.800  68.601  1.00  0.00    -0.315 N  
HETATM   22  O   UNL     1      -6.311  11.978  68.453  1.00  0.00    -0.050 OA 
HETATM   23  H   UNL     1      -9.442  12.306  68.743  1.00  0.00     0.000 HD 
HETATM   24  C   UNL     1      -7.398  12.532  68.643  1.00  0.00    -0.099 C  
BRANCH  24  25
HETATM   25  C   UNL     1      -7.549  14.074  68.913  1.00  0.00    -0.080 C  
HETATM   26  S   UNL     1      -6.187  15.110  68.243  1.00  0.00    -0.131 SA 
HETATM   27  C   UNL     1      -7.607  16.148  68.209  1.00  0.00    -0.146 C  
HETATM   28  C   UNL     1      -7.762  17.479  68.405  1.00  0.00    -0.260 C  
HETATM   29  S   UNL     1      -8.711  14.868  67.740  1.00  0.00    -0.174 SA 
HETATM   30  O   UNL     1      -9.183  19.408  68.561  1.00  0.00    -0.350 OA 
HETATM   31  C   UNL     1      -9.125  18.078  68.304  1.00  0.00    -0.278 C  
HETATM   32  O   UNL     1     -10.141  17.472  68.007  1.00  0.00    -0.297 OA 
BRANCH  28  33
HETATM   33  C   UNL     1      -6.599  18.335  68.772  1.00  0.00    -0.237 C  
HETATM   34  O   UNL     1      -6.121  18.267  69.905  1.00  0.00    -0.233 OA 
HETATM   35  N   UNL     1      -6.089  19.228  67.891  1.00  0.00    -0.202 N  
HETATM   36  H1  UNL     1      -5.293  19.814  68.142  1.00  0.00     0.000 HD 
HETATM   37  H2  UNL     1      -6.508  19.317  66.965  1.00  0.00     0.000 HD 
ENDBRANCH  28  33
ENDBRANCH  24  25
ENDBRANCH   5  21
BRANCH   5  38
HETATM   38  O   UNL     1      -8.375   9.987  66.981  1.00  0.00    -0.120 OA 
HETATM   39  C   UNL     1      -7.257  10.655  66.397  1.00  0.00    -0.134 C  
ENDBRANCH   5  38
TORSDOF 7
ENDMDL
MODEL      143
REMARK 921   NORMALIZED FREE ENERGY PREDICTED BY IDOCK:   -1.44 KCAL/MOL
REMARK 922        TOTAL FREE ENERGY PREDICTED BY IDOCK:   -3.48 KCAL/MOL
REMARK 923 INTER-LIGAND FREE ENERGY PREDICTED BY IDOCK:   -3.38 KCAL/MOL
REMARK 924 INTRA-LIGAND FREE ENERGY PREDICTED BY IDOCK:   -0.10 KCAL/MOL
REMARK 927      BINDING AFFINITY PREDICTED BY RF-SCORE:    0.00 PKD
ROOT
HETATM    1  C   UNL     1     -10.668  12.057  68.387  1.00  0.00    -0.229 C  
HETATM    2  S   UNL     1      -8.908  12.144  68.814  1.00  0.00     0.219 SA 
HETATM    3  C   UNL     1      -8.745  13.856  68.248  1.00  0.00    -0.183 C  
HETATM    4  C   UNL     1      -9.309  14.116  66.856  1.00  0.00    -0.274 C  
HETATM    5  C   UNL     1     -11.274  10.596  68.153  1.00  0.00    -0.302 C  
HETATM    6  C   UNL     1     -10.298  13.367  66.279  1.00  0.00    -0.291 C  
HETATM    7  N   UNL     1     -10.809  12.289  66.958  1.00  0.00    -0.241 N  
HETATM    8  C   UNL     1     -10.792  13.718  64.880  1.00  0.00    -0.391 C  
HETATM    9  O   UNL     1     -10.361  14.663  64.234  1.00  0.00     0.057 OA 
HETATM   10  O   UNL     1     -11.795  12.993  64.362  1.00  0.00    -0.347 OA 
HETATM   11  O   UNL     1     -12.278  10.982  65.737  1.00  0.00     1.090 OA 
HETATM   12  C   UNL     1     -11.613  11.231  66.719  1.00  0.00     0.144 C  
ENDROOT
BRANCH   4  13
HETATM   13  C   UNL     1      -8.558  15.263  66.173  1.00  0.00     0.109 C  
BRANCH  13  14
HETATM   14  S   UNL     1      -9.627  16.718  65.982  1.00  0.00    -0.189 SA 
BRANCH  14  15
HETATM   15  C   UNL     1      -9.042  17.696  67.281  1.00  0.00    -0.237 A  
HETATM   16  N   UNL     1      -8.585  17.259  68.432  1.00  0.00    -0.245 NA 
HETATM   17  C   UNL     1      -9.392  20.009  66.282  1.00  0.00    -0.359 C  
HETATM   18  N   UNL     1      -8.296  18.382  69.173  1.00  0.00    -0.022 NA 
HETATM   19  N   UNL     1      -9.024  19.062  67.297  1.00  0.00    -0.281 NA 
HETATM   20  N   UNL     1      -8.558  19.487  68.486  1.00  0.00    -0.353 NA 
ENDBRANCH  14  15
ENDBRANCH  13  14
ENDBRANCH   4  13
BRANCH   5  21
HETATM   21  N   UNL     1     -10.258   9.506  68.223  1.00  0.00    -0.185 N  
HETATM   22  O   UNL     1     -11.238   8.101  66.735  1.00  0.00     0.394 OA 
HETATM   23  H   UNL     1      -9.460   9.649  68.842  1.00  0.00     0.000 HD 
HETATM   24  C   UNL     1     -10.309   8.319  67.519  1.00  0.00    -0.265 C  
BRANCH  24  25
HETATM   25  C   UNL     1      -9.124   7.314  67.759  1.00  0.00    -0.124 C  
HETATM   26  S   UNL     1      -8.772   6.949  69.526  1.00  0.00    -0.133 SA 
HETATM   27  C   UNL     1      -8.309   5.490  68.660  1.00  0.00    -0.101 C  
HETATM   28  C   UNL     1      -7.317   4.591  68.862  1.00  0.00    -0.056 C  
HETATM   29  S   UNL     1      -9.638   5.573  67.517  1.00  0.00    -0.128 SA 
HETATM   30  O   UNL     1      -6.132   2.612  68.194  1.00  0.00    -0.024 OA 
HETATM   31  C   UNL     1      -7.182   3.430  67.934  1.00  0.00    -0.051 C  
HETATM   32  O   UNL     1      -7.933   3.179  67.006  1.00  0.00    -0.078 OA 
BRANCH  28  33
HETATM   33  C   UNL     1      -6.332   4.780  69.965  1.00  0.00    -0.030 C  
HETATM   34  O   UNL     1      -6.617   4.423  71.109  1.00  0.00    -0.028 OA 
HETATM   35  N   UNL     1      -5.144   5.388  69.738  1.00  0.00    -0.004 N  
HETATM   36  H1  UNL     1      -4.470   5.517  70.493  1.00  0.00     0.000 HD 
HETATM   37  H2  UNL     1      -4.920   5.722  68.800  1.00  0.00     0.000 HD 
ENDBRANCH  28  33
ENDBRANCH  24  25
ENDBRANCH   5  21
BRANCH   5  38
HETATM   38  O   UNL     1     -12.448  10.291  68.956  1.00  0.00     0.064 OA 
HETATM   39  C   UNL     1     -12.481  10.884  70.253  1.00  0.00    -0.303 C  
ENDBRANCH   5  38
TORSDOF 7
ENDMDL
MODEL      144
REMARK 921   NORMALIZED FREE ENERGY PREDICTED BY IDOCK:   -1.23 KCAL/MOL
REMARK 922        TOTAL FREE ENERGY PREDICTED BY IDOCK:   -3.19 KCAL/MOL
REMARK 923 INTER-LIGAND FREE ENERGY PREDICTED BY IDOCK:   -3.57 KCAL/MOL
REMARK 924 INTRA-LIGAND FREE ENERGY PREDICTED BY IDOCK:    0.38 KCAL/MOL
REMARK 927      BINDING AFFINITY PREDICTED BY RF-SCORE:    0.00 PKD
ROOT
HETATM    1  C   UNL     1      -7.272  15.645  68.584  1.00  0.00    -0.129 C  
HETATM    2  S   UNL     1      -6.846  15.342  66.848  1.00  0.00     0.667 SA 
HETATM    3  C   UNL     1      -7.304  17.016  66.331  1.00  0.00    -0.293 C  
HETATM    4  C   UNL     1      -8.675  17.472  66.816  1.00  0.00    -0.278 C  
HETATM    5  C   UNL     1      -7.596  14.359  69.475  1.00  0.00     0.083 C  
HETATM    6  C   UNL     1      -9.295  16.980  67.932  1.00  0.00    -0.240 C  
HETATM    7  N   UNL     1      -8.683  15.990  68.660  1.00  0.00    -0.195 N  
HETATM    8  C   UNL     1     -10.667  17.512  68.329  1.00  0.00    -0.309 C  
HETATM    9  O   UNL     1     -11.254  18.386  67.707  1.00  0.00    -0.080 OA 
HETATM   10  O   UNL     1     -11.226  17.043  69.455  1.00  0.00     0.018 OA 
HETATM   11  O   UNL     1      -9.980  15.093  70.355  1.00  0.00    -0.025 OA 
HETATM   12  C   UNL     1      -8.986  15.137  69.663  1.00  0.00    -0.053 C  
ENDROOT
BRANCH   4  13
HETATM   13  C   UNL     1      -9.286  18.481  65.838  1.00  0.00     0.208 C  
BRANCH  13  14
HETATM   14  S   UNL     1      -9.198  20.168  66.504  1.00  0.00    -0.296 SA 
BRANCH  14  15
HETATM   15  C   UNL     1      -7.593  20.157  67.143  1.00  0.00    -0.299 A  
HETATM   16  N   UNL     1      -7.262  19.965  68.399  1.00  0.00    -0.306 NA 
HETATM   17  C   UNL     1      -6.273  20.636  65.022  1.00  0.00    -0.272 C  
HETATM   18  N   UNL     1      -5.894  20.105  68.454  1.00  0.00    -0.240 NA 
HETATM   19  N   UNL     1      -6.455  20.396  66.426  1.00  0.00    -0.214 NA 
HETATM   20  N   UNL     1      -5.393  20.365  67.253  1.00  0.00    -0.162 NA 
ENDBRANCH  14  15
ENDBRANCH  13  14
ENDBRANCH   4  13
BRANCH   5  21
HETATM   21  N   UNL     1      -7.598  13.080  68.706  1.00  0.00    -0.272 N  
HETATM   22  O   UNL     1      -9.838  12.716  68.756  1.00  0.00    -0.116 OA 
HETATM   23  H   UNL     1      -6.699  12.732  68.375  1.00  0.00     0.000 HD 
HETATM   24  C   UNL     1      -8.718  12.331  68.404  1.00  0.00    -0.139 C  
BRANCH  24  25
HETATM   25  C   UNL     1      -8.474  11.011  67.585  1.00  0.00    -0.121 C  
HETATM   26  S   UNL     1      -7.867  11.272  65.869  1.00  0.00     0.216 SA 
HETATM   27  C   UNL     1      -7.192   9.725  66.360  1.00  0.00    -0.095 C  
HETATM   28  C   UNL     1      -6.941   8.586  65.671  1.00  0.00    -0.071 C  
HETATM   29  S   UNL     1      -6.878  10.220  68.013  1.00  0.00    -0.070 SA 
HETATM   30  O   UNL     1      -6.175   6.310  65.619  1.00  0.00    -0.035 OA 
HETATM   31  C   UNL     1      -6.347   7.417  66.384  1.00  0.00    -0.041 C  
HETATM   32  O   UNL     1      -6.012   7.403  67.557  1.00  0.00    -0.035 OA 
BRANCH  28  33
HETATM   33  C   UNL     1      -7.300   8.473  64.230  1.00  0.00    -0.102 C  
HETATM   34  O   UNL     1      -8.241   7.756  63.887  1.00  0.00    -0.100 OA 
HETATM   35  N   UNL     1      -6.572   9.107  63.281  1.00  0.00    -0.090 N  
HETATM   36  H1  UNL     1      -6.818   9.030  62.294  1.00  0.00     0.000 HD 
HETATM   37  H2  UNL     1      -5.766   9.670  63.557  1.00  0.00     0.000 HD 
ENDBRANCH  28  33
ENDBRANCH  24  25
ENDBRANCH   5  21
BRANCH   5  38
HETATM   38  O   UNL     1      -6.811  14.252  70.695  1.00  0.00     0.091 OA 
HETATM   39  C   UNL     1      -5.735  13.315  70.657  1.00  0.00    -0.176 C  
ENDBRANCH   5  38
TORSDOF 7
ENDMDL
MODEL      145
REMARK 921   NORMALIZED FREE ENERGY PREDICTED BY IDOCK:   -1.02 KCAL/MOL
REMARK 922        TOTAL FREE ENERGY PREDICTED BY IDOCK:   -2.89 KCAL/MOL
REMARK 923 INTER-LIGAND FREE ENERGY PREDICTED BY IDOCK:   -5.23 KCAL/MOL
REMARK 924 INTRA-LIGAND FREE ENERGY PREDICTED BY IDOCK:    2.35 KCAL/MOL
REMARK 927      BINDING AFFINITY PREDICTED BY RF-SCORE:    0.00 PKD
ROOT
HETATM    1  C   UNL     1      -9.067  12.042  69.442  1.00  0.00     1.039 C  
HETATM    2  S   UNL     1      -7.470  12.010  68.582  1.00  0.00    -0.092 SA 
HETATM    3  C   UNL     1      -7.315  13.814  68.577  1.00  0.00    -0.117 C  
HETATM    4  C   UNL     1      -8.551  14.551  68.075  1.00  0.00    -0.162 C  
HETATM    5  C   UNL     1      -9.997  10.754  69.267  1.00  0.00    -0.159 C  
HETATM    6  C   UNL     1      -9.819  14.042  68.126  1.00  0.00    -0.235 C  
HETATM    7  N   UNL     1     -10.017  12.778  68.623  1.00  0.00    -0.149 N  
HETATM    8  C   UNL     1     -10.987  14.869  67.599  1.00  0.00    -0.300 C  
HETATM    9  O   UNL     1     -10.857  15.995  67.139  1.00  0.00    -0.310 OA 
HETATM   10  O   UNL     1     -12.223  14.360  67.706  1.00  0.00    -0.314 OA 
HETATM   11  O   UNL     1     -12.175  11.974  68.394  1.00  0.00    -0.373 OA 
HETATM   12  C   UNL     1     -11.007  11.861  68.694  1.00  0.00    -0.228 C  
ENDROOT
BRANCH   4  13
HETATM   13  C   UNL     1      -8.160  15.887  67.435  1.00  0.00    -0.163 C  
BRANCH  13  14
HETATM   14  S   UNL     1      -9.002  17.272  68.254  1.00  0.00    -0.268 SA 
BRANCH  14  15
HETATM   15  C   UNL     1      -7.943  18.567  67.821  1.00  0.00    -0.250 A  
HETATM   16  N   UNL     1      -6.670  18.661  68.130  1.00  0.00    -0.220 NA 
HETATM   17  C   UNL     1      -9.570  20.061  66.558  1.00  0.00    -0.420 C  
HETATM   18  N   UNL     1      -6.253  19.876  67.638  1.00  0.00    -0.197 NA 
HETATM   19  N   UNL     1      -8.309  19.692  67.136  1.00  0.00    -0.288 NA 
HETATM   20  N   UNL     1      -7.245  20.510  67.027  1.00  0.00    -0.301 NA 
ENDBRANCH  14  15
ENDBRANCH  13  14
ENDBRANCH   4  13
BRANCH   5  21
HETATM   21  N   UNL     1      -9.447   9.740  68.321  1.00  0.00    -0.139 N  
HETATM   22  O   UNL     1     -10.831  10.188  66.579  1.00  0.00    -0.108 OA 
HETATM   23  H   UNL     1      -8.668   9.169  68.649  1.00  0.00     0.000 HD 
HETATM   24  C   UNL     1      -9.907   9.510  67.040  1.00  0.00    -0.190 C  
BRANCH  24  25
HETATM   25  C   UNL     1      -9.173   8.380  66.228  1.00  0.00    -0.208 C  
HETATM   26  S   UNL     1      -7.458   8.794  65.712  1.00  0.00    -0.086 SA 
HETATM   27  C   UNL     1      -7.463   7.047  65.915  1.00  0.00    -0.080 C  
HETATM   28  C   UNL     1      -6.818   6.056  65.254  1.00  0.00    -0.051 C  
HETATM   29  S   UNL     1      -8.511   7.066  67.321  1.00  0.00    -0.122 SA 
HETATM   30  O   UNL     1      -6.377   3.718  64.924  1.00  0.00    -0.026 OA 
HETATM   31  C   UNL     1      -7.031   4.639  65.674  1.00  0.00    -0.063 C  
HETATM   32  O   UNL     1      -7.718   4.279  66.616  1.00  0.00    -0.091 OA 
BRANCH  28  33
HETATM   33  C   UNL     1      -5.946   6.361  64.086  1.00  0.00    -0.023 C  
HETATM   34  O   UNL     1      -5.937   7.496  63.608  1.00  0.00    -0.047 OA 
HETATM   35  N   UNL     1      -5.199   5.393  63.505  1.00  0.00    -0.013 N  
HETATM   36  H1  UNL     1      -4.602   5.603  62.705  1.00  0.00     0.000 HD 
HETATM   37  H2  UNL     1      -5.234   4.442  63.872  1.00  0.00     0.000 HD 
ENDBRANCH  28  33
ENDBRANCH  24  25
ENDBRANCH   5  21
BRANCH   5  38
HETATM   38  O   UNL     1     -10.434  10.147  70.514  1.00  0.00    -0.261 OA 
HETATM   39  C   UNL     1     -11.718   9.524  70.480  1.00  0.00    -0.222 C  
ENDBRANCH   5  38
TORSDOF 7
ENDMDL
MODEL      146
REMARK 921   NORMALIZED FREE ENERGY PREDICTED BY IDOCK:   -0.89 KCAL/MOL
REMARK 922        TOTAL FREE ENERGY PREDICTED BY IDOCK:   -2.71 KCAL/MOL
REMARK 923 INTER-LIGAND FREE ENERGY PREDICTED BY IDOCK:   -2.89 KCAL/MOL
REMARK 924 INTRA-LIGAND FREE ENERGY PREDICTED BY IDOCK:    0.18 KCAL/MOL
REMARK 927      BINDING AFFINITY PREDICTED BY RF-SCORE:    0.00 PKD
ROOT
HETATM    1  C   UNL     1     -11.288  14.332  66.994  1.00  0.00    -0.341 C  
HETATM    2  S   UNL     1     -11.728  12.650  67.508  1.00  0.00    -0.340 SA 
HETATM    3  C   UNL     1     -13.019  13.218  68.643  1.00  0.00     1.947 C  
HETATM    4  C   UNL     1     -12.579  14.324  69.595  1.00  0.00    -0.095 C  
HETATM    5  C   UNL     1      -9.824  14.533  66.386  1.00  0.00    -0.290 C  
HETATM    6  C   UNL     1     -11.559  15.198  69.334  1.00  0.00    -0.323 C  
HETATM    7  N   UNL     1     -10.848  15.073  68.166  1.00  0.00    -0.255 N  
HETATM    8  C   UNL     1     -11.204  16.271  70.357  1.00  0.00    -0.324 C  
HETATM    9  O   UNL     1     -11.802  16.415  71.414  1.00  0.00    -0.401 OA 
HETATM   10  O   UNL     1     -10.230  17.141  70.050  1.00  0.00     0.148 OA 
HETATM   11  O   UNL     1      -8.999  16.456  68.004  1.00  0.00    -0.182 OA 
HETATM   12  C   UNL     1      -9.721  15.566  67.609  1.00  0.00    -0.212 C  
ENDROOT
BRANCH   4  13
HETATM   13  C   UNL     1     -13.373  14.259  70.903  1.00  0.00    -0.208 C  
BRANCH  13  14
HETATM   14  S   UNL     1     -12.435  13.388  72.191  1.00  0.00     0.340 SA 
BRANCH  14  15
HETATM   15  C   UNL     1     -12.986  11.772  71.925  1.00  0.00    -0.330 A  
HETATM   16  N   UNL     1     -14.067  11.230  72.437  1.00  0.00     0.652 NA 
HETATM   17  C   UNL     1     -11.136  10.923  70.399  1.00  0.00     0.003 C  
HETATM   18  N   UNL     1     -14.071   9.922  72.008  1.00  0.00     0.013 NA 
HETATM   19  N   UNL     1     -12.338  10.828  71.179  1.00  0.00    -0.382 NA 
HETATM   20  N   UNL     1     -13.021   9.670  71.237  1.00  0.00    -0.359 NA 
ENDBRANCH  14  15
ENDBRANCH  13  14
ENDBRANCH   4  13
BRANCH   5  21
HETATM   21  N   UNL     1      -8.983  13.301  66.427  1.00  0.00    -0.458 N  
HETATM   22  O   UNL     1      -7.703  13.883  68.208  1.00  0.00    -0.117 OA 
HETATM   23  H   UNL     1      -9.175  12.581  65.732  1.00  0.00     0.000 HD 
HETATM   24  C   UNL     1      -7.965  13.057  67.328  1.00  0.00    -0.138 C  
BRANCH  24  25
HETATM   25  C   UNL     1      -7.210  11.687  67.172  1.00  0.00    -0.145 C  
HETATM   26  S   UNL     1      -7.926  10.299  68.142  1.00  0.00    -0.111 SA 
HETATM   27  C   UNL     1      -7.203   9.541  66.730  1.00  0.00    -0.086 C  
HETATM   28  C   UNL     1      -6.576   8.352  66.560  1.00  0.00    -0.056 C  
HETATM   29  S   UNL     1      -7.667  10.821  65.624  1.00  0.00     0.008 SA 
HETATM   30  O   UNL     1      -5.413   6.795  65.150  1.00  0.00    -0.025 OA 
HETATM   31  C   UNL     1      -6.063   7.984  65.208  1.00  0.00    -0.045 C  
HETATM   32  O   UNL     1      -6.198   8.653  64.197  1.00  0.00    -0.070 OA 
BRANCH  28  33
HETATM   33  C   UNL     1      -6.350   7.439  67.715  1.00  0.00    -0.048 C  
HETATM   34  O   UNL     1      -5.202   7.193  68.086  1.00  0.00    -0.018 OA 
HETATM   35  N   UNL     1      -7.390   6.831  68.334  1.00  0.00    -0.085 N  
HETATM   36  H1  UNL     1      -7.234   6.206  69.125  1.00  0.00     0.000 HD 
HETATM   37  H2  UNL     1      -8.340   7.000  68.005  1.00  0.00     0.000 HD 
ENDBRANCH  28  33
ENDBRANCH  24  25
ENDBRANCH   5  21
BRANCH   5  38
HETATM   38  O   UNL     1      -9.791  15.165  65.077  1.00  0.00    -0.242 OA 
HETATM   39  C   UNL     1     -11.013  15.766  64.651  1.00  0.00    -0.314 C  
ENDBRANCH   5  38
TORSDOF 7
ENDMDL
MODEL      147
REMARK 921   NORMALIZED FREE ENERGY PREDICTED BY IDOCK:   -0.89 KCAL/MOL
REMARK 922        TOTAL FREE ENERGY PREDICTED BY IDOCK:   -2.70 KCAL/MOL
REMARK 923 INTER-LIGAND FREE ENERGY PREDICTED BY IDOCK:   -4.24 KCAL/MOL
REMARK 924 INTRA-LIGAND FREE ENERGY PREDICTED BY IDOCK:    1.54 KCAL/MOL
REMARK 927      BINDING AFFINITY PREDICTED BY RF-SCORE:    0.00 PKD
ROOT
HETATM    1  C   UNL     1     -10.410  14.112  67.993  1.00  0.00    -0.231 C  
HETATM    2  S   UNL     1      -8.672  13.634  68.192  1.00  0.00    -0.180 SA 
HETATM    3  C   UNL     1      -8.077  15.339  68.078  1.00  0.00    -0.137 C  
HETATM    4  C   UNL     1      -8.626  16.121  66.891  1.00  0.00    -0.253 C  
HETATM    5  C   UNL     1     -11.406  12.980  67.467  1.00  0.00    -0.305 C  
HETATM    6  C   UNL     1      -9.814  15.840  66.273  1.00  0.00    -0.297 C  
HETATM    7  N   UNL     1     -10.563  14.774  66.707  1.00  0.00    -0.296 N  
HETATM    8  C   UNL     1     -10.271  16.690  65.093  1.00  0.00     0.180 C  
HETATM    9  O   UNL     1      -9.634  17.643  64.667  1.00  0.00     2.495 OA 
HETATM   10  O   UNL     1     -11.463  16.418  64.541  1.00  0.00    -0.562 OA 
HETATM   11  O   UNL     1     -12.402  14.282  65.391  1.00  0.00    -0.417 OA 
HETATM   12  C   UNL     1     -11.640  14.064  66.307  1.00  0.00    -0.369 C  
ENDROOT
BRANCH   4  13
HETATM   13  C   UNL     1      -7.628  17.192  66.440  1.00  0.00    -0.312 C  
BRANCH  13  14
HETATM   14  S   UNL     1      -8.408  18.831  66.398  1.00  0.00    -0.251 SA 
BRANCH  14  15
HETATM   15  C   UNL     1      -7.139  19.751  65.669  1.00  0.00    -0.309 A  
HETATM   16  N   UNL     1      -6.780  19.705  64.407  1.00  0.00    -0.213 NA 
HETATM   17  C   UNL     1      -6.302  21.033  67.700  1.00  0.00    -0.351 C  
HETATM   18  N   UNL     1      -5.698  20.548  64.293  1.00  0.00    -0.219 NA 
HETATM   19  N   UNL     1      -6.311  20.615  66.326  1.00  0.00    -0.228 NA 
HETATM   20  N   UNL     1      -5.407  21.110  65.459  1.00  0.00    -0.205 NA 
ENDBRANCH  14  15
ENDBRANCH  13  14
ENDBRANCH   4  13
BRANCH   5  21
HETATM   21  N   UNL     1     -10.728  11.699  67.113  1.00  0.00    -0.235 N  
HETATM   22  O   UNL     1     -11.944  10.343  68.467  1.00  0.00    -0.268 OA 
HETATM   23  H   UNL     1      -9.979  11.742  66.422  1.00  0.00     0.000 HD 
HETATM   24  C   UNL     1     -11.030  10.461  67.645  1.00  0.00    -0.312 C  
BRANCH  24  25
HETATM   25  C   UNL     1     -10.172   9.250  67.123  1.00  0.00    -0.257 C  
HETATM   26  S   UNL     1      -8.553   9.035  67.965  1.00  0.00    -0.129 SA 
HETATM   27  C   UNL     1      -9.031   7.414  67.479  1.00  0.00    -0.126 C  
HETATM   28  C   UNL     1      -8.314   6.345  67.057  1.00  0.00    -0.112 C  
HETATM   29  S   UNL     1     -10.734   7.655  67.826  1.00  0.00    -0.090 SA 
HETATM   30  O   UNL     1      -8.225   4.082  66.260  1.00  0.00    -0.103 OA 
HETATM   31  C   UNL     1      -9.025   5.079  66.713  1.00  0.00    -0.113 C  
HETATM   32  O   UNL     1     -10.226   4.893  66.823  1.00  0.00    -0.220 OA 
BRANCH  28  33
HETATM   33  C   UNL     1      -6.837   6.440  66.884  1.00  0.00    -0.066 C  
HETATM   34  O   UNL     1      -6.108   6.520  67.873  1.00  0.00    -0.025 OA 
HETATM   35  N   UNL     1      -6.285   6.492  65.649  1.00  0.00    -0.033 N  
HETATM   36  H1  UNL     1      -5.275   6.557  65.530  1.00  0.00     0.000 HD 
HETATM   37  H2  UNL     1      -6.889   6.467  64.826  1.00  0.00     0.000 HD 
ENDBRANCH  28  33
ENDBRANCH  24  25
ENDBRANCH   5  21
BRANCH   5  38
HETATM   38  O   UNL     1     -12.572  12.757  68.308  1.00  0.00     0.271 OA 
HETATM   39  C   UNL     1     -12.465  13.235  69.649  1.00  0.00     0.036 C  
ENDBRANCH   5  38
TORSDOF 7
ENDMDL
MODEL      148
REMARK 921   NORMALIZED FREE ENERGY PREDICTED BY IDOCK:   -0.77 KCAL/MOL
REMARK 922        TOTAL FREE ENERGY PREDICTED BY IDOCK:   -2.54 KCAL/MOL
REMARK 923 INTER-LIGAND FREE ENERGY PREDICTED BY IDOCK:   -2.95 KCAL/MOL
REMARK 924 INTRA-LIGAND FREE ENERGY PREDICTED BY IDOCK:    0.41 KCAL/MOL
REMARK 927      BINDING AFFINITY PREDICTED BY RF-SCORE:    0.00 PKD
ROOT
HETATM    1  C   UNL     1      -9.286  14.462  65.683  1.00  0.00     0.354 C  
HETATM    2  S   UNL     1      -8.559  13.995  67.277  1.00  0.00    -0.210 SA 
HETATM    3  C   UNL     1      -7.766  12.513  66.605  1.00  0.00     0.320 C  
HETATM    4  C   UNL     1      -8.691  11.622  65.784  1.00  0.00     0.060 C  
HETATM    5  C   UNL     1     -10.565  15.418  65.734  1.00  0.00    -0.348 C  
HETATM    6  C   UNL     1      -9.811  12.069  65.138  1.00  0.00    -0.200 C  
HETATM    7  N   UNL     1     -10.167  13.390  65.246  1.00  0.00    -0.310 N  
HETATM    8  C   UNL     1     -10.664  11.089  64.340  1.00  0.00    -0.269 C  
HETATM    9  O   UNL     1     -10.391   9.903  64.224  1.00  0.00     0.325 OA 
HETATM   10  O   UNL     1     -11.729  11.569  63.681  1.00  0.00    -0.376 OA 
HETATM   11  O   UNL     1     -12.219  13.919  64.316  1.00  0.00    -0.506 OA 
HETATM   12  C   UNL     1     -11.219  14.183  64.947  1.00  0.00    -0.373 C  
ENDROOT
BRANCH   4  13
HETATM   13  C   UNL     1      -8.240  10.159  65.861  1.00  0.00    -0.138 C  
BRANCH  13  14
HETATM   14  S   UNL     1      -6.633   9.931  65.048  1.00  0.00    -0.116 SA 
BRANCH  14  15
HETATM   15  C   UNL     1      -7.001   8.589  64.022  1.00  0.00    -0.079 A  
HETATM   16  N   UNL     1      -7.367   8.657  62.763  1.00  0.00    -0.095 NA 
HETATM   17  C   UNL     1      -6.656   6.675  65.662  1.00  0.00    -0.050 C  
HETATM   18  N   UNL     1      -7.614   7.360  62.374  1.00  0.00    -0.100 NA 
HETATM   19  N   UNL     1      -7.003   7.278  64.406  1.00  0.00    -0.050 NA 
HETATM   20  N   UNL     1      -7.391   6.512  63.369  1.00  0.00    -0.061 NA 
ENDBRANCH  14  15
ENDBRANCH  13  14
ENDBRANCH   4  13
BRANCH   5  21
HETATM   21  N   UNL     1     -11.042  15.709  67.117  1.00  0.00    -0.270 N  
HETATM   22  O   UNL     1     -12.353  13.873  67.364  1.00  0.00    -0.316 OA 
HETATM   23  H   UNL     1     -10.694  16.557  67.563  1.00  0.00     0.000 HD 
HETATM   24  C   UNL     1     -11.917  14.925  67.843  1.00  0.00    -0.176 C  
BRANCH  24  25
HETATM   25  C   UNL     1     -12.283  15.439  69.283  1.00  0.00    -0.188 C  
HETATM   26  S   UNL     1     -12.219  14.155  70.597  1.00  0.00    -0.379 SA 
HETATM   27  C   UNL     1     -11.823  15.661  71.414  1.00  0.00    -0.421 C  
HETATM   28  C   UNL     1     -12.096  16.115  72.660  1.00  0.00    -0.652 C  
HETATM   29  S   UNL     1     -10.880  16.305  70.082  1.00  0.00    -0.242 SA 
HETATM   30  O   UNL     1     -11.971  17.849  74.317  1.00  0.00     0.122 OA 
HETATM   31  C   UNL     1     -11.610  17.466  73.068  1.00  0.00     1.142 C  
HETATM   32  O   UNL     1     -10.928  18.207  72.379  1.00  0.00     1.672 OA 
BRANCH  28  33
HETATM   33  C   UNL     1     -12.918  15.305  73.603  1.00  0.00    -0.439 C  
HETATM   34  O   UNL     1     -12.965  14.081  73.479  1.00  0.00    -0.398 OA 
HETATM   35  N   UNL     1     -13.660  15.902  74.566  1.00  0.00     0.582 N  
HETATM   36  H1  UNL     1     -14.222  15.348  75.211  1.00  0.00     0.000 HD 
HETATM   37  H2  UNL     1     -13.656  16.919  74.646  1.00  0.00     0.000 HD 
ENDBRANCH  28  33
ENDBRANCH  24  25
ENDBRANCH   5  21
BRANCH   5  38
HETATM   38  O   UNL     1     -10.450  16.630  64.937  1.00  0.00    -0.657 OA 
HETATM   39  C   UNL     1     -10.426  17.852  65.673  1.00  0.00    -0.104 C  
ENDBRANCH   5  38
TORSDOF 7
ENDMDL
MODEL      149
REMARK 921   NORMALIZED FREE ENERGY PREDICTED BY IDOCK:    0.31 KCAL/MOL
REMARK 922        TOTAL FREE ENERGY PREDICTED BY IDOCK:   -1.01 KCAL/MOL
REMARK 923 INTER-LIGAND FREE ENERGY PREDICTED BY IDOCK:   -1.02 KCAL/MOL
REMARK 924 INTRA-LIGAND FREE ENERGY PREDICTED BY IDOCK:    0.01 KCAL/MOL
REMARK 927      BINDING AFFINITY PREDICTED BY RF-SCORE:    0.00 PKD
ROOT
HETATM    1  C   UNL     1      -9.286  11.685  69.518  1.00  0.00     1.012 C  
HETATM    2  S   UNL     1      -7.861  12.057  68.461  1.00  0.00    -0.101 SA 
HETATM    3  C   UNL     1      -8.292  13.809  68.312  1.00  0.00    -0.161 C  
HETATM    4  C   UNL     1      -9.743  14.070  67.927  1.00  0.00    -0.229 C  
HETATM    5  C   UNL     1      -9.768  10.161  69.556  1.00  0.00    -0.229 C  
HETATM    6  C   UNL     1     -10.770  13.201  68.178  1.00  0.00    -0.242 C  
HETATM    7  N   UNL     1     -10.501  11.998  68.783  1.00  0.00    -0.211 N  
HETATM    8  C   UNL     1     -12.188  13.565  67.753  1.00  0.00    -0.157 C  
HETATM    9  O   UNL     1     -12.474  14.620  67.204  1.00  0.00    -0.093 OA 
HETATM   10  O   UNL     1     -13.178  12.713  68.056  1.00  0.00     2.366 OA 
HETATM   11  O   UNL     1     -12.299  10.546  68.893  1.00  0.00    -0.251 OA 
HETATM   12  C   UNL     1     -11.132  10.834  69.045  1.00  0.00    -0.253 C  
ENDROOT
BRANCH   4  13
HETATM   13  C   UNL     1      -9.868  15.384  67.150  1.00  0.00    -0.221 C  
BRANCH  13  14
HETATM   14  S   UNL     1      -9.093  15.250  65.514  1.00  0.00     0.787 SA 
BRANCH  14  15
HETATM   15  C   UNL     1     -10.283  14.304  64.692  1.00  0.00    -0.112 A  
HETATM   16  N   UNL     1     -10.127  13.077  64.253  1.00  0.00    -0.288 NA 
HETATM   17  C   UNL     1     -12.198  15.977  64.617  1.00  0.00     0.487 C  
HETATM   18  N   UNL     1     -11.302  12.753  63.615  1.00  0.00    -0.457 NA 
HETATM   19  N   UNL     1     -11.534  14.733  64.349  1.00  0.00    -0.301 NA 
HETATM   20  N   UNL     1     -12.168  13.756  63.671  1.00  0.00    -0.635 NA 
ENDBRANCH  14  15
ENDBRANCH  13  14
ENDBRANCH   4  13
BRANCH   5  21
HETATM   21  N   UNL     1      -9.022   9.272  68.618  1.00  0.00    -0.132 N  
HETATM   22  O   UNL     1     -10.345   9.592  66.802  1.00  0.00    -0.246 OA 
HETATM   23  H   UNL     1      -8.192   8.803  68.979  1.00  0.00     0.000 HD 
HETATM   24  C   UNL     1      -9.364   9.032  67.302  1.00  0.00    -0.139 C  
BRANCH  24  25
HETATM   25  C   UNL     1      -8.429   8.049  66.507  1.00  0.00    -0.136 C  
HETATM   26  S   UNL     1      -9.114   6.360  66.266  1.00  0.00    -0.128 SA 
HETATM   27  C   UNL     1      -8.082   6.635  64.869  1.00  0.00    -0.115 C  
HETATM   28  C   UNL     1      -7.293   5.804  64.147  1.00  0.00    -0.063 C  
HETATM   29  S   UNL     1      -8.516   8.327  64.698  1.00  0.00     0.021 SA 
HETATM   30  O   UNL     1      -5.731   5.449  62.359  1.00  0.00    -0.014 OA 
HETATM   31  C   UNL     1      -6.524   6.349  62.990  1.00  0.00    -0.033 C  
HETATM   32  O   UNL     1      -6.575   7.501  62.590  1.00  0.00    -0.068 OA 
BRANCH  28  33
HETATM   33  C   UNL     1      -7.146   4.372  64.529  1.00  0.00    -0.054 C  
HETATM   34  O   UNL     1      -8.122   3.623  64.488  1.00  0.00    -0.085 OA 
HETATM   35  N   UNL     1      -5.961   3.890  64.973  1.00  0.00    -0.022 N  
HETATM   36  H1  UNL     1      -5.860   2.910  65.235  1.00  0.00     0.000 HD 
HETATM   37  H2  UNL     1      -5.159   4.516  65.048  1.00  0.00     0.000 HD 
ENDBRANCH  28  33
ENDBRANCH  24  25
ENDBRANCH   5  21
BRANCH   5  38
HETATM   38  O   UNL     1      -9.858   9.586  70.888  1.00  0.00    -0.275 OA 
HETATM   39  C   UNL     1     -10.815   8.539  71.045  1.00  0.00    -0.241 C  
ENDBRANCH   5  38
TORSDOF 7
ENDMDL
MODEL      150
REMARK 921   NORMALIZED FREE ENERGY PREDICTED BY IDOCK:    0.43 KCAL/MOL
REMARK 922        TOTAL FREE ENERGY PREDICTED BY IDOCK:   -0.85 KCAL/MOL
REMARK 923 INTER-LIGAND FREE ENERGY PREDICTED BY IDOCK:   -0.71 KCAL/MOL
REMARK 924 INTRA-LIGAND FREE ENERGY PREDICTED BY IDOCK:   -0.13 KCAL/MOL
REMARK 927      BINDING AFFINITY PREDICTED BY RF-SCORE:    0.00 PKD
ROOT
HETATM    1  C   UNL     1      -7.707  15.120  67.984  1.00  0.00    -0.124 C  
HETATM    2  S   UNL     1      -8.076  14.375  66.373  1.00  0.00     1.197 SA 
HETATM    3  C   UNL     1      -8.951  15.841  65.774  1.00  0.00    -0.037 C  
HETATM    4  C   UNL     1     -10.003  16.384  66.735  1.00  0.00    -0.277 C  
HETATM    5  C   UNL     1      -7.404  14.110  69.185  1.00  0.00    -0.067 C  
HETATM    6  C   UNL     1      -9.972  16.194  68.090  1.00  0.00    -0.230 C  
HETATM    7  N   UNL     1      -8.963  15.445  68.642  1.00  0.00    -0.181 N  
HETATM    8  C   UNL     1     -11.076  16.785  68.960  1.00  0.00    -0.171 C  
HETATM    9  O   UNL     1     -11.999  17.451  68.512  1.00  0.00     1.106 OA 
HETATM   10  O   UNL     1     -10.991  16.621  70.288  1.00  0.00    -0.300 OA 
HETATM   11  O   UNL     1      -9.207  15.005  70.901  1.00  0.00     1.283 OA 
HETATM   12  C   UNL     1      -8.653  14.884  69.830  1.00  0.00     0.210 C  
ENDROOT
BRANCH   4  13
HETATM   13  C   UNL     1     -11.128  17.084  65.966  1.00  0.00     0.346 C  
BRANCH  13  14
HETATM   14  S   UNL     1     -10.604  18.727  65.400  1.00  0.00     0.614 SA 
BRANCH  14  15
HETATM   15  C   UNL     1      -9.624  19.210  66.739  1.00  0.00    -0.331 A  
HETATM   16  N   UNL     1     -10.060  19.609  67.912  1.00  0.00    -0.396 NA 
HETATM   17  C   UNL     1      -7.312  18.940  65.712  1.00  0.00    -0.182 C  
HETATM   18  N   UNL     1      -8.940  19.949  68.634  1.00  0.00    -0.182 NA 
HETATM   19  N   UNL     1      -8.260  19.285  66.734  1.00  0.00    -0.273 NA 
HETATM   20  N   UNL     1      -7.837  19.752  67.924  1.00  0.00    -0.289 NA 
ENDBRANCH  14  15
ENDBRANCH  13  14
ENDBRANCH   4  13
BRANCH   5  21
HETATM   21  N   UNL     1      -7.572  12.674  68.819  1.00  0.00    -0.270 N  
HETATM   22  O   UNL     1      -6.168  11.811  70.380  1.00  0.00    -0.221 OA 
HETATM   23  H   UNL     1      -8.211  12.458  68.054  1.00  0.00     0.000 HD 
HETATM   24  C   UNL     1      -6.934  11.613  69.431  1.00  0.00    -0.051 C  
BRANCH  24  25
HETATM   25  C   UNL     1      -7.264  10.182  68.868  1.00  0.00    -0.079 C  
HETATM   26  S   UNL     1      -8.922   9.536  69.332  1.00  0.00    -0.185 SA 
HETATM   27  C   UNL     1      -8.571   8.809  67.770  1.00  0.00    -0.129 C  
HETATM   28  C   UNL     1      -8.870   7.595  67.248  1.00  0.00    -0.122 C  
HETATM   29  S   UNL     1      -7.793  10.237  67.115  1.00  0.00    -0.110 SA 
HETATM   30  O   UNL     1      -8.735   6.014  65.446  1.00  0.00    -0.148 OA 
HETATM   31  C   UNL     1      -8.426   7.267  65.861  1.00  0.00    -0.144 C  
HETATM   32  O   UNL     1      -7.839   8.029  65.110  1.00  0.00    -0.101 OA 
BRANCH  28  33
HETATM   33  C   UNL     1      -9.587   6.572  68.060  1.00  0.00    -0.119 C  
HETATM   34  O   UNL     1      -8.946   5.723  68.681  1.00  0.00    -0.113 OA 
HETATM   35  N   UNL     1     -10.940   6.529  68.085  1.00  0.00    -0.423 N  
HETATM   36  H1  UNL     1     -11.431   5.829  68.641  1.00  0.00     0.000 HD 
HETATM   37  H2  UNL     1     -11.476   7.205  67.539  1.00  0.00     0.000 HD 
ENDBRANCH  28  33
ENDBRANCH  24  25
ENDBRANCH   5  21
BRANCH   5  38
HETATM   38  O   UNL     1      -6.145  14.346  69.875  1.00  0.00    -0.119 OA 
HETATM   39  C   UNL     1      -5.270  15.289  69.256  1.00  0.00    -0.095 C  
ENDBRANCH   5  38
TORSDOF 7
ENDMDL
MODEL      151
REMARK 921   NORMALIZED FREE ENERGY PREDICTED BY IDOCK:    0.46 KCAL/MOL
REMARK 922        TOTAL FREE ENERGY PREDICTED BY IDOCK:   -0.81 KCAL/MOL
REMARK 923 INTER-LIGAND FREE ENERGY PREDICTED BY IDOCK:   -1.18 KCAL/MOL
REMARK 924 INTRA-LIGAND FREE ENERGY PREDICTED BY IDOCK:    0.37 KCAL/MOL
REMARK 927      BINDING AFFINITY PREDICTED BY RF-SCORE:    0.00 PKD
ROOT
HETATM    1  C   UNL     1      -6.853  11.646  67.203  1.00  0.00    -0.143 C  
HETATM    2  S   UNL     1      -6.623  11.351  68.977  1.00  0.00    -0.095 SA 
HETATM    3  C   UNL     1      -5.493   9.962  68.709  1.00  0.00    -0.035 C  
HETATM    4  C   UNL     1      -6.000   8.920  67.719  1.00  0.00    -0.047 C  
HETATM    5  C   UNL     1      -8.182  12.423  66.775  1.00  0.00    -0.025 C  
HETATM    6  C   UNL     1      -6.900   9.184  66.722  1.00  0.00    -0.080 C  
HETATM    7  N   UNL     1      -7.420  10.449  66.604  1.00  0.00    -0.109 N  
HETATM    8  C   UNL     1      -7.336   8.065  65.783  1.00  0.00    -0.079 C  
HETATM    9  O   UNL     1      -6.907   6.923  65.855  1.00  0.00    -0.054 OA 
HETATM   10  O   UNL     1      -8.183   8.369  64.788  1.00  0.00    -0.154 OA 
HETATM   11  O   UNL     1      -9.116  10.656  65.043  1.00  0.00    -0.187 OA 
HETATM   12  C   UNL     1      -8.406  11.078  65.929  1.00  0.00    -0.119 C  
ENDROOT
BRANCH   4  13
HETATM   13  C   UNL     1      -5.433   7.536  68.052  1.00  0.00    -0.027 C  
BRANCH  13  14
HETATM   14  S   UNL     1      -6.614   6.569  69.035  1.00  0.00    -0.049 SA 
BRANCH  14  15
HETATM   15  C   UNL     1      -6.846   7.642  70.370  1.00  0.00    -0.047 A  
HETATM   16  N   UNL     1      -5.911   8.079  71.182  1.00  0.00    -0.034 NA 
HETATM   17  C   UNL     1      -9.363   7.984  70.225  1.00  0.00    -0.159 C  
HETATM   18  N   UNL     1      -6.559   8.848  72.121  1.00  0.00    -0.251 NA 
HETATM   19  N   UNL     1      -8.049   8.140  70.783  1.00  0.00    -0.098 NA 
HETATM   20  N   UNL     1      -7.863   8.894  71.884  1.00  0.00    -0.346 NA 
ENDBRANCH  14  15
ENDBRANCH  13  14
ENDBRANCH   4  13
BRANCH   5  21
HETATM   21  N   UNL     1      -9.105  12.706  67.913  1.00  0.00    -0.192 N  
HETATM   22  O   UNL     1      -8.133  14.638  68.600  1.00  0.00    -0.138 OA 
HETATM   23  H   UNL     1      -9.864  12.044  68.075  1.00  0.00     0.000 HD 
HETATM   24  C   UNL     1      -9.016  13.790  68.764  1.00  0.00     0.042 C  
BRANCH  24  25
HETATM   25  C   UNL     1     -10.101  13.876  69.899  1.00  0.00     1.060 C  
HETATM   26  S   UNL     1     -11.552  14.930  69.498  1.00  0.00    -0.323 SA 
HETATM   27  C   UNL     1     -12.173  13.698  70.588  1.00  0.00    -0.360 C  
HETATM   28  C   UNL     1     -13.126  13.735  71.550  1.00  0.00    -0.435 C  
HETATM   29  S   UNL     1     -11.193  12.405  69.920  1.00  0.00     0.298 SA 
HETATM   30  O   UNL     1     -14.370  12.644  73.290  1.00  0.00     1.221 OA 
HETATM   31  C   UNL     1     -13.435  12.494  72.321  1.00  0.00    -0.386 C  
HETATM   32  O   UNL     1     -12.927  11.401  72.130  1.00  0.00    -0.395 OA 
BRANCH  28  33
HETATM   33  C   UNL     1     -13.825  15.008  71.881  1.00  0.00    -0.474 C  
HETATM   34  O   UNL     1     -14.283  15.708  70.977  1.00  0.00    -0.465 OA 
HETATM   35  N   UNL     1     -13.919  15.437  73.162  1.00  0.00    -0.409 N  
HETATM   36  H1  UNL     1     -14.398  16.308  73.387  1.00  0.00     0.000 HD 
HETATM   37  H2  UNL     1     -13.506  14.880  73.910  1.00  0.00     0.000 HD 
ENDBRANCH  28  33
ENDBRANCH  24  25
ENDBRANCH   5  21
BRANCH   5  38
HETATM   38  O   UNL     1      -7.959  13.604  65.956  1.00  0.00     1.525 OA 
HETATM   39  C   UNL     1      -9.103  14.429  65.738  1.00  0.00     0.391 C  
ENDBRANCH   5  38
TORSDOF 7
ENDMDL
MODEL      152
REMARK 921   NORMALIZED FREE ENERGY PREDICTED BY IDOCK:    0.54 KCAL/MOL
REMARK 922        TOTAL FREE ENERGY PREDICTED BY IDOCK:   -0.69 KCAL/MOL
REMARK 923 INTER-LIGAND FREE ENERGY PREDICTED BY IDOCK:   -0.77 KCAL/MOL
REMARK 924 INTRA-LIGAND FREE ENERGY PREDICTED BY IDOCK:    0.08 KCAL/MOL
REMARK 927      BINDING AFFINITY PREDICTED BY RF-SCORE:    0.00 PKD
ROOT
HETATM    1  C   UNL     1     -12.304  13.664  65.953  1.00  0.00    -0.471 C  
HETATM    2  S   UNL     1     -12.364  12.803  67.548  1.00  0.00     0.635 SA 
HETATM    3  C   UNL     1     -12.322  14.341  68.502  1.00  0.00     0.001 C  
HETATM    4  C   UNL     1     -11.223  15.311  68.086  1.00  0.00    -0.328 C  
HETATM    5  C   UNL     1     -11.769  12.820  64.706  1.00  0.00    -0.352 C  
HETATM    6  C   UNL     1     -10.664  15.344  66.838  1.00  0.00    -0.314 C  
HETATM    7  N   UNL     1     -11.074  14.438  65.892  1.00  0.00    -0.313 N  
HETATM    8  C   UNL     1      -9.571  16.361  66.527  1.00  0.00    -0.270 C  
HETATM    9  O   UNL     1      -9.167  17.181  67.340  1.00  0.00    -0.229 OA 
HETATM   10  O   UNL     1      -9.077  16.399  65.281  1.00  0.00    -0.082 OA 
HETATM   11  O   UNL     1      -9.846  14.462  63.930  1.00  0.00     1.437 OA 
HETATM   12  C   UNL     1     -10.698  14.014  64.667  1.00  0.00    -0.399 C  
ENDROOT
BRANCH   4  13
HETATM   13  C   UNL     1     -10.780  16.169  69.276  1.00  0.00    -0.295 C  
BRANCH  13  14
HETATM   14  S   UNL     1      -9.751  15.209  70.423  1.00  0.00     0.805 SA 
BRANCH  14  15
HETATM   15  C   UNL     1      -8.727  14.390  69.297  1.00  0.00     0.194 A  
HETATM   16  N   UNL     1      -9.078  13.394  68.516  1.00  0.00    -0.131 NA 
HETATM   17  C   UNL     1      -6.549  15.642  69.694  1.00  0.00    -0.181 C  
HETATM   18  N   UNL     1      -7.936  13.021  67.846  1.00  0.00    -0.142 NA 
HETATM   19  N   UNL     1      -7.399  14.644  69.107  1.00  0.00    -0.138 NA 
HETATM   20  N   UNL     1      -6.907  13.781  68.198  1.00  0.00    -0.105 NA 
ENDBRANCH  14  15
ENDBRANCH  13  14
ENDBRANCH   4  13
BRANCH   5  21
HETATM   21  N   UNL     1     -11.294  11.453  65.065  1.00  0.00    -0.098 N  
HETATM   22  O   UNL     1     -10.065  11.073  63.196  1.00  0.00    -0.332 OA 
HETATM   23  H   UNL     1     -11.594  11.074  65.963  1.00  0.00     0.000 HD 
HETATM   24  C   UNL     1     -10.480  10.657  64.282  1.00  0.00    -0.151 C  
BRANCH  24  25
HETATM   25  C   UNL     1     -10.113   9.245  64.868  1.00  0.00     1.011 C  
HETATM   26  S   UNL     1      -8.328   9.004  65.232  1.00  0.00    -0.159 SA 
HETATM   27  C   UNL     1      -9.171   7.989  66.396  1.00  0.00    -0.194 C  
HETATM   28  C   UNL     1      -8.864   6.788  66.941  1.00  0.00    -0.120 C  
HETATM   29  S   UNL     1     -10.480   9.126  66.659  1.00  0.00    -0.097 SA 
HETATM   30  O   UNL     1      -9.429   4.949  68.378  1.00  0.00    -0.125 OA 
HETATM   31  C   UNL     1      -9.803   6.170  67.924  1.00  0.00    -0.123 C  
HETATM   32  O   UNL     1     -10.832   6.682  68.332  1.00  0.00    -0.239 OA 
BRANCH  28  33
HETATM   33  C   UNL     1      -7.632   6.057  66.529  1.00  0.00    -0.094 C  
HETATM   34  O   UNL     1      -7.715   4.900  66.117  1.00  0.00    -0.090 OA 
HETATM   35  N   UNL     1      -6.412   6.630  66.652  1.00  0.00    -0.042 N  
HETATM   36  H1  UNL     1      -5.569   6.130  66.370  1.00  0.00     0.000 HD 
HETATM   37  H2  UNL     1      -6.335   7.574  67.031  1.00  0.00     0.000 HD 
ENDBRANCH  28  33
ENDBRANCH  24  25
ENDBRANCH   5  21
BRANCH   5  38
HETATM   38  O   UNL     1     -12.666  12.795  63.560  1.00  0.00    -0.713 OA 
HETATM   39  C   UNL     1     -13.722  11.838  63.624  1.00  0.00     1.469 C  
ENDBRANCH   5  38
TORSDOF 7
ENDMDL
MODEL      153
REMARK 921   NORMALIZED FREE ENERGY PREDICTED BY IDOCK:    0.85 KCAL/MOL
REMARK 922        TOTAL FREE ENERGY PREDICTED BY IDOCK:   -0.26 KCAL/MOL
REMARK 923 INTER-LIGAND FREE ENERGY PREDICTED BY IDOCK:   -3.16 KCAL/MOL
REMARK 924 INTRA-LIGAND FREE ENERGY PREDICTED BY IDOCK:    2.90 KCAL/MOL
REMARK 927      BINDING AFFINITY PREDICTED BY RF-SCORE:    0.00 PKD
ROOT
HETATM    1  C   UNL     1      -9.475  11.068  69.687  1.00  0.00     0.485 C  
HETATM    2  S   UNL     1      -7.823  10.407  70.035  1.00  0.00     0.234 SA 
HETATM    3  C   UNL     1      -7.040  11.382  68.726  1.00  0.00    -0.102 C  
HETATM    4  C   UNL     1      -7.737  11.295  67.373  1.00  0.00    -0.128 C  
HETATM    5  C   UNL     1     -10.714  10.183  70.170  1.00  0.00    -0.300 C  
HETATM    6  C   UNL     1      -9.063  11.001  67.213  1.00  0.00    -0.138 C  
HETATM    7  N   UNL     1      -9.830  10.729  68.319  1.00  0.00    -0.161 N  
HETATM    8  C   UNL     1      -9.660  10.945  65.811  1.00  0.00    -0.216 C  
HETATM    9  O   UNL     1      -9.015  11.170  64.798  1.00  0.00    -0.141 OA 
HETATM   10  O   UNL     1     -10.974  10.700  65.692  1.00  0.00    -0.011 OA 
HETATM   11  O   UNL     1     -11.976   9.996  67.853  1.00  0.00     0.415 OA 
HETATM   12  C   UNL     1     -11.059  10.246  68.604  1.00  0.00    -0.239 C  
ENDROOT
BRANCH   4  13
HETATM   13  C   UNL     1      -6.733  11.494  66.233  1.00  0.00     0.145 C  
BRANCH  13  14
HETATM   14  S   UNL     1      -6.094   9.901  65.643  1.00  0.00    -0.082 SA 
BRANCH  14  15
HETATM   15  C   UNL     1      -6.734   8.850  66.857  1.00  0.00    -0.069 A  
HETATM   16  N   UNL     1      -6.278   8.715  68.080  1.00  0.00    -0.051 NA 
HETATM   17  C   UNL     1      -8.624   7.764  65.546  1.00  0.00    -0.105 C  
HETATM   18  N   UNL     1      -7.047   7.734  68.663  1.00  0.00    -0.074 NA 
HETATM   19  N   UNL     1      -7.776   7.984  66.683  1.00  0.00    -0.093 NA 
HETATM   20  N   UNL     1      -7.966   7.285  67.818  1.00  0.00    -0.113 NA 
ENDBRANCH  14  15
ENDBRANCH  13  14
ENDBRANCH   4  13
BRANCH   5  21
HETATM   21  N   UNL     1     -10.321   8.868  70.756  1.00  0.00    -0.210 N  
HETATM   22  O   UNL     1     -12.385   7.925  70.763  1.00  0.00    -0.147 OA 
HETATM   23  H   UNL     1      -9.335   8.729  70.974  1.00  0.00     0.000 HD 
HETATM   24  C   UNL     1     -11.184   7.824  71.029  1.00  0.00    -0.266 C  
BRANCH  24  25
HETATM   25  C   UNL     1     -10.539   6.533  71.654  1.00  0.00    -0.217 C  
HETATM   26  S   UNL     1      -9.633   5.470  70.460  1.00  0.00    -0.181 SA 
HETATM   27  C   UNL     1      -8.817   5.224  71.998  1.00  0.00    -0.130 C  
HETATM   28  C   UNL     1      -8.226   4.136  72.547  1.00  0.00    -0.099 C  
HETATM   29  S   UNL     1      -8.959   6.896  72.508  1.00  0.00    -0.128 SA 
HETATM   30  O   UNL     1      -7.078   3.093  74.381  1.00  0.00    -0.043 OA 
HETATM   31  C   UNL     1      -7.603   4.247  73.899  1.00  0.00    -0.081 C  
HETATM   32  O   UNL     1      -7.532   5.270  74.560  1.00  0.00    -0.085 OA 
BRANCH  28  33
HETATM   33  C   UNL     1      -8.240   2.824  71.841  1.00  0.00    -0.058 C  
HETATM   34  O   UNL     1      -8.656   1.820  72.420  1.00  0.00    -0.056 OA 
HETATM   35  N   UNL     1      -7.753   2.707  70.583  1.00  0.00    -0.042 N  
HETATM   36  H1  UNL     1      -7.763   1.810  70.100  1.00  0.00     0.000 HD 
HETATM   37  H2  UNL     1      -7.370   3.528  70.113  1.00  0.00     0.000 HD 
ENDBRANCH  28  33
ENDBRANCH  24  25
ENDBRANCH   5  21
BRANCH   5  38
HETATM   38  O   UNL     1     -11.671  10.884  71.013  1.00  0.00    -0.273 OA 
HETATM   39  C   UNL     1     -13.010  10.392  70.967  1.00  0.00    -0.399 C  
ENDBRANCH   5  38
TORSDOF 7
ENDMDL
MODEL      154
REMARK 921   NORMALIZED FREE ENERGY PREDICTED BY IDOCK:    1.08 KCAL/MOL
REMARK 922        TOTAL FREE ENERGY PREDICTED BY IDOCK:    0.07 KCAL/MOL
REMARK 923 INTER-LIGAND FREE ENERGY PREDICTED BY IDOCK:   -2.09 KCAL/MOL
REMARK 924 INTRA-LIGAND FREE ENERGY PREDICTED BY IDOCK:    2.16 KCAL/MOL
REMARK 927      BINDING AFFINITY PREDICTED BY RF-SCORE:    0.00 PKD
ROOT
HETATM    1  C   UNL     1      -9.520  10.758  69.656  1.00  0.00     0.212 C  
HETATM    2  S   UNL     1      -7.976   9.809  69.593  1.00  0.00    -0.167 SA 
HETATM    3  C   UNL     1      -7.326  10.754  68.193  1.00  0.00    -0.088 C  
HETATM    4  C   UNL     1      -8.296  10.901  67.027  1.00  0.00    -0.132 C  
HETATM    5  C   UNL     1     -10.767  10.046  70.357  1.00  0.00    -0.307 C  
HETATM    6  C   UNL     1      -9.657  10.841  67.152  1.00  0.00    -0.161 C  
HETATM    7  N   UNL     1     -10.210  10.602  68.385  1.00  0.00    -0.166 N  
HETATM    8  C   UNL     1     -10.536  11.005  65.917  1.00  0.00    -0.206 C  
HETATM    9  O   UNL     1     -10.089  11.211  64.797  1.00  0.00    -0.253 OA 
HETATM   10  O   UNL     1     -11.868  10.988  66.081  1.00  0.00     0.197 OA 
HETATM   11  O   UNL     1     -12.501  10.270  68.372  1.00  0.00     0.619 OA 
HETATM   12  C   UNL     1     -11.416  10.301  68.913  1.00  0.00    -0.127 C  
ENDROOT
BRANCH   4  13
HETATM   13  C   UNL     1      -7.535  11.034  65.704  1.00  0.00     0.132 C  
BRANCH  13  14
HETATM   14  S   UNL     1      -7.784   9.569  64.661  1.00  0.00    -0.127 SA 
BRANCH  14  15
HETATM   15  C   UNL     1      -7.344   8.325  65.777  1.00  0.00    -0.072 A  
HETATM   16  N   UNL     1      -7.999   7.999  66.868  1.00  0.00    -0.103 NA 
HETATM   17  C   UNL     1      -5.203   7.491  64.686  1.00  0.00    -0.029 C  
HETATM   18  N   UNL     1      -7.256   7.010  67.471  1.00  0.00    -0.088 NA 
HETATM   19  N   UNL     1      -6.225   7.546  65.692  1.00  0.00    -0.038 NA 
HETATM   20  N   UNL     1      -6.174   6.725  66.759  1.00  0.00    -0.039 NA 
ENDBRANCH  14  15
ENDBRANCH  13  14
ENDBRANCH   4  13
BRANCH   5  21
HETATM   21  N   UNL     1     -10.499   8.639  70.775  1.00  0.00    -0.197 N  
HETATM   22  O   UNL     1     -12.277   7.685  69.735  1.00  0.00     0.656 OA 
HETATM   23  H   UNL     1      -9.673   8.470  71.348  1.00  0.00     0.000 HD 
HETATM   24  C   UNL     1     -11.278   7.546  70.449  1.00  0.00    -0.253 C  
BRANCH  24  25
HETATM   25  C   UNL     1     -10.800   6.157  71.010  1.00  0.00    -0.279 C  
HETATM   26  S   UNL     1      -9.284   6.227  72.048  1.00  0.00    -0.144 SA 
HETATM   27  C   UNL     1     -10.202   4.864  72.675  1.00  0.00    -0.188 C  
HETATM   28  C   UNL     1      -9.817   3.673  73.192  1.00  0.00    -0.183 C  
HETATM   29  S   UNL     1     -11.764   5.638  72.478  1.00  0.00    -0.093 SA 
HETATM   30  O   UNL     1     -10.374   1.526  74.111  1.00  0.00    -0.086 OA 
HETATM   31  C   UNL     1     -10.858   2.706  73.650  1.00  0.00    -0.195 C  
HETATM   32  O   UNL     1     -12.060   2.910  73.646  1.00  0.00     0.109 OA 
BRANCH  28  33
HETATM   33  C   UNL     1      -8.376   3.301  73.257  1.00  0.00    -0.074 C  
HETATM   34  O   UNL     1      -7.516   4.182  73.278  1.00  0.00    -0.072 OA 
HETATM   35  N   UNL     1      -7.993   2.003  73.241  1.00  0.00    -0.045 N  
HETATM   36  H1  UNL     1      -7.006   1.748  73.286  1.00  0.00     0.000 HD 
HETATM   37  H2  UNL     1      -8.700   1.270  73.183  1.00  0.00     0.000 HD 
ENDBRANCH  28  33
ENDBRANCH  24  25
ENDBRANCH   5  21
BRANCH   5  38
HETATM   38  O   UNL     1     -11.385  10.816  71.425  1.00  0.00     0.291 OA 
HETATM   39  C   UNL     1     -12.702  11.296  71.158  1.00  0.00    -0.390 C  
ENDBRANCH   5  38
TORSDOF 7
ENDMDL
MODEL      155
REMARK 921   NORMALIZED FREE ENERGY PREDICTED BY IDOCK:    1.22 KCAL/MOL
REMARK 922        TOTAL FREE ENERGY PREDICTED BY IDOCK:    0.26 KCAL/MOL
REMARK 923 INTER-LIGAND FREE ENERGY PREDICTED BY IDOCK:   -0.31 KCAL/MOL
REMARK 924 INTRA-LIGAND FREE ENERGY PREDICTED BY IDOCK:    0.58 KCAL/MOL
REMARK 927      BINDING AFFINITY PREDICTED BY RF-SCORE:    0.00 PKD
ROOT
HETATM    1  C   UNL     1      -9.366  14.318  65.456  1.00  0.00     0.314 C  
HETATM    2  S   UNL     1      -8.684  13.836  67.065  1.00  0.00    -0.158 SA 
HETATM    3  C   UNL     1      -7.928  12.326  66.415  1.00  0.00     0.345 C  
HETATM    4  C   UNL     1      -8.866  11.460  65.581  1.00  0.00    -0.080 C  
HETATM    5  C   UNL     1     -10.614  15.316  65.479  1.00  0.00    -0.373 C  
HETATM    6  C   UNL     1      -9.959  11.941  64.912  1.00  0.00    -0.241 C  
HETATM    7  N   UNL     1     -10.274  13.274  65.007  1.00  0.00    -0.316 N  
HETATM    8  C   UNL     1     -10.829  10.985  64.103  1.00  0.00    -0.180 C  
HETATM    9  O   UNL     1     -10.593   9.790  63.997  1.00  0.00     1.442 OA 
HETATM   10  O   UNL     1     -11.865  11.496  63.422  1.00  0.00    -0.346 OA 
HETATM   11  O   UNL     1     -12.290  13.864  64.037  1.00  0.00    -0.637 OA 
HETATM   12  C   UNL     1     -11.294  14.098  64.685  1.00  0.00    -0.371 C  
ENDROOT
BRANCH   4  13
HETATM   13  C   UNL     1      -8.465   9.985  65.673  1.00  0.00    -0.148 C  
BRANCH  13  14
HETATM   14  S   UNL     1      -9.728   9.020  66.551  1.00  0.00    -0.265 SA 
BRANCH  14  15
HETATM   15  C   UNL     1      -9.248   9.312  68.186  1.00  0.00    -0.130 A  
HETATM   16  N   UNL     1      -8.105   8.964  68.729  1.00  0.00    -0.112 NA 
HETATM   17  C   UNL     1     -11.334  10.481  69.054  1.00  0.00    -0.257 C  
HETATM   18  N   UNL     1      -8.187   9.338  70.051  1.00  0.00    -0.135 NA 
HETATM   19  N   UNL     1     -10.022   9.906  69.143  1.00  0.00    -0.187 NA 
HETATM   20  N   UNL     1      -9.352   9.917  70.311  1.00  0.00    -0.174 NA 
ENDBRANCH  14  15
ENDBRANCH  13  14
ENDBRANCH   4  13
BRANCH   5  21
HETATM   21  N   UNL     1     -11.107  15.629  66.852  1.00  0.00    -0.242 N  
HETATM   22  O   UNL     1     -12.885  14.219  66.850  1.00  0.00     0.125 OA 
HETATM   23  H   UNL     1     -10.579  16.312  67.394  1.00  0.00     0.000 HD 
HETATM   24  C   UNL     1     -12.220  15.071  67.449  1.00  0.00     0.286 C  
BRANCH  24  25
HETATM   25  C   UNL     1     -12.550  15.562  68.905  1.00  0.00     0.478 C  
HETATM   26  S   UNL     1     -12.847  14.217  70.122  1.00  0.00     0.100 SA 
HETATM   27  C   UNL     1     -12.181  15.544  71.065  1.00  0.00    -0.396 C  
HETATM   28  C   UNL     1     -12.422  15.969  72.328  1.00  0.00    -0.536 C  
HETATM   29  S   UNL     1     -11.043  16.044  69.828  1.00  0.00    -0.355 SA 
HETATM   30  O   UNL     1     -12.021  17.525  74.113  1.00  0.00    -0.097 OA 
HETATM   31  C   UNL     1     -11.678  17.151  72.856  1.00  0.00     0.665 C  
HETATM   32  O   UNL     1     -10.811  17.763  72.254  1.00  0.00     1.820 OA 
BRANCH  28  33
HETATM   33  C   UNL     1     -13.456  15.305  73.171  1.00  0.00    -0.414 C  
HETATM   34  O   UNL     1     -13.582  14.080  73.135  1.00  0.00    -0.551 OA 
HETATM   35  N   UNL     1     -14.299  16.034  73.939  1.00  0.00     1.238 N  
HETATM   36  H1  UNL     1     -15.006  15.580  74.516  1.00  0.00     0.000 HD 
HETATM   37  H2  UNL     1     -14.225  17.052  73.941  1.00  0.00     0.000 HD 
ENDBRANCH  28  33
ENDBRANCH  24  25
ENDBRANCH   5  21
BRANCH   5  38
HETATM   38  O   UNL     1     -10.445  16.519  64.679  1.00  0.00    -0.501 OA 
HETATM   39  C   UNL     1     -10.563  17.752  65.387  1.00  0.00     0.078 C  
ENDBRANCH   5  38
TORSDOF 7
ENDMDL
MODEL      156
REMARK 921   NORMALIZED FREE ENERGY PREDICTED BY IDOCK:    1.38 KCAL/MOL
REMARK 922        TOTAL FREE ENERGY PREDICTED BY IDOCK:    0.50 KCAL/MOL
REMARK 923 INTER-LIGAND FREE ENERGY PREDICTED BY IDOCK:   -0.91 KCAL/MOL
REMARK 924 INTRA-LIGAND FREE ENERGY PREDICTED BY IDOCK:    1.41 KCAL/MOL
REMARK 927      BINDING AFFINITY PREDICTED BY RF-SCORE:    0.00 PKD
ROOT
HETATM    1  C   UNL     1      -8.786   3.981  65.118  1.00  0.00    -0.127 C  
HETATM    2  S   UNL     1     -10.269   5.002  65.332  1.00  0.00     0.189 SA 
HETATM    3  C   UNL     1     -10.134   5.736  63.683  1.00  0.00     2.952 C  
HETATM    4  C   UNL     1      -8.751   6.283  63.349  1.00  0.00     0.498 C  
HETATM    5  C   UNL     1      -8.060   3.488  66.453  1.00  0.00    -0.096 C  
HETATM    6  C   UNL     1      -7.592   5.836  63.922  1.00  0.00    -0.083 C  
HETATM    7  N   UNL     1      -7.650   4.859  64.885  1.00  0.00    -0.076 N  
HETATM    8  C   UNL     1      -6.259   6.452  63.510  1.00  0.00    -0.026 C  
HETATM    9  O   UNL     1      -6.159   7.330  62.664  1.00  0.00    -0.048 OA 
HETATM   10  O   UNL     1      -5.138   5.959  64.057  1.00  0.00    -0.015 OA 
HETATM   11  O   UNL     1      -5.636   4.410  65.933  1.00  0.00    -0.016 OA 
HETATM   12  C   UNL     1      -6.833   4.280  65.790  1.00  0.00    -0.057 C  
ENDROOT
BRANCH   4  13
HETATM   13  C   UNL     1      -8.855   7.449  62.360  1.00  0.00     0.448 C  
BRANCH  13  14
HETATM   14  S   UNL     1      -7.917   8.887  62.949  1.00  0.00    -0.168 SA 
BRANCH  14  15
HETATM   15  C   UNL     1      -8.927   9.392  64.257  1.00  0.00    -0.160 A  
HETATM   16  N   UNL     1      -8.948   8.871  65.462  1.00  0.00    -0.200 NA 
HETATM   17  C   UNL     1     -10.229  11.254  63.113  1.00  0.00    -0.319 C  
HETATM   18  N   UNL     1      -9.940   9.539  66.143  1.00  0.00    -0.275 NA 
HETATM   19  N   UNL     1      -9.875  10.373  64.191  1.00  0.00    -0.328 NA 
HETATM   20  N   UNL     1     -10.509  10.459  65.376  1.00  0.00    -0.191 NA 
ENDBRANCH  14  15
ENDBRANCH  13  14
ENDBRANCH   4  13
BRANCH   5  21
HETATM   21  N   UNL     1      -8.664   4.036  67.703  1.00  0.00    -0.101 N  
HETATM   22  O   UNL     1      -8.623   2.114  68.910  1.00  0.00    -0.060 OA 
HETATM   23  H   UNL     1      -8.908   5.026  67.710  1.00  0.00     0.000 HD 
HETATM   24  C   UNL     1      -8.920   3.312  68.851  1.00  0.00    -0.130 C  
BRANCH  24  25
HETATM   25  C   UNL     1      -9.570   4.104  70.044  1.00  0.00    -0.203 C  
HETATM   26  S   UNL     1      -8.373   4.991  71.120  1.00  0.00    -0.117 SA 
HETATM   27  C   UNL     1      -9.847   5.946  71.196  1.00  0.00    -0.181 C  
HETATM   28  C   UNL     1     -10.413   6.663  72.197  1.00  0.00    -0.228 C  
HETATM   29  S   UNL     1     -10.258   5.715  69.507  1.00  0.00    -0.277 SA 
HETATM   30  O   UNL     1     -12.204   8.035  73.020  1.00  0.00    -0.155 OA 
HETATM   31  C   UNL     1     -11.696   7.383  71.945  1.00  0.00    -0.288 C  
HETATM   32  O   UNL     1     -12.281   7.427  70.875  1.00  0.00    -0.298 OA 
BRANCH  28  33
HETATM   33  C   UNL     1      -9.797   6.694  73.553  1.00  0.00    -0.207 C  
HETATM   34  O   UNL     1      -9.717   5.658  74.214  1.00  0.00    -0.156 OA 
HETATM   35  N   UNL     1      -9.369   7.859  74.095  1.00  0.00    -0.295 N  
HETATM   36  H1  UNL     1      -8.947   7.881  75.023  1.00  0.00     0.000 HD 
HETATM   37  H2  UNL     1      -9.471   8.727  73.567  1.00  0.00     0.000 HD 
ENDBRANCH  28  33
ENDBRANCH  24  25
ENDBRANCH   5  21
BRANCH   5  38
HETATM   38  O   UNL     1      -7.857   2.050  66.538  1.00  0.00    -0.072 OA 
HETATM   39  C   UNL     1      -7.067   1.476  65.497  1.00  0.00    -0.047 C  
ENDBRANCH   5  38
TORSDOF 7
ENDMDL
MODEL      157
REMARK 921   NORMALIZED FREE ENERGY PREDICTED BY IDOCK:    1.42 KCAL/MOL
REMARK 922        TOTAL FREE ENERGY PREDICTED BY IDOCK:    0.55 KCAL/MOL
REMARK 923 INTER-LIGAND FREE ENERGY PREDICTED BY IDOCK:   -2.32 KCAL/MOL
REMARK 924 INTRA-LIGAND FREE ENERGY PREDICTED BY IDOCK:    2.88 KCAL/MOL
REMARK 927      BINDING AFFINITY PREDICTED BY RF-SCORE:    0.00 PKD
ROOT
HETATM    1  C   UNL     1      -8.607  11.353  68.696  1.00  0.00    -0.126 C  
HETATM    2  S   UNL     1      -8.850  11.325  66.899  1.00  0.00    -0.170 SA 
HETATM    3  C   UNL     1      -9.800  12.865  66.895  1.00  0.00    -0.235 C  
HETATM    4  C   UNL     1     -10.929  12.913  67.917  1.00  0.00    -0.266 C  
HETATM    5  C   UNL     1      -8.287   9.952  69.395  1.00  0.00    -0.156 C  
HETATM    6  C   UNL     1     -10.945  12.182  69.074  1.00  0.00    -0.205 C  
HETATM    7  N   UNL     1      -9.911  11.319  69.339  1.00  0.00     0.096 N  
HETATM    8  C   UNL     1     -12.126  12.309  70.030  1.00  0.00    -0.273 C  
HETATM    9  O   UNL     1     -13.073  13.057  69.832  1.00  0.00     0.582 OA 
HETATM   10  O   UNL     1     -12.088  11.614  71.177  1.00  0.00    -0.232 OA 
HETATM   11  O   UNL     1     -10.224   9.973  71.196  1.00  0.00     0.067 OA 
HETATM   12  C   UNL     1      -9.615  10.331  70.211  1.00  0.00     0.294 C  
ENDROOT
BRANCH   4  13
HETATM   13  C   UNL     1     -12.065  13.815  67.427  1.00  0.00    -0.343 C  
BRANCH  13  14
HETATM   14  S   UNL     1     -11.416  15.226  66.486  1.00  0.00     0.002 SA 
BRANCH  14  15
HETATM   15  C   UNL     1     -10.307  15.875  67.642  1.00  0.00    -0.281 A  
HETATM   16  N   UNL     1      -9.341  15.216  68.240  1.00  0.00    -0.189 NA 
HETATM   17  C   UNL     1     -11.159  18.268  67.773  1.00  0.00     0.097 C  
HETATM   18  N   UNL     1      -8.763  16.108  69.115  1.00  0.00    -0.249 NA 
HETATM   19  N   UNL     1     -10.322  17.154  68.121  1.00  0.00    -0.331 NA 
HETATM   20  N   UNL     1      -9.354  17.294  69.046  1.00  0.00    -0.180 NA 
ENDBRANCH  14  15
ENDBRANCH  13  14
ENDBRANCH   4  13
BRANCH   5  21
HETATM   21  N   UNL     1      -8.337   8.789  68.462  1.00  0.00    -0.128 N  
HETATM   22  O   UNL     1      -6.585   9.395  67.152  1.00  0.00    -0.069 OA 
HETATM   23  H   UNL     1      -9.055   8.085  68.630  1.00  0.00     0.000 HD 
HETATM   24  C   UNL     1      -7.490   8.589  67.389  1.00  0.00    -0.093 C  
BRANCH  24  25
HETATM   25  C   UNL     1      -7.739   7.289  66.539  1.00  0.00    -0.093 C  
HETATM   26  S   UNL     1      -9.319   6.423  66.902  1.00  0.00    -0.138 SA 
HETATM   27  C   UNL     1      -8.989   6.077  65.210  1.00  0.00     0.082 C  
HETATM   28  C   UNL     1      -9.220   4.983  64.446  1.00  0.00     0.087 C  
HETATM   29  S   UNL     1      -8.352   7.673  64.856  1.00  0.00     0.019 SA 
HETATM   30  O   UNL     1      -9.051   3.840  62.341  1.00  0.00    -0.089 OA 
HETATM   31  C   UNL     1      -8.818   4.997  63.008  1.00  0.00    -0.050 C  
HETATM   32  O   UNL     1      -8.327   5.948  62.424  1.00  0.00    -0.107 OA 
BRANCH  28  33
HETATM   33  C   UNL     1      -9.819   3.754  65.039  1.00  0.00    -0.175 C  
HETATM   34  O   UNL     1     -10.058   3.709  66.246  1.00  0.00     0.010 OA 
HETATM   35  N   UNL     1     -10.056   2.660  64.276  1.00  0.00    -0.335 N  
HETATM   36  H1  UNL     1     -10.466   1.819  64.682  1.00  0.00     0.000 HD 
HETATM   37  H2  UNL     1      -9.821   2.678  63.283  1.00  0.00     0.000 HD 
ENDBRANCH  28  33
ENDBRANCH  24  25
ENDBRANCH   5  21
BRANCH   5  38
HETATM   38  O   UNL     1      -7.080   9.940  70.207  1.00  0.00    -0.124 OA 
HETATM   39  C   UNL     1      -7.280   9.751  71.607  1.00  0.00     0.977 C  
ENDBRANCH   5  38
TORSDOF 7
ENDMDL
MODEL      158
REMARK 921   NORMALIZED FREE ENERGY PREDICTED BY IDOCK:    1.63 KCAL/MOL
REMARK 922        TOTAL FREE ENERGY PREDICTED BY IDOCK:    0.85 KCAL/MOL
REMARK 923 INTER-LIGAND FREE ENERGY PREDICTED BY IDOCK:    1.31 KCAL/MOL
REMARK 924 INTRA-LIGAND FREE ENERGY PREDICTED BY IDOCK:   -0.46 KCAL/MOL
REMARK 927      BINDING AFFINITY PREDICTED BY RF-SCORE:    0.00 PKD
ROOT
HETATM    1  C   UNL     1      -7.350  15.495  68.039  1.00  0.00    -0.129 C  
HETATM    2  S   UNL     1      -7.889  15.166  66.339  1.00  0.00     1.061 SA 
HETATM    3  C   UNL     1      -8.828  16.709  66.223  1.00  0.00    -0.312 C  
HETATM    4  C   UNL     1      -9.771  16.962  67.394  1.00  0.00    -0.247 C  
HETATM    5  C   UNL     1      -6.916  14.226  68.908  1.00  0.00    -0.107 C  
HETATM    6  C   UNL     1      -9.593  16.440  68.646  1.00  0.00    -0.240 C  
HETATM    7  N   UNL     1      -8.528  15.607  68.884  1.00  0.00    -0.195 N  
HETATM    8  C   UNL     1     -10.598  16.762  69.747  1.00  0.00    -0.174 C  
HETATM    9  O   UNL     1     -11.566  17.491  69.580  1.00  0.00     1.514 OA 
HETATM   10  O   UNL     1     -10.369  16.273  70.975  1.00  0.00     0.732 OA 
HETATM   11  O   UNL     1      -8.526  14.609  70.972  1.00  0.00     2.225 OA 
HETATM   12  C   UNL     1      -8.090  14.776  69.853  1.00  0.00     0.333 C  
ENDROOT
BRANCH   4  13
HETATM   13  C   UNL     1     -10.974  17.798  66.948  1.00  0.00     0.118 C  
BRANCH  13  14
HETATM   14  S   UNL     1     -10.478  19.504  66.575  1.00  0.00    -0.507 SA 
BRANCH  14  15
HETATM   15  C   UNL     1      -9.192  19.700  67.712  1.00  0.00    -0.332 A  
HETATM   16  N   UNL     1      -9.323  19.828  69.012  1.00  0.00    -0.237 NA 
HETATM   17  C   UNL     1      -7.201  19.694  66.128  1.00  0.00    -0.278 C  
HETATM   18  N   UNL     1      -8.051  20.021  69.501  1.00  0.00     0.272 NA 
HETATM   19  N   UNL     1      -7.866  19.795  67.397  1.00  0.00    -0.266 NA 
HETATM   20  N   UNL     1      -7.155  19.999  68.523  1.00  0.00    -0.299 NA 
ENDBRANCH  14  15
ENDBRANCH  13  14
ENDBRANCH   4  13
BRANCH   5  21
HETATM   21  N   UNL     1      -7.119  12.922  68.212  1.00  0.00    -0.091 N  
HETATM   22  O   UNL     1      -5.134  12.868  67.114  1.00  0.00    -0.329 OA 
HETATM   23  H   UNL     1      -7.994  12.429  68.388  1.00  0.00     0.000 HD 
HETATM   24  C   UNL     1      -6.220  12.329  67.347  1.00  0.00    -0.153 C  
BRANCH  24  25
HETATM   25  C   UNL     1      -6.657  10.953  66.725  1.00  0.00    -0.116 C  
HETATM   26  S   UNL     1      -5.286   9.754  66.471  1.00  0.00    -0.045 SA 
HETATM   27  C   UNL     1      -6.709   8.763  66.761  1.00  0.00    -0.069 C  
HETATM   28  C   UNL     1      -7.094   7.562  66.266  1.00  0.00    -0.070 C  
HETATM   29  S   UNL     1      -7.386   9.831  67.977  1.00  0.00    -0.081 SA 
HETATM   30  O   UNL     1      -8.703   5.784  66.133  1.00  0.00    -0.129 OA 
HETATM   31  C   UNL     1      -8.385   6.965  66.719  1.00  0.00    -0.116 C  
HETATM   32  O   UNL     1      -9.130   7.449  67.556  1.00  0.00    -0.125 OA 
BRANCH  28  33
HETATM   33  C   UNL     1      -6.271   6.863  65.239  1.00  0.00    -0.036 C  
HETATM   34  O   UNL     1      -5.201   6.346  65.559  1.00  0.00    -0.013 OA 
HETATM   35  N   UNL     1      -6.659   6.832  63.942  1.00  0.00    -0.044 N  
HETATM   36  H1  UNL     1      -6.096   6.354  63.240  1.00  0.00     0.000 HD 
HETATM   37  H2  UNL     1      -7.526   7.294  63.665  1.00  0.00     0.000 HD 
ENDBRANCH  28  33
ENDBRANCH  24  25
ENDBRANCH   5  21
BRANCH   5  38
HETATM   38  O   UNL     1      -5.590  14.320  69.500  1.00  0.00    -0.090 OA 
HETATM   39  C   UNL     1      -5.231  15.604  70.008  1.00  0.00    -0.118 C  
ENDBRANCH   5  38
TORSDOF 7
ENDMDL
MODEL      159
REMARK 921   NORMALIZED FREE ENERGY PREDICTED BY IDOCK:    1.86 KCAL/MOL
REMARK 922        TOTAL FREE ENERGY PREDICTED BY IDOCK:    1.17 KCAL/MOL
REMARK 923 INTER-LIGAND FREE ENERGY PREDICTED BY IDOCK:   -0.66 KCAL/MOL
REMARK 924 INTRA-LIGAND FREE ENERGY PREDICTED BY IDOCK:    1.83 KCAL/MOL
REMARK 927      BINDING AFFINITY PREDICTED BY RF-SCORE:    0.00 PKD
ROOT
HETATM    1  C   UNL     1      -7.972  13.652  67.227  1.00  0.00    -0.114 C  
HETATM    2  S   UNL     1      -9.238  12.732  66.311  1.00  0.00    -0.011 SA 
HETATM    3  C   UNL     1     -10.440  14.083  66.400  1.00  0.00    -0.284 C  
HETATM    4  C   UNL     1     -10.634  14.661  67.797  1.00  0.00    -0.251 C  
HETATM    5  C   UNL     1      -6.842  12.784  67.950  1.00  0.00    -0.114 C  
HETATM    6  C   UNL     1      -9.690  14.609  68.786  1.00  0.00    -0.217 C  
HETATM    7  N   UNL     1      -8.497  13.974  68.544  1.00  0.00    -0.160 N  
HETATM    8  C   UNL     1      -9.989  15.225  70.148  1.00  0.00    -0.029 C  
HETATM    9  O   UNL     1     -11.039  15.793  70.412  1.00  0.00    -0.309 OA 
HETATM   10  O   UNL     1      -9.024  15.199  71.080  1.00  0.00     1.663 OA 
HETATM   11  O   UNL     1      -7.128  13.748  70.396  1.00  0.00     0.496 OA 
HETATM   12  C   UNL     1      -7.418  13.551  69.236  1.00  0.00     0.221 C  
ENDROOT
BRANCH   4  13
HETATM   13  C   UNL     1     -12.051  15.221  67.958  1.00  0.00     0.122 C  
BRANCH  13  14
HETATM   14  S   UNL     1     -12.032  17.036  68.014  1.00  0.00     1.687 SA 
BRANCH  14  15
HETATM   15  C   UNL     1     -10.501  17.344  67.274  1.00  0.00    -0.321 A  
HETATM   16  N   UNL     1      -9.412  17.743  67.889  1.00  0.00    -0.265 NA 
HETATM   17  C   UNL     1     -11.078  16.844  64.847  1.00  0.00     0.036 C  
HETATM   18  N   UNL     1      -8.467  17.919  66.904  1.00  0.00    -0.237 NA 
HETATM   19  N   UNL     1     -10.238  17.257  65.936  1.00  0.00    -0.539 NA 
HETATM   20  N   UNL     1      -8.961  17.622  65.710  1.00  0.00    -0.429 NA 
ENDBRANCH  14  15
ENDBRANCH  13  14
ENDBRANCH   4  13
BRANCH   5  21
HETATM   21  N   UNL     1      -7.058  11.312  67.847  1.00  0.00    -0.076 N  
HETATM   22  O   UNL     1      -7.577  10.943  70.025  1.00  0.00     0.038 OA 
HETATM   23  H   UNL     1      -6.943  10.885  66.928  1.00  0.00     0.000 HD 
HETATM   24  C   UNL     1      -7.399  10.479  68.894  1.00  0.00    -0.098 C  
BRANCH  24  25
HETATM   25  C   UNL     1      -7.567   8.955  68.546  1.00  0.00    -0.097 C  
HETATM   26  S   UNL     1      -7.665   7.839  70.004  1.00  0.00    -0.092 SA 
HETATM   27  C   UNL     1      -8.619   7.044  68.758  1.00  0.00    -0.125 C  
HETATM   28  C   UNL     1      -8.807   5.737  68.456  1.00  0.00    -0.110 C  
HETATM   29  S   UNL     1      -9.299   8.531  68.125  1.00  0.00    -0.137 SA 
HETATM   30  O   UNL     1      -9.786   4.042  67.066  1.00  0.00    -0.211 OA 
HETATM   31  C   UNL     1      -9.698   5.372  67.316  1.00  0.00    -0.144 C  
HETATM   32  O   UNL     1     -10.330   6.162  66.635  1.00  0.00    -0.201 OA 
BRANCH  28  33
HETATM   33  C   UNL     1      -8.094   4.670  69.214  1.00  0.00    -0.069 C  
HETATM   34  O   UNL     1      -6.944   4.863  69.609  1.00  0.00    -0.050 OA 
HETATM   35  N   UNL     1      -8.676   3.467  69.432  1.00  0.00    -0.073 N  
HETATM   36  H1  UNL     1      -8.188   2.737  69.951  1.00  0.00     0.000 HD 
HETATM   37  H2  UNL     1      -9.614   3.289  69.072  1.00  0.00     0.000 HD 
ENDBRANCH  28  33
ENDBRANCH  24  25
ENDBRANCH   5  21
BRANCH   5  38
HETATM   38  O   UNL     1      -5.478  13.155  67.605  1.00  0.00    -0.187 OA 
HETATM   39  C   UNL     1      -5.141  14.526  67.810  1.00  0.00     0.024 C  
ENDBRANCH   5  38
TORSDOF 7
ENDMDL
MODEL      160
REMARK 921   NORMALIZED FREE ENERGY PREDICTED BY IDOCK:    2.01 KCAL/MOL
REMARK 922        TOTAL FREE ENERGY PREDICTED BY IDOCK:    1.38 KCAL/MOL
REMARK 923 INTER-LIGAND FREE ENERGY PREDICTED BY IDOCK:   -2.76 KCAL/MOL
REMARK 924 INTRA-LIGAND FREE ENERGY PREDICTED BY IDOCK:    4.14 KCAL/MOL
REMARK 927      BINDING AFFINITY PREDICTED BY RF-SCORE:    0.00 PKD
ROOT
HETATM    1  C   UNL     1     -10.542  14.138  67.784  1.00  0.00    -0.243 C  
HETATM    2  S   UNL     1      -8.747  13.905  67.899  1.00  0.00    -0.196 SA 
HETATM    3  C   UNL     1      -8.407  15.683  67.889  1.00  0.00    -0.146 C  
HETATM    4  C   UNL     1      -9.108  16.452  66.776  1.00  0.00    -0.259 C  
HETATM    5  C   UNL     1     -11.386  12.909  67.208  1.00  0.00    -0.310 C  
HETATM    6  C   UNL     1     -10.266  16.043  66.175  1.00  0.00    -0.324 C  
HETATM    7  N   UNL     1     -10.837  14.853  66.553  1.00  0.00    -0.317 N  
HETATM    8  C   UNL     1     -10.886  16.894  65.071  1.00  0.00    -0.064 C  
HETATM    9  O   UNL     1     -10.409  17.955  64.695  1.00  0.00     0.837 OA 
HETATM   10  O   UNL     1     -12.046  16.488  64.535  1.00  0.00    -0.039 OA 
HETATM   11  O   UNL     1     -12.637  14.187  65.259  1.00  0.00    -0.488 OA 
HETATM   12  C   UNL     1     -11.816  14.022  66.136  1.00  0.00    -0.407 C  
ENDROOT
BRANCH   4  13
HETATM   13  C   UNL     1      -8.291  17.685  66.374  1.00  0.00    -0.253 C  
BRANCH  13  14
HETATM   14  S   UNL     1      -9.360  19.140  66.185  1.00  0.00    -0.141 SA 
BRANCH  14  15
HETATM   15  C   UNL     1      -9.510  19.622  67.838  1.00  0.00    -0.349 A  
HETATM   16  N   UNL     1      -8.959  20.679  68.388  1.00  0.00     0.408 NA 
HETATM   17  C   UNL     1     -10.973  17.734  68.715  1.00  0.00     0.376 C  
HETATM   18  N   UNL     1      -9.294  20.628  69.722  1.00  0.00     1.241 NA 
HETATM   19  N   UNL     1     -10.187  18.932  68.804  1.00  0.00    -0.339 NA 
HETATM   20  N   UNL     1     -10.045  19.567  69.984  1.00  0.00     0.297 NA 
ENDBRANCH  14  15
ENDBRANCH  13  14
ENDBRANCH   4  13
BRANCH   5  21
HETATM   21  N   UNL     1     -10.545  11.767  66.746  1.00  0.00    -0.229 N  
HETATM   22  O   UNL     1     -11.348  10.212  68.190  1.00  0.00    -0.237 OA 
HETATM   23  H   UNL     1      -9.899  11.943  65.976  1.00  0.00     0.000 HD 
HETATM   24  C   UNL     1     -10.569  10.491  67.274  1.00  0.00    -0.264 C  
BRANCH  24  25
HETATM   25  C   UNL     1      -9.584   9.450  66.626  1.00  0.00    -0.192 C  
HETATM   26  S   UNL     1      -7.986   9.250  67.511  1.00  0.00    -0.099 SA 
HETATM   27  C   UNL     1      -8.294   7.685  66.769  1.00  0.00    -0.125 C  
HETATM   28  C   UNL     1      -7.466   6.757  66.234  1.00  0.00    -0.077 C  
HETATM   29  S   UNL     1     -10.024   7.725  67.059  1.00  0.00    -0.271 SA 
HETATM   30  O   UNL     1      -7.139   4.655  65.119  1.00  0.00    -0.060 OA 
HETATM   31  C   UNL     1      -8.044   5.500  65.672  1.00  0.00    -0.118 C  
HETATM   32  O   UNL     1      -9.226   5.198  65.690  1.00  0.00    -0.156 OA 
BRANCH  28  33
HETATM   33  C   UNL     1      -5.999   7.001  66.153  1.00  0.00    -0.035 C  
HETATM   34  O   UNL     1      -5.333   7.082  67.185  1.00  0.00    -0.015 OA 
HETATM   35  N   UNL     1      -5.391   7.189  64.957  1.00  0.00    -0.028 N  
HETATM   36  H1  UNL     1      -4.387   7.356  64.902  1.00  0.00     0.000 HD 
HETATM   37  H2  UNL     1      -5.946   7.163  64.101  1.00  0.00     0.000 HD 
ENDBRANCH  28  33
ENDBRANCH  24  25
ENDBRANCH   5  21
BRANCH   5  38
HETATM   38  O   UNL     1     -12.474  12.465  68.065  1.00  0.00    -0.049 OA 
HETATM   39  C   UNL     1     -12.166  12.373  69.455  1.00  0.00    -0.086 C  
ENDBRANCH   5  38
TORSDOF 7
ENDMDL
MODEL      161
REMARK 921   NORMALIZED FREE ENERGY PREDICTED BY IDOCK:    2.14 KCAL/MOL
REMARK 922        TOTAL FREE ENERGY PREDICTED BY IDOCK:    1.57 KCAL/MOL
REMARK 923 INTER-LIGAND FREE ENERGY PREDICTED BY IDOCK:    1.42 KCAL/MOL
REMARK 924 INTRA-LIGAND FREE ENERGY PREDICTED BY IDOCK:    0.15 KCAL/MOL
REMARK 927      BINDING AFFINITY PREDICTED BY RF-SCORE:    0.00 PKD
ROOT
HETATM    1  C   UNL     1     -10.781  11.458  68.572  1.00  0.00    -0.201 C  
HETATM    2  S   UNL     1      -9.346  12.005  69.534  1.00  0.00     1.598 SA 
HETATM    3  C   UNL     1      -9.115  13.502  68.542  1.00  0.00    -0.092 C  
HETATM    4  C   UNL     1      -9.104  13.264  67.037  1.00  0.00    -0.232 C  
HETATM    5  C   UNL     1     -11.124   9.898  68.624  1.00  0.00    -0.134 C  
HETATM    6  C   UNL     1      -9.721  12.207  66.424  1.00  0.00    -0.231 C  
HETATM    7  N   UNL     1     -10.367  11.269  67.191  1.00  0.00    -0.201 N  
HETATM    8  C   UNL     1      -9.651  12.068  64.908  1.00  0.00    -0.019 C  
HETATM    9  O   UNL     1      -9.080  12.873  64.186  1.00  0.00     0.873 OA 
HETATM   10  O   UNL     1     -10.306  11.047  64.335  1.00  0.00    -0.317 OA 
HETATM   11  O   UNL     1     -11.124   9.419  66.023  1.00  0.00     0.815 OA 
HETATM   12  C   UNL     1     -10.923  10.048  67.040  1.00  0.00    -0.049 C  
ENDROOT
BRANCH   4  13
HETATM   13  C   UNL     1      -8.242  14.315  66.330  1.00  0.00     1.031 C  
BRANCH  13  14
HETATM   14  S   UNL     1      -9.059  15.936  66.333  1.00  0.00    -0.348 SA 
BRANCH  14  15
HETATM   15  C   UNL     1      -7.685  16.966  66.525  1.00  0.00    -0.291 A  
HETATM   16  N   UNL     1      -6.466  16.581  66.820  1.00  0.00    -0.265 NA 
HETATM   17  C   UNL     1      -8.774  19.229  66.118  1.00  0.00    -0.247 C  
HETATM   18  N   UNL     1      -5.724  17.734  66.934  1.00  0.00    -0.136 NA 
HETATM   19  N   UNL     1      -7.702  18.330  66.440  1.00  0.00    -0.247 NA 
HETATM   20  N   UNL     1      -6.469  18.806  66.700  1.00  0.00    -0.186 NA 
ENDBRANCH  14  15
ENDBRANCH  13  14
ENDBRANCH   4  13
BRANCH   5  21
HETATM   21  N   UNL     1     -10.131   9.091  69.392  1.00  0.00    -0.192 N  
HETATM   22  O   UNL     1      -9.259   7.955  67.631  1.00  0.00    -0.136 OA 
HETATM   23  H   UNL     1     -10.087   9.239  70.399  1.00  0.00     0.000 HD 
HETATM   24  C   UNL     1      -9.268   8.159  68.849  1.00  0.00    -0.147 C  
BRANCH  24  25
HETATM   25  C   UNL     1      -8.313   7.424  69.858  1.00  0.00    -0.134 C  
HETATM   26  S   UNL     1      -8.366   8.070  71.578  1.00  0.00    -0.127 SA 
HETATM   27  C   UNL     1      -7.964   6.366  71.745  1.00  0.00    -0.105 C  
HETATM   28  C   UNL     1      -7.173   5.703  72.621  1.00  0.00    -0.090 C  
HETATM   29  S   UNL     1      -9.020   5.840  70.447  1.00  0.00    -0.147 SA 
HETATM   30  O   UNL     1      -6.185   3.656  73.397  1.00  0.00    -0.017 OA 
HETATM   31  C   UNL     1      -7.033   4.221  72.503  1.00  0.00    -0.056 C  
HETATM   32  O   UNL     1      -7.619   3.521  71.694  1.00  0.00    -0.050 OA 
BRANCH  28  33
HETATM   33  C   UNL     1      -6.403   6.441  73.662  1.00  0.00    -0.065 C  
HETATM   34  O   UNL     1      -6.873   7.464  74.161  1.00  0.00    -0.083 OA 
HETATM   35  N   UNL     1      -5.166   6.033  74.031  1.00  0.00    -0.035 N  
HETATM   36  H1  UNL     1      -4.640   6.538  74.743  1.00  0.00     0.000 HD 
HETATM   37  H2  UNL     1      -4.756   5.209  73.591  1.00  0.00     0.000 HD 
ENDBRANCH  28  33
ENDBRANCH  24  25
ENDBRANCH   5  21
BRANCH   5  38
HETATM   38  O   UNL     1     -12.490   9.589  69.018  1.00  0.00     1.386 OA 
HETATM   39  C   UNL     1     -13.049  10.435  70.022  1.00  0.00     0.291 C  
ENDBRANCH   5  38
TORSDOF 7
ENDMDL
MODEL      162
REMARK 921   NORMALIZED FREE ENERGY PREDICTED BY IDOCK:    2.71 KCAL/MOL
REMARK 922        TOTAL FREE ENERGY PREDICTED BY IDOCK:    2.37 KCAL/MOL
REMARK 923 INTER-LIGAND FREE ENERGY PREDICTED BY IDOCK:    3.10 KCAL/MOL
REMARK 924 INTRA-LIGAND FREE ENERGY PREDICTED BY IDOCK:   -0.73 KCAL/MOL
REMARK 927      BINDING AFFINITY PREDICTED BY RF-SCORE:    0.00 PKD
ROOT
HETATM    1  C   UNL     1      -6.947  10.668  69.361  1.00  0.00    -0.106 C  
HETATM    2  S   UNL     1      -6.310  10.456  67.676  1.00  0.00    -0.057 SA 
HETATM    3  C   UNL     1      -6.568  12.195  67.244  1.00  0.00    -0.146 C  
HETATM    4  C   UNL     1      -7.955  12.729  67.582  1.00  0.00    -0.165 C  
HETATM    5  C   UNL     1      -7.482   9.352  70.092  1.00  0.00    -0.120 C  
HETATM    6  C   UNL     1      -8.757  12.212  68.563  1.00  0.00    -0.079 C  
HETATM    7  N   UNL     1      -8.325  11.124  69.280  1.00  0.00     0.026 N  
HETATM    8  C   UNL     1     -10.128  12.827  68.820  1.00  0.00    -0.045 C  
HETATM    9  O   UNL     1     -10.558  13.790  68.201  1.00  0.00    -0.241 OA 
HETATM   10  O   UNL     1     -10.869  12.326  69.820  1.00  0.00     0.132 OA 
HETATM   11  O   UNL     1      -9.904  10.218  70.710  1.00  0.00     0.327 OA 
HETATM   12  C   UNL     1      -8.824  10.229  70.160  1.00  0.00     0.302 C  
ENDROOT
BRANCH   4  13
HETATM   13  C   UNL     1      -8.351  13.853  66.619  1.00  0.00     0.263 C  
BRANCH  13  14
HETATM   14  S   UNL     1      -8.540  13.224  64.927  1.00  0.00     4.034 SA 
BRANCH  14  15
HETATM   15  C   UNL     1      -9.462  11.795  65.236  1.00  0.00    -0.114 A  
HETATM   16  N   UNL     1      -8.985  10.577  65.345  1.00  0.00    -0.178 NA 
HETATM   17  C   UNL     1     -11.798  12.795  65.347  1.00  0.00    -0.415 C  
HETATM   18  N   UNL     1     -10.078   9.760  65.525  1.00  0.00    -0.263 NA 
HETATM   19  N   UNL     1     -10.821  11.744  65.363  1.00  0.00    -0.290 NA 
HETATM   20  N   UNL     1     -11.202  10.464  65.541  1.00  0.00     0.623 NA 
ENDBRANCH  14  15
ENDBRANCH  13  14
ENDBRANCH   4  13
BRANCH   5  21
HETATM   21  N   UNL     1      -7.474   8.137  69.225  1.00  0.00    -0.087 N  
HETATM   22  O   UNL     1      -9.679   8.147  68.692  1.00  0.00    -0.148 OA 
HETATM   23  H   UNL     1      -6.581   7.664  69.093  1.00  0.00     0.000 HD 
HETATM   24  C   UNL     1      -8.576   7.602  68.589  1.00  0.00    -0.129 C  
BRANCH  24  25
HETATM   25  C   UNL     1      -8.325   6.309  67.730  1.00  0.00    -0.117 C  
HETATM   26  S   UNL     1      -8.651   6.503  65.932  1.00  0.00    -0.137 SA 
HETATM   27  C   UNL     1      -7.388   5.284  66.035  1.00  0.00    -0.081 C  
HETATM   28  C   UNL     1      -7.129   4.182  65.292  1.00  0.00    -0.063 C  
HETATM   29  S   UNL     1      -6.547   6.058  67.366  1.00  0.00    -0.058 SA 
HETATM   30  O   UNL     1      -5.804   2.225  64.863  1.00  0.00    -0.016 OA 
HETATM   31  C   UNL     1      -5.953   3.329  65.636  1.00  0.00    -0.019 C  
HETATM   32  O   UNL     1      -5.149   3.562  66.524  1.00  0.00    -0.007 OA 
BRANCH  28  33
HETATM   33  C   UNL     1      -8.033   3.786  64.176  1.00  0.00    -0.086 C  
HETATM   34  O   UNL     1      -7.854   4.249  63.049  1.00  0.00    -0.064 OA 
HETATM   35  N   UNL     1      -9.085   2.963  64.394  1.00  0.00    -0.115 N  
HETATM   36  H1  UNL     1      -9.704   2.692  63.629  1.00  0.00     0.000 HD 
HETATM   37  H2  UNL     1      -9.261   2.608  65.334  1.00  0.00     0.000 HD 
ENDBRANCH  28  33
ENDBRANCH  24  25
ENDBRANCH   5  21
BRANCH   5  38
HETATM   38  O   UNL     1      -6.882   9.091  71.391  1.00  0.00    -0.090 OA 
HETATM   39  C   UNL     1      -6.279  10.217  72.028  1.00  0.00     0.827 C  
ENDBRANCH   5  38
TORSDOF 7
ENDMDL
MODEL      163
REMARK 921   NORMALIZED FREE ENERGY PREDICTED BY IDOCK:    3.34 KCAL/MOL
REMARK 922        TOTAL FREE ENERGY PREDICTED BY IDOCK:    3.25 KCAL/MOL
REMARK 923 INTER-LIGAND FREE ENERGY PREDICTED BY IDOCK:    2.91 KCAL/MOL
REMARK 924 INTRA-LIGAND FREE ENERGY PREDICTED BY IDOCK:    0.34 KCAL/MOL
REMARK 927      BINDING AFFINITY PREDICTED BY RF-SCORE:    0.00 PKD
ROOT
HETATM    1  C   UNL     1     -10.527   7.290  71.628  1.00  0.00    -0.198 C  
HETATM    2  S   UNL     1      -9.077   8.171  70.987  1.00  0.00    -0.159 SA 
HETATM    3  C   UNL     1      -9.684   9.787  71.532  1.00  0.00     1.043 C  
HETATM    4  C   UNL     1     -11.123  10.088  71.131  1.00  0.00    -0.270 C  
HETATM    5  C   UNL     1     -10.842   5.866  70.975  1.00  0.00    -0.273 C  
HETATM    6  C   UNL     1     -12.065   9.127  70.883  1.00  0.00    -0.214 C  
HETATM    7  N   UNL     1     -11.712   7.803  70.959  1.00  0.00    -0.285 N  
HETATM    8  C   UNL     1     -13.480   9.540  70.492  1.00  0.00     0.369 C  
HETATM    9  O   UNL     1     -13.838  10.706  70.403  1.00  0.00     0.643 OA 
HETATM   10  O   UNL     1     -14.391   8.575  70.301  1.00  0.00     1.121 OA 
HETATM   11  O   UNL     1     -13.346   6.322  70.255  1.00  0.00     2.077 OA 
HETATM   12  C   UNL     1     -12.231   6.597  70.641  1.00  0.00    -0.200 C  
ENDROOT
BRANCH   4  13
HETATM   13  C   UNL     1     -11.334  11.596  70.962  1.00  0.00     1.531 C  
BRANCH  13  14
HETATM   14  S   UNL     1     -11.514  12.035  69.210  1.00  0.00    -0.305 SA 
BRANCH  14  15
HETATM   15  C   UNL     1     -11.274  13.744  69.301  1.00  0.00    -0.242 A  
HETATM   16  N   UNL     1     -10.313  14.422  68.716  1.00  0.00    -0.239 NA 
HETATM   17  C   UNL     1     -13.203  14.378  70.833  1.00  0.00    -0.288 C  
HETATM   18  N   UNL     1     -10.477  15.728  69.115  1.00  0.00    -0.224 NA 
HETATM   19  N   UNL     1     -12.031  14.611  70.037  1.00  0.00    -0.301 NA 
HETATM   20  N   UNL     1     -11.525  15.853  69.919  1.00  0.00    -0.331 NA 
ENDBRANCH  14  15
ENDBRANCH  13  14
ENDBRANCH   4  13
BRANCH   5  21
HETATM   21  N   UNL     1      -9.938   5.510  69.843  1.00  0.00    -0.195 N  
HETATM   22  O   UNL     1     -11.531   5.379  68.232  1.00  0.00     0.950 OA 
HETATM   23  H   UNL     1      -8.942   5.434  70.046  1.00  0.00     0.000 HD 
HETATM   24  C   UNL     1     -10.341   5.276  68.542  1.00  0.00    -0.112 C  
BRANCH  24  25
HETATM   25  C   UNL     1      -9.206   4.909  67.518  1.00  0.00    -0.123 C  
HETATM   26  S   UNL     1      -9.599   3.499  66.406  1.00  0.00    -0.023 SA 
HETATM   27  C   UNL     1      -8.520   4.527  65.472  1.00  0.00    -0.121 C  
HETATM   28  C   UNL     1      -7.558   4.241  64.562  1.00  0.00    -0.073 C  
HETATM   29  S   UNL     1      -9.197   6.031  66.069  1.00  0.00    -0.061 SA 
HETATM   30  O   UNL     1      -5.828   4.968  63.064  1.00  0.00    -0.016 OA 
HETATM   31  C   UNL     1      -6.798   5.358  63.927  1.00  0.00    -0.046 C  
HETATM   32  O   UNL     1      -6.997   6.546  64.122  1.00  0.00    -0.044 OA 
BRANCH  28  33
HETATM   33  C   UNL     1      -7.219   2.829  64.231  1.00  0.00    -0.057 C  
HETATM   34  O   UNL     1      -6.629   2.130  65.056  1.00  0.00    -0.026 OA 
HETATM   35  N   UNL     1      -7.503   2.314  63.012  1.00  0.00    -0.048 N  
HETATM   36  H1  UNL     1      -7.271   1.347  62.785  1.00  0.00     0.000 HD 
HETATM   37  H2  UNL     1      -7.955   2.901  62.310  1.00  0.00     0.000 HD 
ENDBRANCH  28  33
ENDBRANCH  24  25
ENDBRANCH   5  21
BRANCH   5  38
HETATM   38  O   UNL     1     -10.966   4.774  71.929  1.00  0.00    -0.018 OA 
HETATM   39  C   UNL     1     -11.103   5.162  73.295  1.00  0.00    -0.327 C  
ENDBRANCH   5  38
TORSDOF 7
ENDMDL
MODEL      164
REMARK 921   NORMALIZED FREE ENERGY PREDICTED BY IDOCK:    4.41 KCAL/MOL
REMARK 922        TOTAL FREE ENERGY PREDICTED BY IDOCK:    4.76 KCAL/MOL
REMARK 923 INTER-LIGAND FREE ENERGY PREDICTED BY IDOCK:    1.93 KCAL/MOL
REMARK 924 INTRA-LIGAND FREE ENERGY PREDICTED BY IDOCK:    2.83 KCAL/MOL
REMARK 927      BINDING AFFINITY PREDICTED BY RF-SCORE:    0.00 PKD
ROOT
HETATM    1  C   UNL     1      -7.685   4.288  65.089  1.00  0.00    -0.085 C  
HETATM    2  S   UNL     1      -9.477   4.559  65.153  1.00  0.00    -0.146 SA 
HETATM    3  C   UNL     1      -9.509   5.442  63.573  1.00  0.00     0.814 C  
HETATM    4  C   UNL     1      -8.472   6.552  63.451  1.00  0.00     0.281 C  
HETATM    5  C   UNL     1      -6.954   4.018  66.484  1.00  0.00    -0.059 C  
HETATM    6  C   UNL     1      -7.296   6.582  64.150  1.00  0.00    -0.077 C  
HETATM    7  N   UNL     1      -7.023   5.582  65.050  1.00  0.00    -0.052 N  
HETATM    8  C   UNL     1      -6.327   7.741  63.947  1.00  0.00    -0.058 C  
HETATM    9  O   UNL     1      -6.532   8.658  63.164  1.00  0.00    -0.089 OA 
HETATM   10  O   UNL     1      -5.163   7.716  64.613  1.00  0.00    -0.029 OA 
HETATM   11  O   UNL     1      -5.127   5.924  66.332  1.00  0.00    -0.005 OA 
HETATM   12  C   UNL     1      -6.129   5.316  66.026  1.00  0.00    -0.030 C  
ENDROOT
BRANCH   4  13
HETATM   13  C   UNL     1      -8.970   7.656  62.512  1.00  0.00     0.714 C  
BRANCH  13  14
HETATM   14  S   UNL     1      -9.144   9.232  63.397  1.00  0.00     0.280 SA 
BRANCH  14  15
HETATM   15  C   UNL     1      -9.280   8.654  65.020  1.00  0.00     0.201 A  
HETATM   16  N   UNL     1     -10.178   7.806  65.465  1.00  0.00     1.624 NA 
HETATM   17  C   UNL     1      -7.365   9.931  66.103  1.00  0.00    -0.104 C  
HETATM   18  N   UNL     1      -9.945   7.687  66.816  1.00  0.00    -0.243 NA 
HETATM   19  N   UNL     1      -8.494   9.046  66.067  1.00  0.00    -0.124 NA 
HETATM   20  N   UNL     1      -8.918   8.438  67.191  1.00  0.00    -0.135 NA 
ENDBRANCH  14  15
ENDBRANCH  13  14
ENDBRANCH   4  13
BRANCH   5  21
HETATM   21  N   UNL     1      -7.855   4.132  67.667  1.00  0.00    -0.086 N  
HETATM   22  O   UNL     1      -8.187   1.911  67.993  1.00  0.00    -0.058 OA 
HETATM   23  H   UNL     1      -8.066   5.070  68.005  1.00  0.00     0.000 HD 
HETATM   24  C   UNL     1      -8.427   3.071  68.341  1.00  0.00    -0.080 C  
BRANCH  24  25
HETATM   25  C   UNL     1      -9.351   3.437  69.560  1.00  0.00    -0.170 C  
HETATM   26  S   UNL     1      -9.545   2.100  70.807  1.00  0.00    -0.047 SA 
HETATM   27  C   UNL     1      -9.708   3.597  71.716  1.00  0.00    -0.163 C  
HETATM   28  C   UNL     1     -10.469   3.930  72.785  1.00  0.00    -0.231 C  
HETATM   29  S   UNL     1      -8.476   4.454  70.807  1.00  0.00    -0.080 SA 
HETATM   30  O   UNL     1     -11.214   5.560  74.384  1.00  0.00     0.283 OA 
HETATM   31  C   UNL     1     -10.381   5.312  73.343  1.00  0.00    -0.209 C  
HETATM   32  O   UNL     1      -9.630   6.186  72.943  1.00  0.00    -0.154 OA 
BRANCH  28  33
HETATM   33  C   UNL     1     -11.427   2.952  73.372  1.00  0.00    -0.060 C  
HETATM   34  O   UNL     1     -12.628   3.220  73.416  1.00  0.00     0.494 OA 
HETATM   35  N   UNL     1     -10.989   1.788  73.909  1.00  0.00    -0.147 N  
HETATM   36  H1  UNL     1     -11.645   1.118  74.311  1.00  0.00     0.000 HD 
HETATM   37  H2  UNL     1      -9.990   1.579  73.912  1.00  0.00     0.000 HD 
ENDBRANCH  28  33
ENDBRANCH  24  25
ENDBRANCH   5  21
BRANCH   5  38
HETATM   38  O   UNL     1      -6.159   2.800  66.527  1.00  0.00    -0.023 OA 
HETATM   39  C   UNL     1      -6.129   2.040  65.320  1.00  0.00    -0.018 C  
ENDBRANCH   5  38
TORSDOF 7
ENDMDL
MODEL      165
REMARK 921   NORMALIZED FREE ENERGY PREDICTED BY IDOCK:    4.65 KCAL/MOL
REMARK 922        TOTAL FREE ENERGY PREDICTED BY IDOCK:    5.11 KCAL/MOL
REMARK 923 INTER-LIGAND FREE ENERGY PREDICTED BY IDOCK:    2.92 KCAL/MOL
REMARK 924 INTRA-LIGAND FREE ENERGY PREDICTED BY IDOCK:    2.18 KCAL/MOL
REMARK 927      BINDING AFFINITY PREDICTED BY RF-SCORE:    0.00 PKD
ROOT
HETATM    1  C   UNL     1     -10.777  11.439  68.548  1.00  0.00    -0.201 C  
HETATM    2  S   UNL     1      -9.346  11.922  69.550  1.00  0.00     1.487 SA 
HETATM    3  C   UNL     1      -8.946  13.336  68.494  1.00  0.00    -0.058 C  
HETATM    4  C   UNL     1      -8.888  13.014  67.005  1.00  0.00    -0.213 C  
HETATM    5  C   UNL     1     -11.251   9.917  68.665  1.00  0.00    -0.068 C  
HETATM    6  C   UNL     1      -9.562  11.977  66.419  1.00  0.00    -0.228 C  
HETATM    7  N   UNL     1     -10.318  11.139  67.201  1.00  0.00    -0.204 N  
HETATM    8  C   UNL     1      -9.436  11.747  64.917  1.00  0.00    -0.035 C  
HETATM    9  O   UNL     1      -8.767  12.461  64.183  1.00  0.00     1.308 OA 
HETATM   10  O   UNL     1     -10.146  10.752  64.368  1.00  0.00    -0.308 OA 
HETATM   11  O   UNL     1     -11.173   9.294  66.096  1.00  0.00     1.044 OA 
HETATM   12  C   UNL     1     -10.966   9.960  67.087  1.00  0.00    -0.076 C  
ENDROOT
BRANCH   4  13
HETATM   13  C   UNL     1      -7.910  13.949  66.287  1.00  0.00     1.845 C  
BRANCH  13  14
HETATM   14  S   UNL     1      -8.588  15.629  66.165  1.00  0.00     0.076 SA 
BRANCH  14  15
HETATM   15  C   UNL     1     -10.143  15.380  66.878  1.00  0.00    -0.257 A  
HETATM   16  N   UNL     1     -11.178  14.820  66.296  1.00  0.00    -0.342 NA 
HETATM   17  C   UNL     1      -9.746  16.412  69.169  1.00  0.00    -0.260 C  
HETATM   18  N   UNL     1     -12.206  14.893  67.208  1.00  0.00    -0.009 NA 
HETATM   19  N   UNL     1     -10.511  15.780  68.131  1.00  0.00    -0.256 NA 
HETATM   20  N   UNL     1     -11.807  15.474  68.332  1.00  0.00    -0.305 NA 
ENDBRANCH  14  15
ENDBRANCH  13  14
ENDBRANCH   4  13
BRANCH   5  21
HETATM   21  N   UNL     1     -10.365   9.077  69.523  1.00  0.00    -0.204 N  
HETATM   22  O   UNL     1     -12.000   8.093  70.752  1.00  0.00    -0.238 OA 
HETATM   23  H   UNL     1      -9.361   9.136  69.357  1.00  0.00     0.000 HD 
HETATM   24  C   UNL     1     -10.793   8.226  70.522  1.00  0.00    -0.232 C  
BRANCH  24  25
HETATM   25  C   UNL     1      -9.672   7.445  71.300  1.00  0.00    -0.165 C  
HETATM   26  S   UNL     1     -10.180   5.794  71.930  1.00  0.00    -0.206 SA 
HETATM   27  C   UNL     1      -8.455   5.651  71.620  1.00  0.00    -0.131 C  
HETATM   28  C   UNL     1      -7.474   4.962  72.251  1.00  0.00    -0.089 C  
HETATM   29  S   UNL     1      -8.486   6.631  70.165  1.00  0.00    -0.137 SA 
HETATM   30  O   UNL     1      -5.160   4.355  72.461  1.00  0.00    -0.003 OA 
HETATM   31  C   UNL     1      -6.076   5.043  71.735  1.00  0.00    -0.029 C  
HETATM   32  O   UNL     1      -5.727   5.654  70.738  1.00  0.00    -0.015 OA 
BRANCH  28  33
HETATM   33  C   UNL     1      -7.768   4.173  73.481  1.00  0.00    -0.081 C  
HETATM   34  O   UNL     1      -7.156   4.410  74.522  1.00  0.00    -0.068 OA 
HETATM   35  N   UNL     1      -8.666   3.160  73.457  1.00  0.00    -0.077 N  
HETATM   36  H1  UNL     1      -8.867   2.620  74.298  1.00  0.00     0.000 HD 
HETATM   37  H2  UNL     1      -9.146   2.933  72.586  1.00  0.00     0.000 HD 
ENDBRANCH  28  33
ENDBRANCH  24  25
ENDBRANCH   5  21
BRANCH   5  38
HETATM   38  O   UNL     1     -12.654   9.742  69.007  1.00  0.00     1.082 OA 
HETATM   39  C   UNL     1     -13.187  10.690  69.931  1.00  0.00     0.575 C  
ENDBRANCH   5  38
TORSDOF 7
ENDMDL
MODEL      166
REMARK 921   NORMALIZED FREE ENERGY PREDICTED BY IDOCK:    4.91 KCAL/MOL
REMARK 922        TOTAL FREE ENERGY PREDICTED BY IDOCK:    5.47 KCAL/MOL
REMARK 923 INTER-LIGAND FREE ENERGY PREDICTED BY IDOCK:    3.47 KCAL/MOL
REMARK 924 INTRA-LIGAND FREE ENERGY PREDICTED BY IDOCK:    2.00 KCAL/MOL
REMARK 927      BINDING AFFINITY PREDICTED BY RF-SCORE:    0.00 PKD
ROOT
HETATM    1  C   UNL     1     -10.777  11.439  68.547  1.00  0.00    -0.201 C  
HETATM    2  S   UNL     1      -9.324  11.907  69.525  1.00  0.00     1.487 SA 
HETATM    3  C   UNL     1      -8.931  13.319  68.463  1.00  0.00    -0.058 C  
HETATM    4  C   UNL     1      -8.901  12.999  66.973  1.00  0.00    -0.213 C  
HETATM    5  C   UNL     1     -11.262   9.921  68.671  1.00  0.00    -0.068 C  
HETATM    6  C   UNL     1      -9.595  11.969  66.398  1.00  0.00    -0.228 C  
HETATM    7  N   UNL     1     -10.345  11.137  67.192  1.00  0.00    -0.204 N  
HETATM    8  C   UNL     1      -9.496  11.740  64.894  1.00  0.00    -0.035 C  
HETATM    9  O   UNL     1      -8.835  12.449  64.149  1.00  0.00     1.037 OA 
HETATM   10  O   UNL     1     -10.226  10.752  64.355  1.00  0.00    -0.336 OA 
HETATM   11  O   UNL     1     -11.235   9.300  66.100  1.00  0.00     1.044 OA 
HETATM   12  C   UNL     1     -11.005   9.963  67.088  1.00  0.00    -0.076 C  
ENDROOT
BRANCH   4  13
HETATM   13  C   UNL     1      -7.928  13.927  66.240  1.00  0.00     1.590 C  
BRANCH  13  14
HETATM   14  S   UNL     1      -8.593  15.612  66.130  1.00  0.00     0.076 SA 
BRANCH  14  15
HETATM   15  C   UNL     1      -7.496  16.439  67.180  1.00  0.00    -0.192 A  
HETATM   16  N   UNL     1      -7.655  17.648  67.666  1.00  0.00    -0.201 NA 
HETATM   17  C   UNL     1      -5.667  14.682  67.375  1.00  0.00     0.339 C  
HETATM   18  N   UNL     1      -6.516  17.915  68.390  1.00  0.00    -0.192 NA 
HETATM   19  N   UNL     1      -6.292  15.954  67.604  1.00  0.00    -0.151 NA 
HETATM   20  N   UNL     1      -5.680  16.886  68.360  1.00  0.00    -0.128 NA 
ENDBRANCH  14  15
ENDBRANCH  13  14
ENDBRANCH   4  13
BRANCH   5  21
HETATM   21  N   UNL     1     -10.369   9.072  69.511  1.00  0.00    -0.204 N  
HETATM   22  O   UNL     1     -11.990   8.101  70.768  1.00  0.00    -0.238 OA 
HETATM   23  H   UNL     1      -9.367   9.122  69.328  1.00  0.00     0.000 HD 
HETATM   24  C   UNL     1     -10.787   8.223  70.517  1.00  0.00    -0.232 C  
BRANCH  24  25
HETATM   25  C   UNL     1      -9.659   7.431  71.274  1.00  0.00    -0.161 C  
HETATM   26  S   UNL     1     -10.171   5.784  71.911  1.00  0.00    -0.206 SA 
HETATM   27  C   UNL     1      -8.453   5.626  71.571  1.00  0.00    -0.128 C  
HETATM   28  C   UNL     1      -7.468   4.928  72.184  1.00  0.00    -0.088 C  
HETATM   29  S   UNL     1      -8.501   6.608  70.118  1.00  0.00    -0.137 SA 
HETATM   30  O   UNL     1      -5.156   4.299  72.352  1.00  0.00     0.000 OA 
HETATM   31  C   UNL     1      -6.078   4.997  71.644  1.00  0.00    -0.028 C  
HETATM   32  O   UNL     1      -5.741   5.606  70.642  1.00  0.00    -0.015 OA 
BRANCH  28  33
HETATM   33  C   UNL     1      -7.747   4.140  73.418  1.00  0.00    -0.085 C  
HETATM   34  O   UNL     1      -7.085   3.131  73.664  1.00  0.00    -0.042 OA 
HETATM   35  N   UNL     1      -8.758   4.487  74.249  1.00  0.00    -0.106 N  
HETATM   36  H1  UNL     1      -8.949   3.948  75.093  1.00  0.00     0.000 HD 
HETATM   37  H2  UNL     1      -9.335   5.299  74.028  1.00  0.00     0.000 HD 
ENDBRANCH  28  33
ENDBRANCH  24  25
ENDBRANCH   5  21
BRANCH   5  38
HETATM   38  O   UNL     1     -12.661   9.758  69.036  1.00  0.00     1.082 OA 
HETATM   39  C   UNL     1     -13.222  10.814  69.815  1.00  0.00     0.771 C  
ENDBRANCH   5  38
TORSDOF 7
ENDMDL
MODEL      167
REMARK 921   NORMALIZED FREE ENERGY PREDICTED BY IDOCK:    5.05 KCAL/MOL
REMARK 922        TOTAL FREE ENERGY PREDICTED BY IDOCK:    5.67 KCAL/MOL
REMARK 923 INTER-LIGAND FREE ENERGY PREDICTED BY IDOCK:    4.04 KCAL/MOL
REMARK 924 INTRA-LIGAND FREE ENERGY PREDICTED BY IDOCK:    1.62 KCAL/MOL
REMARK 927      BINDING AFFINITY PREDICTED BY RF-SCORE:    0.00 PKD
ROOT
HETATM    1  C   UNL     1      -8.200  13.583  68.032  1.00  0.00    -0.163 C  
HETATM    2  S   UNL     1      -8.650  11.969  67.340  1.00  0.00    -0.180 SA 
HETATM    3  C   UNL     1     -10.166  12.598  66.577  1.00  0.00    -0.243 C  
HETATM    4  C   UNL     1     -11.051  13.413  67.512  1.00  0.00    -0.294 C  
HETATM    5  C   UNL     1      -7.210  13.571  69.286  1.00  0.00     0.095 C  
HETATM    6  C   UNL     1     -10.589  14.085  68.611  1.00  0.00    -0.257 C  
HETATM    7  N   UNL     1      -9.257  14.011  68.934  1.00  0.00    -0.037 N  
HETATM    8  C   UNL     1     -11.563  14.875  69.477  1.00  0.00    -0.303 C  
HETATM    9  O   UNL     1     -12.759  14.963  69.234  1.00  0.00     0.053 OA 
HETATM   10  O   UNL     1     -11.071  15.561  70.519  1.00  0.00    -0.297 OA 
HETATM   11  O   UNL     1      -8.696  14.983  70.958  1.00  0.00     1.821 OA 
HETATM   12  C   UNL     1      -8.445  14.342  69.960  1.00  0.00     1.083 C  
ENDROOT
BRANCH   4  13
HETATM   13  C   UNL     1     -12.522  13.299  67.101  1.00  0.00     0.108 C  
BRANCH  13  14
HETATM   14  S   UNL     1     -12.799  14.036  65.464  1.00  0.00    -0.272 SA 
BRANCH  14  15
HETATM   15  C   UNL     1     -11.240  14.724  65.175  1.00  0.00    -0.382 A  
HETATM   16  N   UNL     1     -10.317  14.237  64.378  1.00  0.00    -0.139 NA 
HETATM   17  C   UNL     1     -11.363  16.750  66.707  1.00  0.00     0.618 C  
HETATM   18  N   UNL     1      -9.230  15.071  64.509  1.00  0.00     2.105 NA 
HETATM   19  N   UNL     1     -10.747  15.845  65.779  1.00  0.00    -0.331 NA 
HETATM   20  N   UNL     1      -9.485  16.056  65.360  1.00  0.00    -0.335 NA 
ENDBRANCH  14  15
ENDBRANCH  13  14
ENDBRANCH   4  13
BRANCH   5  21
HETATM   21  N   UNL     1      -6.877  12.202  69.776  1.00  0.00    -0.343 N  
HETATM   22  O   UNL     1      -5.917  12.821  71.737  1.00  0.00     0.019 OA 
HETATM   23  H   UNL     1      -7.142  11.416  69.183  1.00  0.00     0.000 HD 
HETATM   24  C   UNL     1      -6.239  11.911  70.966  1.00  0.00     0.939 C  
BRANCH  24  25
HETATM   25  C   UNL     1      -5.988  10.389  71.268  1.00  0.00     0.150 C  
HETATM   26  S   UNL     1      -7.404   9.515  72.049  1.00  0.00     1.265 SA 
HETATM   27  C   UNL     1      -6.569   8.282  71.114  1.00  0.00    -0.046 C  
HETATM   28  C   UNL     1      -6.365   6.961  71.334  1.00  0.00    -0.041 C  
HETATM   29  S   UNL     1      -6.188   9.348  69.774  1.00  0.00    -0.041 SA 
HETATM   30  O   UNL     1      -5.413   4.862  70.661  1.00  0.00    -0.007 OA 
HETATM   31  C   UNL     1      -5.602   6.163  70.329  1.00  0.00    -0.014 C  
HETATM   32  O   UNL     1      -5.168   6.590  69.272  1.00  0.00    -0.012 OA 
BRANCH  28  33
HETATM   33  C   UNL     1      -6.847   6.314  72.586  1.00  0.00    -0.074 C  
HETATM   34  O   UNL     1      -6.042   5.775  73.347  1.00  0.00    -0.053 OA 
HETATM   35  N   UNL     1      -8.168   6.263  72.878  1.00  0.00    -0.115 N  
HETATM   36  H1  UNL     1      -8.498   5.821  73.735  1.00  0.00     0.000 HD 
HETATM   37  H2  UNL     1      -8.842   6.673  72.231  1.00  0.00     0.000 HD 
ENDBRANCH  28  33
ENDBRANCH  24  25
ENDBRANCH   5  21
BRANCH   5  38
HETATM   38  O   UNL     1      -6.019  14.391  69.128  1.00  0.00    -0.087 OA 
HETATM   39  C   UNL     1      -6.012  15.257  67.994  1.00  0.00    -0.145 C  
ENDBRANCH   5  38
TORSDOF 7
ENDMDL
MODEL      168
REMARK 921   NORMALIZED FREE ENERGY PREDICTED BY IDOCK:    6.06 KCAL/MOL
REMARK 922        TOTAL FREE ENERGY PREDICTED BY IDOCK:    7.08 KCAL/MOL
REMARK 923 INTER-LIGAND FREE ENERGY PREDICTED BY IDOCK:    6.08 KCAL/MOL
REMARK 924 INTRA-LIGAND FREE ENERGY PREDICTED BY IDOCK:    1.00 KCAL/MOL
REMARK 927      BINDING AFFINITY PREDICTED BY RF-SCORE:    0.00 PKD
ROOT
HETATM    1  C   UNL     1      -8.807  12.979  69.126  1.00  0.00     0.710 C  
HETATM    2  S   UNL     1      -8.954  13.126  67.325  1.00  0.00    -0.224 SA 
HETATM    3  C   UNL     1      -8.931  11.334  67.069  1.00  0.00    -0.154 C  
HETATM    4  C   UNL     1      -7.797  10.609  67.786  1.00  0.00    -0.108 C  
HETATM    5  C   UNL     1      -8.230  14.251  69.902  1.00  0.00     0.898 C  
HETATM    6  C   UNL     1      -7.181  11.079  68.913  1.00  0.00    -0.103 C  
HETATM    7  N   UNL     1      -7.563  12.290  69.434  1.00  0.00     0.329 N  
HETATM    8  C   UNL     1      -6.059  10.269  69.553  1.00  0.00    -0.045 C  
HETATM    9  O   UNL     1      -5.679   9.191  69.120  1.00  0.00    -0.036 OA 
HETATM   10  O   UNL     1      -5.508  10.735  70.684  1.00  0.00    -0.084 OA 
HETATM   11  O   UNL     1      -6.246  13.054  71.177  1.00  0.00    -0.050 OA 
HETATM   12  C   UNL     1      -7.138  13.171  70.365  1.00  0.00     1.581 C  
ENDROOT
BRANCH   4  13
HETATM   13  C   UNL     1      -7.396   9.344  67.021  1.00  0.00    -0.087 C  
BRANCH  13  14
HETATM   14  S   UNL     1      -6.304   9.745  65.627  1.00  0.00    -0.079 SA 
BRANCH  14  15
HETATM   15  C   UNL     1      -7.429   9.636  64.320  1.00  0.00    -0.125 A  
HETATM   16  N   UNL     1      -8.278  10.567  63.952  1.00  0.00    -0.113 NA 
HETATM   17  C   UNL     1      -6.928   7.279  63.505  1.00  0.00    -0.062 C  
HETATM   18  N   UNL     1      -9.008  10.023  62.920  1.00  0.00    -0.238 NA 
HETATM   19  N   UNL     1      -7.615   8.539  63.527  1.00  0.00    -0.120 NA 
HETATM   20  N   UNL     1      -8.608   8.787  62.652  1.00  0.00    -0.188 NA 
ENDBRANCH  14  15
ENDBRANCH  13  14
ENDBRANCH   4  13
BRANCH   5  21
HETATM   21  N   UNL     1      -7.793  15.357  69.000  1.00  0.00    -0.176 N  
HETATM   22  O   UNL     1      -9.628  16.671  69.245  1.00  0.00    -0.238 OA 
HETATM   23  H   UNL     1      -6.880  15.266  68.556  1.00  0.00     0.000 HD 
HETATM   24  C   UNL     1      -8.525  16.494  68.717  1.00  0.00    -0.248 C  
BRANCH  24  25
HETATM   25  C   UNL     1      -7.862  17.522  67.729  1.00  0.00    -0.207 C  
HETATM   26  S   UNL     1      -7.063  16.767  66.256  1.00  0.00     0.104 SA 
HETATM   27  C   UNL     1      -7.599  18.354  65.720  1.00  0.00    -0.037 C  
HETATM   28  C   UNL     1      -7.066  19.245  64.849  1.00  0.00     0.530 C  
HETATM   29  S   UNL     1      -9.095  18.319  66.634  1.00  0.00    -0.286 SA 
HETATM   30  O   UNL     1      -7.141  21.376  63.745  1.00  0.00     0.115 OA 
HETATM   31  C   UNL     1      -7.775  20.534  64.597  1.00  0.00     1.089 C  
HETATM   32  O   UNL     1      -8.848  20.854  65.082  1.00  0.00     1.049 OA 
BRANCH  28  33
HETATM   33  C   UNL     1      -5.760  18.973  64.186  1.00  0.00    -0.242 C  
HETATM   34  O   UNL     1      -5.181  17.905  64.387  1.00  0.00     0.206 OA 
HETATM   35  N   UNL     1      -5.170  19.908  63.405  1.00  0.00    -0.202 N  
HETATM   36  H1  UNL     1      -4.276  19.722  62.951  1.00  0.00     0.000 HD 
HETATM   37  H2  UNL     1      -5.627  20.811  63.268  1.00  0.00     0.000 HD 
ENDBRANCH  28  33
ENDBRANCH  24  25
ENDBRANCH   5  21
BRANCH   5  38
HETATM   38  O   UNL     1      -9.073  14.738  70.982  1.00  0.00     1.962 OA 
HETATM   39  C   UNL     1     -10.473  14.512  70.822  1.00  0.00     0.962 C  
ENDBRANCH   5  38
TORSDOF 7
ENDMDL
MODEL      169
REMARK 921   NORMALIZED FREE ENERGY PREDICTED BY IDOCK:    7.23 KCAL/MOL
REMARK 922        TOTAL FREE ENERGY PREDICTED BY IDOCK:    8.73 KCAL/MOL
REMARK 923 INTER-LIGAND FREE ENERGY PREDICTED BY IDOCK:    8.61 KCAL/MOL
REMARK 924 INTRA-LIGAND FREE ENERGY PREDICTED BY IDOCK:    0.13 KCAL/MOL
REMARK 927      BINDING AFFINITY PREDICTED BY RF-SCORE:    0.00 PKD
ROOT
HETATM    1  C   UNL     1     -10.524  12.595  70.382  1.00  0.00     2.929 C  
HETATM    2  S   UNL     1      -8.777  12.812  69.951  1.00  0.00     3.434 SA 
HETATM    3  C   UNL     1      -8.899  14.618  69.910  1.00  0.00     0.633 C  
HETATM    4  C   UNL     1     -10.065  15.152  69.085  1.00  0.00    -0.245 C  
HETATM    5  C   UNL     1     -11.174  11.177  70.035  1.00  0.00    -0.181 C  
HETATM    6  C   UNL     1     -11.213  14.450  68.839  1.00  0.00    -0.262 C  
HETATM    7  N   UNL     1     -11.337  13.171  69.323  1.00  0.00    -0.268 N  
HETATM    8  C   UNL     1     -12.320  15.082  68.003  1.00  0.00     0.343 C  
HETATM    9  O   UNL     1     -12.250  16.214  67.543  1.00  0.00     0.772 OA 
HETATM   10  O   UNL     1     -13.451  14.386  67.819  1.00  0.00     2.985 OA 
HETATM   11  O   UNL     1     -13.219  12.038  68.595  1.00  0.00     2.081 OA 
HETATM   12  C   UNL     1     -12.162  12.111  69.182  1.00  0.00    -0.032 C  
ENDROOT
BRANCH   4  13
HETATM   13  C   UNL     1      -9.731  16.531  68.507  1.00  0.00    -0.239 C  
BRANCH  13  14
HETATM   14  S   UNL     1      -8.903  16.379  66.899  1.00  0.00    -0.225 SA 
BRANCH  14  15
HETATM   15  C   UNL     1      -7.286  16.788  67.352  1.00  0.00    -0.160 A  
HETATM   16  N   UNL     1      -6.791  18.002  67.437  1.00  0.00    -0.187 NA 
HETATM   17  C   UNL     1      -6.327  14.459  67.708  1.00  0.00    -0.152 C  
HETATM   18  N   UNL     1      -5.464  17.844  67.766  1.00  0.00    -0.143 NA 
HETATM   19  N   UNL     1      -6.295  15.893  67.637  1.00  0.00    -0.151 NA 
HETATM   20  N   UNL     1      -5.153  16.561  67.893  1.00  0.00    -0.107 NA 
ENDBRANCH  14  15
ENDBRANCH  13  14
ENDBRANCH   4  13
BRANCH   5  21
HETATM   21  N   UNL     1     -10.256  10.259  69.300  1.00  0.00    -0.214 N  
HETATM   22  O   UNL     1     -10.445  11.235  67.259  1.00  0.00    -0.197 OA 
HETATM   23  H   UNL     1      -9.813   9.514  69.835  1.00  0.00     0.000 HD 
HETATM   24  C   UNL     1      -9.958  10.337  67.953  1.00  0.00    -0.164 C  
BRANCH  24  25
HETATM   25  C   UNL     1      -8.965   9.252  67.396  1.00  0.00    -0.124 C  
HETATM   26  S   UNL     1      -9.774   7.785  66.640  1.00  0.00    -0.207 SA 
HETATM   27  C   UNL     1      -8.250   7.958  65.780  1.00  0.00    -0.130 C  
HETATM   28  C   UNL     1      -7.392   7.046  65.262  1.00  0.00    -0.077 C  
HETATM   29  S   UNL     1      -8.294   9.711  65.754  1.00  0.00    -0.132 SA 
HETATM   30  O   UNL     1      -5.340   6.527  64.128  1.00  0.00    -0.024 OA 
HETATM   31  C   UNL     1      -6.155   7.516  64.572  1.00  0.00    -0.038 C  
HETATM   32  O   UNL     1      -5.854   8.683  64.383  1.00  0.00    -0.063 OA 
BRANCH  28  33
HETATM   33  C   UNL     1      -7.646   5.586  65.421  1.00  0.00    -0.079 C  
HETATM   34  O   UNL     1      -8.723   5.109  65.063  1.00  0.00    -0.148 OA 
HETATM   35  N   UNL     1      -6.727   4.782  66.005  1.00  0.00    -0.048 N  
HETATM   36  H1  UNL     1      -6.900   3.783  66.114  1.00  0.00     0.000 HD 
HETATM   37  H2  UNL     1      -5.849   5.181  66.340  1.00  0.00     0.000 HD 
ENDBRANCH  28  33
ENDBRANCH  24  25
ENDBRANCH   5  21
BRANCH   5  38
HETATM   38  O   UNL     1     -11.816  10.512  71.158  1.00  0.00    -0.346 OA 
HETATM   39  C   UNL     1     -12.963   9.726  70.835  1.00  0.00    -0.228 C  
ENDBRANCH   5  38
TORSDOF 7
ENDMDL
MODEL      170
REMARK 921   NORMALIZED FREE ENERGY PREDICTED BY IDOCK:    7.68 KCAL/MOL
REMARK 922        TOTAL FREE ENERGY PREDICTED BY IDOCK:    9.37 KCAL/MOL
REMARK 923 INTER-LIGAND FREE ENERGY PREDICTED BY IDOCK:    8.82 KCAL/MOL
REMARK 924 INTRA-LIGAND FREE ENERGY PREDICTED BY IDOCK:    0.55 KCAL/MOL
REMARK 927      BINDING AFFINITY PREDICTED BY RF-SCORE:    0.00 PKD
ROOT
HETATM    1  C   UNL     1      -8.752  13.279  69.572  1.00  0.00     1.454 C  
HETATM    2  S   UNL     1      -9.018  13.361  67.780  1.00  0.00    -0.218 SA 
HETATM    3  C   UNL     1      -9.110  11.562  67.603  1.00  0.00    -0.168 C  
HETATM    4  C   UNL     1      -7.970  10.803  68.272  1.00  0.00    -0.118 C  
HETATM    5  C   UNL     1      -8.054  14.547  70.249  1.00  0.00     1.187 C  
HETATM    6  C   UNL     1      -7.251  11.283  69.333  1.00  0.00    -0.063 C  
HETATM    7  N   UNL     1      -7.529  12.534  69.824  1.00  0.00     0.796 N  
HETATM    8  C   UNL     1      -6.132  10.437  69.930  1.00  0.00    -0.068 C  
HETATM    9  O   UNL     1      -5.842   9.322  69.521  1.00  0.00    -0.034 OA 
HETATM   10  O   UNL     1      -5.478  10.916  70.999  1.00  0.00    -0.141 OA 
HETATM   11  O   UNL     1      -6.053  13.292  71.438  1.00  0.00    -0.185 OA 
HETATM   12  C   UNL     1      -6.993  13.426  70.684  1.00  0.00     1.564 C  
ENDROOT
BRANCH   4  13
HETATM   13  C   UNL     1      -7.692   9.487  67.540  1.00  0.00    -0.095 C  
BRANCH  13  14
HETATM   14  S   UNL     1      -9.229   8.762  66.900  1.00  0.00    -0.166 SA 
BRANCH  14  15
HETATM   15  C   UNL     1      -9.473   7.502  68.058  1.00  0.00    -0.142 A  
HETATM   16  N   UNL     1      -9.915   7.655  69.285  1.00  0.00    -0.176 NA 
HETATM   17  C   UNL     1      -8.710   5.496  66.691  1.00  0.00    -0.116 C  
HETATM   18  N   UNL     1      -9.888   6.402  69.853  1.00  0.00    -0.166 NA 
HETATM   19  N   UNL     1      -9.190   6.180  67.859  1.00  0.00    -0.117 NA 
HETATM   20  N   UNL     1      -9.449   5.496  68.990  1.00  0.00    -0.124 NA 
ENDBRANCH  14  15
ENDBRANCH  13  14
ENDBRANCH   4  13
BRANCH   5  21
HETATM   21  N   UNL     1      -7.624  15.589  69.271  1.00  0.00    -0.205 N  
HETATM   22  O   UNL     1      -9.460  16.912  69.431  1.00  0.00    -0.108 OA 
HETATM   23  H   UNL     1      -6.712  15.469  68.832  1.00  0.00     0.000 HD 
HETATM   24  C   UNL     1      -8.359  16.701  68.912  1.00  0.00    -0.230 C  
BRANCH  24  25
HETATM   25  C   UNL     1      -7.702  17.660  67.854  1.00  0.00    -0.216 C  
HETATM   26  S   UNL     1      -7.069  16.821  66.345  1.00  0.00    -0.045 SA 
HETATM   27  C   UNL     1      -7.532  18.432  65.810  1.00  0.00    -0.092 C  
HETATM   28  C   UNL     1      -7.005  19.265  64.881  1.00  0.00     0.339 C  
HETATM   29  S   UNL     1      -8.955  18.521  66.832  1.00  0.00    -0.288 SA 
HETATM   30  O   UNL     1      -7.014  21.374  63.733  1.00  0.00    -0.001 OA 
HETATM   31  C   UNL     1      -7.640  20.596  64.650  1.00  0.00     0.899 C  
HETATM   32  O   UNL     1      -8.649  21.001  65.203  1.00  0.00     1.271 OA 
BRANCH  28  33
HETATM   33  C   UNL     1      -5.774  18.888  64.131  1.00  0.00    -0.172 C  
HETATM   34  O   UNL     1      -5.309  17.753  64.247  1.00  0.00     0.433 OA 
HETATM   35  N   UNL     1      -5.126  19.794  63.362  1.00  0.00    -0.184 N  
HETATM   36  H1  UNL     1      -4.283  19.535  62.848  1.00  0.00     0.000 HD 
HETATM   37  H2  UNL     1      -5.484  20.746  63.295  1.00  0.00     0.000 HD 
ENDBRANCH  28  33
ENDBRANCH  24  25
ENDBRANCH   5  21
BRANCH   5  38
HETATM   38  O   UNL     1      -8.792  15.125  71.362  1.00  0.00     2.599 OA 
HETATM   39  C   UNL     1     -10.183  14.813  71.408  1.00  0.00     1.911 C  
ENDBRANCH   5  38
TORSDOF 7
ENDMDL
MODEL      171
REMARK 921   NORMALIZED FREE ENERGY PREDICTED BY IDOCK:    7.99 KCAL/MOL
REMARK 922        TOTAL FREE ENERGY PREDICTED BY IDOCK:    9.80 KCAL/MOL
REMARK 923 INTER-LIGAND FREE ENERGY PREDICTED BY IDOCK:    8.34 KCAL/MOL
REMARK 924 INTRA-LIGAND FREE ENERGY PREDICTED BY IDOCK:    1.46 KCAL/MOL
REMARK 927      BINDING AFFINITY PREDICTED BY RF-SCORE:    0.00 PKD
ROOT
HETATM    1  C   UNL     1     -11.778   9.594  69.536  1.00  0.00     0.239 C  
HETATM    2  S   UNL     1     -11.248   9.800  67.814  1.00  0.00     0.283 SA 
HETATM    3  C   UNL     1     -11.319   8.025  67.466  1.00  0.00     0.972 C  
HETATM    4  C   UNL     1     -10.603   7.154  68.491  1.00  0.00    -0.219 C  
HETATM    5  C   UNL     1     -11.392  10.770  70.547  1.00  0.00    -0.199 C  
HETATM    6  C   UNL     1     -10.390   7.519  69.792  1.00  0.00    -0.221 C  
HETATM    7  N   UNL     1     -10.808   8.755  70.221  1.00  0.00    -0.230 N  
HETATM    8  C   UNL     1      -9.665   6.566  70.735  1.00  0.00    -0.179 C  
HETATM    9  O   UNL     1      -9.268   5.460  70.397  1.00  0.00    -0.146 OA 
HETATM   10  O   UNL     1      -9.515   6.935  72.016  1.00  0.00    -0.142 OA 
HETATM   11  O   UNL     1     -10.138   9.313  72.365  1.00  0.00     0.156 OA 
HETATM   12  C   UNL     1     -10.659   9.556  71.298  1.00  0.00    -0.288 C  
ENDROOT
BRANCH   4  13
HETATM   13  C   UNL     1     -10.085   5.868  67.839  1.00  0.00    -0.162 C  
BRANCH  13  14
HETATM   14  S   UNL     1     -11.394   5.050  66.883  1.00  0.00     2.442 SA 
BRANCH  14  15
HETATM   15  C   UNL     1     -10.554   3.627  66.376  1.00  0.00     1.615 A  
HETATM   16  N   UNL     1     -10.931   2.805  65.424  1.00  0.00     2.374 NA 
HETATM   17  C   UNL     1      -8.586   3.682  67.987  1.00  0.00    -0.098 C  
HETATM   18  N   UNL     1     -10.001   1.791  65.413  1.00  0.00     0.564 NA 
HETATM   19  N   UNL     1      -9.406   3.145  66.938  1.00  0.00    -0.167 NA 
HETATM   20  N   UNL     1      -9.065   1.991  66.331  1.00  0.00    -0.087 NA 
ENDBRANCH  14  15
ENDBRANCH  13  14
ENDBRANCH   4  13
BRANCH   5  21
HETATM   21  N   UNL     1     -10.548  11.836  69.934  1.00  0.00    -0.089 N  
HETATM   22  O   UNL     1      -8.576  10.716  69.996  1.00  0.00     0.251 OA 
HETATM   23  H   UNL     1     -11.013  12.701  69.660  1.00  0.00     0.000 HD 
HETATM   24  C   UNL     1      -9.189  11.749  69.708  1.00  0.00     1.838 C  
BRANCH  24  25
HETATM   25  C   UNL     1      -8.509  13.007  69.054  1.00  0.00     0.454 C  
HETATM   26  S   UNL     1      -9.679  14.301  68.478  1.00  0.00    -0.213 SA 
HETATM   27  C   UNL     1      -8.216  15.174  68.916  1.00  0.00    -0.181 C  
HETATM   28  C   UNL     1      -7.626  16.275  68.392  1.00  0.00    -0.166 C  
HETATM   29  S   UNL     1      -7.862  14.172  70.311  1.00  0.00     1.787 SA 
HETATM   30  O   UNL     1      -5.826  17.864  68.379  1.00  0.00    -0.167 OA 
HETATM   31  C   UNL     1      -6.363  16.786  69.001  1.00  0.00    -0.187 C  
HETATM   32  O   UNL     1      -5.817  16.318  69.987  1.00  0.00    -0.183 OA 
BRANCH  28  33
HETATM   33  C   UNL     1      -8.195  16.944  67.188  1.00  0.00    -0.190 C  
HETATM   34  O   UNL     1      -8.357  16.302  66.150  1.00  0.00    -0.320 OA 
HETATM   35  N   UNL     1      -8.488  18.265  67.202  1.00  0.00    -0.246 N  
HETATM   36  H1  UNL     1      -8.877  18.723  66.378  1.00  0.00     0.000 HD 
HETATM   37  H2  UNL     1      -8.317  18.810  68.048  1.00  0.00     0.000 HD 
ENDBRANCH  28  33
ENDBRANCH  24  25
ENDBRANCH   5  21
BRANCH   5  38
HETATM   38  O   UNL     1     -12.514  11.328  71.286  1.00  0.00    -0.368 OA 
HETATM   39  C   UNL     1     -13.127  10.452  72.232  1.00  0.00    -0.185 C  
ENDBRANCH   5  38
TORSDOF 7
ENDMDL
MODEL      172
REMARK 921   NORMALIZED FREE ENERGY PREDICTED BY IDOCK:   10.57 KCAL/MOL
REMARK 922        TOTAL FREE ENERGY PREDICTED BY IDOCK:   13.45 KCAL/MOL
REMARK 923 INTER-LIGAND FREE ENERGY PREDICTED BY IDOCK:   -0.59 KCAL/MOL
REMARK 924 INTRA-LIGAND FREE ENERGY PREDICTED BY IDOCK:   14.04 KCAL/MOL
REMARK 927      BINDING AFFINITY PREDICTED BY RF-SCORE:    0.00 PKD
ROOT
HETATM    1  C   UNL     1      -9.027   6.311  68.016  1.00  0.00    -0.114 C  
HETATM    2  S   UNL     1      -8.898   7.451  66.612  1.00  0.00    -0.149 SA 
HETATM    3  C   UNL     1      -8.543   6.127  65.430  1.00  0.00    -0.106 C  
HETATM    4  C   UNL     1      -7.440   5.170  65.868  1.00  0.00    -0.082 C  
HETATM    5  C   UNL     1      -8.799   6.938  69.468  1.00  0.00    -0.133 C  
HETATM    6  C   UNL     1      -7.102   4.939  67.174  1.00  0.00    -0.066 C  
HETATM    7  N   UNL     1      -7.755   5.622  68.169  1.00  0.00    -0.088 N  
HETATM    8  C   UNL     1      -5.983   3.956  67.501  1.00  0.00    -0.024 C  
HETATM    9  O   UNL     1      -5.367   3.333  66.647  1.00  0.00    -0.011 OA 
HETATM   10  O   UNL     1      -5.707   3.718  68.791  1.00  0.00    -0.020 OA 
HETATM   11  O   UNL     1      -6.884   5.310  70.290  1.00  0.00    -0.045 OA 
HETATM   12  C   UNL     1      -7.637   5.832  69.498  1.00  0.00    -0.087 C  
ENDROOT
BRANCH   4  13
HETATM   13  C   UNL     1      -6.719   4.583  64.651  1.00  0.00    -0.045 C  
BRANCH  13  14
HETATM   14  S   UNL     1      -5.163   5.463  64.330  1.00  0.00    -0.010 SA 
BRANCH  14  15
HETATM   15  C   UNL     1      -5.779   6.924  63.643  1.00  0.00    -0.036 A  
HETATM   16  N   UNL     1      -5.294   7.551  62.596  1.00  0.00    -0.045 NA 
HETATM   17  C   UNL     1      -7.709   7.379  65.237  1.00  0.00    -0.113 C  
HETATM   18  N   UNL     1      -6.055   8.688  62.452  1.00  0.00    -0.091 NA 
HETATM   19  N   UNL     1      -6.831   7.646  64.132  1.00  0.00    -0.055 NA 
HETATM   20  N   UNL     1      -6.997   8.753  63.383  1.00  0.00    -0.089 NA 
ENDBRANCH  14  15
ENDBRANCH  13  14
ENDBRANCH   4  13
BRANCH   5  21
HETATM   21  N   UNL     1      -8.406   8.377  69.445  1.00  0.00    -0.119 N  
HETATM   22  O   UNL     1     -10.298   9.179  68.482  1.00  0.00    -0.197 OA 
HETATM   23  H   UNL     1      -7.495   8.620  69.834  1.00  0.00     0.000 HD 
HETATM   24  C   UNL     1      -9.175   9.408  68.942  1.00  0.00    -0.140 C  
BRANCH  24  25
HETATM   25  C   UNL     1      -8.548  10.848  69.021  1.00  0.00    -0.103 C  
HETATM   26  S   UNL     1      -7.613  11.197  70.565  1.00  0.00     2.642 SA 
HETATM   27  C   UNL     1      -6.836  12.180  69.331  1.00  0.00    -0.010 C  
HETATM   28  C   UNL     1      -6.261  13.405  69.377  1.00  0.00    -0.109 C  
HETATM   29  S   UNL     1      -6.990  10.974  68.066  1.00  0.00    -0.070 SA 
HETATM   30  O   UNL     1      -5.160  15.231  68.272  1.00  0.00    -0.094 OA 
HETATM   31  C   UNL     1      -5.672  13.983  68.133  1.00  0.00    -0.128 C  
HETATM   32  O   UNL     1      -5.616  13.420  67.053  1.00  0.00    -0.187 OA 
BRANCH  28  33
HETATM   33  C   UNL     1      -6.259  14.198  70.639  1.00  0.00    -0.123 C  
HETATM   34  O   UNL     1      -6.595  15.383  70.618  1.00  0.00     0.143 OA 
HETATM   35  N   UNL     1      -5.842  13.648  71.803  1.00  0.00    -0.232 N  
HETATM   36  H1  UNL     1      -5.841  14.191  72.667  1.00  0.00     0.000 HD 
HETATM   37  H2  UNL     1      -5.525  12.679  71.817  1.00  0.00     0.000 HD 
ENDBRANCH  28  33
ENDBRANCH  24  25
ENDBRANCH   5  21
BRANCH   5  38
HETATM   38  O   UNL     1      -9.875   6.688  70.413  1.00  0.00    -0.175 OA 
HETATM   39  C   UNL     1     -11.197   6.866  69.905  1.00  0.00    -0.285 C  
ENDBRANCH   5  38
TORSDOF 7
ENDMDL
MODEL      173
REMARK 921   NORMALIZED FREE ENERGY PREDICTED BY IDOCK:   12.00 KCAL/MOL
REMARK 922        TOTAL FREE ENERGY PREDICTED BY IDOCK:   15.46 KCAL/MOL
REMARK 923 INTER-LIGAND FREE ENERGY PREDICTED BY IDOCK:   14.34 KCAL/MOL
REMARK 924 INTRA-LIGAND FREE ENERGY PREDICTED BY IDOCK:    1.12 KCAL/MOL
REMARK 927      BINDING AFFINITY PREDICTED BY RF-SCORE:    0.00 PKD
ROOT
HETATM    1  C   UNL     1      -8.114  13.212  70.382  1.00  0.00     4.169 C  
HETATM    2  S   UNL     1      -6.865  13.617  69.132  1.00  0.00    -0.062 SA 
HETATM    3  C   UNL     1      -6.958  15.395  69.460  1.00  0.00    -0.188 C  
HETATM    4  C   UNL     1      -8.374  15.959  69.480  1.00  0.00    -0.077 C  
HETATM    5  C   UNL     1      -8.874  11.817  70.205  1.00  0.00     4.016 C  
HETATM    6  C   UNL     1      -9.488  15.219  69.770  1.00  0.00    -0.097 C  
HETATM    7  N   UNL     1      -9.357  13.877  70.028  1.00  0.00     1.726 N  
HETATM    8  C   UNL     1     -10.859  15.887  69.766  1.00  0.00    -0.328 C  
HETATM    9  O   UNL     1     -11.026  17.076  69.533  1.00  0.00    -0.183 OA 
HETATM   10  O   UNL     1     -11.925  15.144  70.099  1.00  0.00    -0.290 OA 
HETATM   11  O   UNL     1     -11.356  12.731  70.236  1.00  0.00     0.068 OA 
HETATM   12  C   UNL     1     -10.148  12.793  70.174  1.00  0.00     2.839 C  
ENDROOT
BRANCH   4  13
HETATM   13  C   UNL     1      -8.377  17.429  69.050  1.00  0.00    -0.066 C  
BRANCH  13  14
HETATM   14  S   UNL     1      -7.879  17.599  67.312  1.00  0.00    -0.210 SA 
BRANCH  14  15
HETATM   15  C   UNL     1      -8.517  19.168  66.967  1.00  0.00    -0.285 A  
HETATM   16  N   UNL     1      -9.613  19.425  66.292  1.00  0.00    -0.367 NA 
HETATM   17  C   UNL     1      -6.743  20.616  68.076  1.00  0.00    -0.288 C  
HETATM   18  N   UNL     1      -9.692  20.797  66.212  1.00  0.00     0.094 NA 
HETATM   19  N   UNL     1      -7.932  20.353  67.315  1.00  0.00    -0.330 NA 
HETATM   20  N   UNL     1      -8.672  21.371  66.837  1.00  0.00     0.599 NA 
ENDBRANCH  14  15
ENDBRANCH  13  14
ENDBRANCH   4  13
BRANCH   5  21
HETATM   21  N   UNL     1      -8.510  11.088  68.956  1.00  0.00    -0.317 N  
HETATM   22  O   UNL     1     -10.366  11.616  67.761  1.00  0.00    -0.177 OA 
HETATM   23  H   UNL     1      -7.615  10.599  68.944  1.00  0.00     0.000 HD 
HETATM   24  C   UNL     1      -9.284  11.022  67.814  1.00  0.00    -0.155 C  
BRANCH  24  25
HETATM   25  C   UNL     1      -8.694  10.186  66.620  1.00  0.00    -0.126 C  
HETATM   26  S   UNL     1      -7.255  10.959  65.777  1.00  0.00     0.092 SA 
HETATM   27  C   UNL     1      -7.009   9.227  65.598  1.00  0.00    -0.082 C  
HETATM   28  C   UNL     1      -6.476   8.485  64.598  1.00  0.00    -0.066 C  
HETATM   29  S   UNL     1      -7.607   8.830  67.199  1.00  0.00    -0.089 SA 
HETATM   30  O   UNL     1      -5.895   6.345  63.677  1.00  0.00    -0.022 OA 
HETATM   31  C   UNL     1      -6.403   7.002  64.749  1.00  0.00    -0.037 C  
HETATM   32  O   UNL     1      -6.747   6.376  65.738  1.00  0.00    -0.046 OA 
BRANCH  28  33
HETATM   33  C   UNL     1      -6.015   9.128  63.336  1.00  0.00    -0.088 C  
HETATM   34  O   UNL     1      -5.735   8.432  62.360  1.00  0.00    -0.077 OA 
HETATM   35  N   UNL     1      -5.847  10.470  63.261  1.00  0.00    -0.252 N  
HETATM   36  H1  UNL     1      -5.532  10.910  62.397  1.00  0.00     0.000 HD 
HETATM   37  H2  UNL     1      -6.039  11.047  64.080  1.00  0.00     0.000 HD 
ENDBRANCH  28  33
ENDBRANCH  24  25
ENDBRANCH   5  21
BRANCH   5  38
HETATM   38  O   UNL     1      -8.827  10.947  71.370  1.00  0.00     4.701 OA 
HETATM   39  C   UNL     1      -8.463   9.592  71.113  1.00  0.00     0.338 C  
ENDBRANCH   5  38
TORSDOF 7
ENDMDL
MODEL      174
REMARK 921   NORMALIZED FREE ENERGY PREDICTED BY IDOCK:   12.11 KCAL/MOL
REMARK 922        TOTAL FREE ENERGY PREDICTED BY IDOCK:   15.62 KCAL/MOL
REMARK 923 INTER-LIGAND FREE ENERGY PREDICTED BY IDOCK:   12.86 KCAL/MOL
REMARK 924 INTRA-LIGAND FREE ENERGY PREDICTED BY IDOCK:    2.75 KCAL/MOL
REMARK 927      BINDING AFFINITY PREDICTED BY RF-SCORE:    0.00 PKD
ROOT
HETATM    1  C   UNL     1     -11.194   9.548  65.998  1.00  0.00     1.872 C  
HETATM    2  S   UNL     1      -9.400   9.437  65.761  1.00  0.00    -0.255 SA 
HETATM    3  C   UNL     1      -9.387   7.631  65.878  1.00  0.00     0.069 C  
HETATM    4  C   UNL     1     -10.135   7.073  67.084  1.00  0.00    -0.283 C  
HETATM    5  C   UNL     1     -11.759  10.944  66.533  1.00  0.00     0.994 C  
HETATM    6  C   UNL     1     -11.154   7.725  67.721  1.00  0.00     0.257 C  
HETATM    7  N   UNL     1     -11.526   8.975  67.292  1.00  0.00     1.166 N  
HETATM    8  C   UNL     1     -11.837   7.071  68.918  1.00  0.00     0.907 C  
HETATM    9  O   UNL     1     -11.535   5.965  69.341  1.00  0.00    -0.265 OA 
HETATM   10  O   UNL     1     -12.864   7.717  69.491  1.00  0.00     2.306 OA 
HETATM   11  O   UNL     1     -13.078  10.040  68.639  1.00  0.00     2.688 OA 
HETATM   12  C   UNL     1     -12.306   9.997  67.706  1.00  0.00     4.058 C  
ENDROOT
BRANCH   4  13
HETATM   13  C   UNL     1      -9.528   5.737  67.525  1.00  0.00    -0.112 C  
BRANCH  13  14
HETATM   14  S   UNL     1      -7.766   5.921  67.921  1.00  0.00    -0.101 SA 
BRANCH  14  15
HETATM   15  C   UNL     1      -7.070   5.559  66.382  1.00  0.00    -0.069 A  
HETATM   16  N   UNL     1      -6.062   6.186  65.823  1.00  0.00    -0.032 NA 
HETATM   17  C   UNL     1      -8.565   3.627  65.669  1.00  0.00    -0.113 C  
HETATM   18  N   UNL     1      -5.895   5.604  64.587  1.00  0.00    -0.021 NA 
HETATM   19  N   UNL     1      -7.514   4.595  65.521  1.00  0.00    -0.080 NA 
HETATM   20  N   UNL     1      -6.775   4.629  64.396  1.00  0.00    -0.043 NA 
ENDBRANCH  14  15
ENDBRANCH  13  14
ENDBRANCH   4  13
BRANCH   5  21
HETATM   21  N   UNL     1     -10.694  11.936  66.861  1.00  0.00    -0.236 N  
HETATM   22  O   UNL     1     -11.131  13.397  65.180  1.00  0.00    -0.290 OA 
HETATM   23  H   UNL     1     -10.108  11.742  67.673  1.00  0.00     0.000 HD 
HETATM   24  C   UNL     1     -10.437  13.096  66.157  1.00  0.00    -0.281 C  
BRANCH  24  25
HETATM   25  C   UNL     1      -9.256  13.987  66.689  1.00  0.00    -0.244 C  
HETATM   26  S   UNL     1      -9.133  15.647  65.909  1.00  0.00    -0.109 SA 
HETATM   27  C   UNL     1      -8.498  15.861  67.535  1.00  0.00    -0.165 C  
HETATM   28  C   UNL     1      -7.506  16.642  68.026  1.00  0.00    -0.170 C  
HETATM   29  S   UNL     1      -9.661  14.785  68.288  1.00  0.00    -0.221 SA 
HETATM   30  O   UNL     1      -6.163  17.385  69.872  1.00  0.00    -0.232 OA 
HETATM   31  C   UNL     1      -7.200  16.602  69.486  1.00  0.00    -0.016 C  
HETATM   32  O   UNL     1      -7.807  15.945  70.316  1.00  0.00     0.631 OA 
BRANCH  28  33
HETATM   33  C   UNL     1      -6.690  17.496  67.118  1.00  0.00    -0.168 C  
HETATM   34  O   UNL     1      -7.246  18.206  66.279  1.00  0.00    -0.226 OA 
HETATM   35  N   UNL     1      -5.337  17.463  67.165  1.00  0.00    -0.128 N  
HETATM   36  H1  UNL     1      -4.778  18.047  66.544  1.00  0.00     0.000 HD 
HETATM   37  H2  UNL     1      -4.871  16.846  67.830  1.00  0.00     0.000 HD 
ENDBRANCH  28  33
ENDBRANCH  24  25
ENDBRANCH   5  21
BRANCH   5  38
HETATM   38  O   UNL     1     -12.807  11.530  65.712  1.00  0.00     1.889 OA 
HETATM   39  C   UNL     1     -12.436  11.844  64.370  1.00  0.00    -0.114 C  
ENDBRANCH   5  38
TORSDOF 7
ENDMDL
MODEL      175
REMARK 921   NORMALIZED FREE ENERGY PREDICTED BY IDOCK:   16.72 KCAL/MOL
REMARK 922        TOTAL FREE ENERGY PREDICTED BY IDOCK:   22.10 KCAL/MOL
REMARK 923 INTER-LIGAND FREE ENERGY PREDICTED BY IDOCK:    7.98 KCAL/MOL
REMARK 924 INTRA-LIGAND FREE ENERGY PREDICTED BY IDOCK:   14.12 KCAL/MOL
REMARK 927      BINDING AFFINITY PREDICTED BY RF-SCORE:    0.00 PKD
ROOT
HETATM    1  C   UNL     1     -11.176  16.482  67.936  1.00  0.00    -0.155 C  
HETATM    2  S   UNL     1     -10.669  15.197  69.110  1.00  0.00    -0.265 SA 
HETATM    3  C   UNL     1     -10.088  16.395  70.337  1.00  0.00     0.768 C  
HETATM    4  C   UNL     1      -9.161  17.468  69.779  1.00  0.00     1.089 C  
HETATM    5  C   UNL     1     -11.283  16.045  66.402  1.00  0.00     0.158 C  
HETATM    6  C   UNL     1      -9.157  17.873  68.472  1.00  0.00    -0.285 C  
HETATM    7  N   UNL     1     -10.006  17.268  67.578  1.00  0.00    -0.286 N  
HETATM    8  C   UNL     1      -8.188  18.960  68.021  1.00  0.00    -0.293 C  
HETATM    9  O   UNL     1      -7.409  19.520  68.779  1.00  0.00    -0.335 OA 
HETATM   10  O   UNL     1      -8.243  19.366  66.744  1.00  0.00    -0.268 OA 
HETATM   11  O   UNL     1      -9.686  17.884  65.370  1.00  0.00    -0.105 OA 
HETATM   12  C   UNL     1     -10.205  17.223  66.243  1.00  0.00    -0.342 C  
ENDROOT
BRANCH   4  13
HETATM   13  C   UNL     1      -8.189  17.957  70.858  1.00  0.00     6.165 C  
BRANCH  13  14
HETATM   14  S   UNL     1      -6.475  17.549  70.421  1.00  0.00     1.081 SA 
BRANCH  14  15
HETATM   15  C   UNL     1      -6.022  18.993  69.588  1.00  0.00    -0.259 A  
HETATM   16  N   UNL     1      -5.292  19.061  68.499  1.00  0.00    -0.191 NA 
HETATM   17  C   UNL     1      -7.122  20.728  71.089  1.00  0.00     1.927 C  
HETATM   18  N   UNL     1      -5.137  20.402  68.233  1.00  0.00    -0.197 NA 
HETATM   19  N   UNL     1      -6.330  20.264  69.985  1.00  0.00    -0.331 NA 
HETATM   20  N   UNL     1      -5.770  21.143  69.133  1.00  0.00    -0.262 NA 
ENDBRANCH  14  15
ENDBRANCH  13  14
ENDBRANCH   4  13
BRANCH   5  21
HETATM   21  N   UNL     1     -10.842  14.643  66.144  1.00  0.00    -0.314 N  
HETATM   22  O   UNL     1     -12.397  13.610  67.435  1.00  0.00    -0.297 OA 
HETATM   23  H   UNL     1     -10.051  14.510  65.516  1.00  0.00     0.000 HD 
HETATM   24  C   UNL     1     -11.419  13.512  66.687  1.00  0.00    -0.339 C  
BRANCH  24  25
HETATM   25  C   UNL     1     -10.778  12.136  66.275  1.00  0.00    -0.261 C  
HETATM   26  S   UNL     1      -8.966  12.015  66.562  1.00  0.00    -0.160 SA 
HETATM   27  C   UNL     1      -9.565  10.371  66.736  1.00  0.00    -0.171 C  
HETATM   28  C   UNL     1      -9.024   9.170  66.420  1.00  0.00    -0.182 C  
HETATM   29  S   UNL     1     -11.051  10.841  67.542  1.00  0.00    -0.270 SA 
HETATM   30  O   UNL     1      -9.189   6.777  66.307  1.00  0.00    -0.163 OA 
HETATM   31  C   UNL     1      -9.797   7.924  66.700  1.00  0.00    -0.241 C  
HETATM   32  O   UNL     1     -10.887   7.879  67.245  1.00  0.00    -0.272 OA 
BRANCH  28  33
HETATM   33  C   UNL     1      -7.695   9.087  65.752  1.00  0.00    -0.091 C  
HETATM   34  O   UNL     1      -6.807   8.384  66.238  1.00  0.00    -0.070 OA 
HETATM   35  N   UNL     1      -7.429   9.816  64.643  1.00  0.00    -0.128 N  
HETATM   36  H1  UNL     1      -6.519   9.759  64.185  1.00  0.00     0.000 HD 
HETATM   37  H2  UNL     1      -8.147  10.431  64.260  1.00  0.00     0.000 HD 
ENDBRANCH  28  33
ENDBRANCH  24  25
ENDBRANCH   5  21
BRANCH   5  38
HETATM   38  O   UNL     1     -12.565  16.331  65.777  1.00  0.00     2.395 OA 
HETATM   39  C   UNL     1     -12.651  16.036  64.383  1.00  0.00     0.933 C  
ENDBRANCH   5  38
TORSDOF 7
ENDMDL
MODEL      176
REMARK 921   NORMALIZED FREE ENERGY PREDICTED BY IDOCK:   17.64 KCAL/MOL
REMARK 922        TOTAL FREE ENERGY PREDICTED BY IDOCK:   23.41 KCAL/MOL
REMARK 923 INTER-LIGAND FREE ENERGY PREDICTED BY IDOCK:   16.45 KCAL/MOL
REMARK 924 INTRA-LIGAND FREE ENERGY PREDICTED BY IDOCK:    6.96 KCAL/MOL
REMARK 927      BINDING AFFINITY PREDICTED BY RF-SCORE:    0.00 PKD
ROOT
HETATM    1  C   UNL     1      -7.691   4.286  65.088  1.00  0.00    -0.085 C  
HETATM    2  S   UNL     1      -9.484   4.548  65.159  1.00  0.00    -0.146 SA 
HETATM    3  C   UNL     1      -9.532   5.399  63.562  1.00  0.00     0.814 C  
HETATM    4  C   UNL     1      -8.502   6.513  63.411  1.00  0.00     0.281 C  
HETATM    5  C   UNL     1      -6.949   4.048  66.483  1.00  0.00    -0.059 C  
HETATM    6  C   UNL     1      -7.323   6.564  64.102  1.00  0.00    -0.077 C  
HETATM    7  N   UNL     1      -7.037   5.583  65.019  1.00  0.00    -0.060 N  
HETATM    8  C   UNL     1      -6.362   7.725  63.869  1.00  0.00    -0.058 C  
HETATM    9  O   UNL     1      -6.578   8.625  63.070  1.00  0.00    -0.090 OA 
HETATM   10  O   UNL     1      -5.193   7.720  64.528  1.00  0.00    -0.029 OA 
HETATM   11  O   UNL     1      -5.135   5.962  66.282  1.00  0.00    -0.008 OA 
HETATM   12  C   UNL     1      -6.135   5.342  65.994  1.00  0.00    -0.030 C  
ENDROOT
BRANCH   4  13
HETATM   13  C   UNL     1      -9.014   7.595  62.454  1.00  0.00     0.611 C  
BRANCH  13  14
HETATM   14  S   UNL     1      -8.969   9.231  63.240  1.00  0.00     0.085 SA 
BRANCH  14  15
HETATM   15  C   UNL     1      -8.964   8.767  64.905  1.00  0.00    -0.012 A  
HETATM   16  N   UNL     1      -7.914   8.398  65.601  1.00  0.00    -0.109 NA 
HETATM   17  C   UNL     1     -11.443   8.992  65.431  1.00  0.00     6.650 C  
HETATM   18  N   UNL     1      -8.388   8.062  66.848  1.00  0.00    -0.114 NA 
HETATM   19  N   UNL     1     -10.069   8.678  65.704  1.00  0.00     0.404 NA 
HETATM   20  N   UNL     1      -9.702   8.233  66.921  1.00  0.00    -0.204 NA 
ENDBRANCH  14  15
ENDBRANCH  13  14
ENDBRANCH   4  13
BRANCH   5  21
HETATM   21  N   UNL     1      -7.843   4.180  67.669  1.00  0.00    -0.086 N  
HETATM   22  O   UNL     1      -6.502   3.119  69.162  1.00  0.00    -0.029 OA 
HETATM   23  H   UNL     1      -8.729   4.667  67.536  1.00  0.00     0.000 HD 
HETATM   24  C   UNL     1      -7.570   3.696  68.934  1.00  0.00    -0.053 C  
BRANCH  24  25
HETATM   25  C   UNL     1      -8.670   3.949  70.029  1.00  0.00    -0.068 C  
HETATM   26  S   UNL     1     -10.030   5.070  69.509  1.00  0.00    -0.233 SA 
HETATM   27  C   UNL     1     -10.764   3.976  70.674  1.00  0.00     1.392 C  
HETATM   28  C   UNL     1     -11.731   4.158  71.604  1.00  0.00     2.939 C  
HETATM   29  S   UNL     1      -9.868   2.567  70.135  1.00  0.00     0.438 SA 
HETATM   30  O   UNL     1     -13.090   3.301  73.389  1.00  0.00     0.659 OA 
HETATM   31  C   UNL     1     -12.148   3.007  72.459  1.00  0.00     2.098 C  
HETATM   32  O   UNL     1     -11.718   1.869  72.368  1.00  0.00     0.671 OA 
BRANCH  28  33
HETATM   33  C   UNL     1     -12.342   5.500  71.815  1.00  0.00     1.097 C  
HETATM   34  O   UNL     1     -12.113   6.410  71.018  1.00  0.00    -0.300 OA 
HETATM   35  N   UNL     1     -13.105   5.752  72.905  1.00  0.00     0.201 N  
HETATM   36  H1  UNL     1     -13.523   6.671  73.049  1.00  0.00     0.000 HD 
HETATM   37  H2  UNL     1     -13.265   5.013  73.590  1.00  0.00     0.000 HD 
ENDBRANCH  28  33
ENDBRANCH  24  25
ENDBRANCH   5  21
BRANCH   5  38
HETATM   38  O   UNL     1      -6.146   2.836  66.545  1.00  0.00    -0.023 OA 
HETATM   39  C   UNL     1      -6.242   1.974  65.412  1.00  0.00    -0.023 C  
ENDBRANCH   5  38
TORSDOF 7
ENDMDL
MODEL      177
REMARK 921   NORMALIZED FREE ENERGY PREDICTED BY IDOCK:   20.07 KCAL/MOL
REMARK 922        TOTAL FREE ENERGY PREDICTED BY IDOCK:   26.82 KCAL/MOL
REMARK 923 INTER-LIGAND FREE ENERGY PREDICTED BY IDOCK:   21.64 KCAL/MOL
REMARK 924 INTRA-LIGAND FREE ENERGY PREDICTED BY IDOCK:    5.19 KCAL/MOL
REMARK 927      BINDING AFFINITY PREDICTED BY RF-SCORE:    0.00 PKD
ROOT
HETATM    1  C   UNL     1     -11.196   9.319  65.654  1.00  0.00     3.453 C  
HETATM    2  S   UNL     1      -9.411   9.309  65.332  1.00  0.00    -0.140 SA 
HETATM    3  C   UNL     1      -9.341   7.508  65.169  1.00  0.00     0.932 C  
HETATM    4  C   UNL     1     -10.018   6.746  66.302  1.00  0.00     0.032 C  
HETATM    5  C   UNL     1     -11.776  10.596  66.420  1.00  0.00     1.449 C  
HETATM    6  C   UNL     1     -11.027   7.256  67.072  1.00  0.00    -0.173 C  
HETATM    7  N   UNL     1     -11.453   8.543  66.856  1.00  0.00     1.647 N  
HETATM    8  C   UNL     1     -11.637   6.403  68.179  1.00  0.00     0.609 C  
HETATM    9  O   UNL     1     -11.285   5.256  68.414  1.00  0.00     0.478 OA 
HETATM   10  O   UNL     1     -12.656   6.917  68.884  1.00  0.00     2.357 OA 
HETATM   11  O   UNL     1     -12.974   9.334  68.411  1.00  0.00     5.502 OA 
HETATM   12  C   UNL     1     -12.243   9.461  67.453  1.00  0.00     5.759 C  
ENDROOT
BRANCH   4  13
HETATM   13  C   UNL     1      -9.355   5.380  66.507  1.00  0.00    -0.145 C  
BRANCH  13  14
HETATM   14  S   UNL     1      -7.584   5.564  66.866  1.00  0.00    -0.093 SA 
BRANCH  14  15
HETATM   15  C   UNL     1      -7.628   5.598  68.593  1.00  0.00    -0.088 A  
HETATM   16  N   UNL     1      -6.945   6.409  69.368  1.00  0.00    -0.069 NA 
HETATM   17  C   UNL     1      -9.268   3.703  69.028  1.00  0.00    -0.159 C  
HETATM   18  N   UNL     1      -7.243   6.037  70.658  1.00  0.00    -0.078 NA 
HETATM   19  N   UNL     1      -8.349   4.748  69.382  1.00  0.00    -0.076 NA 
HETATM   20  N   UNL     1      -8.101   5.026  70.677  1.00  0.00    -0.092 NA 
ENDBRANCH  14  15
ENDBRANCH  13  14
ENDBRANCH   4  13
BRANCH   5  21
HETATM   21  N   UNL     1     -10.727  11.563  66.856  1.00  0.00    -0.250 N  
HETATM   22  O   UNL     1     -11.026  13.082  65.196  1.00  0.00    -0.285 OA 
HETATM   23  H   UNL     1     -10.203  11.335  67.700  1.00  0.00     0.000 HD 
HETATM   24  C   UNL     1     -10.408  12.741  66.210  1.00  0.00    -0.258 C  
BRANCH  24  25
HETATM   25  C   UNL     1      -9.258  13.599  66.853  1.00  0.00    -0.250 C  
HETATM   26  S   UNL     1      -9.827  15.098  67.752  1.00  0.00    -0.223 SA 
HETATM   27  C   UNL     1      -8.352  14.608  68.574  1.00  0.00    -0.162 C  
HETATM   28  C   UNL     1      -7.363  15.321  69.164  1.00  0.00    -0.172 C  
HETATM   29  S   UNL     1      -8.673  12.889  68.438  1.00  0.00    -0.064 SA 
HETATM   30  O   UNL     1      -5.259  15.403  70.318  1.00  0.00    -0.112 OA 
HETATM   31  C   UNL     1      -6.217  14.600  69.793  1.00  0.00    -0.140 C  
HETATM   32  O   UNL     1      -6.105  13.388  69.869  1.00  0.00    -0.123 OA 
BRANCH  28  33
HETATM   33  C   UNL     1      -7.383  16.811  69.144  1.00  0.00    -0.213 C  
HETATM   34  O   UNL     1      -8.312  17.419  69.677  1.00  0.00     0.481 OA 
HETATM   35  N   UNL     1      -6.418  17.509  68.500  1.00  0.00    -0.180 N  
HETATM   36  H1  UNL     1      -6.432  18.529  68.486  1.00  0.00     0.000 HD 
HETATM   37  H2  UNL     1      -5.668  17.009  68.022  1.00  0.00     0.000 HD 
ENDBRANCH  28  33
ENDBRANCH  24  25
ENDBRANCH   5  21
BRANCH   5  38
HETATM   38  O   UNL     1     -12.876  11.264  65.741  1.00  0.00     2.700 OA 
HETATM   39  C   UNL     1     -12.647  12.628  65.390  1.00  0.00    -0.218 C  
ENDBRANCH   5  38
TORSDOF 7
ENDMDL
MODEL      178
REMARK 921   NORMALIZED FREE ENERGY PREDICTED BY IDOCK:   21.57 KCAL/MOL
REMARK 922        TOTAL FREE ENERGY PREDICTED BY IDOCK:   28.94 KCAL/MOL
REMARK 923 INTER-LIGAND FREE ENERGY PREDICTED BY IDOCK:   29.22 KCAL/MOL
REMARK 924 INTRA-LIGAND FREE ENERGY PREDICTED BY IDOCK:   -0.28 KCAL/MOL
REMARK 927      BINDING AFFINITY PREDICTED BY RF-SCORE:    0.00 PKD
ROOT
HETATM    1  C   UNL     1     -10.186  12.955  71.703  1.00  0.00    10.504 C  
HETATM    2  S   UNL     1      -8.926  13.909  70.815  1.00  0.00     5.679 SA 
HETATM    3  C   UNL     1      -9.570  15.500  71.390  1.00  0.00     2.822 C  
HETATM    4  C   UNL     1     -11.073  15.675  71.205  1.00  0.00    -0.315 C  
HETATM    5  C   UNL     1     -10.482  11.483  71.157  1.00  0.00     4.827 C  
HETATM    6  C   UNL     1     -11.962  14.637  71.140  1.00  0.00    -0.346 C  
HETATM    7  N   UNL     1     -11.496  13.348  71.207  1.00  0.00     1.222 N  
HETATM    8  C   UNL     1     -13.447  14.926  70.958  1.00  0.00    -0.371 C  
HETATM    9  O   UNL     1     -13.907  16.058  70.884  1.00  0.00    -0.032 OA 
HETATM   10  O   UNL     1     -14.297  13.889  70.944  1.00  0.00     0.426 OA 
HETATM   11  O   UNL     1     -13.094  11.720  70.817  1.00  0.00    -0.038 OA 
HETATM   12  C   UNL     1     -11.959  12.093  71.017  1.00  0.00     0.268 C  
ENDROOT
BRANCH   4  13
HETATM   13  C   UNL     1     -11.426  17.154  71.018  1.00  0.00     1.305 C  
BRANCH  13  14
HETATM   14  S   UNL     1     -11.484  17.591  69.257  1.00  0.00     2.005 SA 
BRANCH  14  15
HETATM   15  C   UNL     1     -10.195  18.739  69.187  1.00  0.00    -0.031 A  
HETATM   16  N   UNL     1     -10.291  20.025  69.436  1.00  0.00    -0.114 NA 
HETATM   17  C   UNL     1      -8.288  17.215  68.471  1.00  0.00    -0.262 C  
HETATM   18  N   UNL     1      -9.041  20.548  69.196  1.00  0.00     0.826 NA 
HETATM   19  N   UNL     1      -8.909  18.462  68.816  1.00  0.00    -0.263 NA 
HETATM   20  N   UNL     1      -8.191  19.601  68.821  1.00  0.00    -0.306 NA 
ENDBRANCH  14  15
ENDBRANCH  13  14
ENDBRANCH   4  13
BRANCH   5  21
HETATM   21  N   UNL     1      -9.735  11.142  69.912  1.00  0.00     0.132 N  
HETATM   22  O   UNL     1     -11.529  10.575  68.644  1.00  0.00    -0.266 OA 
HETATM   23  H   UNL     1      -8.721  11.246  69.932  1.00  0.00     0.000 HD 
HETATM   24  C   UNL     1     -10.304  10.696  68.735  1.00  0.00    -0.193 C  
BRANCH  24  25
HETATM   25  C   UNL     1      -9.312  10.393  67.553  1.00  0.00    -0.149 C  
HETATM   26  S   UNL     1      -8.894   8.616  67.336  1.00  0.00    -0.134 SA 
HETATM   27  C   UNL     1      -8.784   9.308  65.724  1.00  0.00    -0.156 C  
HETATM   28  C   UNL     1      -7.964   9.046  64.678  1.00  0.00    -0.128 C  
HETATM   29  S   UNL     1     -10.160  10.376  65.929  1.00  0.00    -0.246 SA 
HETATM   30  O   UNL     1      -7.228   9.514  62.441  1.00  0.00    -0.103 OA 
HETATM   31  C   UNL     1      -8.123   9.820  63.412  1.00  0.00    -0.151 C  
HETATM   32  O   UNL     1      -8.980  10.664  63.206  1.00  0.00    -0.187 OA 
BRANCH  28  33
HETATM   33  C   UNL     1      -6.877   8.034  64.799  1.00  0.00    -0.062 C  
HETATM   34  O   UNL     1      -7.137   6.899  65.199  1.00  0.00    -0.063 OA 
HETATM   35  N   UNL     1      -5.591   8.360  64.525  1.00  0.00    -0.051 N  
HETATM   36  H1  UNL     1      -4.847   7.667  64.607  1.00  0.00     0.000 HD 
HETATM   37  H2  UNL     1      -5.365   9.311  64.232  1.00  0.00     0.000 HD 
ENDBRANCH  28  33
ENDBRANCH  24  25
ENDBRANCH   5  21
BRANCH   5  38
HETATM   38  O   UNL     1     -10.372  10.431  72.157  1.00  0.00     3.032 OA 
HETATM   39  C   UNL     1     -11.372   9.415  72.095  1.00  0.00     0.142 C  
ENDBRANCH   5  38
TORSDOF 7
ENDMDL
MODEL      179
REMARK 921   NORMALIZED FREE ENERGY PREDICTED BY IDOCK:   24.56 KCAL/MOL
REMARK 922        TOTAL FREE ENERGY PREDICTED BY IDOCK:   33.15 KCAL/MOL
REMARK 923 INTER-LIGAND FREE ENERGY PREDICTED BY IDOCK:   34.24 KCAL/MOL
REMARK 924 INTRA-LIGAND FREE ENERGY PREDICTED BY IDOCK:   -1.09 KCAL/MOL
REMARK 927      BINDING AFFINITY PREDICTED BY RF-SCORE:    0.00 PKD
ROOT
HETATM    1  C   UNL     1     -11.174  11.433  67.377  1.00  0.00    -0.305 C  
HETATM    2  S   UNL     1      -9.594  12.210  67.808  1.00  0.00    -0.201 SA 
HETATM    3  C   UNL     1      -9.551  13.212  66.302  1.00  0.00    -0.234 C  
HETATM    4  C   UNL     1      -9.807  12.431  65.018  1.00  0.00    -0.136 C  
HETATM    5  C   UNL     1     -11.492  10.029  68.070  1.00  0.00     0.194 C  
HETATM    6  C   UNL     1     -10.516  11.262  64.961  1.00  0.00    -0.298 C  
HETATM    7  N   UNL     1     -11.010  10.718  66.121  1.00  0.00    -0.048 N  
HETATM    8  C   UNL     1     -10.715  10.565  63.620  1.00  0.00     0.645 C  
HETATM    9  O   UNL     1     -10.286  11.007  62.564  1.00  0.00     0.010 OA 
HETATM   10  O   UNL     1     -11.454   9.446  63.593  1.00  0.00     7.677 OA 
HETATM   11  O   UNL     1     -11.950   8.617  65.881  1.00  0.00     6.427 OA 
HETATM   12  C   UNL     1     -11.576   9.565  66.537  1.00  0.00     2.805 C  
ENDROOT
BRANCH   4  13
HETATM   13  C   UNL     1      -9.090  13.088  63.834  1.00  0.00     2.748 C  
BRANCH  13  14
HETATM   14  S   UNL     1      -7.291  13.087  64.080  1.00  0.00    13.833 SA 
BRANCH  14  15
HETATM   15  C   UNL     1      -6.940  11.430  63.736  1.00  0.00     1.886 A  
HETATM   16  N   UNL     1      -6.805  10.902  62.542  1.00  0.00    -0.017 NA 
HETATM   17  C   UNL     1      -6.839  10.502  66.102  1.00  0.00    -0.131 C  
HETATM   18  N   UNL     1      -6.596   9.557  62.747  1.00  0.00    -0.098 NA 
HETATM   19  N   UNL     1      -6.804  10.441  64.668  1.00  0.00    -0.067 NA 
HETATM   20  N   UNL     1      -6.591   9.268  64.042  1.00  0.00    -0.089 NA 
ENDBRANCH  14  15
ENDBRANCH  13  14
ENDBRANCH   4  13
BRANCH   5  21
HETATM   21  N   UNL     1     -10.374   9.506  68.909  1.00  0.00    -0.202 N  
HETATM   22  O   UNL     1     -10.051   7.563  67.781  1.00  0.00    -0.164 OA 
HETATM   23  H   UNL     1     -10.060  10.088  69.684  1.00  0.00     0.000 HD 
HETATM   24  C   UNL     1      -9.731   8.298  68.720  1.00  0.00    -0.157 C  
BRANCH  24  25
HETATM   25  C   UNL     1      -8.582   7.955  69.737  1.00  0.00    -0.133 C  
HETATM   26  S   UNL     1      -8.860   8.566  71.448  1.00  0.00    -0.217 SA 
HETATM   27  C   UNL     1      -7.892   7.111  71.637  1.00  0.00    -0.097 C  
HETATM   28  C   UNL     1      -6.921   6.776  72.521  1.00  0.00    -0.064 C  
HETATM   29  S   UNL     1      -8.695   6.232  70.349  1.00  0.00    -0.147 SA 
HETATM   30  O   UNL     1      -5.285   5.211  73.322  1.00  0.00    -0.012 OA 
HETATM   31  C   UNL     1      -6.274   5.434  72.422  1.00  0.00    -0.035 C  
HETATM   32  O   UNL     1      -6.578   4.563  71.624  1.00  0.00    -0.025 OA 
BRANCH  28  33
HETATM   33  C   UNL     1      -6.459   7.750  73.549  1.00  0.00    -0.080 C  
HETATM   34  O   UNL     1      -7.245   8.157  74.405  1.00  0.00    -0.152 OA 
HETATM   35  N   UNL     1      -5.196   8.238  73.525  1.00  0.00    -0.046 N  
HETATM   36  H1  UNL     1      -4.879   8.904  74.229  1.00  0.00     0.000 HD 
HETATM   37  H2  UNL     1      -4.553   7.934  72.793  1.00  0.00     0.000 HD 
ENDBRANCH  28  33
ENDBRANCH  24  25
ENDBRANCH   5  21
BRANCH   5  38
HETATM   38  O   UNL     1     -12.765   9.972  68.773  1.00  0.00     1.127 OA 
HETATM   39  C   UNL     1     -12.700  10.179  70.183  1.00  0.00     0.044 C  
ENDBRANCH   5  38
TORSDOF 7
ENDMDL
MODEL      180
REMARK 921   NORMALIZED FREE ENERGY PREDICTED BY IDOCK:   24.80 KCAL/MOL
REMARK 922        TOTAL FREE ENERGY PREDICTED BY IDOCK:   33.50 KCAL/MOL
REMARK 923 INTER-LIGAND FREE ENERGY PREDICTED BY IDOCK:   31.16 KCAL/MOL
REMARK 924 INTRA-LIGAND FREE ENERGY PREDICTED BY IDOCK:    2.34 KCAL/MOL
REMARK 927      BINDING AFFINITY PREDICTED BY RF-SCORE:    0.00 PKD
ROOT
HETATM    1  C   UNL     1     -10.327  10.808  67.164  1.00  0.00    -0.224 C  
HETATM    2  S   UNL     1      -8.627  10.861  67.792  1.00  0.00    -0.130 SA 
HETATM    3  C   UNL     1      -8.292  12.481  67.058  1.00  0.00    -0.144 C  
HETATM    4  C   UNL     1      -8.672  12.597  65.586  1.00  0.00     0.890 C  
HETATM    5  C   UNL     1     -10.993   9.362  67.026  1.00  0.00     0.126 C  
HETATM    6  C   UNL     1      -9.632  11.833  64.981  1.00  0.00    -0.130 C  
HETATM    7  N   UNL     1     -10.286  10.872  65.711  1.00  0.00    -0.252 N  
HETATM    8  C   UNL     1      -9.936  12.036  63.501  1.00  0.00    -0.368 C  
HETATM    9  O   UNL     1      -9.374  12.873  62.809  1.00  0.00     2.243 OA 
HETATM   10  O   UNL     1     -10.915  11.303  62.950  1.00  0.00     0.006 OA 
HETATM   11  O   UNL     1     -11.682   9.500  64.476  1.00  0.00     6.641 OA 
HETATM   12  C   UNL     1     -11.122   9.833  65.498  1.00  0.00     1.904 C  
ENDROOT
BRANCH   4  13
HETATM   13  C   UNL     1      -7.775  13.616  64.875  1.00  0.00     9.696 C  
BRANCH  13  14
HETATM   14  S   UNL     1      -8.493  15.282  64.953  1.00  0.00     6.417 SA 
BRANCH  14  15
HETATM   15  C   UNL     1      -7.369  16.044  66.023  1.00  0.00     1.410 A  
HETATM   16  N   UNL     1      -6.424  15.443  66.707  1.00  0.00     0.099 NA 
HETATM   17  C   UNL     1      -8.155  18.457  65.837  1.00  0.00     0.042 C  
HETATM   18  N   UNL     1      -5.824  16.425  67.462  1.00  0.00    -0.144 NA 
HETATM   19  N   UNL     1      -7.351  17.375  66.331  1.00  0.00    -0.276 NA 
HETATM   20  N   UNL     1      -6.382  17.607  67.237  1.00  0.00    -0.141 NA 
ENDBRANCH  14  15
ENDBRANCH  13  14
ENDBRANCH   4  13
BRANCH   5  21
HETATM   21  N   UNL     1     -10.063   8.240  67.345  1.00  0.00    -0.210 N  
HETATM   22  O   UNL     1     -10.803   7.840  69.453  1.00  0.00    -0.207 OA 
HETATM   23  H   UNL     1      -9.407   7.955  66.618  1.00  0.00     0.000 HD 
HETATM   24  C   UNL     1     -10.017   7.556  68.544  1.00  0.00    -0.168 C  
BRANCH  24  25
HETATM   25  C   UNL     1      -8.944   6.411  68.652  1.00  0.00    -0.125 C  
HETATM   26  S   UNL     1      -9.594   4.804  69.264  1.00  0.00    -0.188 SA 
HETATM   27  C   UNL     1      -8.257   4.379  68.204  1.00  0.00    -0.090 C  
HETATM   28  C   UNL     1      -7.341   3.383  68.255  1.00  0.00    -0.050 C  
HETATM   29  S   UNL     1      -8.598   5.636  67.028  1.00  0.00    -0.109 SA 
HETATM   30  O   UNL     1      -5.411   2.281  67.344  1.00  0.00    -0.016 OA 
HETATM   31  C   UNL     1      -6.309   3.284  67.180  1.00  0.00    -0.036 C  
HETATM   32  O   UNL     1      -6.238   4.011  66.203  1.00  0.00    -0.030 OA 
BRANCH  28  33
HETATM   33  C   UNL     1      -7.321   2.424  69.395  1.00  0.00    -0.044 C  
HETATM   34  O   UNL     1      -8.361   2.178  70.007  1.00  0.00    -0.044 OA 
HETATM   35  N   UNL     1      -6.162   1.857  69.805  1.00  0.00    -0.024 N  
HETATM   36  H1  UNL     1      -6.149   1.201  70.585  1.00  0.00     0.000 HD 
HETATM   37  H2  UNL     1      -5.291   2.090  69.327  1.00  0.00     0.000 HD 
ENDBRANCH  28  33
ENDBRANCH  24  25
ENDBRANCH   5  21
BRANCH   5  38
HETATM   38  O   UNL     1     -12.270   9.213  67.707  1.00  0.00     3.165 OA 
HETATM   39  C   UNL     1     -12.250   9.451  69.113  1.00  0.00     1.667 C  
ENDBRANCH   5  38
TORSDOF 7
ENDMDL
MODEL      181
REMARK 921   NORMALIZED FREE ENERGY PREDICTED BY IDOCK:   30.37 KCAL/MOL
REMARK 922        TOTAL FREE ENERGY PREDICTED BY IDOCK:   41.35 KCAL/MOL
REMARK 923 INTER-LIGAND FREE ENERGY PREDICTED BY IDOCK:   37.24 KCAL/MOL
REMARK 924 INTRA-LIGAND FREE ENERGY PREDICTED BY IDOCK:    4.12 KCAL/MOL
REMARK 927      BINDING AFFINITY PREDICTED BY RF-SCORE:    0.00 PKD
ROOT
HETATM    1  C   UNL     1      -8.731  11.506  68.890  1.00  0.00     0.039 C  
HETATM    2  S   UNL     1      -8.625  10.705  67.268  1.00  0.00    -0.126 SA 
HETATM    3  C   UNL     1      -9.258  12.155  66.389  1.00  0.00    -0.207 C  
HETATM    4  C   UNL     1     -10.535  12.741  66.980  1.00  0.00    -0.245 C  
HETATM    5  C   UNL     1      -8.812  10.539  70.160  1.00  0.00     0.711 C  
HETATM    6  C   UNL     1     -10.907  12.602  68.290  1.00  0.00    -0.239 C  
HETATM    7  N   UNL     1     -10.118  11.866  69.138  1.00  0.00     0.071 N  
HETATM    8  C   UNL     1     -12.206  13.235  68.777  1.00  0.00    -0.089 C  
HETATM    9  O   UNL     1     -12.944  13.891  68.056  1.00  0.00     1.037 OA 
HETATM   10  O   UNL     1     -12.517  13.119  70.077  1.00  0.00    -0.203 OA 
HETATM   11  O   UNL     1     -11.023  11.512  71.239  1.00  0.00     2.209 OA 
HETATM   12  C   UNL     1     -10.181  11.347  70.383  1.00  0.00     2.141 C  
ENDROOT
BRANCH   4  13
HETATM   13  C   UNL     1     -11.372  13.422  65.892  1.00  0.00    -0.309 C  
BRANCH  13  14
HETATM   14  S   UNL     1     -10.317  14.030  64.546  1.00  0.00     0.081 SA 
BRANCH  14  15
HETATM   15  C   UNL     1      -9.113  14.868  65.460  1.00  0.00     0.632 A  
HETATM   16  N   UNL     1      -8.445  14.386  66.482  1.00  0.00     0.072 NA 
HETATM   17  C   UNL     1      -9.143  17.116  64.270  1.00  0.00     8.001 C  
HETATM   18  N   UNL     1      -7.650  15.416  66.931  1.00  0.00    -0.155 NA 
HETATM   19  N   UNL     1      -8.733  16.166  65.265  1.00  0.00     0.738 NA 
HETATM   20  N   UNL     1      -7.818  16.505  66.192  1.00  0.00    -0.226 NA 
ENDBRANCH  14  15
ENDBRANCH  13  14
ENDBRANCH   4  13
BRANCH   5  21
HETATM   21  N   UNL     1      -8.893   9.092  69.809  1.00  0.00    -0.144 N  
HETATM   22  O   UNL     1      -6.898   8.943  68.736  1.00  0.00    -0.060 OA 
HETATM   23  H   UNL     1      -9.723   8.582  70.111  1.00  0.00     0.000 HD 
HETATM   24  C   UNL     1      -7.936   8.385  69.107  1.00  0.00    -0.110 C  
BRANCH  24  25
HETATM   25  C   UNL     1      -8.243   6.865  68.848  1.00  0.00    -0.121 C  
HETATM   26  S   UNL     1      -9.969   6.354  69.220  1.00  0.00    -0.159 SA 
HETATM   27  C   UNL     1      -9.446   5.281  67.929  1.00  0.00    -0.125 C  
HETATM   28  C   UNL     1      -9.719   3.981  67.664  1.00  0.00    -0.164 C  
HETATM   29  S   UNL     1      -8.537   6.513  67.074  1.00  0.00    -0.114 SA 
HETATM   30  O   UNL     1      -9.408   2.023  66.309  1.00  0.00    -0.017 OA 
HETATM   31  C   UNL     1      -9.111   3.337  66.463  1.00  0.00    -0.162 C  
HETATM   32  O   UNL     1      -8.403   3.900  65.644  1.00  0.00    -0.107 OA 
BRANCH  28  33
HETATM   33  C   UNL     1     -10.573   3.179  68.585  1.00  0.00     3.079 C  
HETATM   34  O   UNL     1     -10.996   3.685  69.625  1.00  0.00     2.944 OA 
HETATM   35  N   UNL     1     -10.849   1.880  68.322  1.00  0.00     3.421 N  
HETATM   36  H1  UNL     1     -11.434   1.332  68.952  1.00  0.00     0.000 HD 
HETATM   37  H2  UNL     1     -10.467   1.445  67.482  1.00  0.00     0.000 HD 
ENDBRANCH  28  33
ENDBRANCH  24  25
ENDBRANCH   5  21
BRANCH   5  38
HETATM   38  O   UNL     1      -7.807  10.791  71.181  1.00  0.00     2.115 OA 
HETATM   39  C   UNL     1      -7.897  12.055  71.837  1.00  0.00    13.028 C  
ENDBRANCH   5  38
TORSDOF 7
ENDMDL
MODEL      182
REMARK 921   NORMALIZED FREE ENERGY PREDICTED BY IDOCK:   32.58 KCAL/MOL
REMARK 922        TOTAL FREE ENERGY PREDICTED BY IDOCK:   44.46 KCAL/MOL
REMARK 923 INTER-LIGAND FREE ENERGY PREDICTED BY IDOCK:   39.40 KCAL/MOL
REMARK 924 INTRA-LIGAND FREE ENERGY PREDICTED BY IDOCK:    5.06 KCAL/MOL
REMARK 927      BINDING AFFINITY PREDICTED BY RF-SCORE:    0.00 PKD
ROOT
HETATM    1  C   UNL     1     -11.384   9.292  72.873  1.00  0.00     1.811 C  
HETATM    2  S   UNL     1      -9.652   9.805  72.718  1.00  0.00     5.769 SA 
HETATM    3  C   UNL     1     -10.041  11.562  72.911  1.00  0.00    18.733 C  
HETATM    4  C   UNL     1     -11.171  12.058  72.017  1.00  0.00     6.093 C  
HETATM    5  C   UNL     1     -11.767   7.873  72.247  1.00  0.00    -0.355 C  
HETATM    6  C   UNL     1     -12.164  11.258  71.522  1.00  0.00     0.028 C  
HETATM    7  N   UNL     1     -12.147   9.914  71.803  1.00  0.00    -0.364 N  
HETATM    8  C   UNL     1     -13.250  11.861  70.638  1.00  0.00     0.569 C  
HETATM    9  O   UNL     1     -13.300  13.049  70.354  1.00  0.00     0.482 OA 
HETATM   10  O   UNL     1     -14.234  11.058  70.207  1.00  0.00     2.593 OA 
HETATM   11  O   UNL     1     -13.740   8.669  70.675  1.00  0.00     0.371 OA 
HETATM   12  C   UNL     1     -12.780   8.789  71.405  1.00  0.00    -0.283 C  
ENDROOT
BRANCH   4  13
HETATM   13  C   UNL     1     -10.986  13.543  71.687  1.00  0.00     4.179 C  
BRANCH  13  14
HETATM   14  S   UNL     1     -12.014  14.027  70.270  1.00  0.00    -0.335 SA 
BRANCH  14  15
HETATM   15  C   UNL     1     -10.783  14.353  69.101  1.00  0.00    -0.238 A  
HETATM   16  N   UNL     1     -10.412  13.555  68.127  1.00  0.00    -0.238 NA 
HETATM   17  C   UNL     1     -10.021  16.647  69.895  1.00  0.00     0.275 C  
HETATM   18  N   UNL     1      -9.369  14.193  67.495  1.00  0.00    -0.198 NA 
HETATM   19  N   UNL     1     -10.000  15.472  69.070  1.00  0.00    -0.219 NA 
HETATM   20  N   UNL     1      -9.113  15.365  68.062  1.00  0.00    -0.175 NA 
ENDBRANCH  14  15
ENDBRANCH  13  14
ENDBRANCH   4  13
BRANCH   5  21
HETATM   21  N   UNL     1     -10.642   7.212  71.524  1.00  0.00    -0.208 N  
HETATM   22  O   UNL     1     -11.876   6.271  69.867  1.00  0.00    -0.340 OA 
HETATM   23  H   UNL     1      -9.704   7.339  71.902  1.00  0.00     0.000 HD 
HETATM   24  C   UNL     1     -10.768   6.440  70.385  1.00  0.00    -0.262 C  
BRANCH  24  25
HETATM   25  C   UNL     1      -9.437   5.838  69.802  1.00  0.00    -0.148 C  
HETATM   26  S   UNL     1      -9.508   4.041  69.421  1.00  0.00    -0.187 SA 
HETATM   27  C   UNL     1      -8.356   4.704  68.270  1.00  0.00    -0.090 C  
HETATM   28  C   UNL     1      -7.223   4.198  67.727  1.00  0.00    -0.064 C  
HETATM   29  S   UNL     1      -9.246   6.194  68.015  1.00  0.00    -0.115 SA 
HETATM   30  O   UNL     1      -5.306   4.446  66.303  1.00  0.00    -0.008 OA 
HETATM   31  C   UNL     1      -6.446   5.023  66.756  1.00  0.00    -0.041 C  
HETATM   32  O   UNL     1      -6.769   6.129  66.355  1.00  0.00    -0.056 OA 
BRANCH  28  33
HETATM   33  C   UNL     1      -6.720   2.854  68.130  1.00  0.00    -0.040 C  
HETATM   34  O   UNL     1      -7.513   1.991  68.509  1.00  0.00    -0.043 OA 
HETATM   35  N   UNL     1      -5.394   2.583  68.137  1.00  0.00    -0.013 N  
HETATM   36  H1  UNL     1      -5.050   1.663  68.412  1.00  0.00     0.000 HD 
HETATM   37  H2  UNL     1      -4.730   3.308  67.863  1.00  0.00     0.000 HD 
ENDBRANCH  28  33
ENDBRANCH  24  25
ENDBRANCH   5  21
BRANCH   5  38
HETATM   38  O   UNL     1     -12.426   6.960  73.169  1.00  0.00     0.948 OA 
HETATM   39  C   UNL     1     -11.563   6.077  73.884  1.00  0.00     1.568 C  
ENDBRANCH   5  38
TORSDOF 7
ENDMDL
MODEL      183
REMARK 921   NORMALIZED FREE ENERGY PREDICTED BY IDOCK:   38.16 KCAL/MOL
REMARK 922        TOTAL FREE ENERGY PREDICTED BY IDOCK:   52.33 KCAL/MOL
REMARK 923 INTER-LIGAND FREE ENERGY PREDICTED BY IDOCK:   43.99 KCAL/MOL
REMARK 924 INTRA-LIGAND FREE ENERGY PREDICTED BY IDOCK:    8.34 KCAL/MOL
REMARK 927      BINDING AFFINITY PREDICTED BY RF-SCORE:    0.00 PKD
ROOT
HETATM    1  C   UNL     1     -10.600  10.213  68.565  1.00  0.00    -0.216 C  
HETATM    2  S   UNL     1      -8.956   9.741  67.965  1.00  0.00    -0.117 SA 
HETATM    3  C   UNL     1      -8.951  10.999  66.663  1.00  0.00    -0.168 C  
HETATM    4  C   UNL     1     -10.210  11.022  65.804  1.00  0.00    -0.316 C  
HETATM    5  C   UNL     1     -11.407   9.103  69.384  1.00  0.00     0.202 C  
HETATM    6  C   UNL     1     -11.433  10.575  66.226  1.00  0.00     0.952 C  
HETATM    7  N   UNL     1     -11.556  10.038  67.483  1.00  0.00     0.532 N  
HETATM    8  C   UNL     1     -12.629  10.649  65.284  1.00  0.00     5.836 C  
HETATM    9  O   UNL     1     -12.565  11.110  64.153  1.00  0.00     0.650 OA 
HETATM   10  O   UNL     1     -13.823  10.246  65.745  1.00  0.00    13.964 OA 
HETATM   11  O   UNL     1     -13.620   9.095  67.936  1.00  0.00    12.154 OA 
HETATM   12  C   UNL     1     -12.468   9.353  68.206  1.00  0.00     5.032 C  
ENDROOT
BRANCH   4  13
HETATM   13  C   UNL     1      -9.893  11.526  64.393  1.00  0.00    -0.241 C  
BRANCH  13  14
HETATM   14  S   UNL     1      -8.104  11.739  64.165  1.00  0.00     2.285 SA 
BRANCH  14  15
HETATM   15  C   UNL     1      -7.702  12.526  65.650  1.00  0.00     2.586 A  
HETATM   16  N   UNL     1      -7.842  13.806  65.909  1.00  0.00     2.442 NA 
HETATM   17  C   UNL     1      -6.807  10.544  66.969  1.00  0.00    -0.087 C  
HETATM   18  N   UNL     1      -7.339  13.990  67.177  1.00  0.00     0.001 NA 
HETATM   19  N   UNL     1      -7.138  11.921  66.738  1.00  0.00    -0.064 NA 
HETATM   20  N   UNL     1      -6.910  12.845  67.691  1.00  0.00    -0.136 NA 
ENDBRANCH  14  15
ENDBRANCH  13  14
ENDBRANCH   4  13
BRANCH   5  21
HETATM   21  N   UNL     1     -10.716   7.782  69.447  1.00  0.00    -0.332 N  
HETATM   22  O   UNL     1      -9.579   8.142  71.377  1.00  0.00    -0.152 OA 
HETATM   23  H   UNL     1     -10.911   7.117  68.699  1.00  0.00     0.000 HD 
HETATM   24  C   UNL     1      -9.834   7.388  70.433  1.00  0.00    -0.183 C  
BRANCH  24  25
HETATM   25  C   UNL     1      -9.222   5.947  70.285  1.00  0.00    -0.154 C  
HETATM   26  S   UNL     1      -8.701   5.504  68.579  1.00  0.00    -0.104 SA 
HETATM   27  C   UNL     1      -7.621   4.601  69.633  1.00  0.00    -0.058 C  
HETATM   28  C   UNL     1      -7.055   3.376  69.516  1.00  0.00    -0.042 C  
HETATM   29  S   UNL     1      -7.471   5.883  70.821  1.00  0.00    -0.093 SA 
HETATM   30  O   UNL     1      -5.679   1.625  70.415  1.00  0.00    -0.015 OA 
HETATM   31  C   UNL     1      -6.161   2.878  70.603  1.00  0.00    -0.023 C  
HETATM   32  O   UNL     1      -5.844   3.508  71.599  1.00  0.00    -0.012 OA 
BRANCH  28  33
HETATM   33  C   UNL     1      -7.357   2.506  68.345  1.00  0.00    -0.048 C  
HETATM   34  O   UNL     1      -8.474   1.999  68.231  1.00  0.00    -0.057 OA 
HETATM   35  N   UNL     1      -6.403   2.219  67.429  1.00  0.00    -0.027 N  
HETATM   36  H1  UNL     1      -6.611   1.624  66.627  1.00  0.00     0.000 HD 
HETATM   37  H2  UNL     1      -5.465   2.604  67.541  1.00  0.00     0.000 HD 
ENDBRANCH  28  33
ENDBRANCH  24  25
ENDBRANCH   5  21
BRANCH   5  38
HETATM   38  O   UNL     1     -11.870   9.532  70.695  1.00  0.00    -0.270 OA 
HETATM   39  C   UNL     1     -11.500  10.856  71.077  1.00  0.00     0.270 C  
ENDBRANCH   5  38
TORSDOF 7
ENDMDL
MODEL      184
REMARK 921   NORMALIZED FREE ENERGY PREDICTED BY IDOCK:   48.40 KCAL/MOL
REMARK 922        TOTAL FREE ENERGY PREDICTED BY IDOCK:   66.75 KCAL/MOL
REMARK 923 INTER-LIGAND FREE ENERGY PREDICTED BY IDOCK:   66.49 KCAL/MOL
REMARK 924 INTRA-LIGAND FREE ENERGY PREDICTED BY IDOCK:    0.26 KCAL/MOL
REMARK 927      BINDING AFFINITY PREDICTED BY RF-SCORE:    0.00 PKD
ROOT
HETATM    1  C   UNL     1     -11.634   9.802  68.502  1.00  0.00     0.394 C  
HETATM    2  S   UNL     1      -9.889  10.295  68.508  1.00  0.00    -0.171 SA 
HETATM    3  C   UNL     1      -9.990  11.069  66.876  1.00  0.00    -0.196 C  
HETATM    4  C   UNL     1     -10.637  10.200  65.805  1.00  0.00    -0.017 C  
HETATM    5  C   UNL     1     -12.037   8.590  69.462  1.00  0.00     1.550 C  
HETATM    6  C   UNL     1     -11.532   9.199  66.069  1.00  0.00     3.871 C  
HETATM    7  N   UNL     1     -11.860   8.916  67.371  1.00  0.00     2.910 N  
HETATM    8  C   UNL     1     -12.123   8.392  64.918  1.00  0.00    16.291 C  
HETATM    9  O   UNL     1     -11.854   8.601  63.744  1.00  0.00    15.363 OA 
HETATM   10  O   UNL     1     -13.033   7.449  65.208  1.00  0.00    12.553 OA 
HETATM   11  O   UNL     1     -13.176   7.033  67.652  1.00  0.00     9.561 OA 
HETATM   12  C   UNL     1     -12.517   7.962  68.066  1.00  0.00     6.558 C  
ENDROOT
BRANCH   4  13
HETATM   13  C   UNL     1     -10.081  10.544  64.419  1.00  0.00    -0.325 C  
BRANCH  13  14
HETATM   14  S   UNL     1      -8.302  10.897  64.502  1.00  0.00     0.247 SA 
BRANCH  14  15
HETATM   15  C   UNL     1      -7.677   9.287  64.562  1.00  0.00    -0.114 A  
HETATM   16  N   UNL     1      -8.377   8.193  64.755  1.00  0.00    -0.139 NA 
HETATM   17  C   UNL     1      -5.201   9.765  64.223  1.00  0.00    -0.066 C  
HETATM   18  N   UNL     1      -7.464   7.164  64.790  1.00  0.00    -0.089 NA 
HETATM   19  N   UNL     1      -6.357   8.948  64.462  1.00  0.00    -0.070 NA 
HETATM   20  N   UNL     1      -6.229   7.615  64.608  1.00  0.00    -0.044 NA 
ENDBRANCH  14  15
ENDBRANCH  13  14
ENDBRANCH   4  13
BRANCH   5  21
HETATM   21  N   UNL     1     -10.876   7.964  70.159  1.00  0.00    -0.245 N  
HETATM   22  O   UNL     1     -11.079   5.892  69.255  1.00  0.00    -0.360 OA 
HETATM   23  H   UNL     1     -10.333   8.555  70.787  1.00  0.00     0.000 HD 
HETATM   24  C   UNL     1     -10.476   6.649  70.022  1.00  0.00    -0.212 C  
BRANCH  24  25
HETATM   25  C   UNL     1      -9.222   6.211  70.865  1.00  0.00    -0.154 C  
HETATM   26  S   UNL     1      -9.020   7.099  72.461  1.00  0.00    -0.128 SA 
HETATM   27  C   UNL     1      -8.318   5.510  72.733  1.00  0.00    -0.113 C  
HETATM   28  C   UNL     1      -7.262   5.100  73.476  1.00  0.00    -0.083 C  
HETATM   29  S   UNL     1      -9.520   4.655  71.785  1.00  0.00    -0.158 SA 
HETATM   30  O   UNL     1      -5.811   3.347  74.242  1.00  0.00    -0.006 OA 
HETATM   31  C   UNL     1      -6.908   3.650  73.506  1.00  0.00    -0.044 C  
HETATM   32  O   UNL     1      -7.527   2.762  72.943  1.00  0.00    -0.043 OA 
BRANCH  28  33
HETATM   33  C   UNL     1      -6.424   6.085  74.216  1.00  0.00    -0.075 C  
HETATM   34  O   UNL     1      -6.889   7.187  74.511  1.00  0.00    -0.092 OA 
HETATM   35  N   UNL     1      -5.135   5.807  74.525  1.00  0.00    -0.027 N  
HETATM   36  H1  UNL     1      -4.562   6.481  75.032  1.00  0.00     0.000 HD 
HETATM   37  H2  UNL     1      -4.733   4.911  74.247  1.00  0.00     0.000 HD 
ENDBRANCH  28  33
ENDBRANCH  24  25
ENDBRANCH   5  21
BRANCH   5  38
HETATM   38  O   UNL     1     -13.126   8.879  70.383  1.00  0.00     0.554 OA 
HETATM   39  C   UNL     1     -12.977  10.067  71.159  1.00  0.00    -0.387 C  
ENDBRANCH   5  38
TORSDOF 7
ENDMDL
MODEL      185
REMARK 921   NORMALIZED FREE ENERGY PREDICTED BY IDOCK:   61.97 KCAL/MOL
REMARK 922        TOTAL FREE ENERGY PREDICTED BY IDOCK:   85.88 KCAL/MOL
REMARK 923 INTER-LIGAND FREE ENERGY PREDICTED BY IDOCK:   72.30 KCAL/MOL
REMARK 924 INTRA-LIGAND FREE ENERGY PREDICTED BY IDOCK:   13.58 KCAL/MOL
REMARK 927      BINDING AFFINITY PREDICTED BY RF-SCORE:    0.00 PKD
ROOT
HETATM    1  C   UNL     1     -11.214   9.522  73.536  1.00  0.00     6.289 C  
HETATM    2  S   UNL     1      -9.474   9.928  73.225  1.00  0.00     8.588 SA 
HETATM    3  C   UNL     1      -9.620  11.583  73.943  1.00  0.00    22.640 C  
HETATM    4  C   UNL     1     -10.802  12.393  73.424  1.00  0.00    16.645 C  
HETATM    5  C   UNL     1     -11.850   8.368  72.631  1.00  0.00    -0.290 C  
HETATM    6  C   UNL     1     -11.944  11.840  72.913  1.00  0.00     6.238 C  
HETATM    7  N   UNL     1     -12.046  10.474  72.819  1.00  0.00     2.497 N  
HETATM    8  C   UNL     1     -13.069  12.746  72.425  1.00  0.00    -0.187 C  
HETATM    9  O   UNL     1     -13.019  13.967  72.481  1.00  0.00    -0.388 OA 
HETATM   10  O   UNL     1     -14.194  12.171  71.974  1.00  0.00     0.408 OA 
HETATM   11  O   UNL     1     -13.923   9.718  71.695  1.00  0.00    -0.161 OA 
HETATM   12  C   UNL     1     -12.859   9.557  72.253  1.00  0.00    -0.346 C  
ENDROOT
BRANCH   4  13
HETATM   13  C   UNL     1     -10.493  13.893  73.474  1.00  0.00     7.357 C  
BRANCH  13  14
HETATM   14  S   UNL     1     -12.003  14.876  73.250  1.00  0.00    -0.167 SA 
BRANCH  14  15
HETATM   15  C   UNL     1     -12.142  14.826  71.528  1.00  0.00    -0.350 A  
HETATM   16  N   UNL     1     -11.325  14.212  70.704  1.00  0.00    -0.005 NA 
HETATM   17  C   UNL     1     -14.231  16.244  71.216  1.00  0.00     2.557 C  
HETATM   18  N   UNL     1     -11.786  14.493  69.438  1.00  0.00    -0.307 NA 
HETATM   19  N   UNL     1     -13.102  15.464  70.794  1.00  0.00    -0.455 NA 
HETATM   20  N   UNL     1     -12.872  15.254  69.484  1.00  0.00     0.150 NA 
ENDBRANCH  14  15
ENDBRANCH  13  14
ENDBRANCH   4  13
BRANCH   5  21
HETATM   21  N   UNL     1     -10.929   7.857  71.574  1.00  0.00    -0.228 N  
HETATM   22  O   UNL     1     -12.228   8.373  69.786  1.00  0.00     0.869 OA 
HETATM   23  H   UNL     1     -10.042   7.459  71.879  1.00  0.00     0.000 HD 
HETATM   24  C   UNL     1     -11.181   7.880  70.216  1.00  0.00    -0.200 C  
BRANCH  24  25
HETATM   25  C   UNL     1     -10.062   7.276  69.291  1.00  0.00    -0.183 C  
HETATM   26  S   UNL     1     -10.667   6.083  68.030  1.00  0.00    -0.271 SA 
HETATM   27  C   UNL     1      -9.250   6.831  67.305  1.00  0.00    -0.133 C  
HETATM   28  C   UNL     1      -8.290   6.346  66.481  1.00  0.00    -0.115 C  
HETATM   29  S   UNL     1      -9.583   8.428  67.949  1.00  0.00    -0.161 SA 
HETATM   30  O   UNL     1      -6.259   6.661  65.240  1.00  0.00    -0.036 OA 
HETATM   31  C   UNL     1      -7.194   7.251  66.025  1.00  0.00    -0.074 C  
HETATM   32  O   UNL     1      -7.100   8.437  66.296  1.00  0.00    -0.075 OA 
BRANCH  28  33
HETATM   33  C   UNL     1      -8.291   4.914  66.072  1.00  0.00    -0.113 C  
HETATM   34  O   UNL     1      -7.881   4.053  66.852  1.00  0.00    -0.094 OA 
HETATM   35  N   UNL     1      -8.687   4.546  64.831  1.00  0.00    -0.134 N  
HETATM   36  H1  UNL     1      -8.688   3.565  64.551  1.00  0.00     0.000 HD 
HETATM   37  H2  UNL     1      -8.989   5.260  64.167  1.00  0.00     0.000 HD 
ENDBRANCH  28  33
ENDBRANCH  24  25
ENDBRANCH   5  21
BRANCH   5  38
HETATM   38  O   UNL     1     -12.470   7.284  73.376  1.00  0.00     1.222 OA 
HETATM   39  C   UNL     1     -11.590   6.241  73.795  1.00  0.00     1.312 C  
ENDBRANCH   5  38
TORSDOF 7
ENDMDL
MODEL      186
REMARK 921   NORMALIZED FREE ENERGY PREDICTED BY IDOCK:   64.49 KCAL/MOL
REMARK 922        TOTAL FREE ENERGY PREDICTED BY IDOCK:   89.43 KCAL/MOL
REMARK 923 INTER-LIGAND FREE ENERGY PREDICTED BY IDOCK:   47.16 KCAL/MOL
REMARK 924 INTRA-LIGAND FREE ENERGY PREDICTED BY IDOCK:   42.26 KCAL/MOL
REMARK 927      BINDING AFFINITY PREDICTED BY RF-SCORE:    0.00 PKD
ROOT
HETATM    1  C   UNL     1      -6.794   9.137  66.387  1.00  0.00    -0.079 C  
HETATM    2  S   UNL     1      -6.627   7.490  67.127  1.00  0.00    -0.064 SA 
HETATM    3  C   UNL     1      -6.390   6.677  65.528  1.00  0.00    -0.045 C  
HETATM    4  C   UNL     1      -7.425   7.048  64.473  1.00  0.00    -0.099 C  
HETATM    5  C   UNL     1      -7.564  10.235  67.257  1.00  0.00    -0.095 C  
HETATM    6  C   UNL     1      -8.128   8.222  64.470  1.00  0.00    -0.146 C  
HETATM    7  N   UNL     1      -7.934   9.125  65.485  1.00  0.00    -0.102 N  
HETATM    8  C   UNL     1      -9.140   8.493  63.362  1.00  0.00     0.870 C  
HETATM    9  O   UNL     1      -9.353   7.715  62.442  1.00  0.00     0.927 OA 
HETATM   10  O   UNL     1      -9.778   9.673  63.362  1.00  0.00     0.183 OA 
HETATM   11  O   UNL     1      -9.387  10.927  65.470  1.00  0.00    -0.190 OA 
HETATM   12  C   UNL     1      -8.502  10.256  65.955  1.00  0.00    -0.140 C  
ENDROOT
BRANCH   4  13
HETATM   13  C   UNL     1      -7.626   5.896  63.483  1.00  0.00    -0.078 C  
BRANCH  13  14
HETATM   14  S   UNL     1      -9.316   5.894  62.820  1.00  0.00     1.198 SA 
BRANCH  14  15
HETATM   15  C   UNL     1     -10.068   7.007  63.907  1.00  0.00     6.383 A  
HETATM   16  N   UNL     1     -11.021   7.859  63.604  1.00  0.00    13.566 NA 
HETATM   17  C   UNL     1      -8.777   6.483  66.035  1.00  0.00    -0.148 C  
HETATM   18  N   UNL     1     -11.262   8.577  64.753  1.00  0.00     8.779 NA 
HETATM   19  N   UNL     1      -9.733   7.178  65.220  1.00  0.00     1.216 NA 
HETATM   20  N   UNL     1     -10.483   8.166  65.745  1.00  0.00     1.412 NA 
ENDBRANCH  14  15
ENDBRANCH  13  14
ENDBRANCH   4  13
BRANCH   5  21
HETATM   21  N   UNL     1      -8.130   9.704  68.530  1.00  0.00    -0.103 N  
HETATM   22  O   UNL     1      -6.527   8.149  68.934  1.00  0.00    -0.046 OA 
HETATM   23  H   UNL     1      -8.992  10.129  68.872  1.00  0.00     0.000 HD 
HETATM   24  C   UNL     1      -7.584   8.684  69.284  1.00  0.00    -0.094 C  
BRANCH  24  25
HETATM   25  C   UNL     1      -8.365   8.288  70.591  1.00  0.00    -0.121 C  
HETATM   26  S   UNL     1      -9.718   9.442  71.058  1.00  0.00    -0.143 SA 
HETATM   27  C   UNL     1     -10.234   7.871  71.656  1.00  0.00    -0.192 C  
HETATM   28  C   UNL     1     -10.932   7.504  72.756  1.00  0.00    -0.410 C  
HETATM   29  S   UNL     1      -9.608   6.979  70.280  1.00  0.00    -0.167 SA 
HETATM   30  O   UNL     1     -11.886   5.789  74.141  1.00  0.00     1.616 OA 
HETATM   31  C   UNL     1     -11.220   6.058  72.991  1.00  0.00    -0.197 C  
HETATM   32  O   UNL     1     -10.916   5.148  72.237  1.00  0.00    -0.211 OA 
BRANCH  28  33
HETATM   33  C   UNL     1     -11.366   8.520  73.756  1.00  0.00     3.478 C  
HETATM   34  O   UNL     1     -10.523   9.127  74.419  1.00  0.00     6.648 OA 
HETATM   35  N   UNL     1     -12.680   8.750  73.987  1.00  0.00     3.795 N  
HETATM   36  H1  UNL     1     -12.976   9.446  74.671  1.00  0.00     0.000 HD 
HETATM   37  H2  UNL     1     -13.382   8.221  73.469  1.00  0.00     0.000 HD 
ENDBRANCH  28  33
ENDBRANCH  24  25
ENDBRANCH   5  21
BRANCH   5  38
HETATM   38  O   UNL     1      -6.824  11.469  67.470  1.00  0.00    -0.083 OA 
HETATM   39  C   UNL     1      -5.831  11.770  66.490  1.00  0.00     0.047 C  
ENDBRANCH   5  38
TORSDOF 7
ENDMDL
MODEL      187
REMARK 921   NORMALIZED FREE ENERGY PREDICTED BY IDOCK:   69.20 KCAL/MOL
REMARK 922        TOTAL FREE ENERGY PREDICTED BY IDOCK:   96.06 KCAL/MOL
REMARK 923 INTER-LIGAND FREE ENERGY PREDICTED BY IDOCK:   95.73 KCAL/MOL
REMARK 924 INTRA-LIGAND FREE ENERGY PREDICTED BY IDOCK:    0.33 KCAL/MOL
REMARK 927      BINDING AFFINITY PREDICTED BY RF-SCORE:    0.00 PKD
ROOT
HETATM    1  C   UNL     1     -11.214   9.522  73.536  1.00  0.00     6.289 C  
HETATM    2  S   UNL     1      -9.474   9.928  73.225  1.00  0.00     8.588 SA 
HETATM    3  C   UNL     1      -9.620  11.583  73.943  1.00  0.00    22.640 C  
HETATM    4  C   UNL     1     -10.802  12.393  73.424  1.00  0.00    16.645 C  
HETATM    5  C   UNL     1     -11.850   8.368  72.631  1.00  0.00    -0.290 C  
HETATM    6  C   UNL     1     -11.944  11.840  72.913  1.00  0.00     6.238 C  
HETATM    7  N   UNL     1     -12.046  10.474  72.819  1.00  0.00     2.497 N  
HETATM    8  C   UNL     1     -13.069  12.746  72.425  1.00  0.00    -0.187 C  
HETATM    9  O   UNL     1     -13.019  13.967  72.481  1.00  0.00    -0.388 OA 
HETATM   10  O   UNL     1     -14.194  12.171  71.974  1.00  0.00     0.408 OA 
HETATM   11  O   UNL     1     -13.923   9.718  71.695  1.00  0.00    -0.161 OA 
HETATM   12  C   UNL     1     -12.859   9.557  72.253  1.00  0.00    -0.346 C  
ENDROOT
BRANCH   4  13
HETATM   13  C   UNL     1     -10.493  13.893  73.474  1.00  0.00     7.357 C  
BRANCH  13  14
HETATM   14  S   UNL     1     -10.016  14.514  71.836  1.00  0.00     5.175 SA 
BRANCH  14  15
HETATM   15  C   UNL     1      -8.355  14.037  71.804  1.00  0.00     7.992 A  
HETATM   16  N   UNL     1      -7.716  13.400  72.757  1.00  0.00     8.671 NA 
HETATM   17  C   UNL     1      -7.680  14.951  69.528  1.00  0.00    -0.121 C  
HETATM   18  N   UNL     1      -6.413  13.289  72.327  1.00  0.00     1.896 NA 
HETATM   19  N   UNL     1      -7.476  14.305  70.793  1.00  0.00     1.353 NA 
HETATM   20  N   UNL     1      -6.258  13.836  71.129  1.00  0.00    -0.109 NA 
ENDBRANCH  14  15
ENDBRANCH  13  14
ENDBRANCH   4  13
BRANCH   5  21
HETATM   21  N   UNL     1     -10.929   7.857  71.574  1.00  0.00    -0.228 N  
HETATM   22  O   UNL     1     -12.196   8.437  69.782  1.00  0.00     0.869 OA 
HETATM   23  H   UNL     1     -10.055   7.433  71.881  1.00  0.00     0.000 HD 
HETATM   24  C   UNL     1     -11.165   7.912  70.214  1.00  0.00    -0.200 C  
BRANCH  24  25
HETATM   25  C   UNL     1     -10.050   7.301  69.289  1.00  0.00    -0.183 C  
HETATM   26  S   UNL     1     -10.667   6.147  67.999  1.00  0.00    -0.303 SA 
HETATM   27  C   UNL     1      -9.226   6.877  67.304  1.00  0.00    -0.127 C  
HETATM   28  C   UNL     1      -8.268   6.387  66.481  1.00  0.00    -0.113 C  
HETATM   29  S   UNL     1      -9.530   8.468  67.975  1.00  0.00    -0.142 SA 
HETATM   30  O   UNL     1      -6.216   6.679  65.268  1.00  0.00    -0.036 OA 
HETATM   31  C   UNL     1      -7.147   7.275  66.055  1.00  0.00    -0.066 C  
HETATM   32  O   UNL     1      -7.030   8.453  66.350  1.00  0.00    -0.072 OA 
BRANCH  28  33
HETATM   33  C   UNL     1      -8.296   4.962  66.043  1.00  0.00    -0.113 C  
HETATM   34  O   UNL     1      -7.914   4.078  66.811  1.00  0.00    -0.095 OA 
HETATM   35  N   UNL     1      -8.687   4.628  64.791  1.00  0.00    -0.145 N  
HETATM   36  H1  UNL     1      -8.706   3.654  64.492  1.00  0.00     0.000 HD 
HETATM   37  H2  UNL     1      -8.966   5.361  64.138  1.00  0.00     0.000 HD 
ENDBRANCH  28  33
ENDBRANCH  24  25
ENDBRANCH   5  21
BRANCH   5  38
HETATM   38  O   UNL     1     -12.470   7.284  73.376  1.00  0.00     1.222 OA 
HETATM   39  C   UNL     1     -11.590   6.241  73.795  1.00  0.00     1.312 C  
ENDBRANCH   5  38
TORSDOF 7
ENDMDL
