MODEL        1
REMARK 921   NORMALIZED FREE ENERGY PREDICTED BY IDOCK:   -6.96 KCAL/MOL
REMARK 922        TOTAL FREE ENERGY PREDICTED BY IDOCK:  -10.49 KCAL/MOL
REMARK 923 INTER-LIGAND FREE ENERGY PREDICTED BY IDOCK:   -9.81 KCAL/MOL
REMARK 924 INTRA-LIGAND FREE ENERGY PREDICTED BY IDOCK:   -0.68 KCAL/MOL
REMARK 927      BINDING AFFINITY PREDICTED BY RF-SCORE:    0.00 PKD
ROOT
HETATM    1  C   UNL     1     -11.083  13.511  67.619  1.00  0.00    -0.269 C  
HETATM    2  S   UNL     1      -9.398  14.036  67.997  1.00  0.00    -0.212 SA 
HETATM    3  C   UNL     1      -9.758  15.778  67.713  1.00  0.00    -0.216 C  
HETATM    4  C   UNL     1     -10.522  16.085  66.437  1.00  0.00    -0.313 C  
HETATM    5  C   UNL     1     -11.296  15.181  65.765  1.00  0.00    -0.238 C  
HETATM    6  O   UNL     1     -12.807  12.503  65.045  1.00  0.00    -0.742 OA 
HETATM    7  O   UNL     1     -12.773  14.705  63.858  1.00  0.00    -0.788 OA 
HETATM    8  C   UNL     1     -11.901  15.559  64.421  1.00  0.00    -0.219 C  
HETATM    9  N   UNL     1     -11.434  13.913  66.266  1.00  0.00    -0.328 N  
HETATM   10  C   UNL     1     -12.023  12.743  65.933  1.00  0.00    -0.449 C  
HETATM   11  O   UNL     1     -11.657  16.613  63.849  1.00  0.00    -1.204 OA 
HETATM   12  C   UNL     1     -11.243  11.998  67.136  1.00  0.00    -0.316 C  
ENDROOT
BRANCH   4  13
HETATM   13  C   UNL     1     -10.255  17.515  65.960  1.00  0.00    -0.299 C  
BRANCH  13  14
HETATM   14  O   UNL     1     -10.870  18.468  66.854  1.00  0.00    -0.337 OA 
BRANCH  14  15
HETATM   15  C   UNL     1     -10.084  19.479  67.284  1.00  0.00    -0.405 C  
HETATM   16  O   UNL     1      -9.688  19.670  68.421  1.00  0.00    -0.361 OA 
HETATM   17  N   UNL     1      -9.807  20.310  66.255  1.00  0.00    -0.618 N  
HETATM   18  H2  UNL     1     -10.141  20.192  65.299  1.00  0.00     0.000 HD 
HETATM   19  H1  UNL     1      -9.213  21.074  66.579  1.00  0.00     0.000 HD 
ENDBRANCH  14  15
ENDBRANCH  13  14
ENDBRANCH   4  13
BRANCH  12  20
HETATM   20  N   UNL     1      -9.942  11.327  66.808  1.00  0.00    -0.202 N  
HETATM   21  O   UNL     1     -10.781   9.221  66.488  1.00  0.00    -0.107 OA 
HETATM   22  C   UNL     1      -9.831   9.997  66.475  1.00  0.00    -0.210 C  
HETATM   23  H   UNL     1      -9.092  11.890  66.834  1.00  0.00     0.000 HD 
BRANCH  22  24
HETATM   24  C   UNL     1      -8.424   9.547  66.134  1.00  0.00    -0.127 C  
BRANCH  24  25
HETATM   25  C   UNL     1      -8.335   9.069  64.719  1.00  0.00    -0.173 A  
HETATM   26  C   UNL     1      -8.792   9.694  63.574  1.00  0.00    -0.255 A  
HETATM   27  C   UNL     1      -8.646   8.877  62.415  1.00  0.00    -0.208 A  
HETATM   28  C   UNL     1      -8.051   7.670  62.707  1.00  0.00    -0.097 A  
HETATM   29  S   UNL     1      -7.662   7.533  64.366  1.00  0.00    -0.127 SA 
ENDBRANCH  24  25
ENDBRANCH  22  24
ENDBRANCH  12  20
BRANCH  12  30
HETATM   30  O   UNL     1     -12.093  11.187  67.994  1.00  0.00    -0.635 OA 
HETATM   31  C   UNL     1     -11.875  11.337  69.393  1.00  0.00    -0.355 C  
ENDBRANCH  12  30
TORSDOF 7
ENDMDL
MODEL        2
REMARK 921   NORMALIZED FREE ENERGY PREDICTED BY IDOCK:   -6.89 KCAL/MOL
REMARK 922        TOTAL FREE ENERGY PREDICTED BY IDOCK:  -10.38 KCAL/MOL
REMARK 923 INTER-LIGAND FREE ENERGY PREDICTED BY IDOCK:   -9.71 KCAL/MOL
REMARK 924 INTRA-LIGAND FREE ENERGY PREDICTED BY IDOCK:   -0.67 KCAL/MOL
REMARK 927      BINDING AFFINITY PREDICTED BY RF-SCORE:    0.00 PKD
ROOT
HETATM    1  C   UNL     1     -11.158  13.564  67.737  1.00  0.00    -0.268 C  
HETATM    2  S   UNL     1      -9.490  14.067  68.210  1.00  0.00    -0.217 SA 
HETATM    3  C   UNL     1      -9.813  15.815  67.915  1.00  0.00    -0.217 C  
HETATM    4  C   UNL     1     -10.503  16.137  66.601  1.00  0.00    -0.300 C  
HETATM    5  C   UNL     1     -11.249  15.245  65.883  1.00  0.00    -0.237 C  
HETATM    6  O   UNL     1     -12.751  12.589  65.068  1.00  0.00    -0.649 OA 
HETATM    7  O   UNL     1     -12.626  14.796  63.895  1.00  0.00    -0.834 OA 
HETATM    8  C   UNL     1     -11.775  15.637  64.510  1.00  0.00    -0.220 C  
HETATM    9  N   UNL     1     -11.430  13.977  66.369  1.00  0.00    -0.339 N  
HETATM   10  C   UNL     1     -12.014  12.816  65.999  1.00  0.00    -0.432 C  
HETATM   11  O   UNL     1     -11.488  16.690  63.957  1.00  0.00    -1.192 OA 
HETATM   12  C   UNL     1     -11.310  12.056  67.238  1.00  0.00    -0.330 C  
ENDROOT
BRANCH   4  13
HETATM   13  C   UNL     1     -10.194  17.566  66.147  1.00  0.00    -0.335 C  
BRANCH  13  14
HETATM   14  O   UNL     1     -10.967  18.516  66.911  1.00  0.00    -0.254 OA 
BRANCH  14  15
HETATM   15  C   UNL     1     -10.287  19.561  67.431  1.00  0.00    -0.450 C  
HETATM   16  O   UNL     1     -10.095  19.800  68.611  1.00  0.00    -0.438 OA 
HETATM   17  N   UNL     1      -9.855  20.365  66.435  1.00  0.00    -0.626 N  
HETATM   18  H2  UNL     1     -10.018  20.207  65.440  1.00  0.00     0.000 HD 
HETATM   19  H1  UNL     1      -9.341  21.154  66.827  1.00  0.00     0.000 HD 
ENDBRANCH  14  15
ENDBRANCH  13  14
ENDBRANCH   4  13
BRANCH  12  20
HETATM   20  N   UNL     1     -10.001  11.371  66.978  1.00  0.00    -0.198 N  
HETATM   21  O   UNL     1     -10.643  10.237  65.095  1.00  0.00    -0.136 OA 
HETATM   22  C   UNL     1      -9.771  10.545  65.901  1.00  0.00    -0.217 C  
HETATM   23  H   UNL     1      -9.238  11.525  67.638  1.00  0.00     0.000 HD 
BRANCH  22  24
HETATM   24  C   UNL     1      -8.359  10.002  65.813  1.00  0.00    -0.134 C  
BRANCH  24  25
HETATM   25  C   UNL     1      -8.358   8.545  65.474  1.00  0.00    -0.156 A  
HETATM   26  C   UNL     1      -8.798   7.487  66.246  1.00  0.00    -0.184 A  
HETATM   27  C   UNL     1      -8.520   6.224  65.646  1.00  0.00    -0.148 A  
HETATM   28  C   UNL     1      -7.908   6.361  64.420  1.00  0.00    -0.115 A  
HETATM   29  S   UNL     1      -7.683   8.001  63.995  1.00  0.00    -0.142 SA 
ENDBRANCH  24  25
ENDBRANCH  22  24
ENDBRANCH  12  20
BRANCH  12  30
HETATM   30  O   UNL     1     -12.215  11.251  68.044  1.00  0.00    -0.621 OA 
HETATM   31  C   UNL     1     -11.716  10.855  69.317  1.00  0.00    -0.324 C  
ENDBRANCH  12  30
TORSDOF 7
ENDMDL
MODEL        3
REMARK 921   NORMALIZED FREE ENERGY PREDICTED BY IDOCK:   -6.80 KCAL/MOL
REMARK 922        TOTAL FREE ENERGY PREDICTED BY IDOCK:  -10.26 KCAL/MOL
REMARK 923 INTER-LIGAND FREE ENERGY PREDICTED BY IDOCK:   -9.41 KCAL/MOL
REMARK 924 INTRA-LIGAND FREE ENERGY PREDICTED BY IDOCK:   -0.84 KCAL/MOL
REMARK 927      BINDING AFFINITY PREDICTED BY RF-SCORE:    0.00 PKD
ROOT
HETATM    1  C   UNL     1     -11.093  13.540  67.845  1.00  0.00    -0.265 C  
HETATM    2  S   UNL     1      -9.456  14.106  68.353  1.00  0.00    -0.205 SA 
HETATM    3  C   UNL     1      -9.842  15.841  68.059  1.00  0.00    -0.217 C  
HETATM    4  C   UNL     1     -10.517  16.141  66.732  1.00  0.00    -0.294 C  
HETATM    5  C   UNL     1     -11.213  15.224  65.996  1.00  0.00    -0.231 C  
HETATM    6  O   UNL     1     -12.591  12.515  65.139  1.00  0.00    -0.631 OA 
HETATM    7  O   UNL     1     -12.530  14.731  63.978  1.00  0.00    -0.803 OA 
HETATM    8  C   UNL     1     -11.726  15.602  64.613  1.00  0.00    -0.190 C  
HETATM    9  N   UNL     1     -11.353  13.948  66.473  1.00  0.00    -0.321 N  
HETATM   10  C   UNL     1     -11.883  12.766  66.086  1.00  0.00    -0.425 C  
HETATM   11  O   UNL     1     -11.469  16.668  64.071  1.00  0.00    -1.192 OA 
HETATM   12  C   UNL     1     -11.175  12.029  67.337  1.00  0.00    -0.307 C  
ENDROOT
BRANCH   4  13
HETATM   13  C   UNL     1     -10.255  17.583  66.290  1.00  0.00    -0.355 C  
BRANCH  13  14
HETATM   14  O   UNL     1     -10.957  18.509  67.147  1.00  0.00    -0.333 OA 
BRANCH  14  15
HETATM   15  C   UNL     1     -10.312  19.659  67.442  1.00  0.00    -0.453 C  
HETATM   16  O   UNL     1     -10.036  20.084  68.551  1.00  0.00    -0.425 OA 
HETATM   17  N   UNL     1     -10.030  20.328  66.303  1.00  0.00    -0.592 N  
HETATM   18  H2  UNL     1     -10.267  20.013  65.362  1.00  0.00     0.000 HD 
HETATM   19  H1  UNL     1      -9.543  21.197  66.525  1.00  0.00     0.000 HD 
ENDBRANCH  14  15
ENDBRANCH  13  14
ENDBRANCH   4  13
BRANCH  12  20
HETATM   20  N   UNL     1      -9.835  11.397  67.102  1.00  0.00    -0.189 N  
HETATM   21  O   UNL     1     -10.516   9.855  65.552  1.00  0.00    -0.126 OA 
HETATM   22  C   UNL     1      -9.616  10.384  66.196  1.00  0.00    -0.196 C  
HETATM   23  H   UNL     1      -9.041  11.738  67.644  1.00  0.00     0.000 HD 
BRANCH  22  24
HETATM   24  C   UNL     1      -8.173   9.933  66.090  1.00  0.00    -0.118 C  
BRANCH  24  25
HETATM   25  C   UNL     1      -8.030   8.484  66.432  1.00  0.00    -0.099 A  
HETATM   26  C   UNL     1      -7.900   7.410  65.571  1.00  0.00    -0.115 A  
HETATM   27  C   UNL     1      -7.918   6.161  66.256  1.00  0.00    -0.106 A  
HETATM   28  C   UNL     1      -8.027   6.322  67.619  1.00  0.00    -0.113 A  
HETATM   29  S   UNL     1      -8.093   7.970  68.066  1.00  0.00    -0.130 SA 
ENDBRANCH  24  25
ENDBRANCH  22  24
ENDBRANCH  12  20
BRANCH  12  30
HETATM   30  O   UNL     1     -12.064  11.186  68.121  1.00  0.00    -0.633 OA 
HETATM   31  C   UNL     1     -11.817  11.170  69.523  1.00  0.00    -0.353 C  
ENDBRANCH  12  30
TORSDOF 7
ENDMDL
MODEL        4
REMARK 921   NORMALIZED FREE ENERGY PREDICTED BY IDOCK:   -6.60 KCAL/MOL
REMARK 922        TOTAL FREE ENERGY PREDICTED BY IDOCK:   -9.97 KCAL/MOL
REMARK 923 INTER-LIGAND FREE ENERGY PREDICTED BY IDOCK:   -9.09 KCAL/MOL
REMARK 924 INTRA-LIGAND FREE ENERGY PREDICTED BY IDOCK:   -0.88 KCAL/MOL
REMARK 927      BINDING AFFINITY PREDICTED BY RF-SCORE:    0.00 PKD
ROOT
HETATM    1  C   UNL     1     -11.286  13.606  67.780  1.00  0.00    -0.306 C  
HETATM    2  S   UNL     1      -9.715  14.280  68.358  1.00  0.00    -0.226 SA 
HETATM    3  C   UNL     1     -10.157  15.975  67.934  1.00  0.00    -0.241 C  
HETATM    4  C   UNL     1     -10.753  16.164  66.549  1.00  0.00    -0.220 C  
HETATM    5  C   UNL     1     -11.355  15.173  65.827  1.00  0.00    -0.238 C  
HETATM    6  O   UNL     1     -12.550  12.354  65.050  1.00  0.00    -0.601 OA 
HETATM    7  O   UNL     1     -12.509  14.499  63.762  1.00  0.00    -0.809 OA 
HETATM    8  C   UNL     1     -11.789  15.443  64.393  1.00  0.00    -0.256 C  
HETATM    9  N   UNL     1     -11.471  13.921  66.371  1.00  0.00    -0.331 N  
HETATM   10  C   UNL     1     -11.919  12.694  66.024  1.00  0.00    -0.417 C  
HETATM   11  O   UNL     1     -11.544  16.487  63.804  1.00  0.00    -1.109 OA 
HETATM   12  C   UNL     1     -11.266  12.066  67.361  1.00  0.00    -0.307 C  
ENDROOT
BRANCH   4  13
HETATM   13  C   UNL     1     -10.526  17.589  66.037  1.00  0.00    -0.274 C  
BRANCH  13  14
HETATM   14  O   UNL     1     -10.829  18.550  67.071  1.00  0.00    -0.364 OA 
BRANCH  14  15
HETATM   15  C   UNL     1      -9.954  19.568  67.218  1.00  0.00    -0.379 C  
HETATM   16  O   UNL     1      -9.365  19.891  68.235  1.00  0.00    -0.335 OA 
HETATM   17  N   UNL     1      -9.833  20.237  66.050  1.00  0.00    -0.638 N  
HETATM   18  H2  UNL     1     -10.328  20.008  65.188  1.00  0.00     0.000 HD 
HETATM   19  H1  UNL     1      -9.172  21.006  66.160  1.00  0.00     0.000 HD 
ENDBRANCH  14  15
ENDBRANCH  13  14
ENDBRANCH   4  13
BRANCH  12  20
HETATM   20  N   UNL     1      -9.886  11.488  67.253  1.00  0.00    -0.189 N  
HETATM   21  O   UNL     1     -10.461   9.598  66.095  1.00  0.00    -0.179 OA 
HETATM   22  C   UNL     1      -9.599  10.315  66.593  1.00  0.00    -0.175 C  
HETATM   23  H   UNL     1      -9.118  11.993  67.694  1.00  0.00     0.000 HD 
BRANCH  22  24
HETATM   24  C   UNL     1      -8.128   9.949  66.568  1.00  0.00    -0.117 C  
BRANCH  24  25
HETATM   25  C   UNL     1      -7.550   9.935  67.948  1.00  0.00    -0.090 A  
HETATM   26  C   UNL     1      -6.548  10.735  68.464  1.00  0.00    -0.055 A  
HETATM   27  C   UNL     1      -6.169  10.347  69.782  1.00  0.00    -0.067 A  
HETATM   28  C   UNL     1      -6.915   9.285  70.241  1.00  0.00    -0.076 A  
HETATM   29  S   UNL     1      -8.073   8.772  69.094  1.00  0.00    -0.120 SA 
ENDBRANCH  24  25
ENDBRANCH  22  24
ENDBRANCH  12  20
BRANCH  12  30
HETATM   30  O   UNL     1     -12.168  11.228  68.136  1.00  0.00    -0.622 OA 
HETATM   31  C   UNL     1     -11.852  11.101  69.518  1.00  0.00    -0.353 C  
ENDBRANCH  12  30
TORSDOF 7
ENDMDL
MODEL        5
REMARK 921   NORMALIZED FREE ENERGY PREDICTED BY IDOCK:   -6.46 KCAL/MOL
REMARK 922        TOTAL FREE ENERGY PREDICTED BY IDOCK:   -9.78 KCAL/MOL
REMARK 923 INTER-LIGAND FREE ENERGY PREDICTED BY IDOCK:   -9.29 KCAL/MOL
REMARK 924 INTRA-LIGAND FREE ENERGY PREDICTED BY IDOCK:   -0.49 KCAL/MOL
REMARK 927      BINDING AFFINITY PREDICTED BY RF-SCORE:    0.00 PKD
ROOT
HETATM    1  C   UNL     1      -8.913  14.903  65.975  1.00  0.00     0.060 C  
HETATM    2  S   UNL     1      -8.688  13.749  67.345  1.00  0.00    -0.217 SA 
HETATM    3  C   UNL     1      -9.106  12.308  66.346  1.00  0.00    -0.158 C  
HETATM    4  C   UNL     1     -10.355  12.448  65.494  1.00  0.00    -0.298 C  
HETATM    5  C   UNL     1     -10.894  13.641  65.104  1.00  0.00    -0.334 C  
HETATM    6  O   UNL     1     -11.275  16.751  64.702  1.00  0.00    -0.835 OA 
HETATM    7  O   UNL     1     -12.656  14.836  63.873  1.00  0.00    -0.834 OA 
HETATM    8  C   UNL     1     -12.227  13.662  64.371  1.00  0.00    -0.390 C  
HETATM    9  N   UNL     1     -10.273  14.808  65.467  1.00  0.00    -0.348 N  
HETATM   10  C   UNL     1     -10.462  16.141  65.357  1.00  0.00    -0.373 C  
HETATM   11  O   UNL     1     -12.906  12.662  64.185  1.00  0.00    -0.695 OA 
HETATM   12  C   UNL     1      -9.247  16.408  66.387  1.00  0.00    -0.302 C  
ENDROOT
BRANCH   4  13
HETATM   13  C   UNL     1     -10.975  11.081  65.189  1.00  0.00    -0.033 C  
BRANCH  13  14
HETATM   14  O   UNL     1      -9.954  10.144  64.783  1.00  0.00    -0.331 OA 
BRANCH  14  15
HETATM   15  C   UNL     1      -9.547  10.222  63.497  1.00  0.00    -0.266 C  
HETATM   16  O   UNL     1      -9.509  11.219  62.797  1.00  0.00    -0.352 OA 
HETATM   17  N   UNL     1      -9.205   8.993  63.053  1.00  0.00    -0.431 N  
HETATM   18  H2  UNL     1      -9.247   8.135  63.604  1.00  0.00     0.000 HD 
HETATM   19  H1  UNL     1      -8.897   9.051  62.081  1.00  0.00     0.000 HD 
ENDBRANCH  14  15
ENDBRANCH  13  14
ENDBRANCH   4  13
BRANCH  12  20
HETATM   20  N   UNL     1      -9.592  16.575  67.838  1.00  0.00    -0.231 N  
HETATM   21  O   UNL     1     -10.740  18.546  67.632  1.00  0.00    -0.423 OA 
HETATM   22  C   UNL     1     -10.345  17.617  68.329  1.00  0.00    -0.384 C  
HETATM   23  H   UNL     1      -9.250  15.876  68.497  1.00  0.00     0.000 HD 
BRANCH  22  24
HETATM   24  C   UNL     1     -10.610  17.555  69.820  1.00  0.00     0.462 C  
BRANCH  24  25
HETATM   25  C   UNL     1     -11.344  16.305  70.189  1.00  0.00    -0.282 A  
HETATM   26  C   UNL     1     -11.891  15.353  69.349  1.00  0.00    -0.372 A  
HETATM   27  C   UNL     1     -12.629  14.363  70.060  1.00  0.00    -0.283 A  
HETATM   28  C   UNL     1     -12.593  14.570  71.420  1.00  0.00    -0.341 A  
HETATM   29  S   UNL     1     -11.664  15.943  71.835  1.00  0.00    -0.501 SA 
ENDBRANCH  24  25
ENDBRANCH  22  24
ENDBRANCH  12  20
BRANCH  12  30
HETATM   30  O   UNL     1      -8.269  17.381  65.927  1.00  0.00    -0.537 OA 
HETATM   31  C   UNL     1      -6.927  17.147  66.342  1.00  0.00    -0.261 C  
ENDBRANCH  12  30
TORSDOF 7
ENDMDL
MODEL        6
REMARK 921   NORMALIZED FREE ENERGY PREDICTED BY IDOCK:   -6.41 KCAL/MOL
REMARK 922        TOTAL FREE ENERGY PREDICTED BY IDOCK:   -9.71 KCAL/MOL
REMARK 923 INTER-LIGAND FREE ENERGY PREDICTED BY IDOCK:   -8.99 KCAL/MOL
REMARK 924 INTRA-LIGAND FREE ENERGY PREDICTED BY IDOCK:   -0.72 KCAL/MOL
REMARK 927      BINDING AFFINITY PREDICTED BY RF-SCORE:    0.00 PKD
ROOT
HETATM    1  C   UNL     1     -11.233  14.557  67.306  1.00  0.00    -0.332 C  
HETATM    2  S   UNL     1     -11.830  15.616  68.641  1.00  0.00    -0.186 SA 
HETATM    3  C   UNL     1     -10.705  16.961  68.227  1.00  0.00    -0.377 C  
HETATM    4  C   UNL     1      -9.261  16.552  67.991  1.00  0.00    -0.214 C  
HETATM    5  C   UNL     1      -8.863  15.291  67.647  1.00  0.00    -0.175 C  
HETATM    6  O   UNL     1      -8.990  12.239  66.845  1.00  0.00    -0.196 OA 
HETATM    7  O   UNL     1      -7.019  13.761  67.092  1.00  0.00    -0.113 OA 
HETATM    8  C   UNL     1      -7.378  14.963  67.575  1.00  0.00    -0.204 C  
HETATM    9  N   UNL     1      -9.807  14.315  67.467  1.00  0.00    -0.228 N  
HETATM   10  C   UNL     1      -9.870  12.994  67.189  1.00  0.00    -0.230 C  
HETATM   11  O   UNL     1      -6.501  15.751  67.903  1.00  0.00    -0.125 OA 
HETATM   12  C   UNL     1     -11.452  12.990  67.516  1.00  0.00    -0.328 C  
ENDROOT
BRANCH   4  13
HETATM   13  C   UNL     1      -8.303  17.716  68.262  1.00  0.00    -0.274 C  
BRANCH  13  14
HETATM   14  O   UNL     1      -8.847  18.948  67.741  1.00  0.00    -0.284 OA 
BRANCH  14  15
HETATM   15  C   UNL     1      -8.565  19.229  66.450  1.00  0.00    -0.343 C  
HETATM   16  O   UNL     1      -7.714  18.704  65.752  1.00  0.00    -0.491 OA 
HETATM   17  N   UNL     1      -9.356  20.236  66.020  1.00  0.00    -0.622 N  
HETATM   18  H2  UNL     1     -10.060  20.713  66.584  1.00  0.00     0.000 HD 
HETATM   19  H1  UNL     1      -9.143  20.449  65.045  1.00  0.00     0.000 HD 
ENDBRANCH  14  15
ENDBRANCH  13  14
ENDBRANCH   4  13
BRANCH  12  20
HETATM   20  N   UNL     1     -11.870  12.620  68.908  1.00  0.00    -0.311 N  
HETATM   21  O   UNL     1     -11.744  10.349  68.649  1.00  0.00    -0.224 OA 
HETATM   22  C   UNL     1     -11.944  11.324  69.366  1.00  0.00    -0.341 C  
HETATM   23  H   UNL     1     -12.114  13.372  69.553  1.00  0.00     0.000 HD 
BRANCH  22  24
HETATM   24  C   UNL     1     -12.342  11.190  70.822  1.00  0.00    -0.504 C  
BRANCH  24  25
HETATM   25  C   UNL     1     -11.999   9.836  71.356  1.00  0.00    -0.411 A  
HETATM   26  C   UNL     1     -10.747   9.292  71.571  1.00  0.00    -0.425 A  
HETATM   27  C   UNL     1     -10.810   7.925  71.968  1.00  0.00    -0.312 A  
HETATM   28  C   UNL     1     -12.108   7.479  72.077  1.00  0.00    -0.291 A  
HETATM   29  S   UNL     1     -13.240   8.707  71.713  1.00  0.00    -0.376 SA 
ENDBRANCH  24  25
ENDBRANCH  22  24
ENDBRANCH  12  20
BRANCH  12  30
HETATM   30  O   UNL     1     -12.276  12.363  66.496  1.00  0.00    -0.586 OA 
HETATM   31  C   UNL     1     -12.335  13.047  65.248  1.00  0.00    -0.486 C  
ENDBRANCH  12  30
TORSDOF 7
ENDMDL
MODEL        7
REMARK 921   NORMALIZED FREE ENERGY PREDICTED BY IDOCK:   -6.40 KCAL/MOL
REMARK 922        TOTAL FREE ENERGY PREDICTED BY IDOCK:   -9.69 KCAL/MOL
REMARK 923 INTER-LIGAND FREE ENERGY PREDICTED BY IDOCK:   -8.66 KCAL/MOL
REMARK 924 INTRA-LIGAND FREE ENERGY PREDICTED BY IDOCK:   -1.03 KCAL/MOL
REMARK 927      BINDING AFFINITY PREDICTED BY RF-SCORE:    0.00 PKD
ROOT
HETATM    1  C   UNL     1     -11.396  11.841  66.373  1.00  0.00    -0.297 C  
HETATM    2  S   UNL     1      -9.850  11.223  65.674  1.00  0.00    -0.246 SA 
HETATM    3  C   UNL     1     -10.012   9.608  66.456  1.00  0.00    -0.246 C  
HETATM    4  C   UNL     1     -10.377   9.632  67.930  1.00  0.00    -0.271 C  
HETATM    5  C   UNL     1     -10.990  10.681  68.555  1.00  0.00    -0.248 C  
HETATM    6  O   UNL     1     -12.406  13.467  69.009  1.00  0.00    -0.252 OA 
HETATM    7  O   UNL     1     -11.914  11.625  70.630  1.00  0.00    -0.358 OA 
HETATM    8  C   UNL     1     -11.179  10.651  70.065  1.00  0.00    -0.309 C  
HETATM    9  N   UNL     1     -11.337  11.787  67.826  1.00  0.00    -0.267 N  
HETATM   10  C   UNL     1     -11.882  13.009  68.021  1.00  0.00    -0.347 C  
HETATM   11  O   UNL     1     -10.723   9.769  70.781  1.00  0.00    -0.303 OA 
HETATM   12  C   UNL     1     -11.510  13.427  66.506  1.00  0.00    -0.341 C  
ENDROOT
BRANCH   4  13
HETATM   13  C   UNL     1      -9.902   8.362  68.640  1.00  0.00    -0.170 C  
BRANCH  13  14
HETATM   14  O   UNL     1     -10.813   7.271  68.383  1.00  0.00    -0.159 OA 
BRANCH  14  15
HETATM   15  C   UNL     1     -11.079   6.455  69.426  1.00  0.00    -0.387 C  
HETATM   16  O   UNL     1     -10.543   5.391  69.683  1.00  0.00    -0.298 OA 
HETATM   17  N   UNL     1     -12.085   6.973  70.165  1.00  0.00    -0.623 N  
HETATM   18  H2  UNL     1     -12.571   7.847  69.965  1.00  0.00     0.000 HD 
HETATM   19  H1  UNL     1     -12.287   6.357  70.952  1.00  0.00     0.000 HD 
ENDBRANCH  14  15
ENDBRANCH  13  14
ENDBRANCH   4  13
BRANCH  12  20
HETATM   20  N   UNL     1     -10.212  14.146  66.285  1.00  0.00    -0.287 N  
HETATM   21  O   UNL     1     -10.674  15.972  67.588  1.00  0.00    -0.310 OA 
HETATM   22  C   UNL     1      -9.892  15.346  66.879  1.00  0.00    -0.244 C  
HETATM   23  H   UNL     1      -9.528  13.722  65.658  1.00  0.00     0.000 HD 
BRANCH  22  24
HETATM   24  C   UNL     1      -8.506  15.863  66.550  1.00  0.00    -0.348 C  
BRANCH  24  25
HETATM   25  C   UNL     1      -8.304  17.248  67.080  1.00  0.00    -0.208 A  
HETATM   26  C   UNL     1      -8.620  18.450  66.475  1.00  0.00    -0.287 A  
HETATM   27  C   UNL     1      -8.162  19.571  67.226  1.00  0.00    -0.321 A  
HETATM   28  C   UNL     1      -7.542  19.191  68.395  1.00  0.00    -0.312 A  
HETATM   29  S   UNL     1      -7.525  17.492  68.587  1.00  0.00    -0.265 SA 
ENDBRANCH  24  25
ENDBRANCH  22  24
ENDBRANCH  12  20
BRANCH  12  30
HETATM   30  O   UNL     1     -12.610  14.009  65.753  1.00  0.00    -0.491 OA 
HETATM   31  C   UNL     1     -12.277  14.498  64.458  1.00  0.00    -0.465 C  
ENDBRANCH  12  30
TORSDOF 7
ENDMDL
MODEL        8
REMARK 921   NORMALIZED FREE ENERGY PREDICTED BY IDOCK:   -6.34 KCAL/MOL
REMARK 922        TOTAL FREE ENERGY PREDICTED BY IDOCK:   -9.61 KCAL/MOL
REMARK 923 INTER-LIGAND FREE ENERGY PREDICTED BY IDOCK:   -8.98 KCAL/MOL
REMARK 924 INTRA-LIGAND FREE ENERGY PREDICTED BY IDOCK:   -0.62 KCAL/MOL
REMARK 927      BINDING AFFINITY PREDICTED BY RF-SCORE:    0.00 PKD
ROOT
HETATM    1  C   UNL     1      -9.910  13.773  66.562  1.00  0.00    -0.290 C  
HETATM    2  S   UNL     1     -11.199  14.888  67.157  1.00  0.00    -0.338 SA 
HETATM    3  C   UNL     1     -10.473  16.333  66.361  1.00  0.00    -0.294 C  
HETATM    4  C   UNL     1      -8.978  16.506  66.569  1.00  0.00    -0.312 C  
HETATM    5  C   UNL     1      -8.123  15.494  66.902  1.00  0.00    -0.249 C  
HETATM    6  O   UNL     1      -7.040  12.602  67.565  1.00  0.00    -0.128 OA 
HETATM    7  O   UNL     1      -5.823  14.783  67.402  1.00  0.00    -0.341 OA 
HETATM    8  C   UNL     1      -6.670  15.812  67.223  1.00  0.00    -0.162 C  
HETATM    9  N   UNL     1      -8.610  14.221  67.038  1.00  0.00    -0.212 N  
HETATM   10  C   UNL     1      -8.170  12.991  67.385  1.00  0.00    -0.183 C  
HETATM   11  O   UNL     1      -6.232  16.952  67.292  1.00  0.00    -0.133 OA 
HETATM   12  C   UNL     1      -9.691  12.448  67.423  1.00  0.00    -0.193 C  
ENDROOT
BRANCH   4  13
HETATM   13  C   UNL     1      -8.565  17.974  66.428  1.00  0.00    -0.228 C  
BRANCH  13  14
HETATM   14  O   UNL     1      -9.487  18.827  67.140  1.00  0.00    -0.295 OA 
BRANCH  14  15
HETATM   15  C   UNL     1      -9.099  19.236  68.368  1.00  0.00    -0.359 C  
HETATM   16  O   UNL     1      -7.960  19.285  68.801  1.00  0.00    -0.351 OA 
HETATM   17  N   UNL     1     -10.183  19.566  69.103  1.00  0.00    -0.612 N  
HETATM   18  H2  UNL     1     -11.150  19.514  68.780  1.00  0.00     0.000 HD 
HETATM   19  H1  UNL     1      -9.890  19.874  70.030  1.00  0.00     0.000 HD 
ENDBRANCH  14  15
ENDBRANCH  13  14
ENDBRANCH   4  13
BRANCH  12  20
HETATM   20  N   UNL     1     -10.399  12.463  68.746  1.00  0.00    -0.378 N  
HETATM   21  O   UNL     1     -12.275  11.333  68.077  1.00  0.00    -0.621 OA 
HETATM   22  C   UNL     1     -11.620  11.868  68.966  1.00  0.00    -0.317 C  
HETATM   23  H   UNL     1      -9.949  12.942  69.526  1.00  0.00     0.000 HD 
BRANCH  22  24
HETATM   24  C   UNL     1     -12.122  11.966  70.393  1.00  0.00    -0.421 C  
BRANCH  24  25
HETATM   25  C   UNL     1     -12.197  10.618  71.037  1.00  0.00    -0.393 A  
HETATM   26  C   UNL     1     -13.244  10.068  71.751  1.00  0.00    -0.540 A  
HETATM   27  C   UNL     1     -12.905   8.809  72.327  1.00  0.00    -0.465 A  
HETATM   28  C   UNL     1     -11.624   8.423  72.005  1.00  0.00    -0.351 A  
HETATM   29  S   UNL     1     -10.842   9.568  71.005  1.00  0.00    -0.359 SA 
ENDBRANCH  24  25
ENDBRANCH  22  24
ENDBRANCH  12  20
BRANCH  12  30
HETATM   30  O   UNL     1      -9.909  11.215  66.683  1.00  0.00    -0.191 OA 
HETATM   31  C   UNL     1     -10.103  11.367  65.281  1.00  0.00    -0.268 C  
ENDBRANCH  12  30
TORSDOF 7
ENDMDL
MODEL        9
REMARK 921   NORMALIZED FREE ENERGY PREDICTED BY IDOCK:   -6.31 KCAL/MOL
REMARK 922        TOTAL FREE ENERGY PREDICTED BY IDOCK:   -9.57 KCAL/MOL
REMARK 923 INTER-LIGAND FREE ENERGY PREDICTED BY IDOCK:   -8.83 KCAL/MOL
REMARK 924 INTRA-LIGAND FREE ENERGY PREDICTED BY IDOCK:   -0.73 KCAL/MOL
REMARK 927      BINDING AFFINITY PREDICTED BY RF-SCORE:    0.00 PKD
ROOT
HETATM    1  C   UNL     1     -11.662  13.508  66.967  1.00  0.00    -0.383 C  
HETATM    2  S   UNL     1     -11.235  12.405  68.330  1.00  0.00    -0.298 SA 
HETATM    3  C   UNL     1     -12.010  13.457  69.571  1.00  0.00    -0.319 C  
HETATM    4  C   UNL     1     -11.667  14.934  69.479  1.00  0.00    -0.353 C  
HETATM    5  C   UNL     1     -11.216  15.551  68.346  1.00  0.00    -0.341 C  
HETATM    6  O   UNL     1     -10.346  16.009  65.345  1.00  0.00    -0.409 OA 
HETATM    7  O   UNL     1     -10.471  17.624  67.252  1.00  0.00    -0.346 OA 
HETATM    8  C   UNL     1     -10.769  17.005  68.408  1.00  0.00    -0.361 C  
HETATM    9  N   UNL     1     -11.080  14.823  67.194  1.00  0.00    -0.324 N  
HETATM   10  C   UNL     1     -10.648  14.992  65.924  1.00  0.00    -0.329 C  
HETATM   11  O   UNL     1     -10.701  17.641  69.450  1.00  0.00    -0.057 OA 
HETATM   12  C   UNL     1     -10.735  13.398  65.672  1.00  0.00    -0.277 C  
ENDROOT
BRANCH   4  13
HETATM   13  C   UNL     1     -11.821  15.626  70.835  1.00  0.00    -0.388 C  
BRANCH  13  14
HETATM   14  O   UNL     1     -13.216  15.729  71.193  1.00  0.00    -0.526 OA 
BRANCH  14  15
HETATM   15  C   UNL     1     -13.579  15.154  72.361  1.00  0.00    -0.470 C  
HETATM   16  O   UNL     1     -13.917  13.996  72.536  1.00  0.00    -0.600 OA 
HETATM   17  N   UNL     1     -13.553  16.075  73.349  1.00  0.00    -0.807 N  
HETATM   18  H2  UNL     1     -13.298  17.056  73.232  1.00  0.00     0.000 HD 
HETATM   19  H1  UNL     1     -13.827  15.641  74.231  1.00  0.00     0.000 HD 
ENDBRANCH  14  15
ENDBRANCH  13  14
ENDBRANCH   4  13
BRANCH  12  20
HETATM   20  N   UNL     1      -9.488  12.593  65.889  1.00  0.00    -0.436 N  
HETATM   21  O   UNL     1     -10.340  10.569  65.240  1.00  0.00    -0.287 OA 
HETATM   22  C   UNL     1      -9.390  11.248  65.617  1.00  0.00    -0.224 C  
HETATM   23  H   UNL     1      -8.666  13.071  66.260  1.00  0.00     0.000 HD 
BRANCH  22  24
HETATM   24  C   UNL     1      -8.019  10.652  65.866  1.00  0.00    -0.157 C  
BRANCH  24  25
HETATM   25  C   UNL     1      -7.699  10.619  67.327  1.00  0.00    -0.108 A  
HETATM   26  C   UNL     1      -8.365   9.946  68.334  1.00  0.00    -0.107 A  
HETATM   27  C   UNL     1      -7.848  10.254  69.626  1.00  0.00    -0.168 A  
HETATM   28  C   UNL     1      -6.783  11.123  69.561  1.00  0.00    -0.132 A  
HETATM   29  S   UNL     1      -6.404  11.553  67.951  1.00  0.00    -0.059 SA 
ENDBRANCH  24  25
ENDBRANCH  22  24
ENDBRANCH  12  20
BRANCH  12  30
HETATM   30  O   UNL     1     -11.447  13.018  64.462  1.00  0.00    -0.319 OA 
HETATM   31  C   UNL     1     -12.858  12.886  64.596  1.00  0.00    -0.246 C  
ENDBRANCH  12  30
TORSDOF 7
ENDMDL
MODEL       10
REMARK 921   NORMALIZED FREE ENERGY PREDICTED BY IDOCK:   -6.26 KCAL/MOL
REMARK 922        TOTAL FREE ENERGY PREDICTED BY IDOCK:   -9.50 KCAL/MOL
REMARK 923 INTER-LIGAND FREE ENERGY PREDICTED BY IDOCK:   -8.67 KCAL/MOL
REMARK 924 INTRA-LIGAND FREE ENERGY PREDICTED BY IDOCK:   -0.83 KCAL/MOL
REMARK 927      BINDING AFFINITY PREDICTED BY RF-SCORE:    0.00 PKD
ROOT
HETATM    1  C   UNL     1     -11.561  12.973  67.691  1.00  0.00    -0.355 C  
HETATM    2  S   UNL     1     -10.429  11.616  68.060  1.00  0.00    -0.202 SA 
HETATM    3  C   UNL     1     -11.542  10.867  69.264  1.00  0.00    -0.318 C  
HETATM    4  C   UNL     1     -12.146  11.826  70.276  1.00  0.00    -0.426 C  
HETATM    5  C   UNL     1     -12.263  13.173  70.087  1.00  0.00    -0.290 C  
HETATM    6  O   UNL     1     -12.144  16.012  68.708  1.00  0.00    -0.255 OA 
HETATM    7  O   UNL     1     -12.999  15.350  70.964  1.00  0.00    -0.432 OA 
HETATM    8  C   UNL     1     -12.754  14.054  71.227  1.00  0.00    -0.365 C  
HETATM    9  N   UNL     1     -11.845  13.724  68.904  1.00  0.00    -0.342 N  
HETATM   10  C   UNL     1     -11.728  14.942  68.330  1.00  0.00    -0.315 C  
HETATM   11  O   UNL     1     -12.967  13.633  72.355  1.00  0.00    -0.357 OA 
HETATM   12  C   UNL     1     -10.886  14.298  67.111  1.00  0.00    -0.296 C  
ENDROOT
BRANCH   4  13
HETATM   13  C   UNL     1     -12.537  11.098  71.564  1.00  0.00    -0.325 C  
BRANCH  13  14
HETATM   14  O   UNL     1     -11.875   9.817  71.641  1.00  0.00    -0.389 OA 
BRANCH  14  15
HETATM   15  C   UNL     1     -12.591   8.803  72.174  1.00  0.00    -0.399 C  
HETATM   16  O   UNL     1     -12.357   7.610  72.083  1.00  0.00    -0.292 OA 
HETATM   17  N   UNL     1     -13.670   9.297  72.820  1.00  0.00    -0.811 N  
HETATM   18  H2  UNL     1     -13.907  10.287  72.895  1.00  0.00     0.000 HD 
HETATM   19  H1  UNL     1     -14.211   8.532  73.223  1.00  0.00     0.000 HD 
ENDBRANCH  14  15
ENDBRANCH  13  14
ENDBRANCH   4  13
BRANCH  12  20
HETATM   20  N   UNL     1      -9.390  14.310  67.219  1.00  0.00    -0.205 N  
HETATM   21  O   UNL     1      -9.098  16.552  66.855  1.00  0.00    -0.204 OA 
HETATM   22  C   UNL     1      -8.626  15.451  67.118  1.00  0.00    -0.210 C  
HETATM   23  H   UNL     1      -8.912  13.423  67.377  1.00  0.00     0.000 HD 
BRANCH  22  24
HETATM   24  C   UNL     1      -7.139  15.232  67.308  1.00  0.00    -0.187 C  
BRANCH  24  25
HETATM   25  C   UNL     1      -6.476  16.457  67.857  1.00  0.00    -0.135 A  
HETATM   26  C   UNL     1      -6.545  16.964  69.141  1.00  0.00    -0.224 A  
HETATM   27  C   UNL     1      -5.886  18.222  69.262  1.00  0.00    -0.234 A  
HETATM   28  C   UNL     1      -5.307  18.617  68.078  1.00  0.00    -0.171 A  
HETATM   29  S   UNL     1      -5.548  17.471  66.833  1.00  0.00    -0.175 SA 
ENDBRANCH  24  25
ENDBRANCH  22  24
ENDBRANCH  12  20
BRANCH  12  30
HETATM   30  O   UNL     1     -11.358  14.675  65.788  1.00  0.00    -0.335 OA 
HETATM   31  C   UNL     1     -10.888  13.864  64.715  1.00  0.00    -0.419 C  
ENDBRANCH  12  30
TORSDOF 7
ENDMDL
MODEL       11
REMARK 921   NORMALIZED FREE ENERGY PREDICTED BY IDOCK:   -6.23 KCAL/MOL
REMARK 922        TOTAL FREE ENERGY PREDICTED BY IDOCK:   -9.46 KCAL/MOL
REMARK 923 INTER-LIGAND FREE ENERGY PREDICTED BY IDOCK:   -8.74 KCAL/MOL
REMARK 924 INTRA-LIGAND FREE ENERGY PREDICTED BY IDOCK:   -0.72 KCAL/MOL
REMARK 927      BINDING AFFINITY PREDICTED BY RF-SCORE:    0.00 PKD
ROOT
HETATM    1  C   UNL     1     -10.560  13.031  66.093  1.00  0.00    -0.277 C  
HETATM    2  S   UNL     1     -11.927  14.188  66.319  1.00  0.00    -0.433 SA 
HETATM    3  C   UNL     1     -11.003  15.584  65.653  1.00  0.00    -0.303 C  
HETATM    4  C   UNL     1      -9.594  15.750  66.197  1.00  0.00    -0.364 C  
HETATM    5  C   UNL     1      -8.864  14.746  66.767  1.00  0.00    -0.252 C  
HETATM    6  O   UNL     1      -8.031  11.878  67.794  1.00  0.00    -0.127 OA 
HETATM    7  O   UNL     1      -6.761  14.034  67.824  1.00  0.00    -0.151 OA 
HETATM    8  C   UNL     1      -7.519  15.062  67.405  1.00  0.00    -0.205 C  
HETATM    9  N   UNL     1      -9.398  13.487  66.841  1.00  0.00    -0.246 N  
HETATM   10  C   UNL     1      -9.079  12.270  67.336  1.00  0.00    -0.184 C  
HETATM   11  O   UNL     1      -7.084  16.199  67.524  1.00  0.00    -0.133 OA 
HETATM   12  C   UNL     1     -10.578  11.746  67.040  1.00  0.00    -0.232 C  
ENDROOT
BRANCH   4  13
HETATM   13  C   UNL     1      -9.127  17.205  66.092  1.00  0.00    -0.179 C  
BRANCH  13  14
HETATM   14  O   UNL     1     -10.242  18.072  65.794  1.00  0.00    -0.574 OA 
BRANCH  14  15
HETATM   15  C   UNL     1     -10.345  19.194  66.539  1.00  0.00    -0.442 C  
HETATM   16  O   UNL     1     -10.852  19.299  67.643  1.00  0.00    -0.458 OA 
HETATM   17  N   UNL     1      -9.821  20.240  65.863  1.00  0.00    -0.625 N  
HETATM   18  H2  UNL     1      -9.411  20.190  64.931  1.00  0.00     0.000 HD 
HETATM   19  H1  UNL     1      -9.899  21.087  66.426  1.00  0.00     0.000 HD 
ENDBRANCH  14  15
ENDBRANCH  13  14
ENDBRANCH   4  13
BRANCH  12  20
HETATM   20  N   UNL     1     -11.576  11.834  68.158  1.00  0.00    -0.315 N  
HETATM   21  O   UNL     1     -10.341  10.715  69.729  1.00  0.00    -0.205 OA 
HETATM   22  C   UNL     1     -11.352  11.339  69.423  1.00  0.00    -0.292 C  
HETATM   23  H   UNL     1     -12.470  12.285  67.969  1.00  0.00     0.000 HD 
BRANCH  22  24
HETATM   24  C   UNL     1     -12.480  11.584  70.404  1.00  0.00    -0.324 C  
BRANCH  24  25
HETATM   25  C   UNL     1     -12.461  12.991  70.913  1.00  0.00    -0.310 A  
HETATM   26  C   UNL     1     -11.741  14.067  70.429  1.00  0.00    -0.292 A  
HETATM   27  C   UNL     1     -11.877  15.224  71.249  1.00  0.00    -0.416 A  
HETATM   28  C   UNL     1     -12.723  15.005  72.313  1.00  0.00    -0.338 A  
HETATM   29  S   UNL     1     -13.356  13.417  72.312  1.00  0.00    -0.530 SA 
ENDBRANCH  24  25
ENDBRANCH  22  24
ENDBRANCH  12  20
BRANCH  12  30
HETATM   30  O   UNL     1     -10.645  10.482  66.325  1.00  0.00    -0.212 OA 
HETATM   31  C   UNL     1     -10.097  10.490  65.011  1.00  0.00    -0.321 C  
ENDBRANCH  12  30
TORSDOF 7
ENDMDL
MODEL       12
REMARK 921   NORMALIZED FREE ENERGY PREDICTED BY IDOCK:   -6.22 KCAL/MOL
REMARK 922        TOTAL FREE ENERGY PREDICTED BY IDOCK:   -9.44 KCAL/MOL
REMARK 923 INTER-LIGAND FREE ENERGY PREDICTED BY IDOCK:   -8.35 KCAL/MOL
REMARK 924 INTRA-LIGAND FREE ENERGY PREDICTED BY IDOCK:   -1.09 KCAL/MOL
REMARK 927      BINDING AFFINITY PREDICTED BY RF-SCORE:    0.00 PKD
ROOT
HETATM    1  C   UNL     1     -11.333  12.177  65.770  1.00  0.00    -0.354 C  
HETATM    2  S   UNL     1      -9.814  11.666  64.939  1.00  0.00    -0.211 SA 
HETATM    3  C   UNL     1     -10.027   9.930  65.374  1.00  0.00    -0.279 C  
HETATM    4  C   UNL     1     -10.382   9.663  66.826  1.00  0.00    -0.292 C  
HETATM    5  C   UNL     1     -10.954  10.580  67.662  1.00  0.00    -0.314 C  
HETATM    6  O   UNL     1     -12.269  13.258  68.697  1.00  0.00    -0.277 OA 
HETATM    7  O   UNL     1     -11.832  11.107  69.898  1.00  0.00    -0.298 OA 
HETATM    8  C   UNL     1     -11.135  10.246  69.136  1.00  0.00    -0.235 C  
HETATM    9  N   UNL     1     -11.267  11.823  67.180  1.00  0.00    -0.298 N  
HETATM   10  C   UNL     1     -11.768  12.996  67.629  1.00  0.00    -0.366 C  
HETATM   11  O   UNL     1     -10.706   9.221  69.648  1.00  0.00    -0.226 OA 
HETATM   12  C   UNL     1     -11.390  13.705  66.227  1.00  0.00    -0.312 C  
ENDROOT
BRANCH   4  13
HETATM   13  C   UNL     1      -9.948   8.258  67.254  1.00  0.00    -0.224 C  
BRANCH  13  14
HETATM   14  O   UNL     1     -10.942   7.285  66.869  1.00  0.00    -0.343 OA 
BRANCH  14  15
HETATM   15  C   UNL     1     -10.979   6.146  67.596  1.00  0.00    -0.302 C  
HETATM   16  O   UNL     1     -10.694   5.023  67.217  1.00  0.00    -0.097 OA 
HETATM   17  N   UNL     1     -11.424   6.415  68.843  1.00  0.00    -0.575 N  
HETATM   18  H2  UNL     1     -11.693   7.339  69.184  1.00  0.00     0.000 HD 
HETATM   19  H1  UNL     1     -11.451   5.556  69.392  1.00  0.00     0.000 HD 
ENDBRANCH  14  15
ENDBRANCH  13  14
ENDBRANCH   4  13
BRANCH  12  20
HETATM   20  N   UNL     1     -10.069  14.411  66.142  1.00  0.00    -0.296 N  
HETATM   21  O   UNL     1     -10.586  16.149  67.540  1.00  0.00    -0.304 OA 
HETATM   22  C   UNL     1      -9.770  15.559  66.840  1.00  0.00    -0.233 C  
HETATM   23  H   UNL     1      -9.353  14.018  65.532  1.00  0.00     0.000 HD 
BRANCH  22  24
HETATM   24  C   UNL     1      -8.357  16.069  66.638  1.00  0.00    -0.331 C  
BRANCH  24  25
HETATM   25  C   UNL     1      -8.190  17.443  67.207  1.00  0.00    -0.205 A  
HETATM   26  C   UNL     1      -7.657  17.804  68.430  1.00  0.00    -0.269 A  
HETATM   27  C   UNL     1      -7.780  19.201  68.684  1.00  0.00    -0.387 A  
HETATM   28  C   UNL     1      -8.371  19.866  67.634  1.00  0.00    -0.321 A  
HETATM   29  S   UNL     1      -8.763  18.811  66.347  1.00  0.00    -0.248 SA 
ENDBRANCH  24  25
ENDBRANCH  22  24
ENDBRANCH  12  20
BRANCH  12  30
HETATM   30  O   UNL     1     -12.474  14.465  65.625  1.00  0.00    -0.401 OA 
HETATM   31  C   UNL     1     -12.396  14.633  64.214  1.00  0.00    -0.349 C  
ENDBRANCH  12  30
TORSDOF 7
ENDMDL
MODEL       13
REMARK 921   NORMALIZED FREE ENERGY PREDICTED BY IDOCK:   -6.15 KCAL/MOL
REMARK 922        TOTAL FREE ENERGY PREDICTED BY IDOCK:   -9.34 KCAL/MOL
REMARK 923 INTER-LIGAND FREE ENERGY PREDICTED BY IDOCK:   -8.62 KCAL/MOL
REMARK 924 INTRA-LIGAND FREE ENERGY PREDICTED BY IDOCK:   -0.72 KCAL/MOL
REMARK 927      BINDING AFFINITY PREDICTED BY RF-SCORE:    0.00 PKD
ROOT
HETATM    1  C   UNL     1     -10.329  10.552  67.184  1.00  0.00    -0.235 C  
HETATM    2  S   UNL     1     -11.901  11.264  67.714  1.00  0.00     0.070 SA 
HETATM    3  C   UNL     1     -11.768  12.672  66.598  1.00  0.00    -0.398 C  
HETATM    4  C   UNL     1     -10.423  13.379  66.600  1.00  0.00    -0.280 C  
HETATM    5  C   UNL     1      -9.252  12.806  67.009  1.00  0.00    -0.221 C  
HETATM    6  O   UNL     1      -7.189  10.652  68.047  1.00  0.00    -0.084 OA 
HETATM    7  O   UNL     1      -6.829  13.032  67.363  1.00  0.00    -0.164 OA 
HETATM    8  C   UNL     1      -7.992  13.654  67.101  1.00  0.00    -0.041 C  
HETATM    9  N   UNL     1      -9.252  11.501  67.423  1.00  0.00    -0.164 N  
HETATM   10  C   UNL     1      -8.391  10.590  67.930  1.00  0.00    -0.115 C  
HETATM   11  O   UNL     1      -7.982  14.864  66.917  1.00  0.00    -0.180 OA 
HETATM   12  C   UNL     1      -9.618   9.586  68.236  1.00  0.00    -0.138 C  
ENDROOT
BRANCH   4  13
HETATM   13  C   UNL     1     -10.562  14.837  66.156  1.00  0.00    -0.311 C  
BRANCH  13  14
HETATM   14  O   UNL     1     -10.488  14.935  64.718  1.00  0.00    -0.398 OA 
BRANCH  14  15
HETATM   15  C   UNL     1     -11.480  15.625  64.112  1.00  0.00    -0.073 C  
HETATM   16  O   UNL     1     -11.582  16.836  64.017  1.00  0.00    -1.195 OA 
HETATM   17  N   UNL     1     -12.406  14.765  63.633  1.00  0.00    -1.067 N  
HETATM   18  H2  UNL     1     -12.363  13.749  63.716  1.00  0.00     0.000 HD 
HETATM   19  H1  UNL     1     -13.155  15.285  63.176  1.00  0.00     0.000 HD 
ENDBRANCH  14  15
ENDBRANCH  13  14
ENDBRANCH   4  13
BRANCH  12  20
HETATM   20  N   UNL     1     -10.226   9.633  69.607  1.00  0.00    -0.206 N  
HETATM   21  O   UNL     1      -9.009   7.920  70.517  1.00  0.00    -0.143 OA 
HETATM   22  C   UNL     1      -9.839   8.815  70.644  1.00  0.00    -0.194 C  
HETATM   23  H   UNL     1     -10.969  10.310  69.780  1.00  0.00     0.000 HD 
BRANCH  22  24
HETATM   24  C   UNL     1     -10.557   9.073  71.953  1.00  0.00    -0.388 C  
BRANCH  24  25
HETATM   25  C   UNL     1     -11.996   8.670  71.872  1.00  0.00    -0.356 A  
HETATM   26  C   UNL     1     -13.113   9.414  72.203  1.00  0.00    -0.526 A  
HETATM   27  C   UNL     1     -14.315   8.654  72.118  1.00  0.00    -0.518 A  
HETATM   28  C   UNL     1     -14.082   7.366  71.691  1.00  0.00    -0.421 A  
HETATM   29  S   UNL     1     -12.424   7.083  71.385  1.00  0.00    -0.375 SA 
ENDBRANCH  24  25
ENDBRANCH  22  24
ENDBRANCH  12  20
BRANCH  12  30
HETATM   30  O   UNL     1      -9.419   8.227  67.756  1.00  0.00    -0.145 OA 
HETATM   31  C   UNL     1     -10.495   7.679  67.002  1.00  0.00    -0.349 C  
ENDBRANCH  12  30
TORSDOF 7
ENDMDL
MODEL       14
REMARK 921   NORMALIZED FREE ENERGY PREDICTED BY IDOCK:   -6.14 KCAL/MOL
REMARK 922        TOTAL FREE ENERGY PREDICTED BY IDOCK:   -9.32 KCAL/MOL
REMARK 923 INTER-LIGAND FREE ENERGY PREDICTED BY IDOCK:   -8.40 KCAL/MOL
REMARK 924 INTRA-LIGAND FREE ENERGY PREDICTED BY IDOCK:   -0.92 KCAL/MOL
REMARK 927      BINDING AFFINITY PREDICTED BY RF-SCORE:    0.00 PKD
ROOT
HETATM    1  C   UNL     1     -11.839  12.978  67.727  1.00  0.00    -0.347 C  
HETATM    2  S   UNL     1     -10.847  11.501  68.031  1.00  0.00    -0.230 SA 
HETATM    3  C   UNL     1     -11.964  10.876  69.299  1.00  0.00    -0.310 C  
HETATM    4  C   UNL     1     -12.395  11.891  70.344  1.00  0.00    -0.334 C  
HETATM    5  C   UNL     1     -12.371  13.244  70.160  1.00  0.00    -0.236 C  
HETATM    6  O   UNL     1     -12.016  16.059  68.772  1.00  0.00    -0.340 OA 
HETATM    7  O   UNL     1     -12.804  15.485  71.077  1.00  0.00    -0.437 OA 
HETATM    8  C   UNL     1     -12.692  14.168  71.326  1.00  0.00    -0.361 C  
HETATM    9  N   UNL     1     -11.964  13.750  68.954  1.00  0.00    -0.353 N  
HETATM   10  C   UNL     1     -11.746  14.951  68.372  1.00  0.00    -0.309 C  
HETATM   11  O   UNL     1     -12.883  13.768  72.466  1.00  0.00    -0.320 OA 
HETATM   12  C   UNL     1     -11.056  14.222  67.106  1.00  0.00    -0.311 C  
ENDROOT
BRANCH   4  13
HETATM   13  C   UNL     1     -12.788  11.205  71.655  1.00  0.00    -0.419 C  
BRANCH  13  14
HETATM   14  O   UNL     1     -12.257   9.863  71.701  1.00  0.00    -0.382 OA 
BRANCH  14  15
HETATM   15  C   UNL     1     -13.049   8.924  72.263  1.00  0.00    -0.436 C  
HETATM   16  O   UNL     1     -14.264   8.953  72.367  1.00  0.00    -0.466 OA 
HETATM   17  N   UNL     1     -12.289   7.918  72.749  1.00  0.00    -0.591 N  
HETATM   18  H2  UNL     1     -11.271   7.874  72.700  1.00  0.00     0.000 HD 
HETATM   19  H1  UNL     1     -12.887   7.209  73.174  1.00  0.00     0.000 HD 
ENDBRANCH  14  15
ENDBRANCH  13  14
ENDBRANCH   4  13
BRANCH  12  20
HETATM   20  N   UNL     1      -9.564  14.066  67.125  1.00  0.00    -0.237 N  
HETATM   21  O   UNL     1      -9.050  16.282  67.389  1.00  0.00    -0.194 OA 
HETATM   22  C   UNL     1      -8.688  15.113  67.303  1.00  0.00    -0.202 C  
HETATM   23  H   UNL     1      -9.177  13.131  66.998  1.00  0.00     0.000 HD 
BRANCH  22  24
HETATM   24  C   UNL     1      -7.226  14.714  67.337  1.00  0.00    -0.182 C  
BRANCH  24  25
HETATM   25  C   UNL     1      -6.795  14.348  68.722  1.00  0.00    -0.096 A  
HETATM   26  C   UNL     1      -6.588  15.184  69.803  1.00  0.00    -0.177 A  
HETATM   27  C   UNL     1      -6.054  14.493  70.929  1.00  0.00    -0.115 A  
HETATM   28  C   UNL     1      -5.904  13.146  70.683  1.00  0.00    -0.143 A  
HETATM   29  S   UNL     1      -6.415  12.721  69.108  1.00  0.00    -0.105 SA 
ENDBRANCH  24  25
ENDBRANCH  22  24
ENDBRANCH  12  20
BRANCH  12  30
HETATM   30  O   UNL     1     -11.559  14.656  65.813  1.00  0.00    -0.351 OA 
HETATM   31  C   UNL     1     -12.189  13.648  65.029  1.00  0.00    -0.421 C  
ENDBRANCH  12  30
TORSDOF 7
ENDMDL
MODEL       15
REMARK 921   NORMALIZED FREE ENERGY PREDICTED BY IDOCK:   -6.10 KCAL/MOL
REMARK 922        TOTAL FREE ENERGY PREDICTED BY IDOCK:   -9.28 KCAL/MOL
REMARK 923 INTER-LIGAND FREE ENERGY PREDICTED BY IDOCK:   -8.14 KCAL/MOL
REMARK 924 INTRA-LIGAND FREE ENERGY PREDICTED BY IDOCK:   -1.13 KCAL/MOL
REMARK 927      BINDING AFFINITY PREDICTED BY RF-SCORE:    0.00 PKD
ROOT
HETATM    1  C   UNL     1     -11.375  12.603  68.102  1.00  0.00    -0.290 C  
HETATM    2  S   UNL     1      -9.874  11.602  68.044  1.00  0.00    -0.196 SA 
HETATM    3  C   UNL     1     -10.697  10.130  68.679  1.00  0.00    -0.222 C  
HETATM    4  C   UNL     1     -11.575  10.352  69.899  1.00  0.00    -0.358 C  
HETATM    5  C   UNL     1     -12.111  11.557  70.255  1.00  0.00    -0.359 C  
HETATM    6  O   UNL     1     -12.888  14.617  70.168  1.00  0.00    -0.282 OA 
HETATM    7  O   UNL     1     -13.497  12.844  71.826  1.00  0.00    -0.395 OA 
HETATM    8  C   UNL     1     -12.858  11.689  71.575  1.00  0.00    -0.364 C  
HETATM    9  N   UNL     1     -11.884  12.652  69.464  1.00  0.00    -0.318 N  
HETATM   10  C   UNL     1     -12.155  13.976  69.452  1.00  0.00    -0.340 C  
HETATM   11  O   UNL     1     -12.930  10.786  72.397  1.00  0.00    -0.193 OA 
HETATM   12  C   UNL     1     -11.150  14.180  68.203  1.00  0.00    -0.257 C  
ENDROOT
BRANCH   4  13
HETATM   13  C   UNL     1     -11.721   9.067  70.718  1.00  0.00    -0.242 C  
BRANCH  13  14
HETATM   14  O   UNL     1     -10.520   8.815  71.479  1.00  0.00    -0.248 OA 
BRANCH  14  15
HETATM   15  C   UNL     1     -10.671   8.108  72.621  1.00  0.00    -0.351 C  
HETATM   16  O   UNL     1      -9.792   7.755  73.388  1.00  0.00    -0.290 OA 
HETATM   17  N   UNL     1     -11.974   7.797  72.795  1.00  0.00    -0.608 N  
HETATM   18  H2  UNL     1     -12.730   8.056  72.161  1.00  0.00     0.000 HD 
HETATM   19  H1  UNL     1     -12.088   7.263  73.657  1.00  0.00     0.000 HD 
ENDBRANCH  14  15
ENDBRANCH  13  14
ENDBRANCH   4  13
BRANCH  12  20
HETATM   20  N   UNL     1      -9.734  14.570  68.511  1.00  0.00    -0.220 N  
HETATM   21  O   UNL     1     -10.169  16.719  69.171  1.00  0.00    -0.284 OA 
HETATM   22  C   UNL     1      -9.371  15.802  69.006  1.00  0.00    -0.244 C  
HETATM   23  H   UNL     1      -9.000  13.883  68.343  1.00  0.00     0.000 HD 
BRANCH  22  24
HETATM   24  C   UNL     1      -7.890  15.956  69.289  1.00  0.00    -0.226 C  
BRANCH  24  25
HETATM   25  C   UNL     1      -7.289  17.044  68.455  1.00  0.00    -0.220 A  
HETATM   26  C   UNL     1      -6.756  18.248  68.874  1.00  0.00    -0.259 A  
HETATM   27  C   UNL     1      -6.393  19.090  67.783  1.00  0.00    -0.219 A  
HETATM   28  C   UNL     1      -6.629  18.488  66.567  1.00  0.00    -0.192 A  
HETATM   29  S   UNL     1      -7.272  16.914  66.745  1.00  0.00    -0.268 SA 
ENDBRANCH  24  25
ENDBRANCH  22  24
ENDBRANCH  12  20
BRANCH  12  30
HETATM   30  O   UNL     1     -11.712  14.933  67.094  1.00  0.00    -0.356 OA 
HETATM   31  C   UNL     1     -11.050  14.772  65.844  1.00  0.00    -0.340 C  
ENDBRANCH  12  30
TORSDOF 7
ENDMDL
MODEL       16
REMARK 921   NORMALIZED FREE ENERGY PREDICTED BY IDOCK:   -6.09 KCAL/MOL
REMARK 922        TOTAL FREE ENERGY PREDICTED BY IDOCK:   -9.26 KCAL/MOL
REMARK 923 INTER-LIGAND FREE ENERGY PREDICTED BY IDOCK:   -8.81 KCAL/MOL
REMARK 924 INTRA-LIGAND FREE ENERGY PREDICTED BY IDOCK:   -0.45 KCAL/MOL
REMARK 927      BINDING AFFINITY PREDICTED BY RF-SCORE:    0.00 PKD
ROOT
HETATM    1  C   UNL     1     -11.630  13.234  66.682  1.00  0.00    -0.365 C  
HETATM    2  S   UNL     1     -11.187  12.131  68.041  1.00  0.00    -0.287 SA 
HETATM    3  C   UNL     1     -11.982  13.162  69.286  1.00  0.00    -0.292 C  
HETATM    4  C   UNL     1     -11.664  14.645  69.202  1.00  0.00    -0.342 C  
HETATM    5  C   UNL     1     -11.221  15.276  68.074  1.00  0.00    -0.326 C  
HETATM    6  O   UNL     1     -10.353  15.766  65.077  1.00  0.00    -0.468 OA 
HETATM    7  O   UNL     1     -10.510  17.368  66.993  1.00  0.00    -0.321 OA 
HETATM    8  C   UNL     1     -10.800  16.737  68.145  1.00  0.00    -0.353 C  
HETATM    9  N   UNL     1     -11.071  14.557  66.918  1.00  0.00    -0.317 N  
HETATM   10  C   UNL     1     -10.639  14.741  65.650  1.00  0.00    -0.340 C  
HETATM   11  O   UNL     1     -10.744  17.369  69.191  1.00  0.00    -0.247 OA 
HETATM   12  C   UNL     1     -10.698  13.147  65.389  1.00  0.00    -0.294 C  
ENDROOT
BRANCH   4  13
HETATM   13  C   UNL     1     -11.833  15.327  70.562  1.00  0.00    -0.324 C  
BRANCH  13  14
HETATM   14  O   UNL     1     -13.218  15.666  70.788  1.00  0.00    -0.517 OA 
BRANCH  14  15
HETATM   15  C   UNL     1     -13.716  15.370  72.008  1.00  0.00    -0.509 C  
HETATM   16  O   UNL     1     -13.717  16.085  72.995  1.00  0.00    -0.590 OA 
HETATM   17  N   UNL     1     -14.204  14.110  72.008  1.00  0.00    -0.514 N  
HETATM   18  H2  UNL     1     -14.198  13.478  71.207  1.00  0.00     0.000 HD 
HETATM   19  H1  UNL     1     -14.581  13.886  72.929  1.00  0.00     0.000 HD 
ENDBRANCH  14  15
ENDBRANCH  13  14
ENDBRANCH   4  13
BRANCH  12  20
HETATM   20  N   UNL     1      -9.438  12.363  65.604  1.00  0.00    -0.435 N  
HETATM   21  O   UNL     1     -10.260  10.324  64.962  1.00  0.00    -0.320 OA 
HETATM   22  C   UNL     1      -9.319  11.018  65.334  1.00  0.00    -0.216 C  
HETATM   23  H   UNL     1      -8.623  12.854  65.971  1.00  0.00     0.000 HD 
BRANCH  22  24
HETATM   24  C   UNL     1      -7.938  10.445  65.581  1.00  0.00    -0.153 C  
BRANCH  24  25
HETATM   25  C   UNL     1      -7.808   9.073  65.000  1.00  0.00    -0.113 A  
HETATM   26  C   UNL     1      -7.556   8.719  63.688  1.00  0.00    -0.124 A  
HETATM   27  C   UNL     1      -7.630   7.311  63.481  1.00  0.00    -0.117 A  
HETATM   28  C   UNL     1      -7.903   6.633  64.648  1.00  0.00    -0.116 A  
HETATM   29  S   UNL     1      -8.055   7.690  65.983  1.00  0.00    -0.126 SA 
ENDBRANCH  24  25
ENDBRANCH  22  24
ENDBRANCH  12  20
BRANCH  12  30
HETATM   30  O   UNL     1     -11.401  12.762  64.176  1.00  0.00    -0.342 OA 
HETATM   31  C   UNL     1     -12.781  12.451  64.338  1.00  0.00    -0.342 C  
ENDBRANCH  12  30
TORSDOF 7
ENDMDL
MODEL       17
REMARK 921   NORMALIZED FREE ENERGY PREDICTED BY IDOCK:   -6.07 KCAL/MOL
REMARK 922        TOTAL FREE ENERGY PREDICTED BY IDOCK:   -9.23 KCAL/MOL
REMARK 923 INTER-LIGAND FREE ENERGY PREDICTED BY IDOCK:   -9.20 KCAL/MOL
REMARK 924 INTRA-LIGAND FREE ENERGY PREDICTED BY IDOCK:   -0.03 KCAL/MOL
REMARK 927      BINDING AFFINITY PREDICTED BY RF-SCORE:    0.00 PKD
ROOT
HETATM    1  C   UNL     1     -10.057  13.206  66.840  1.00  0.00    -0.245 C  
HETATM    2  S   UNL     1     -11.335  14.359  67.385  1.00  0.00    -0.353 SA 
HETATM    3  C   UNL     1     -10.652  15.735  66.443  1.00  0.00    -0.307 C  
HETATM    4  C   UNL     1      -9.152  15.935  66.580  1.00  0.00    -0.320 C  
HETATM    5  C   UNL     1      -8.276  14.961  66.967  1.00  0.00    -0.196 C  
HETATM    6  O   UNL     1      -7.142  12.144  67.834  1.00  0.00    -0.084 OA 
HETATM    7  O   UNL     1      -5.952  14.310  67.442  1.00  0.00    -0.346 OA 
HETATM    8  C   UNL     1      -6.815  15.314  67.206  1.00  0.00    -0.073 C  
HETATM    9  N   UNL     1      -8.746  13.702  67.229  1.00  0.00    -0.209 N  
HETATM   10  C   UNL     1      -8.282  12.508  67.662  1.00  0.00    -0.172 C  
HETATM   11  O   UNL     1      -6.386  16.459  67.162  1.00  0.00    -0.167 OA 
HETATM   12  C   UNL     1      -9.795  11.960  67.803  1.00  0.00    -0.184 C  
ENDROOT
BRANCH   4  13
HETATM   13  C   UNL     1      -8.759  17.388  66.300  1.00  0.00    -0.207 C  
BRANCH  13  14
HETATM   14  O   UNL     1      -9.887  18.125  65.780  1.00  0.00    -0.527 OA 
BRANCH  14  15
HETATM   15  C   UNL     1     -10.183  19.286  66.405  1.00  0.00    -0.449 C  
HETATM   16  O   UNL     1     -10.976  19.449  67.317  1.00  0.00    -0.491 OA 
HETATM   17  N   UNL     1      -9.486  20.297  65.842  1.00  0.00    -0.611 N  
HETATM   18  H2  UNL     1      -8.833  20.198  65.064  1.00  0.00     0.000 HD 
HETATM   19  H1  UNL     1      -9.709  21.173  66.313  1.00  0.00     0.000 HD 
ENDBRANCH  14  15
ENDBRANCH  13  14
ENDBRANCH   4  13
BRANCH  12  20
HETATM   20  N   UNL     1     -10.455  12.083  69.144  1.00  0.00    -0.425 N  
HETATM   21  O   UNL     1     -12.447  11.111  68.571  1.00  0.00    -0.452 OA 
HETATM   22  C   UNL     1     -11.718  11.611  69.421  1.00  0.00    -0.340 C  
HETATM   23  H   UNL     1      -9.938  12.544  69.893  1.00  0.00     0.000 HD 
BRANCH  22  24
HETATM   24  C   UNL     1     -12.161  11.802  70.858  1.00  0.00    -0.378 C  
BRANCH  24  25
HETATM   25  C   UNL     1     -12.700  13.180  71.081  1.00  0.00    -0.300 A  
HETATM   26  C   UNL     1     -12.336  14.354  70.449  1.00  0.00    -0.406 A  
HETATM   27  C   UNL     1     -12.975  15.495  71.015  1.00  0.00    -0.550 A  
HETATM   28  C   UNL     1     -13.831  15.152  72.037  1.00  0.00    -0.504 A  
HETATM   29  S   UNL     1     -13.871  13.464  72.300  1.00  0.00    -0.495 SA 
ENDBRANCH  24  25
ENDBRANCH  22  24
ENDBRANCH  12  20
BRANCH  12  30
HETATM   30  O   UNL     1     -10.027  10.667  67.179  1.00  0.00    -0.184 OA 
HETATM   31  C   UNL     1      -9.713  10.589  65.792  1.00  0.00    -0.223 C  
ENDBRANCH  12  30
TORSDOF 7
ENDMDL
MODEL       18
REMARK 921   NORMALIZED FREE ENERGY PREDICTED BY IDOCK:   -6.05 KCAL/MOL
REMARK 922        TOTAL FREE ENERGY PREDICTED BY IDOCK:   -9.21 KCAL/MOL
REMARK 923 INTER-LIGAND FREE ENERGY PREDICTED BY IDOCK:   -8.83 KCAL/MOL
REMARK 924 INTRA-LIGAND FREE ENERGY PREDICTED BY IDOCK:   -0.38 KCAL/MOL
REMARK 927      BINDING AFFINITY PREDICTED BY RF-SCORE:    0.00 PKD
ROOT
HETATM    1  C   UNL     1     -11.480  13.142  66.188  1.00  0.00    -0.330 C  
HETATM    2  S   UNL     1     -11.094  11.935  67.473  1.00  0.00    -0.294 SA 
HETATM    3  C   UNL     1     -11.878  12.903  68.774  1.00  0.00    -0.315 C  
HETATM    4  C   UNL     1     -11.514  14.377  68.798  1.00  0.00    -0.319 C  
HETATM    5  C   UNL     1     -11.033  15.070  67.723  1.00  0.00    -0.298 C  
HETATM    6  O   UNL     1     -10.100  15.736  64.780  1.00  0.00    -0.330 OA 
HETATM    7  O   UNL     1     -10.240  17.207  66.799  1.00  0.00    -0.295 OA 
HETATM    8  C   UNL     1     -10.568  16.508  67.900  1.00  0.00    -0.329 C  
HETATM    9  N   UNL     1     -10.885  14.427  66.522  1.00  0.00    -0.305 N  
HETATM   10  C   UNL     1     -10.426  14.684  65.277  1.00  0.00    -0.398 C  
HETATM   11  O   UNL     1     -10.512  17.065  68.988  1.00  0.00    -0.318 OA 
HETATM   12  C   UNL     1     -10.530  13.115  64.905  1.00  0.00    -0.351 C  
ENDROOT
BRANCH   4  13
HETATM   13  C   UNL     1     -11.685  14.969  70.199  1.00  0.00    -0.299 C  
BRANCH  13  14
HETATM   14  O   UNL     1     -12.439  14.068  71.038  1.00  0.00    -0.330 OA 
BRANCH  14  15
HETATM   15  C   UNL     1     -13.432  14.620  71.770  1.00  0.00    -0.373 C  
HETATM   16  O   UNL     1     -13.626  14.486  72.966  1.00  0.00    -0.586 OA 
HETATM   17  N   UNL     1     -14.240  15.345  70.967  1.00  0.00    -0.846 N  
HETATM   18  H2  UNL     1     -14.120  15.459  69.960  1.00  0.00     0.000 HD 
HETATM   19  H1  UNL     1     -14.990  15.763  71.519  1.00  0.00     0.000 HD 
ENDBRANCH  14  15
ENDBRANCH  13  14
ENDBRANCH   4  13
BRANCH  12  20
HETATM   20  N   UNL     1      -9.298  12.278  65.084  1.00  0.00    -0.424 N  
HETATM   21  O   UNL     1     -10.266  10.249  64.645  1.00  0.00    -0.322 OA 
HETATM   22  C   UNL     1      -9.267  10.914  64.901  1.00  0.00    -0.204 C  
HETATM   23  H   UNL     1      -8.434  12.746  65.358  1.00  0.00     0.000 HD 
BRANCH  22  24
HETATM   24  C   UNL     1      -7.902  10.283  65.088  1.00  0.00    -0.138 C  
BRANCH  24  25
HETATM   25  C   UNL     1      -7.923   9.255  66.174  1.00  0.00    -0.107 A  
HETATM   26  C   UNL     1      -8.086   7.887  66.056  1.00  0.00    -0.112 A  
HETATM   27  C   UNL     1      -8.183   7.241  67.322  1.00  0.00    -0.115 A  
HETATM   28  C   UNL     1      -8.057   8.130  68.366  1.00  0.00    -0.128 A  
HETATM   29  S   UNL     1      -7.811   9.730  67.818  1.00  0.00    -0.094 SA 
ENDBRANCH  24  25
ENDBRANCH  22  24
ENDBRANCH  12  20
BRANCH  12  30
HETATM   30  O   UNL     1     -11.223  12.835  63.658  1.00  0.00    -0.436 OA 
HETATM   31  C   UNL     1     -12.557  12.355  63.791  1.00  0.00    -0.437 C  
ENDBRANCH  12  30
TORSDOF 7
ENDMDL
MODEL       19
REMARK 921   NORMALIZED FREE ENERGY PREDICTED BY IDOCK:   -6.04 KCAL/MOL
REMARK 922        TOTAL FREE ENERGY PREDICTED BY IDOCK:   -9.19 KCAL/MOL
REMARK 923 INTER-LIGAND FREE ENERGY PREDICTED BY IDOCK:   -7.82 KCAL/MOL
REMARK 924 INTRA-LIGAND FREE ENERGY PREDICTED BY IDOCK:   -1.37 KCAL/MOL
REMARK 927      BINDING AFFINITY PREDICTED BY RF-SCORE:    0.00 PKD
ROOT
HETATM    1  C   UNL     1     -10.884  14.034  66.333  1.00  0.00    -0.299 C  
HETATM    2  S   UNL     1      -9.801  12.589  66.334  1.00  0.00    -0.256 SA 
HETATM    3  C   UNL     1     -11.007  11.546  67.173  1.00  0.00    -0.286 C  
HETATM    4  C   UNL     1     -11.668  12.167  68.392  1.00  0.00    -0.388 C  
HETATM    5  C   UNL     1     -11.752  13.511  68.623  1.00  0.00    -0.354 C  
HETATM    6  O   UNL     1     -11.494  16.631  68.203  1.00  0.00    -0.208 OA 
HETATM    7  O   UNL     1     -12.517  15.336  70.084  1.00  0.00    -0.355 OA 
HETATM    8  C   UNL     1     -12.310  14.014  69.946  1.00  0.00    -0.310 C  
HETATM    9  N   UNL     1     -11.242  14.384  67.699  1.00  0.00    -0.300 N  
HETATM   10  C   UNL     1     -11.067  15.715  67.539  1.00  0.00    -0.289 C  
HETATM   11  O   UNL     1     -12.609  13.273  70.873  1.00  0.00    -0.345 OA 
HETATM   12  C   UNL     1     -10.150  15.448  66.236  1.00  0.00    -0.292 C  
ENDROOT
BRANCH   4  13
HETATM   13  C   UNL     1     -12.161  11.092  69.364  1.00  0.00    -0.326 C  
BRANCH  13  14
HETATM   14  O   UNL     1     -11.049  10.513  70.081  1.00  0.00    -0.285 OA 
BRANCH  14  15
HETATM   15  C   UNL     1     -11.336   9.940  71.270  1.00  0.00    -0.333 C  
HETATM   16  O   UNL     1     -10.631   9.178  71.909  1.00  0.00    -0.348 OA 
HETATM   17  N   UNL     1     -12.575  10.307  71.665  1.00  0.00    -0.421 N  
HETATM   18  H2  UNL     1     -13.200  10.923  71.144  1.00  0.00     0.000 HD 
HETATM   19  H1  UNL     1     -12.792   9.875  72.564  1.00  0.00     0.000 HD 
ENDBRANCH  14  15
ENDBRANCH  13  14
ENDBRANCH   4  13
BRANCH  12  20
HETATM   20  N   UNL     1      -8.666  15.373  66.437  1.00  0.00    -0.391 N  
HETATM   21  O   UNL     1      -8.349  17.562  67.029  1.00  0.00    -0.206 OA 
HETATM   22  C   UNL     1      -7.896  16.435  66.855  1.00  0.00    -0.238 C  
HETATM   23  H   UNL     1      -8.200  14.484  66.254  1.00  0.00     0.000 HD 
BRANCH  22  24
HETATM   24  C   UNL     1      -6.426  16.116  67.038  1.00  0.00    -0.109 C  
BRANCH  24  25
HETATM   25  C   UNL     1      -6.192  15.333  68.291  1.00  0.00    -0.120 A  
HETATM   26  C   UNL     1      -6.565  15.653  69.582  1.00  0.00    -0.181 A  
HETATM   27  C   UNL     1      -6.056  14.727  70.539  1.00  0.00    -0.142 A  
HETATM   28  C   UNL     1      -5.342  13.712  69.944  1.00  0.00    -0.092 A  
HETATM   29  S   UNL     1      -5.298  13.871  68.243  1.00  0.00    -0.118 SA 
ENDBRANCH  24  25
ENDBRANCH  22  24
ENDBRANCH  12  20
BRANCH  12  30
HETATM   30  O   UNL     1     -10.521  16.231  65.068  1.00  0.00    -0.621 OA 
HETATM   31  C   UNL     1     -11.693  15.799  64.386  1.00  0.00    -0.201 C  
ENDBRANCH  12  30
TORSDOF 7
ENDMDL
MODEL       20
REMARK 921   NORMALIZED FREE ENERGY PREDICTED BY IDOCK:   -6.04 KCAL/MOL
REMARK 922        TOTAL FREE ENERGY PREDICTED BY IDOCK:   -9.18 KCAL/MOL
REMARK 923 INTER-LIGAND FREE ENERGY PREDICTED BY IDOCK:   -7.91 KCAL/MOL
REMARK 924 INTRA-LIGAND FREE ENERGY PREDICTED BY IDOCK:   -1.27 KCAL/MOL
REMARK 927      BINDING AFFINITY PREDICTED BY RF-SCORE:    0.00 PKD
ROOT
HETATM    1  C   UNL     1     -11.422  11.862  66.249  1.00  0.00    -0.301 C  
HETATM    2  S   UNL     1      -9.892  11.239  65.524  1.00  0.00    -0.242 SA 
HETATM    3  C   UNL     1     -10.068   9.610  66.275  1.00  0.00    -0.252 C  
HETATM    4  C   UNL     1     -10.419   9.610  67.752  1.00  0.00    -0.309 C  
HETATM    5  C   UNL     1     -11.012  10.654  68.404  1.00  0.00    -0.251 C  
HETATM    6  O   UNL     1     -12.386  13.450  68.926  1.00  0.00    -0.212 OA 
HETATM    7  O   UNL     1     -11.904  11.569  70.505  1.00  0.00    -0.346 OA 
HETATM    8  C   UNL     1     -11.188  10.597  69.915  1.00  0.00    -0.308 C  
HETATM    9  N   UNL     1     -11.351  11.779  67.700  1.00  0.00    -0.283 N  
HETATM   10  C   UNL     1     -11.878  13.004  67.924  1.00  0.00    -0.343 C  
HETATM   11  O   UNL     1     -10.738   9.695  70.608  1.00  0.00    -0.276 OA 
HETATM   12  C   UNL     1     -11.513  13.447  66.414  1.00  0.00    -0.329 C  
ENDROOT
BRANCH   4  13
HETATM   13  C   UNL     1      -9.956   8.319  68.433  1.00  0.00    -0.190 C  
BRANCH  13  14
HETATM   14  O   UNL     1     -10.808   7.217  68.056  1.00  0.00    -0.193 OA 
BRANCH  14  15
HETATM   15  C   UNL     1     -11.062   6.301  69.016  1.00  0.00    -0.378 C  
HETATM   16  O   UNL     1     -10.619   5.167  69.086  1.00  0.00    -0.166 OA 
HETATM   17  N   UNL     1     -11.935   6.809  69.912  1.00  0.00    -0.659 N  
HETATM   18  H2  UNL     1     -12.343   7.744  69.871  1.00  0.00     0.000 HD 
HETATM   19  H1  UNL     1     -12.127   6.117  70.638  1.00  0.00     0.000 HD 
ENDBRANCH  14  15
ENDBRANCH  13  14
ENDBRANCH   4  13
BRANCH  12  20
HETATM   20  N   UNL     1     -10.208  14.153  66.195  1.00  0.00    -0.295 N  
HETATM   21  O   UNL     1     -10.773  16.120  67.225  1.00  0.00    -0.311 OA 
HETATM   22  C   UNL     1      -9.939  15.422  66.656  1.00  0.00    -0.260 C  
HETATM   23  H   UNL     1      -9.479  13.665  65.676  1.00  0.00     0.000 HD 
BRANCH  22  24
HETATM   24  C   UNL     1      -8.537  15.916  66.361  1.00  0.00    -0.364 C  
BRANCH  24  25
HETATM   25  C   UNL     1      -7.610  15.630  67.500  1.00  0.00    -0.175 A  
HETATM   26  C   UNL     1      -6.841  14.502  67.716  1.00  0.00    -0.193 A  
HETATM   27  C   UNL     1      -6.180  14.530  68.978  1.00  0.00    -0.092 A  
HETATM   28  C   UNL     1      -6.437  15.692  69.669  1.00  0.00    -0.179 A  
HETATM   29  S   UNL     1      -7.459  16.745  68.794  1.00  0.00    -0.239 SA 
ENDBRANCH  24  25
ENDBRANCH  22  24
ENDBRANCH  12  20
BRANCH  12  30
HETATM   30  O   UNL     1     -12.612  14.059  65.684  1.00  0.00    -0.497 OA 
HETATM   31  C   UNL     1     -12.445  14.133  64.271  1.00  0.00    -0.266 C  
ENDBRANCH  12  30
TORSDOF 7
ENDMDL
MODEL       21
REMARK 921   NORMALIZED FREE ENERGY PREDICTED BY IDOCK:   -6.04 KCAL/MOL
REMARK 922        TOTAL FREE ENERGY PREDICTED BY IDOCK:   -9.18 KCAL/MOL
REMARK 923 INTER-LIGAND FREE ENERGY PREDICTED BY IDOCK:   -8.50 KCAL/MOL
REMARK 924 INTRA-LIGAND FREE ENERGY PREDICTED BY IDOCK:   -0.68 KCAL/MOL
REMARK 927      BINDING AFFINITY PREDICTED BY RF-SCORE:    0.00 PKD
ROOT
HETATM    1  C   UNL     1      -9.018  13.539  66.691  1.00  0.00    -0.117 C  
HETATM    2  S   UNL     1      -8.923  11.870  67.372  1.00  0.00    -0.180 SA 
HETATM    3  C   UNL     1      -8.938  11.086  65.749  1.00  0.00    -0.195 C  
HETATM    4  C   UNL     1      -9.998  11.599  64.789  1.00  0.00    -0.292 C  
HETATM    5  C   UNL     1     -10.600  12.822  64.886  1.00  0.00    -0.314 C  
HETATM    6  O   UNL     1     -11.298  15.729  65.904  1.00  0.00    -0.087 OA 
HETATM    7  O   UNL     1     -12.220  14.431  63.974  1.00  0.00    -0.547 OA 
HETATM    8  C   UNL     1     -11.749  13.172  63.952  1.00  0.00    -0.456 C  
HETATM    9  N   UNL     1     -10.224  13.677  65.888  1.00  0.00    -0.304 N  
HETATM   10  C   UNL     1     -10.560  14.894  66.372  1.00  0.00    -0.307 C  
HETATM   11  O   UNL     1     -12.239  12.375  63.164  1.00  0.00    -0.450 OA 
HETATM   12  C   UNL     1      -9.623  14.649  67.665  1.00  0.00    -0.212 C  
ENDROOT
BRANCH   4  13
HETATM   13  C   UNL     1     -10.359  10.541  63.744  1.00  0.00     0.038 C  
BRANCH  13  14
HETATM   14  O   UNL     1      -9.497  10.657  62.591  1.00  0.00    -0.293 OA 
BRANCH  14  15
HETATM   15  C   UNL     1      -8.472   9.780  62.518  1.00  0.00    -0.169 C  
HETATM   16  O   UNL     1      -7.281  10.039  62.521  1.00  0.00    -0.118 OA 
HETATM   17  N   UNL     1      -8.955   8.523  62.401  1.00  0.00    -0.446 N  
HETATM   18  H2  UNL     1      -9.944   8.274  62.372  1.00  0.00     0.000 HD 
HETATM   19  H1  UNL     1      -8.181   7.861  62.347  1.00  0.00     0.000 HD 
ENDBRANCH  14  15
ENDBRANCH  13  14
ENDBRANCH   4  13
BRANCH  12  20
HETATM   20  N   UNL     1     -10.272  14.086  68.894  1.00  0.00    -0.365 N  
HETATM   21  O   UNL     1     -12.018  15.564  68.996  1.00  0.00    -0.354 OA 
HETATM   22  C   UNL     1     -11.440  14.573  69.434  1.00  0.00    -0.285 C  
HETATM   23  H   UNL     1      -9.821  13.296  69.357  1.00  0.00     0.000 HD 
BRANCH  22  24
HETATM   24  C   UNL     1     -11.938  13.817  70.649  1.00  0.00    -0.340 C  
BRANCH  24  25
HETATM   25  C   UNL     1     -12.416  14.754  71.713  1.00  0.00    -0.343 A  
HETATM   26  C   UNL     1     -11.672  15.397  72.685  1.00  0.00    -0.556 A  
HETATM   27  C   UNL     1     -12.488  16.112  73.608  1.00  0.00    -0.684 A  
HETATM   28  C   UNL     1     -13.825  16.020  73.293  1.00  0.00    -0.146 A  
HETATM   29  S   UNL     1     -14.089  15.088  71.885  1.00  0.00    -0.587 SA 
ENDBRANCH  24  25
ENDBRANCH  22  24
ENDBRANCH  12  20
BRANCH  12  30
HETATM   30  O   UNL     1      -8.709  15.741  67.961  1.00  0.00    -0.169 OA 
HETATM   31  C   UNL     1      -7.537  15.797  67.155  1.00  0.00    -0.224 C  
ENDBRANCH  12  30
TORSDOF 7
ENDMDL
MODEL       22
REMARK 921   NORMALIZED FREE ENERGY PREDICTED BY IDOCK:   -6.03 KCAL/MOL
REMARK 922        TOTAL FREE ENERGY PREDICTED BY IDOCK:   -9.17 KCAL/MOL
REMARK 923 INTER-LIGAND FREE ENERGY PREDICTED BY IDOCK:   -8.69 KCAL/MOL
REMARK 924 INTRA-LIGAND FREE ENERGY PREDICTED BY IDOCK:   -0.48 KCAL/MOL
REMARK 927      BINDING AFFINITY PREDICTED BY RF-SCORE:    0.00 PKD
ROOT
HETATM    1  C   UNL     1      -9.377  10.633  68.102  1.00  0.00    -0.151 C  
HETATM    2  S   UNL     1      -9.215   9.845  66.486  1.00  0.00    -0.161 SA 
HETATM    3  C   UNL     1      -9.045  11.413  65.615  1.00  0.00    -0.161 C  
HETATM    4  C   UNL     1     -10.060  12.479  65.990  1.00  0.00    -0.268 C  
HETATM    5  C   UNL     1     -10.755  12.503  67.166  1.00  0.00    -0.237 C  
HETATM    6  O   UNL     1     -11.741  11.721  70.063  1.00  0.00    -0.320 OA 
HETATM    7  O   UNL     1     -12.411  13.631  68.591  1.00  0.00    -0.258 OA 
HETATM    8  C   UNL     1     -11.849  13.540  67.373  1.00  0.00    -0.384 C  
HETATM    9  N   UNL     1     -10.522  11.531  68.102  1.00  0.00    -0.186 N  
HETATM   10  C   UNL     1     -10.984  11.149  69.314  1.00  0.00    -0.247 C  
HETATM   11  O   UNL     1     -12.216  14.312  66.498  1.00  0.00    -0.441 OA 
HETATM   12  C   UNL     1     -10.136   9.777  69.216  1.00  0.00    -0.198 C  
ENDROOT
BRANCH   4  13
HETATM   13  C   UNL     1     -10.259  13.481  64.850  1.00  0.00    -0.329 C  
BRANCH  13  14
HETATM   14  O   UNL     1     -10.822  12.825  63.694  1.00  0.00    -0.412 OA 
BRANCH  14  15
HETATM   15  C   UNL     1     -12.158  12.940  63.531  1.00  0.00    -0.555 C  
HETATM   16  O   UNL     1     -12.957  12.038  63.347  1.00  0.00    -0.772 OA 
HETATM   17  N   UNL     1     -12.511  14.244  63.565  1.00  0.00    -1.102 N  
HETATM   18  H2  UNL     1     -11.866  15.024  63.694  1.00  0.00     0.000 HD 
HETATM   19  H1  UNL     1     -13.520  14.331  63.442  1.00  0.00     0.000 HD 
ENDBRANCH  14  15
ENDBRANCH  13  14
ENDBRANCH   4  13
BRANCH  12  20
HETATM   20  N   UNL     1     -10.838   8.567  68.673  1.00  0.00    -0.434 N  
HETATM   21  O   UNL     1      -9.035   7.155  68.707  1.00  0.00    -0.130 OA 
HETATM   22  C   UNL     1     -10.230   7.344  68.500  1.00  0.00    -0.183 C  
HETATM   23  H   UNL     1     -11.821   8.656  68.418  1.00  0.00     0.000 HD 
BRANCH  22  24
HETATM   24  C   UNL     1     -11.145   6.252  67.985  1.00  0.00    -0.365 C  
BRANCH  24  25
HETATM   25  C   UNL     1     -10.368   5.168  67.306  1.00  0.00    -0.168 A  
HETATM   26  C   UNL     1     -10.195   4.959  65.951  1.00  0.00    -0.251 A  
HETATM   27  C   UNL     1      -9.497   3.748  65.674  1.00  0.00    -0.170 A  
HETATM   28  C   UNL     1      -9.130   3.090  66.825  1.00  0.00    -0.161 A  
HETATM   29  S   UNL     1      -9.614   3.936  68.229  1.00  0.00    -0.064 SA 
ENDBRANCH  24  25
ENDBRANCH  22  24
ENDBRANCH  12  20
BRANCH  12  30
HETATM   30  O   UNL     1      -9.331   9.481  70.390  1.00  0.00    -0.242 OA 
HETATM   31  C   UNL     1     -10.051   9.017  71.527  1.00  0.00    -0.339 C  
ENDBRANCH  12  30
TORSDOF 7
ENDMDL
MODEL       23
REMARK 921   NORMALIZED FREE ENERGY PREDICTED BY IDOCK:   -6.01 KCAL/MOL
REMARK 922        TOTAL FREE ENERGY PREDICTED BY IDOCK:   -9.14 KCAL/MOL
REMARK 923 INTER-LIGAND FREE ENERGY PREDICTED BY IDOCK:   -9.23 KCAL/MOL
REMARK 924 INTRA-LIGAND FREE ENERGY PREDICTED BY IDOCK:    0.09 KCAL/MOL
REMARK 927      BINDING AFFINITY PREDICTED BY RF-SCORE:    0.00 PKD
ROOT
HETATM    1  C   UNL     1      -9.948  14.348  66.607  1.00  0.00    -0.272 C  
HETATM    2  S   UNL     1      -9.855  13.080  67.889  1.00  0.00    -0.230 SA 
HETATM    3  C   UNL     1      -9.316  11.800  66.742  1.00  0.00    -0.194 C  
HETATM    4  C   UNL     1     -10.113  11.707  65.451  1.00  0.00    -0.299 C  
HETATM    5  C   UNL     1     -10.856  12.726  64.929  1.00  0.00    -0.299 C  
HETATM    6  O   UNL     1     -12.151  15.582  64.549  1.00  0.00    -0.283 OA 
HETATM    7  O   UNL     1     -12.328  13.529  63.129  1.00  0.00    -0.712 OA 
HETATM    8  C   UNL     1     -11.726  12.474  63.705  1.00  0.00    -0.485 C  
HETATM    9  N   UNL     1     -10.883  13.935  65.572  1.00  0.00    -0.297 N  
HETATM   10  C   UNL     1     -11.484  15.141  65.455  1.00  0.00    -0.213 C  
HETATM   11  O   UNL     1     -11.875  11.367  63.206  1.00  0.00    -0.192 OA 
HETATM   12  C   UNL     1     -10.930  15.568  66.912  1.00  0.00    -0.268 C  
ENDROOT
BRANCH   4  13
HETATM   13  C   UNL     1     -10.034  10.300  64.852  1.00  0.00    -0.323 C  
BRANCH  13  14
HETATM   14  O   UNL     1     -10.224   9.303  65.878  1.00  0.00    -0.245 OA 
BRANCH  14  15
HETATM   15  C   UNL     1      -9.182   8.475  66.109  1.00  0.00    -0.211 C  
HETATM   16  O   UNL     1      -8.537   8.374  67.139  1.00  0.00    -0.121 OA 
HETATM   17  N   UNL     1      -8.909   7.764  64.993  1.00  0.00    -0.375 N  
HETATM   18  H2  UNL     1      -9.413   7.841  64.110  1.00  0.00     0.000 HD 
HETATM   19  H1  UNL     1      -8.122   7.138  65.168  1.00  0.00     0.000 HD 
ENDBRANCH  14  15
ENDBRANCH  13  14
ENDBRANCH   4  13
BRANCH  12  20
HETATM   20  N   UNL     1     -11.831  15.339  68.090  1.00  0.00    -0.477 N  
HETATM   21  O   UNL     1     -10.360  16.020  69.708  1.00  0.00    -0.266 OA 
HETATM   22  C   UNL     1     -11.476  15.622  69.389  1.00  0.00    -0.348 C  
HETATM   23  H   UNL     1     -12.758  14.952  67.917  1.00  0.00     0.000 HD 
BRANCH  22  24
HETATM   24  C   UNL     1     -12.563  15.357  70.411  1.00  0.00    -0.433 C  
BRANCH  24  25
HETATM   25  C   UNL     1     -12.602  13.913  70.801  1.00  0.00    -0.354 A  
HETATM   26  C   UNL     1     -12.043  12.834  70.143  1.00  0.00    -0.370 A  
HETATM   27  C   UNL     1     -12.396  11.591  70.742  1.00  0.00    -0.472 A  
HETATM   28  C   UNL     1     -13.184  11.762  71.858  1.00  0.00    -0.362 A  
HETATM   29  S   UNL     1     -13.483  13.413  72.183  1.00  0.00    -0.564 SA 
ENDBRANCH  24  25
ENDBRANCH  22  24
ENDBRANCH  12  20
BRANCH  12  30
HETATM   30  O   UNL     1     -10.273  16.865  66.949  1.00  0.00    -0.284 OA 
HETATM   31  C   UNL     1      -8.941  16.893  66.449  1.00  0.00    -0.283 C  
ENDBRANCH  12  30
TORSDOF 7
ENDMDL
MODEL       24
REMARK 921   NORMALIZED FREE ENERGY PREDICTED BY IDOCK:   -5.92 KCAL/MOL
REMARK 922        TOTAL FREE ENERGY PREDICTED BY IDOCK:   -9.02 KCAL/MOL
REMARK 923 INTER-LIGAND FREE ENERGY PREDICTED BY IDOCK:   -8.32 KCAL/MOL
REMARK 924 INTRA-LIGAND FREE ENERGY PREDICTED BY IDOCK:   -0.71 KCAL/MOL
REMARK 927      BINDING AFFINITY PREDICTED BY RF-SCORE:    0.00 PKD
ROOT
HETATM    1  C   UNL     1     -10.816  13.302  67.574  1.00  0.00    -0.263 C  
HETATM    2  S   UNL     1     -11.802  13.844  68.985  1.00  0.00    -0.372 SA 
HETATM    3  C   UNL     1     -11.614  15.591  68.587  1.00  0.00    -0.368 C  
HETATM    4  C   UNL     1     -10.198  16.036  68.265  1.00  0.00    -0.237 C  
HETATM    5  C   UNL     1      -9.204  15.200  67.841  1.00  0.00    -0.184 C  
HETATM    6  O   UNL     1      -7.712  12.582  66.896  1.00  0.00    -0.078 OA 
HETATM    7  O   UNL     1      -6.867  14.926  67.127  1.00  0.00    -0.252 OA 
HETATM    8  C   UNL     1      -7.787  15.732  67.685  1.00  0.00    -0.150 C  
HETATM    9  N   UNL     1      -9.479  13.871  67.657  1.00  0.00    -0.205 N  
HETATM   10  C   UNL     1      -8.835  12.732  67.317  1.00  0.00    -0.198 C  
HETATM   11  O   UNL     1      -7.456  16.864  68.011  1.00  0.00    -0.165 OA 
HETATM   12  C   UNL     1     -10.138  11.864  67.716  1.00  0.00    -0.191 C  
ENDROOT
BRANCH   4  13
HETATM   13  C   UNL     1     -10.007  17.529  68.548  1.00  0.00    -0.344 C  
BRANCH  13  14
HETATM   14  O   UNL     1     -10.750  18.321  67.597  1.00  0.00    -0.419 OA 
BRANCH  14  15
HETATM   15  C   UNL     1     -10.209  18.439  66.364  1.00  0.00    -0.410 C  
HETATM   16  O   UNL     1     -10.684  18.047  65.312  1.00  0.00    -0.625 OA 
HETATM   17  N   UNL     1      -9.003  19.043  66.452  1.00  0.00    -0.329 N  
HETATM   18  H2  UNL     1      -8.567  19.361  67.317  1.00  0.00     0.000 HD 
HETATM   19  H1  UNL     1      -8.595  19.132  65.521  1.00  0.00     0.000 HD 
ENDBRANCH  14  15
ENDBRANCH  13  14
ENDBRANCH   4  13
BRANCH  12  20
HETATM   20  N   UNL     1     -10.197  11.303  69.106  1.00  0.00    -0.388 N  
HETATM   21  O   UNL     1      -9.489   9.187  68.589  1.00  0.00    -0.142 OA 
HETATM   22  C   UNL     1      -9.830  10.016  69.428  1.00  0.00    -0.224 C  
HETATM   23  H   UNL     1     -10.529  11.910  69.856  1.00  0.00     0.000 HD 
BRANCH  22  24
HETATM   24  C   UNL     1      -9.925   9.683  70.903  1.00  0.00    -0.211 C  
BRANCH  24  25
HETATM   25  C   UNL     1     -11.350   9.554  71.339  1.00  0.00    -0.392 A  
HETATM   26  C   UNL     1     -12.374  10.472  71.202  1.00  0.00    -0.510 A  
HETATM   27  C   UNL     1     -13.569  10.053  71.855  1.00  0.00    -0.354 A  
HETATM   28  C   UNL     1     -13.430   8.815  72.440  1.00  0.00    -0.401 A  
HETATM   29  S   UNL     1     -11.871   8.159  72.190  1.00  0.00    -0.383 SA 
ENDBRANCH  24  25
ENDBRANCH  22  24
ENDBRANCH  12  20
BRANCH  12  30
HETATM   30  O   UNL     1     -10.556  10.906  66.705  1.00  0.00    -0.246 OA 
HETATM   31  C   UNL     1     -10.626  11.409  65.375  1.00  0.00    -0.275 C  
ENDBRANCH  12  30
TORSDOF 7
ENDMDL
MODEL       25
REMARK 921   NORMALIZED FREE ENERGY PREDICTED BY IDOCK:   -5.88 KCAL/MOL
REMARK 922        TOTAL FREE ENERGY PREDICTED BY IDOCK:   -8.97 KCAL/MOL
REMARK 923 INTER-LIGAND FREE ENERGY PREDICTED BY IDOCK:   -8.33 KCAL/MOL
REMARK 924 INTRA-LIGAND FREE ENERGY PREDICTED BY IDOCK:   -0.64 KCAL/MOL
REMARK 927      BINDING AFFINITY PREDICTED BY RF-SCORE:    0.00 PKD
ROOT
HETATM    1  C   UNL     1      -9.606  14.251  68.552  1.00  0.00    -0.220 C  
HETATM    2  S   UNL     1     -11.025  15.169  67.917  1.00  0.00    -0.313 SA 
HETATM    3  C   UNL     1     -11.928  13.678  67.463  1.00  0.00    -0.358 C  
HETATM    4  C   UNL     1     -11.125  12.638  66.700  1.00  0.00    -0.314 C  
HETATM    5  C   UNL     1      -9.762  12.548  66.722  1.00  0.00    -0.234 C  
HETATM    6  O   UNL     1      -6.748  13.121  67.471  1.00  0.00    -0.156 OA 
HETATM    7  O   UNL     1      -7.733  11.387  65.959  1.00  0.00    -0.011 OA 
HETATM    8  C   UNL     1      -9.058  11.556  65.807  1.00  0.00    -0.154 C  
HETATM    9  N   UNL     1      -9.045  13.419  67.498  1.00  0.00    -0.204 N  
HETATM   10  C   UNL     1      -7.755  13.716  67.775  1.00  0.00    -0.164 C  
HETATM   11  O   UNL     1      -9.644  10.886  64.968  1.00  0.00    -0.220 OA 
HETATM   12  C   UNL     1      -8.221  15.044  68.568  1.00  0.00    -0.151 C  
ENDROOT
BRANCH   4  13
HETATM   13  C   UNL     1     -12.035  11.753  65.844  1.00  0.00     0.293 C  
BRANCH  13  14
HETATM   14  O   UNL     1     -12.915  12.565  65.037  1.00  0.00    -0.779 OA 
BRANCH  14  15
HETATM   15  C   UNL     1     -12.506  12.819  63.775  1.00  0.00    -0.383 C  
HETATM   16  O   UNL     1     -12.422  13.909  63.235  1.00  0.00    -0.817 OA 
HETATM   17  N   UNL     1     -12.223  11.658  63.145  1.00  0.00    -0.966 N  
HETATM   18  H2  UNL     1     -12.306  10.729  63.560  1.00  0.00     0.000 HD 
HETATM   19  H1  UNL     1     -11.914  11.849  62.192  1.00  0.00     0.000 HD 
ENDBRANCH  14  15
ENDBRANCH  13  14
ENDBRANCH   4  13
BRANCH  12  20
HETATM   20  N   UNL     1      -8.254  16.333  67.801  1.00  0.00    -0.148 N  
HETATM   21  O   UNL     1      -6.256  16.069  66.715  1.00  0.00    -0.279 OA 
HETATM   22  C   UNL     1      -7.279  16.717  66.908  1.00  0.00    -0.226 C  
HETATM   23  H   UNL     1      -9.044  16.961  67.951  1.00  0.00     0.000 HD 
BRANCH  22  24
HETATM   24  C   UNL     1      -7.545  18.036  66.212  1.00  0.00    -0.306 C  
BRANCH  24  25
HETATM   25  C   UNL     1      -8.703  18.753  66.832  1.00  0.00    -0.293 A  
HETATM   26  C   UNL     1      -8.737  19.459  68.020  1.00  0.00    -0.362 A  
HETATM   27  C   UNL     1     -10.051  19.898  68.353  1.00  0.00    -0.557 A  
HETATM   28  C   UNL     1     -10.971  19.544  67.392  1.00  0.00    -0.306 A  
HETATM   29  S   UNL     1     -10.250  18.699  66.094  1.00  0.00    -0.377 SA 
ENDBRANCH  24  25
ENDBRANCH  22  24
ENDBRANCH  12  20
BRANCH  12  30
HETATM   30  O   UNL     1      -7.636  15.192  69.891  1.00  0.00    -0.175 OA 
HETATM   31  C   UNL     1      -6.213  15.186  69.937  1.00  0.00    -0.154 C  
ENDBRANCH  12  30
TORSDOF 7
ENDMDL
MODEL       26
REMARK 921   NORMALIZED FREE ENERGY PREDICTED BY IDOCK:   -5.88 KCAL/MOL
REMARK 922        TOTAL FREE ENERGY PREDICTED BY IDOCK:   -8.97 KCAL/MOL
REMARK 923 INTER-LIGAND FREE ENERGY PREDICTED BY IDOCK:   -8.01 KCAL/MOL
REMARK 924 INTRA-LIGAND FREE ENERGY PREDICTED BY IDOCK:   -0.96 KCAL/MOL
REMARK 927      BINDING AFFINITY PREDICTED BY RF-SCORE:    0.00 PKD
ROOT
HETATM    1  C   UNL     1      -9.136  12.877  68.071  1.00  0.00    -0.211 C  
HETATM    2  S   UNL     1      -9.862  14.528  68.005  1.00  0.00    -0.227 SA 
HETATM    3  C   UNL     1     -11.446  13.929  67.389  1.00  0.00    -0.348 C  
HETATM    4  C   UNL     1     -11.364  12.944  66.236  1.00  0.00    -0.364 C  
HETATM    5  C   UNL     1     -10.266  12.184  65.946  1.00  0.00    -0.244 C  
HETATM    6  O   UNL     1      -7.389  10.898  66.161  1.00  0.00    -0.140 OA 
HETATM    7  O   UNL     1      -9.219  10.491  64.503  1.00  0.00    -0.204 OA 
HETATM    8  C   UNL     1     -10.249  11.336  64.683  1.00  0.00    -0.301 C  
HETATM    9  N   UNL     1      -9.159  12.273  66.747  1.00  0.00    -0.208 N  
HETATM   10  C   UNL     1      -7.902  11.779  66.811  1.00  0.00    -0.103 C  
HETATM   11  O   UNL     1     -11.139  11.364  63.844  1.00  0.00    -0.384 OA 
HETATM   12  C   UNL     1      -7.543  12.818  67.995  1.00  0.00    -0.131 C  
ENDROOT
BRANCH   4  13
HETATM   13  C   UNL     1     -12.644  12.965  65.396  1.00  0.00    -0.378 C  
BRANCH  13  14
HETATM   14  O   UNL     1     -13.010  14.323  65.069  1.00  0.00    -0.693 OA 
BRANCH  14  15
HETATM   15  C   UNL     1     -12.394  14.868  63.997  1.00  0.00    -0.059 C  
HETATM   16  O   UNL     1     -12.005  16.017  63.878  1.00  0.00    -0.855 OA 
HETATM   17  N   UNL     1     -12.290  13.947  63.014  1.00  0.00    -1.023 N  
HETATM   18  H2  UNL     1     -12.626  12.985  63.073  1.00  0.00     0.000 HD 
HETATM   19  H1  UNL     1     -11.825  14.358  62.205  1.00  0.00     0.000 HD 
ENDBRANCH  14  15
ENDBRANCH  13  14
ENDBRANCH   4  13
BRANCH  12  20
HETATM   20  N   UNL     1      -6.909  14.121  67.604  1.00  0.00    -0.177 N  
HETATM   21  O   UNL     1      -6.787  15.019  69.707  1.00  0.00    -0.167 OA 
HETATM   22  C   UNL     1      -6.551  15.097  68.505  1.00  0.00    -0.099 C  
HETATM   23  H   UNL     1      -6.734  14.292  66.614  1.00  0.00     0.000 HD 
BRANCH  22  24
HETATM   24  C   UNL     1      -5.880  16.309  67.890  1.00  0.00    -0.143 C  
BRANCH  24  25
HETATM   25  C   UNL     1      -6.825  17.466  67.801  1.00  0.00    -0.166 A  
HETATM   26  C   UNL     1      -7.163  18.373  68.787  1.00  0.00    -0.300 A  
HETATM   27  C   UNL     1      -8.196  19.263  68.374  1.00  0.00    -0.383 A  
HETATM   28  C   UNL     1      -8.590  19.029  67.076  1.00  0.00    -0.293 A  
HETATM   29  S   UNL     1      -7.708  17.752  66.359  1.00  0.00    -0.288 SA 
ENDBRANCH  24  25
ENDBRANCH  22  24
ENDBRANCH  12  20
BRANCH  12  30
HETATM   30  O   UNL     1      -6.914  12.213  69.158  1.00  0.00    -0.101 OA 
HETATM   31  C   UNL     1      -7.469  10.972  69.580  1.00  0.00    -0.026 C  
ENDBRANCH  12  30
TORSDOF 7
ENDMDL
MODEL       27
REMARK 921   NORMALIZED FREE ENERGY PREDICTED BY IDOCK:   -5.88 KCAL/MOL
REMARK 922        TOTAL FREE ENERGY PREDICTED BY IDOCK:   -8.96 KCAL/MOL
REMARK 923 INTER-LIGAND FREE ENERGY PREDICTED BY IDOCK:   -7.86 KCAL/MOL
REMARK 924 INTRA-LIGAND FREE ENERGY PREDICTED BY IDOCK:   -1.10 KCAL/MOL
REMARK 927      BINDING AFFINITY PREDICTED BY RF-SCORE:    0.00 PKD
ROOT
HETATM    1  C   UNL     1      -9.446  10.026  68.749  1.00  0.00    -0.162 C  
HETATM    2  S   UNL     1      -7.928  10.296  69.687  1.00  0.00    -0.118 SA 
HETATM    3  C   UNL     1      -8.256   8.936  70.824  1.00  0.00    -0.171 C  
HETATM    4  C   UNL     1      -9.662   8.892  71.396  1.00  0.00    -0.370 C  
HETATM    5  C   UNL     1     -10.749   9.485  70.819  1.00  0.00    -0.321 C  
HETATM    6  O   UNL     1     -12.534  11.065  68.747  1.00  0.00    -0.468 OA 
HETATM    7  O   UNL     1     -13.162   9.953  70.899  1.00  0.00    -0.348 OA 
HETATM    8  C   UNL     1     -12.081   9.495  71.554  1.00  0.00    -0.389 C  
HETATM    9  N   UNL     1     -10.599  10.146  69.629  1.00  0.00    -0.239 N  
HETATM   10  C   UNL     1     -11.339  10.881  68.768  1.00  0.00    -0.292 C  
HETATM   11  O   UNL     1     -12.220   9.077  72.696  1.00  0.00    -0.244 OA 
HETATM   12  C   UNL     1     -10.005  11.294  67.957  1.00  0.00    -0.179 C  
ENDROOT
BRANCH   4  13
HETATM   13  C   UNL     1      -9.691   8.161  72.741  1.00  0.00    -0.281 C  
BRANCH  13  14
HETATM   14  O   UNL     1      -9.794   6.735  72.538  1.00  0.00    -0.164 OA 
BRANCH  14  15
HETATM   15  C   UNL     1     -10.671   6.080  73.329  1.00  0.00    -0.262 C  
HETATM   16  O   UNL     1     -10.465   5.636  74.445  1.00  0.00    -0.268 OA 
HETATM   17  N   UNL     1     -11.850   5.940  72.684  1.00  0.00    -0.520 N  
HETATM   18  H2  UNL     1     -12.048   6.278  71.742  1.00  0.00     0.000 HD 
HETATM   19  H1  UNL     1     -12.513   5.445  73.281  1.00  0.00     0.000 HD 
ENDBRANCH  14  15
ENDBRANCH  13  14
ENDBRANCH   4  13
BRANCH  12  20
HETATM   20  N   UNL     1      -9.337  12.583  68.334  1.00  0.00    -0.318 N  
HETATM   21  O   UNL     1     -11.009  13.984  67.637  1.00  0.00    -0.262 OA 
HETATM   22  C   UNL     1      -9.917  13.821  68.173  1.00  0.00    -0.242 C  
HETATM   23  H   UNL     1      -8.398  12.540  68.731  1.00  0.00     0.000 HD 
BRANCH  22  24
HETATM   24  C   UNL     1      -9.078  14.981  68.669  1.00  0.00    -0.191 C  
BRANCH  24  25
HETATM   25  C   UNL     1      -9.502  16.267  68.034  1.00  0.00    -0.223 A  
HETATM   26  C   UNL     1     -10.343  17.238  68.544  1.00  0.00    -0.371 A  
HETATM   27  C   UNL     1     -10.620  18.268  67.599  1.00  0.00    -0.427 A  
HETATM   28  C   UNL     1      -9.954  18.069  66.411  1.00  0.00    -0.362 A  
HETATM   29  S   UNL     1      -8.993  16.655  66.443  1.00  0.00    -0.304 SA 
ENDBRANCH  24  25
ENDBRANCH  22  24
ENDBRANCH  12  20
BRANCH  12  30
HETATM   30  O   UNL     1     -10.092  11.105  66.518  1.00  0.00    -0.210 OA 
HETATM   31  C   UNL     1      -9.210  10.129  65.973  1.00  0.00    -0.158 C  
ENDBRANCH  12  30
TORSDOF 7
ENDMDL
MODEL       28
REMARK 921   NORMALIZED FREE ENERGY PREDICTED BY IDOCK:   -5.88 KCAL/MOL
REMARK 922        TOTAL FREE ENERGY PREDICTED BY IDOCK:   -8.96 KCAL/MOL
REMARK 923 INTER-LIGAND FREE ENERGY PREDICTED BY IDOCK:   -7.96 KCAL/MOL
REMARK 924 INTRA-LIGAND FREE ENERGY PREDICTED BY IDOCK:   -1.00 KCAL/MOL
REMARK 927      BINDING AFFINITY PREDICTED BY RF-SCORE:    0.00 PKD
ROOT
HETATM    1  C   UNL     1      -7.975   9.817  66.775  1.00  0.00    -0.105 C  
HETATM    2  S   UNL     1      -9.137   8.747  65.902  1.00  0.00    -0.215 SA 
HETATM    3  C   UNL     1      -9.233   9.832  64.467  1.00  0.00    -0.253 C  
HETATM    4  C   UNL     1      -9.438  11.305  64.778  1.00  0.00    -0.221 C  
HETATM    5  C   UNL     1      -9.127  11.892  65.972  1.00  0.00    -0.119 C  
HETATM    6  O   UNL     1      -8.051  12.271  68.917  1.00  0.00    -0.001 OA 
HETATM    7  O   UNL     1      -9.058  13.934  67.340  1.00  0.00    -0.197 OA 
HETATM    8  C   UNL     1      -9.507  13.344  66.218  1.00  0.00    -0.183 C  
HETATM    9  N   UNL     1      -8.564  11.135  66.965  1.00  0.00    -0.143 N  
HETATM   10  C   UNL     1      -8.161  11.270  68.248  1.00  0.00    -0.143 C  
HETATM   11  O   UNL     1     -10.170  14.007  65.432  1.00  0.00    -0.325 OA 
HETATM   12  C   UNL     1      -7.960   9.672  68.364  1.00  0.00    -0.096 C  
ENDROOT
BRANCH   4  13
HETATM   13  C   UNL     1     -10.107  12.031  63.608  1.00  0.00    -0.415 C  
BRANCH  13  14
HETATM   14  O   UNL     1     -11.466  11.573  63.442  1.00  0.00    -0.372 OA 
BRANCH  14  15
HETATM   15  C   UNL     1     -12.439  12.457  63.758  1.00  0.00    -0.492 C  
HETATM   16  O   UNL     1     -13.411  12.257  64.466  1.00  0.00    -0.769 OA 
HETATM   17  N   UNL     1     -12.206  13.633  63.135  1.00  0.00    -1.046 N  
HETATM   18  H2  UNL     1     -11.416  13.825  62.519  1.00  0.00     0.000 HD 
HETATM   19  H1  UNL     1     -12.940  14.300  63.374  1.00  0.00     0.000 HD 
ENDBRANCH  14  15
ENDBRANCH  13  14
ENDBRANCH   4  13
BRANCH  12  20
HETATM   20  N   UNL     1      -9.104   8.867  68.908  1.00  0.00    -0.140 N  
HETATM   21  O   UNL     1      -8.644   9.185  71.128  1.00  0.00    -0.232 OA 
HETATM   22  C   UNL     1      -9.368   8.724  70.251  1.00  0.00    -0.174 C  
HETATM   23  H   UNL     1      -9.720   8.399  68.244  1.00  0.00     0.000 HD 
BRANCH  22  24
HETATM   24  C   UNL     1     -10.604   7.907  70.568  1.00  0.00    -0.223 C  
BRANCH  24  25
HETATM   25  C   UNL     1     -11.678   8.758  71.169  1.00  0.00    -0.291 A  
HETATM   26  C   UNL     1     -12.701   8.374  72.015  1.00  0.00    -0.399 A  
HETATM   27  C   UNL     1     -13.612   9.437  72.281  1.00  0.00    -0.532 A  
HETATM   28  C   UNL     1     -13.237  10.605  71.657  1.00  0.00    -0.392 A  
HETATM   29  S   UNL     1     -11.789  10.421  70.769  1.00  0.00    -0.383 SA 
ENDBRANCH  24  25
ENDBRANCH  22  24
ENDBRANCH  12  20
BRANCH  12  30
HETATM   30  O   UNL     1      -6.676   9.264  68.911  1.00  0.00    -0.051 OA 
HETATM   31  C   UNL     1      -6.063   8.148  68.274  1.00  0.00    -0.046 C  
ENDBRANCH  12  30
TORSDOF 7
ENDMDL
MODEL       29
REMARK 921   NORMALIZED FREE ENERGY PREDICTED BY IDOCK:   -5.86 KCAL/MOL
REMARK 922        TOTAL FREE ENERGY PREDICTED BY IDOCK:   -8.94 KCAL/MOL
REMARK 923 INTER-LIGAND FREE ENERGY PREDICTED BY IDOCK:   -7.94 KCAL/MOL
REMARK 924 INTRA-LIGAND FREE ENERGY PREDICTED BY IDOCK:   -1.00 KCAL/MOL
REMARK 927      BINDING AFFINITY PREDICTED BY RF-SCORE:    0.00 PKD
ROOT
HETATM    1  C   UNL     1     -10.814  10.678  65.625  1.00  0.00     0.060 C  
HETATM    2  S   UNL     1      -9.146  10.655  64.935  1.00  0.00    -0.211 SA 
HETATM    3  C   UNL     1      -8.833   8.958  65.456  1.00  0.00    -0.197 C  
HETATM    4  C   UNL     1      -9.209   8.639  66.893  1.00  0.00    -0.198 C  
HETATM    5  C   UNL     1     -10.113   9.351  67.630  1.00  0.00    -0.211 C  
HETATM    6  O   UNL     1     -12.294  11.497  68.409  1.00  0.00    -0.461 OA 
HETATM    7  O   UNL     1     -11.302   9.642  69.763  1.00  0.00    -0.213 OA 
HETATM    8  C   UNL     1     -10.304   9.026  69.104  1.00  0.00    -0.219 C  
HETATM    9  N   UNL     1     -10.761  10.411  67.054  1.00  0.00    -0.256 N  
HETATM   10  C   UNL     1     -11.646  11.375  67.396  1.00  0.00    -0.184 C  
HETATM   11  O   UNL     1      -9.619   8.210  69.706  1.00  0.00    -0.170 OA 
HETATM   12  C   UNL     1     -11.393  12.120  65.986  1.00  0.00    -0.358 C  
ENDROOT
BRANCH   4  13
HETATM   13  C   UNL     1      -8.390   7.463  67.432  1.00  0.00    -0.116 C  
BRANCH  13  14
HETATM   14  O   UNL     1      -8.788   6.234  66.788  1.00  0.00    -0.120 OA 
BRANCH  14  15
HETATM   15  C   UNL     1      -9.956   5.693  67.198  1.00  0.00    -0.164 C  
HETATM   16  O   UNL     1     -10.238   5.320  68.324  1.00  0.00    -0.168 OA 
HETATM   17  N   UNL     1     -10.800   5.580  66.149  1.00  0.00    -0.706 N  
HETATM   18  H2  UNL     1     -10.587   5.861  65.192  1.00  0.00     0.000 HD 
HETATM   19  H1  UNL     1     -11.682   5.172  66.459  1.00  0.00     0.000 HD 
ENDBRANCH  14  15
ENDBRANCH  13  14
ENDBRANCH   4  13
BRANCH  12  20
HETATM   20  N   UNL     1     -10.362  13.210  65.953  1.00  0.00    -0.285 N  
HETATM   21  O   UNL     1     -11.618  14.819  66.992  1.00  0.00    -0.362 OA 
HETATM   22  C   UNL     1     -10.554  14.460  66.496  1.00  0.00    -0.296 C  
HETATM   23  H   UNL     1      -9.469  13.013  65.503  1.00  0.00     0.000 HD 
BRANCH  22  24
HETATM   24  C   UNL     1      -9.358  15.385  66.390  1.00  0.00    -0.331 C  
BRANCH  24  25
HETATM   25  C   UNL     1      -9.635  16.706  67.035  1.00  0.00    -0.244 A  
HETATM   26  C   UNL     1      -9.492  17.057  68.364  1.00  0.00    -0.269 A  
HETATM   27  C   UNL     1      -9.976  18.370  68.633  1.00  0.00    -0.415 A  
HETATM   28  C   UNL     1     -10.440  18.992  67.496  1.00  0.00    -0.454 A  
HETATM   29  S   UNL     1     -10.281  18.000  66.113  1.00  0.00    -0.311 SA 
ENDBRANCH  24  25
ENDBRANCH  22  24
ENDBRANCH  12  20
BRANCH  12  30
HETATM   30  O   UNL     1     -12.606  12.472  65.264  1.00  0.00    -0.645 OA 
HETATM   31  C   UNL     1     -12.548  12.310  63.851  1.00  0.00    -0.440 C  
ENDBRANCH  12  30
TORSDOF 7
ENDMDL
MODEL       30
REMARK 921   NORMALIZED FREE ENERGY PREDICTED BY IDOCK:   -5.82 KCAL/MOL
REMARK 922        TOTAL FREE ENERGY PREDICTED BY IDOCK:   -8.88 KCAL/MOL
REMARK 923 INTER-LIGAND FREE ENERGY PREDICTED BY IDOCK:   -8.02 KCAL/MOL
REMARK 924 INTRA-LIGAND FREE ENERGY PREDICTED BY IDOCK:   -0.87 KCAL/MOL
REMARK 927      BINDING AFFINITY PREDICTED BY RF-SCORE:    0.00 PKD
ROOT
HETATM    1  C   UNL     1     -11.441  11.434  68.248  1.00  0.00    -0.299 C  
HETATM    2  S   UNL     1     -11.062  13.124  68.755  1.00  0.00    -0.275 SA 
HETATM    3  C   UNL     1     -11.945  13.858  67.367  1.00  0.00    -0.401 C  
HETATM    4  C   UNL     1     -11.647  13.246  66.009  1.00  0.00    -0.384 C  
HETATM    5  C   UNL     1     -11.148  11.987  65.823  1.00  0.00    -0.324 C  
HETATM    6  O   UNL     1     -10.112   9.069  66.444  1.00  0.00    -0.294 OA 
HETATM    7  O   UNL     1     -10.408  10.244  64.254  1.00  0.00    -0.198 OA 
HETATM    8  C   UNL     1     -10.755  11.532  64.425  1.00  0.00    -0.344 C  
HETATM    9  N   UNL     1     -10.918  11.189  66.913  1.00  0.00    -0.285 N  
HETATM   10  C   UNL     1     -10.415   9.967  67.195  1.00  0.00    -0.242 C  
HETATM   11  O   UNL     1     -10.771  12.270  63.450  1.00  0.00    -0.446 OA 
HETATM   12  C   UNL     1     -10.434  10.312  68.773  1.00  0.00    -0.203 C  
ENDROOT
BRANCH   4  13
HETATM   13  C   UNL     1     -11.906  14.246  64.880  1.00  0.00    -0.410 C  
BRANCH  13  14
HETATM   14  O   UNL     1     -10.720  15.024  64.613  1.00  0.00    -0.365 OA 
BRANCH  14  15
HETATM   15  C   UNL     1     -10.800  16.347  64.872  1.00  0.00    -0.250 C  
HETATM   16  O   UNL     1     -11.403  17.188  64.227  1.00  0.00    -1.126 OA 
HETATM   17  N   UNL     1     -10.064  16.643  65.966  1.00  0.00    -0.338 N  
HETATM   18  H2  UNL     1      -9.529  15.969  66.514  1.00  0.00     0.000 HD 
HETATM   19  H1  UNL     1     -10.125  17.642  66.162  1.00  0.00     0.000 HD 
ENDBRANCH  14  15
ENDBRANCH  13  14
ENDBRANCH   4  13
BRANCH  12  20
HETATM   20  N   UNL     1      -9.176  10.864  69.376  1.00  0.00    -0.406 N  
HETATM   21  O   UNL     1      -7.850   9.038  68.988  1.00  0.00    -0.088 OA 
HETATM   22  C   UNL     1      -7.978  10.188  69.397  1.00  0.00    -0.154 C  
HETATM   23  H   UNL     1      -9.212  11.794  69.794  1.00  0.00     0.000 HD 
BRANCH  22  24
HETATM   24  C   UNL     1      -6.829  10.960  70.014  1.00  0.00    -0.093 C  
BRANCH  24  25
HETATM   25  C   UNL     1      -6.565  12.230  69.268  1.00  0.00    -0.099 A  
HETATM   26  C   UNL     1      -6.260  13.476  69.782  1.00  0.00    -0.116 A  
HETATM   27  C   UNL     1      -6.203  14.480  68.771  1.00  0.00    -0.087 A  
HETATM   28  C   UNL     1      -6.432  13.961  67.517  1.00  0.00    -0.058 A  
HETATM   29  S   UNL     1      -6.701  12.274  67.560  1.00  0.00    -0.151 SA 
ENDBRANCH  24  25
ENDBRANCH  22  24
ENDBRANCH  12  20
BRANCH  12  30
HETATM   30  O   UNL     1     -11.057   9.295  69.605  1.00  0.00    -0.212 OA 
HETATM   31  C   UNL     1     -11.207   9.634  70.979  1.00  0.00    -0.375 C  
ENDBRANCH  12  30
TORSDOF 7
ENDMDL
MODEL       31
REMARK 921   NORMALIZED FREE ENERGY PREDICTED BY IDOCK:   -5.81 KCAL/MOL
REMARK 922        TOTAL FREE ENERGY PREDICTED BY IDOCK:   -8.86 KCAL/MOL
REMARK 923 INTER-LIGAND FREE ENERGY PREDICTED BY IDOCK:   -8.01 KCAL/MOL
REMARK 924 INTRA-LIGAND FREE ENERGY PREDICTED BY IDOCK:   -0.85 KCAL/MOL
REMARK 927      BINDING AFFINITY PREDICTED BY RF-SCORE:    0.00 PKD
ROOT
HETATM    1  C   UNL     1     -11.906  13.697  68.879  1.00  0.00    -0.364 C  
HETATM    2  S   UNL     1     -10.740  14.596  69.924  1.00  0.00     0.022 SA 
HETATM    3  C   UNL     1     -11.040  16.169  69.099  1.00  0.00    -0.329 C  
HETATM    4  C   UNL     1     -11.022  16.121  67.580  1.00  0.00    -0.268 C  
HETATM    5  C   UNL     1     -11.232  14.990  66.843  1.00  0.00    -0.323 C  
HETATM    6  O   UNL     1     -11.883  11.989  66.105  1.00  0.00    -0.546 OA 
HETATM    7  O   UNL     1     -11.407  13.947  64.622  1.00  0.00    -0.350 OA 
HETATM    8  C   UNL     1     -11.051  15.032  65.332  1.00  0.00    -0.374 C  
HETATM    9  N   UNL     1     -11.508  13.812  67.484  1.00  0.00    -0.312 N  
HETATM   10  C   UNL     1     -11.723  12.511  67.183  1.00  0.00    -0.355 C  
HETATM   11  O   UNL     1     -10.629  16.013  64.734  1.00  0.00    -0.600 OA 
HETATM   12  C   UNL     1     -11.651  12.127  68.751  1.00  0.00    -0.327 C  
ENDROOT
BRANCH   4  13
HETATM   13  C   UNL     1     -10.665  17.485  66.986  1.00  0.00    -0.157 C  
BRANCH  13  14
HETATM   14  O   UNL     1      -9.574  18.084  67.717  1.00  0.00    -0.268 OA 
BRANCH  14  15
HETATM   15  C   UNL     1      -9.605  19.429  67.844  1.00  0.00    -0.343 C  
HETATM   16  O   UNL     1      -9.044  20.247  67.136  1.00  0.00    -0.355 OA 
HETATM   17  N   UNL     1     -10.340  19.767  68.926  1.00  0.00    -0.594 N  
HETATM   18  H2  UNL     1     -10.802  19.108  69.552  1.00  0.00     0.000 HD 
HETATM   19  H1  UNL     1     -10.363  20.783  69.022  1.00  0.00     0.000 HD 
ENDBRANCH  14  15
ENDBRANCH  13  14
ENDBRANCH   4  13
BRANCH  12  20
HETATM   20  N   UNL     1     -10.325  11.684  69.295  1.00  0.00    -0.431 N  
HETATM   21  O   UNL     1     -10.210   9.690  68.174  1.00  0.00    -0.171 OA 
HETATM   22  C   UNL     1      -9.700  10.514  68.928  1.00  0.00    -0.199 C  
HETATM   23  H   UNL     1      -9.860  12.284  69.977  1.00  0.00     0.000 HD 
BRANCH  22  24
HETATM   24  C   UNL     1      -8.344  10.295  69.568  1.00  0.00    -0.162 C  
BRANCH  24  25
HETATM   25  C   UNL     1      -8.335   9.058  70.410  1.00  0.00    -0.164 A  
HETATM   26  C   UNL     1      -9.077   8.789  71.544  1.00  0.00    -0.322 A  
HETATM   27  C   UNL     1      -8.707   7.555  72.154  1.00  0.00    -0.140 A  
HETATM   28  C   UNL     1      -7.720   6.906  71.448  1.00  0.00    -0.092 A  
HETATM   29  S   UNL     1      -7.254   7.776  70.052  1.00  0.00    -0.068 SA 
ENDBRANCH  24  25
ENDBRANCH  22  24
ENDBRANCH  12  20
BRANCH  12  30
HETATM   30  O   UNL     1     -12.755  11.305  69.221  1.00  0.00    -0.202 OA 
HETATM   31  C   UNL     1     -12.793  11.075  70.626  1.00  0.00    -0.220 C  
ENDBRANCH  12  30
TORSDOF 7
ENDMDL
MODEL       32
REMARK 921   NORMALIZED FREE ENERGY PREDICTED BY IDOCK:   -5.79 KCAL/MOL
REMARK 922        TOTAL FREE ENERGY PREDICTED BY IDOCK:   -8.84 KCAL/MOL
REMARK 923 INTER-LIGAND FREE ENERGY PREDICTED BY IDOCK:   -8.13 KCAL/MOL
REMARK 924 INTRA-LIGAND FREE ENERGY PREDICTED BY IDOCK:   -0.71 KCAL/MOL
REMARK 927      BINDING AFFINITY PREDICTED BY RF-SCORE:    0.00 PKD
ROOT
HETATM    1  C   UNL     1      -8.963   9.619  67.702  1.00  0.00    -0.125 C  
HETATM    2  S   UNL     1     -10.023  10.981  68.230  1.00  0.00    -0.186 SA 
HETATM    3  C   UNL     1     -10.326  10.263  69.855  1.00  0.00    -0.233 C  
HETATM    4  C   UNL     1     -10.699   8.791  69.856  1.00  0.00    -0.228 C  
HETATM    5  C   UNL     1     -10.405   7.920  68.845  1.00  0.00    -0.213 C  
HETATM    6  O   UNL     1      -9.241   6.771  66.143  1.00  0.00    -0.154 OA 
HETATM    7  O   UNL     1     -10.527   5.628  67.961  1.00  0.00    -0.205 OA 
HETATM    8  C   UNL     1     -10.953   6.501  68.891  1.00  0.00    -0.314 C  
HETATM    9  N   UNL     1      -9.703   8.367  67.757  1.00  0.00    -0.156 N  
HETATM   10  C   UNL     1      -9.257   7.902  66.569  1.00  0.00    -0.191 C  
HETATM   11  O   UNL     1     -11.733   6.110  69.749  1.00  0.00    -0.340 OA 
HETATM   12  C   UNL     1      -8.850   9.402  66.125  1.00  0.00    -0.151 C  
ENDROOT
BRANCH   4  13
HETATM   13  C   UNL     1     -11.512   8.426  71.101  1.00  0.00    -0.274 C  
BRANCH  13  14
HETATM   14  O   UNL     1     -12.670   9.281  71.216  1.00  0.00    -0.321 OA 
BRANCH  14  15
HETATM   15  C   UNL     1     -13.766   8.731  71.783  1.00  0.00    -0.419 C  
HETATM   16  O   UNL     1     -14.304   9.070  72.823  1.00  0.00    -0.596 OA 
HETATM   17  N   UNL     1     -14.191   7.689  71.036  1.00  0.00    -0.662 N  
HETATM   18  H2  UNL     1     -13.751   7.365  70.175  1.00  0.00     0.000 HD 
HETATM   19  H1  UNL     1     -15.019   7.274  71.464  1.00  0.00     0.000 HD 
ENDBRANCH  14  15
ENDBRANCH  13  14
ENDBRANCH   4  13
BRANCH  12  20
HETATM   20  N   UNL     1      -9.855  10.186  65.334  1.00  0.00    -0.289 N  
HETATM   21  O   UNL     1      -8.531  10.582  63.507  1.00  0.00    -0.170 OA 
HETATM   22  C   UNL     1      -9.617  10.679  64.071  1.00  0.00    -0.299 C  
HETATM   23  H   UNL     1     -10.765  10.365  65.756  1.00  0.00     0.000 HD 
BRANCH  22  24
HETATM   24  C   UNL     1     -10.793  11.399  63.443  1.00  0.00    -0.375 C  
BRANCH  24  25
HETATM   25  C   UNL     1     -11.315  12.474  64.342  1.00  0.00    -0.343 A  
HETATM   26  C   UNL     1     -12.581  12.601  64.881  1.00  0.00    -0.525 A  
HETATM   27  C   UNL     1     -12.750  13.826  65.588  1.00  0.00    -0.523 A  
HETATM   28  C   UNL     1     -11.598  14.580  65.596  1.00  0.00    -0.344 A  
HETATM   29  S   UNL     1     -10.320  13.805  64.766  1.00  0.00    -0.329 SA 
ENDBRANCH  24  25
ENDBRANCH  22  24
ENDBRANCH  12  20
BRANCH  12  30
HETATM   30  O   UNL     1      -7.499   9.529  65.602  1.00  0.00    -0.091 OA 
HETATM   31  C   UNL     1      -6.532  10.034  66.517  1.00  0.00    -0.073 C  
ENDBRANCH  12  30
TORSDOF 7
ENDMDL
MODEL       33
REMARK 921   NORMALIZED FREE ENERGY PREDICTED BY IDOCK:   -5.76 KCAL/MOL
REMARK 922        TOTAL FREE ENERGY PREDICTED BY IDOCK:   -8.80 KCAL/MOL
REMARK 923 INTER-LIGAND FREE ENERGY PREDICTED BY IDOCK:   -7.50 KCAL/MOL
REMARK 924 INTRA-LIGAND FREE ENERGY PREDICTED BY IDOCK:   -1.30 KCAL/MOL
REMARK 927      BINDING AFFINITY PREDICTED BY RF-SCORE:    0.00 PKD
ROOT
HETATM    1  C   UNL     1     -11.019  12.572  67.226  1.00  0.00    -0.261 C  
HETATM    2  S   UNL     1      -9.366  11.918  66.913  1.00  0.00    -0.202 SA 
HETATM    3  C   UNL     1      -9.806  10.250  67.437  1.00  0.00    -0.179 C  
HETATM    4  C   UNL     1     -10.567  10.160  68.748  1.00  0.00    -0.236 C  
HETATM    5  C   UNL     1     -11.288  11.184  69.293  1.00  0.00    -0.281 C  
HETATM    6  O   UNL     1     -12.661  14.007  69.647  1.00  0.00    -0.253 OA 
HETATM    7  O   UNL     1     -12.717  11.989  71.126  1.00  0.00    -0.364 OA 
HETATM    8  C   UNL     1     -11.893  11.024  70.681  1.00  0.00    -0.333 C  
HETATM    9  N   UNL     1     -11.372  12.376  68.624  1.00  0.00    -0.264 N  
HETATM   10  C   UNL     1     -11.900  13.609  68.795  1.00  0.00    -0.360 C  
HETATM   11  O   UNL     1     -11.693  10.049  71.391  1.00  0.00    -0.367 OA 
HETATM   12  C   UNL     1     -11.102  14.142  67.496  1.00  0.00    -0.291 C  
ENDROOT
BRANCH   4  13
HETATM   13  C   UNL     1     -10.363   8.797  69.416  1.00  0.00    -0.214 C  
BRANCH  13  14
HETATM   14  O   UNL     1      -8.957   8.546  69.627  1.00  0.00    -0.142 OA 
BRANCH  14  15
HETATM   15  C   UNL     1      -8.421   9.054  70.758  1.00  0.00    -0.200 C  
HETATM   16  O   UNL     1      -7.491   9.837  70.844  1.00  0.00    -0.320 OA 
HETATM   17  N   UNL     1      -9.051   8.534  71.835  1.00  0.00    -0.223 N  
HETATM   18  H2  UNL     1      -9.816   7.860  71.799  1.00  0.00     0.000 HD 
HETATM   19  H1  UNL     1      -8.646   8.918  72.689  1.00  0.00     0.000 HD 
ENDBRANCH  14  15
ENDBRANCH  13  14
ENDBRANCH   4  13
BRANCH  12  20
HETATM   20  N   UNL     1      -9.766  14.787  67.721  1.00  0.00    -0.212 N  
HETATM   21  O   UNL     1     -10.516  16.578  68.935  1.00  0.00    -0.262 OA 
HETATM   22  C   UNL     1      -9.586  15.936  68.457  1.00  0.00    -0.205 C  
HETATM   23  H   UNL     1      -8.945  14.349  67.304  1.00  0.00     0.000 HD 
BRANCH  22  24
HETATM   24  C   UNL     1      -8.143  16.379  68.593  1.00  0.00    -0.218 C  
BRANCH  24  25
HETATM   25  C   UNL     1      -7.828  17.498  67.650  1.00  0.00    -0.201 A  
HETATM   26  C   UNL     1      -7.462  17.419  66.320  1.00  0.00    -0.354 A  
HETATM   27  C   UNL     1      -7.113  18.689  65.777  1.00  0.00    -0.261 A  
HETATM   28  C   UNL     1      -7.257  19.701  66.699  1.00  0.00    -0.229 A  
HETATM   29  S   UNL     1      -7.820  19.120  68.205  1.00  0.00    -0.313 SA 
ENDBRANCH  24  25
ENDBRANCH  22  24
ENDBRANCH  12  20
BRANCH  12  30
HETATM   30  O   UNL     1     -11.923  14.868  66.541  1.00  0.00    -0.237 OA 
HETATM   31  C   UNL     1     -12.561  14.070  65.549  1.00  0.00    -0.516 C  
ENDBRANCH  12  30
TORSDOF 7
ENDMDL
MODEL       34
REMARK 921   NORMALIZED FREE ENERGY PREDICTED BY IDOCK:   -5.73 KCAL/MOL
REMARK 922        TOTAL FREE ENERGY PREDICTED BY IDOCK:   -8.75 KCAL/MOL
REMARK 923 INTER-LIGAND FREE ENERGY PREDICTED BY IDOCK:   -7.72 KCAL/MOL
REMARK 924 INTRA-LIGAND FREE ENERGY PREDICTED BY IDOCK:   -1.03 KCAL/MOL
REMARK 927      BINDING AFFINITY PREDICTED BY RF-SCORE:    0.00 PKD
ROOT
HETATM    1  C   UNL     1      -8.938   9.840  67.813  1.00  0.00    -0.128 C  
HETATM    2  S   UNL     1      -9.994  11.125  68.515  1.00  0.00    -0.204 SA 
HETATM    3  C   UNL     1     -10.260  10.223  70.052  1.00  0.00    -0.162 C  
HETATM    4  C   UNL     1     -10.625   8.757  69.891  1.00  0.00    -0.230 C  
HETATM    5  C   UNL     1     -10.347   8.011  68.781  1.00  0.00    -0.206 C  
HETATM    6  O   UNL     1      -9.232   7.189  65.943  1.00  0.00    -0.084 OA 
HETATM    7  O   UNL     1     -10.474   5.835  67.642  1.00  0.00    -0.200 OA 
HETATM    8  C   UNL     1     -10.886   6.591  68.674  1.00  0.00    -0.295 C  
HETATM    9  N   UNL     1      -9.670   8.585  67.738  1.00  0.00    -0.156 N  
HETATM   10  C   UNL     1      -9.246   8.263  66.496  1.00  0.00    -0.187 C  
HETATM   11  O   UNL     1     -11.646   6.099  69.497  1.00  0.00    -0.396 OA 
HETATM   12  C   UNL     1      -8.856   9.807  66.219  1.00  0.00    -0.147 C  
ENDROOT
BRANCH   4  13
HETATM   13  C   UNL     1     -11.410   8.245  71.101  1.00  0.00    -0.263 C  
BRANCH  13  14
HETATM   14  O   UNL     1     -12.550   9.093  71.358  1.00  0.00    -0.312 OA 
BRANCH  14  15
HETATM   15  C   UNL     1     -13.651   8.483  71.850  1.00  0.00    -0.396 C  
HETATM   16  O   UNL     1     -14.274   8.787  72.853  1.00  0.00    -0.479 OA 
HETATM   17  N   UNL     1     -13.970   7.424  71.075  1.00  0.00    -0.603 N  
HETATM   18  H2  UNL     1     -13.457   7.128  70.244  1.00  0.00     0.000 HD 
HETATM   19  H1  UNL     1     -14.801   6.963  71.446  1.00  0.00     0.000 HD 
ENDBRANCH  14  15
ENDBRANCH  13  14
ENDBRANCH   4  13
BRANCH  12  20
HETATM   20  N   UNL     1      -9.881  10.669  65.543  1.00  0.00    -0.241 N  
HETATM   21  O   UNL     1      -9.340  10.118  63.388  1.00  0.00    -0.273 OA 
HETATM   22  C   UNL     1     -10.058  10.721  64.179  1.00  0.00    -0.353 C  
HETATM   23  H   UNL     1     -10.481  11.251  66.129  1.00  0.00     0.000 HD 
BRANCH  22  24
HETATM   24  C   UNL     1     -11.185  11.625  63.723  1.00  0.00    -0.498 C  
BRANCH  24  25
HETATM   25  C   UNL     1     -11.203  12.904  64.499  1.00  0.00    -0.336 A  
HETATM   26  C   UNL     1     -10.211  13.862  64.593  1.00  0.00    -0.278 A  
HETATM   27  C   UNL     1     -10.535  14.886  65.530  1.00  0.00    -0.380 A  
HETATM   28  C   UNL     1     -11.776  14.696  66.094  1.00  0.00    -0.313 A  
HETATM   29  S   UNL     1     -12.549  13.298  65.486  1.00  0.00    -0.359 SA 
ENDBRANCH  24  25
ENDBRANCH  22  24
ENDBRANCH  12  20
BRANCH  12  30
HETATM   30  O   UNL     1      -7.517  10.004  65.688  1.00  0.00    -0.123 OA 
HETATM   31  C   UNL     1      -6.725  10.974  66.365  1.00  0.00    -0.123 C  
ENDBRANCH  12  30
TORSDOF 7
ENDMDL
MODEL       35
REMARK 921   NORMALIZED FREE ENERGY PREDICTED BY IDOCK:   -5.70 KCAL/MOL
REMARK 922        TOTAL FREE ENERGY PREDICTED BY IDOCK:   -8.71 KCAL/MOL
REMARK 923 INTER-LIGAND FREE ENERGY PREDICTED BY IDOCK:   -8.29 KCAL/MOL
REMARK 924 INTRA-LIGAND FREE ENERGY PREDICTED BY IDOCK:   -0.42 KCAL/MOL
REMARK 927      BINDING AFFINITY PREDICTED BY RF-SCORE:    0.00 PKD
ROOT
HETATM    1  C   UNL     1     -10.445  12.927  66.123  1.00  0.00    -0.269 C  
HETATM    2  S   UNL     1     -12.055  13.741  66.172  1.00  0.00    -0.452 SA 
HETATM    3  C   UNL     1     -11.404  15.313  65.579  1.00  0.00    -0.220 C  
HETATM    4  C   UNL     1     -10.139  15.795  66.270  1.00  0.00    -0.320 C  
HETATM    5  C   UNL     1      -9.268  14.982  66.938  1.00  0.00    -0.246 C  
HETATM    6  O   UNL     1      -7.925  12.377  68.114  1.00  0.00    -0.135 OA 
HETATM    7  O   UNL     1      -7.189  14.766  68.234  1.00  0.00    -0.101 OA 
HETATM    8  C   UNL     1      -8.110  15.595  67.712  1.00  0.00    -0.146 C  
HETATM    9  N   UNL     1      -9.507  13.634  66.982  1.00  0.00    -0.243 N  
HETATM   10  C   UNL     1      -8.977  12.521  67.536  1.00  0.00    -0.185 C  
HETATM   11  O   UNL     1      -7.960  16.801  67.852  1.00  0.00    -0.171 OA 
HETATM   12  C   UNL     1     -10.276  11.670  67.091  1.00  0.00    -0.213 C  
ENDROOT
BRANCH   4  13
HETATM   13  C   UNL     1     -10.006  17.318  66.183  1.00  0.00    -0.275 C  
BRANCH  13  14
HETATM   14  O   UNL     1     -10.750  17.950  67.247  1.00  0.00    -0.354 OA 
BRANCH  14  15
HETATM   15  C   UNL     1     -10.539  19.273  67.421  1.00  0.00    -0.487 C  
HETATM   16  O   UNL     1     -10.509  20.133  66.558  1.00  0.00    -0.426 OA 
HETATM   17  N   UNL     1     -10.322  19.531  68.730  1.00  0.00    -0.556 N  
HETATM   18  H2  UNL     1     -10.317  18.833  69.474  1.00  0.00     0.000 HD 
HETATM   19  H1  UNL     1     -10.163  20.531  68.861  1.00  0.00     0.000 HD 
ENDBRANCH  14  15
ENDBRANCH  13  14
ENDBRANCH   4  13
BRANCH  12  20
HETATM   20  N   UNL     1     -11.385  11.524  68.091  1.00  0.00    -0.270 N  
HETATM   21  O   UNL     1     -10.115  10.689  69.804  1.00  0.00    -0.162 OA 
HETATM   22  C   UNL     1     -11.199  11.078  69.380  1.00  0.00    -0.268 C  
HETATM   23  H   UNL     1     -12.331  11.769  67.799  1.00  0.00     0.000 HD 
BRANCH  22  24
HETATM   24  C   UNL     1     -12.454  11.059  70.228  1.00  0.00    -0.365 C  
BRANCH  24  25
HETATM   25  C   UNL     1     -12.647  12.359  70.942  1.00  0.00    -0.246 A  
HETATM   26  C   UNL     1     -13.374  12.605  72.092  1.00  0.00    -0.570 A  
HETATM   27  C   UNL     1     -13.437  13.993  72.407  1.00  0.00    -0.639 A  
HETATM   28  C   UNL     1     -12.730  14.759  71.508  1.00  0.00    -0.330 A  
HETATM   29  S   UNL     1     -11.984  13.805  70.301  1.00  0.00    -0.306 SA 
ENDBRANCH  24  25
ENDBRANCH  22  24
ENDBRANCH  12  20
BRANCH  12  30
HETATM   30  O   UNL     1      -9.973  10.425  66.402  1.00  0.00    -0.204 OA 
HETATM   31  C   UNL     1      -8.786   9.763  66.825  1.00  0.00    -0.131 C  
ENDBRANCH  12  30
TORSDOF 7
ENDMDL
MODEL       36
REMARK 921   NORMALIZED FREE ENERGY PREDICTED BY IDOCK:   -5.67 KCAL/MOL
REMARK 922        TOTAL FREE ENERGY PREDICTED BY IDOCK:   -8.67 KCAL/MOL
REMARK 923 INTER-LIGAND FREE ENERGY PREDICTED BY IDOCK:   -7.79 KCAL/MOL
REMARK 924 INTRA-LIGAND FREE ENERGY PREDICTED BY IDOCK:   -0.88 KCAL/MOL
REMARK 927      BINDING AFFINITY PREDICTED BY RF-SCORE:    0.00 PKD
ROOT
HETATM    1  C   UNL     1     -10.274  10.553  67.367  1.00  0.00    -0.211 C  
HETATM    2  S   UNL     1     -11.762  11.323  68.040  1.00  0.00    -0.168 SA 
HETATM    3  C   UNL     1     -11.541  12.839  67.092  1.00  0.00    -0.364 C  
HETATM    4  C   UNL     1     -10.141  13.428  67.123  1.00  0.00    -0.240 C  
HETATM    5  C   UNL     1      -9.012  12.716  67.415  1.00  0.00    -0.190 C  
HETATM    6  O   UNL     1      -7.113  10.290  68.109  1.00  0.00    -0.080 OA 
HETATM    7  O   UNL     1      -6.569  12.697  67.695  1.00  0.00    -0.111 OA 
HETATM    8  C   UNL     1      -7.681  13.440  67.555  1.00  0.00    -0.176 C  
HETATM    9  N   UNL     1      -9.112  11.374  67.672  1.00  0.00    -0.152 N  
HETATM   10  C   UNL     1      -8.318  10.342  68.034  1.00  0.00    -0.114 C  
HETATM   11  O   UNL     1      -7.572  14.658  67.513  1.00  0.00    -0.166 OA 
HETATM   12  C   UNL     1      -9.618   9.412  68.270  1.00  0.00    -0.142 C  
ENDROOT
BRANCH   4  13
HETATM   13  C   UNL     1     -10.167  14.935  66.859  1.00  0.00    -0.254 C  
BRANCH  13  14
HETATM   14  O   UNL     1     -10.824  15.216  65.605  1.00  0.00    -0.328 OA 
BRANCH  14  15
HETATM   15  C   UNL     1     -10.814  16.505  65.199  1.00  0.00    -0.233 C  
HETATM   16  O   UNL     1     -11.347  16.966  64.204  1.00  0.00    -1.208 OA 
HETATM   17  N   UNL     1     -10.077  17.246  66.054  1.00  0.00    -0.291 N  
HETATM   18  H2  UNL     1      -9.599  16.888  66.881  1.00  0.00     0.000 HD 
HETATM   19  H1  UNL     1     -10.070  18.220  65.748  1.00  0.00     0.000 HD 
ENDBRANCH  14  15
ENDBRANCH  13  14
ENDBRANCH   4  13
BRANCH  12  20
HETATM   20  N   UNL     1     -10.178   9.344  69.659  1.00  0.00    -0.200 N  
HETATM   21  O   UNL     1      -8.598   7.937  70.535  1.00  0.00    -0.128 OA 
HETATM   22  C   UNL     1      -9.594   8.637  70.686  1.00  0.00    -0.186 C  
HETATM   23  H   UNL     1     -11.042   9.850  69.855  1.00  0.00     0.000 HD 
BRANCH  22  24
HETATM   24  C   UNL     1     -10.308   8.751  72.017  1.00  0.00    -0.411 C  
BRANCH  24  25
HETATM   25  C   UNL     1     -11.741   8.336  71.902  1.00  0.00    -0.322 A  
HETATM   26  C   UNL     1     -12.249   7.082  71.622  1.00  0.00    -0.395 A  
HETATM   27  C   UNL     1     -13.665   7.093  71.464  1.00  0.00    -0.413 A  
HETATM   28  C   UNL     1     -14.196   8.348  71.662  1.00  0.00    -0.440 A  
HETATM   29  S   UNL     1     -12.993   9.499  72.048  1.00  0.00    -0.432 SA 
ENDBRANCH  24  25
ENDBRANCH  22  24
ENDBRANCH  12  20
BRANCH  12  30
HETATM   30  O   UNL     1      -9.551   8.110  67.626  1.00  0.00    -0.145 OA 
HETATM   31  C   UNL     1     -10.784   7.615  67.114  1.00  0.00    -0.290 C  
ENDBRANCH  12  30
TORSDOF 7
ENDMDL
MODEL       37
REMARK 921   NORMALIZED FREE ENERGY PREDICTED BY IDOCK:   -5.63 KCAL/MOL
REMARK 922        TOTAL FREE ENERGY PREDICTED BY IDOCK:   -8.61 KCAL/MOL
REMARK 923 INTER-LIGAND FREE ENERGY PREDICTED BY IDOCK:   -7.50 KCAL/MOL
REMARK 924 INTRA-LIGAND FREE ENERGY PREDICTED BY IDOCK:   -1.11 KCAL/MOL
REMARK 927      BINDING AFFINITY PREDICTED BY RF-SCORE:    0.00 PKD
ROOT
HETATM    1  C   UNL     1      -8.807  15.665  68.343  1.00  0.00    -0.184 C  
HETATM    2  S   UNL     1      -7.325  15.386  67.350  1.00  0.00    -0.211 SA 
HETATM    3  C   UNL     1      -6.539  16.914  67.891  1.00  0.00    -0.141 C  
HETATM    4  C   UNL     1      -7.421  18.150  67.847  1.00  0.00    -0.228 C  
HETATM    5  C   UNL     1      -8.787  18.123  67.863  1.00  0.00    -0.268 C  
HETATM    6  O   UNL     1     -11.746  17.030  68.011  1.00  0.00     0.306 OA 
HETATM    7  O   UNL     1     -10.902  19.379  67.840  1.00  0.00    -0.378 OA 
HETATM    8  C   UNL     1      -9.568  19.416  67.673  1.00  0.00    -0.324 C  
HETATM    9  N   UNL     1      -9.434  16.919  67.953  1.00  0.00    -0.236 N  
HETATM   10  C   UNL     1     -10.696  16.435  67.951  1.00  0.00    -0.332 C  
HETATM   11  O   UNL     1      -9.038  20.487  67.409  1.00  0.00    -0.370 OA 
HETATM   12  C   UNL     1     -10.128  14.927  67.836  1.00  0.00    -0.227 C  
ENDROOT
BRANCH   4  13
HETATM   13  C   UNL     1      -6.585  19.425  67.709  1.00  0.00    -0.223 C  
BRANCH  13  14
HETATM   14  O   UNL     1      -5.737  19.347  66.543  1.00  0.00    -0.165 OA 
BRANCH  14  15
HETATM   15  C   UNL     1      -6.342  19.532  65.349  1.00  0.00    -0.252 C  
HETATM   16  O   UNL     1      -6.310  18.787  64.385  1.00  0.00    -0.402 OA 
HETATM   17  N   UNL     1      -6.990  20.718  65.345  1.00  0.00    -0.524 N  
HETATM   18  H2  UNL     1      -7.017  21.375  66.126  1.00  0.00     0.000 HD 
HETATM   19  H1  UNL     1      -7.447  20.858  64.444  1.00  0.00     0.000 HD 
ENDBRANCH  14  15
ENDBRANCH  13  14
ENDBRANCH   4  13
BRANCH  12  20
HETATM   20  N   UNL     1     -10.001  14.337  66.462  1.00  0.00    -0.272 N  
HETATM   21  O   UNL     1     -12.236  14.014  66.084  1.00  0.00    -0.426 OA 
HETATM   22  C   UNL     1     -11.076  13.965  65.688  1.00  0.00    -0.298 C  
HETATM   23  H   UNL     1      -9.064  14.205  66.081  1.00  0.00     0.000 HD 
BRANCH  22  24
HETATM   24  C   UNL     1     -10.712  13.438  64.314  1.00  0.00    -0.374 C  
BRANCH  24  25
HETATM   25  C   UNL     1     -10.266  12.011  64.380  1.00  0.00    -0.302 A  
HETATM   26  C   UNL     1     -10.366  11.132  65.442  1.00  0.00    -0.331 A  
HETATM   27  C   UNL     1      -9.715   9.891  65.181  1.00  0.00    -0.376 A  
HETATM   28  C   UNL     1      -9.170   9.851  63.918  1.00  0.00    -0.248 A  
HETATM   29  S   UNL     1      -9.454  11.296  63.051  1.00  0.00    -0.340 SA 
ENDBRANCH  24  25
ENDBRANCH  22  24
ENDBRANCH  12  20
BRANCH  12  30
HETATM   30  O   UNL     1     -10.694  13.995  68.798  1.00  0.00    -0.250 OA 
HETATM   31  C   UNL     1     -11.041  14.552  70.062  1.00  0.00    -0.126 C  
ENDBRANCH  12  30
TORSDOF 7
ENDMDL
MODEL       38
REMARK 921   NORMALIZED FREE ENERGY PREDICTED BY IDOCK:   -5.63 KCAL/MOL
REMARK 922        TOTAL FREE ENERGY PREDICTED BY IDOCK:   -8.61 KCAL/MOL
REMARK 923 INTER-LIGAND FREE ENERGY PREDICTED BY IDOCK:   -7.99 KCAL/MOL
REMARK 924 INTRA-LIGAND FREE ENERGY PREDICTED BY IDOCK:   -0.62 KCAL/MOL
REMARK 927      BINDING AFFINITY PREDICTED BY RF-SCORE:    0.00 PKD
ROOT
HETATM    1  C   UNL     1     -10.769  16.105  66.651  1.00  0.00    -0.226 C  
HETATM    2  S   UNL     1      -9.548  15.260  65.626  1.00  0.00    -0.195 SA 
HETATM    3  C   UNL     1     -10.568  13.788  65.427  1.00  0.00    -0.322 C  
HETATM    4  C   UNL     1     -11.187  13.248  66.704  1.00  0.00    -0.332 C  
HETATM    5  C   UNL     1     -11.390  13.987  67.835  1.00  0.00    -0.291 C  
HETATM    6  O   UNL     1     -11.487  16.450  69.810  1.00  0.00    -0.253 OA 
HETATM    7  O   UNL     1     -12.215  14.080  70.150  1.00  0.00    -0.321 OA 
HETATM    8  C   UNL     1     -11.886  13.305  69.102  1.00  0.00    -0.329 C  
HETATM    9  N   UNL     1     -11.049  15.314  67.840  1.00  0.00    -0.310 N  
HETATM   10  C   UNL     1     -11.025  16.359  68.697  1.00  0.00    -0.345 C  
HETATM   11  O   UNL     1     -12.031  12.094  69.198  1.00  0.00    -0.299 OA 
HETATM   12  C   UNL     1     -10.195  17.234  67.622  1.00  0.00    -0.333 C  
ENDROOT
BRANCH   4  13
HETATM   13  C   UNL     1     -11.486  11.751  66.586  1.00  0.00    -0.267 C  
BRANCH  13  14
HETATM   14  O   UNL     1     -10.270  11.012  66.341  1.00  0.00    -0.221 OA 
BRANCH  14  15
HETATM   15  C   UNL     1     -10.189   9.787  66.904  1.00  0.00    -0.245 C  
HETATM   16  O   UNL     1     -10.046   8.721  66.329  1.00  0.00    -0.291 OA 
HETATM   17  N   UNL     1     -10.329   9.891  68.243  1.00  0.00    -0.190 N  
HETATM   18  H2  UNL     1     -10.473  10.763  68.753  1.00  0.00     0.000 HD 
HETATM   19  H1  UNL     1     -10.268   8.966  68.669  1.00  0.00     0.000 HD 
ENDBRANCH  14  15
ENDBRANCH  13  14
ENDBRANCH   4  13
BRANCH  12  20
HETATM   20  N   UNL     1      -8.699  17.231  67.734  1.00  0.00    -0.223 N  
HETATM   21  O   UNL     1      -8.268  18.400  65.813  1.00  0.00    -0.494 OA 
HETATM   22  C   UNL     1      -7.864  17.850  66.833  1.00  0.00    -0.221 C  
HETATM   23  H   UNL     1      -8.277  16.741  68.523  1.00  0.00     0.000 HD 
BRANCH  22  24
HETATM   24  C   UNL     1      -6.390  17.759  67.172  1.00  0.00    -0.187 C  
BRANCH  24  25
HETATM   25  C   UNL     1      -6.077  18.498  68.435  1.00  0.00    -0.201 A  
HETATM   26  C   UNL     1      -5.643  17.985  69.642  1.00  0.00    -0.220 A  
HETATM   27  C   UNL     1      -5.573  18.979  70.661  1.00  0.00    -0.210 A  
HETATM   28  C   UNL     1      -5.923  20.225  70.190  1.00  0.00    -0.351 A  
HETATM   29  S   UNL     1      -6.320  20.193  68.527  1.00  0.00    -0.312 SA 
ENDBRANCH  24  25
ENDBRANCH  22  24
ENDBRANCH  12  20
BRANCH  12  30
HETATM   30  O   UNL     1     -10.738  18.561  67.378  1.00  0.00    -0.425 OA 
HETATM   31  C   UNL     1     -10.403  19.549  68.347  1.00  0.00    -0.377 C  
ENDBRANCH  12  30
TORSDOF 7
ENDMDL
MODEL       39
REMARK 921   NORMALIZED FREE ENERGY PREDICTED BY IDOCK:   -5.60 KCAL/MOL
REMARK 922        TOTAL FREE ENERGY PREDICTED BY IDOCK:   -8.57 KCAL/MOL
REMARK 923 INTER-LIGAND FREE ENERGY PREDICTED BY IDOCK:   -7.69 KCAL/MOL
REMARK 924 INTRA-LIGAND FREE ENERGY PREDICTED BY IDOCK:   -0.88 KCAL/MOL
REMARK 927      BINDING AFFINITY PREDICTED BY RF-SCORE:    0.00 PKD
ROOT
HETATM    1  C   UNL     1      -8.535   9.754  69.753  1.00  0.00    -0.193 C  
HETATM    2  S   UNL     1      -7.753   8.864  68.391  1.00  0.00    -0.100 SA 
HETATM    3  C   UNL     1      -7.900  10.253  67.252  1.00  0.00    -0.103 C  
HETATM    4  C   UNL     1      -9.263  10.922  67.214  1.00  0.00    -0.160 C  
HETATM    5  C   UNL     1     -10.184  10.854  68.221  1.00  0.00    -0.173 C  
HETATM    6  O   UNL     1     -11.514  10.175  71.004  1.00  0.00    -0.354 OA 
HETATM    7  O   UNL     1     -12.401  11.494  69.071  1.00  0.00    -0.360 OA 
HETATM    8  C   UNL     1     -11.571  11.445  68.014  1.00  0.00    -0.286 C  
HETATM    9  N   UNL     1      -9.876  10.169  69.367  1.00  0.00    -0.218 N  
HETATM   10  C   UNL     1     -10.459   9.817  70.534  1.00  0.00    -0.301 C  
HETATM   11  O   UNL     1     -11.952  11.904  66.946  1.00  0.00    -0.614 OA 
HETATM   12  C   UNL     1      -9.216   8.844  70.873  1.00  0.00    -0.231 C  
ENDROOT
BRANCH   4  13
HETATM   13  C   UNL     1      -9.502  11.618  65.871  1.00  0.00    -0.228 C  
BRANCH  13  14
HETATM   14  O   UNL     1      -9.696  10.643  64.825  1.00  0.00    -0.239 OA 
BRANCH  14  15
HETATM   15  C   UNL     1      -9.807  11.127  63.568  1.00  0.00    -0.353 C  
HETATM   16  O   UNL     1      -8.905  11.311  62.768  1.00  0.00    -0.266 OA 
HETATM   17  N   UNL     1     -11.098  11.429  63.309  1.00  0.00    -0.822 N  
HETATM   18  H2  UNL     1     -11.872  11.310  63.963  1.00  0.00     0.000 HD 
HETATM   19  H1  UNL     1     -11.182  11.795  62.360  1.00  0.00     0.000 HD 
ENDBRANCH  14  15
ENDBRANCH  13  14
ENDBRANCH   4  13
BRANCH  12  20
HETATM   20  N   UNL     1      -9.340   7.400  70.485  1.00  0.00    -0.158 N  
HETATM   21  O   UNL     1     -11.224   6.940  71.703  1.00  0.00    -0.235 OA 
HETATM   22  C   UNL     1     -10.361   6.580  70.908  1.00  0.00    -0.207 C  
HETATM   23  H   UNL     1      -8.627   7.004  69.873  1.00  0.00     0.000 HD 
BRANCH  22  24
HETATM   24  C   UNL     1     -10.311   5.172  70.350  1.00  0.00    -0.326 C  
BRANCH  24  25
HETATM   25  C   UNL     1     -10.206   5.182  68.858  1.00  0.00    -0.150 A  
HETATM   26  C   UNL     1     -10.801   6.051  67.964  1.00  0.00    -0.374 A  
HETATM   27  C   UNL     1     -10.575   5.673  66.608  1.00  0.00    -0.361 A  
HETATM   28  C   UNL     1      -9.787   4.549  66.511  1.00  0.00    -0.227 A  
HETATM   29  S   UNL     1      -9.315   3.963  68.046  1.00  0.00    -0.168 SA 
ENDBRANCH  24  25
ENDBRANCH  22  24
ENDBRANCH  12  20
BRANCH  12  30
HETATM   30  O   UNL     1      -8.657   9.022  72.204  1.00  0.00    -0.364 OA 
HETATM   31  C   UNL     1      -7.474   8.278  72.477  1.00  0.00    -0.113 C  
ENDBRANCH  12  30
TORSDOF 7
ENDMDL
MODEL       40
REMARK 921   NORMALIZED FREE ENERGY PREDICTED BY IDOCK:   -5.59 KCAL/MOL
REMARK 922        TOTAL FREE ENERGY PREDICTED BY IDOCK:   -8.55 KCAL/MOL
REMARK 923 INTER-LIGAND FREE ENERGY PREDICTED BY IDOCK:   -7.68 KCAL/MOL
REMARK 924 INTRA-LIGAND FREE ENERGY PREDICTED BY IDOCK:   -0.86 KCAL/MOL
REMARK 927      BINDING AFFINITY PREDICTED BY RF-SCORE:    0.00 PKD
ROOT
HETATM    1  C   UNL     1     -11.220  13.717  68.438  1.00  0.00    -0.272 C  
HETATM    2  S   UNL     1     -10.148  12.271  68.305  1.00  0.00    -0.217 SA 
HETATM    3  C   UNL     1     -11.453  11.121  68.778  1.00  0.00    -0.299 C  
HETATM    4  C   UNL     1     -12.262  11.522  69.999  1.00  0.00    -0.354 C  
HETATM    5  C   UNL     1     -12.373  12.802  70.465  1.00  0.00    -0.275 C  
HETATM    6  O   UNL     1     -12.059  15.938  70.670  1.00  0.00    -0.382 OA 
HETATM    7  O   UNL     1     -13.315  14.344  72.134  1.00  0.00    -0.337 OA 
HETATM    8  C   UNL     1     -13.094  13.066  71.779  1.00  0.00    -0.373 C  
HETATM    9  N   UNL     1     -11.749  13.818  69.790  1.00  0.00    -0.298 N  
HETATM   10  C   UNL     1     -11.553  15.150  69.905  1.00  0.00    -0.300 C  
HETATM   11  O   UNL     1     -13.510  12.174  72.506  1.00  0.00    -0.313 OA 
HETATM   12  C   UNL     1     -10.478  15.106  68.700  1.00  0.00    -0.234 C  
ENDROOT
BRANCH   4  13
HETATM   13  C   UNL     1     -12.876  10.299  70.685  1.00  0.00    -0.285 C  
BRANCH  13  14
HETATM   14  O   UNL     1     -11.840   9.450  71.224  1.00  0.00    -0.308 OA 
BRANCH  14  15
HETATM   15  C   UNL     1     -12.165   8.729  72.319  1.00  0.00    -0.358 C  
HETATM   16  O   UNL     1     -11.484   7.882  72.871  1.00  0.00    -0.403 OA 
HETATM   17  N   UNL     1     -13.412   9.054  72.724  1.00  0.00    -0.803 N  
HETATM   18  H2  UNL     1     -14.017   9.740  72.272  1.00  0.00     0.000 HD 
HETATM   19  H1  UNL     1     -13.659   8.510  73.551  1.00  0.00     0.000 HD 
ENDBRANCH  14  15
ENDBRANCH  13  14
ENDBRANCH   4  13
BRANCH  12  20
HETATM   20  N   UNL     1      -9.031  14.958  69.067  1.00  0.00    -0.267 N  
HETATM   21  O   UNL     1      -8.188  15.041  66.939  1.00  0.00    -0.215 OA 
HETATM   22  C   UNL     1      -8.004  14.976  68.151  1.00  0.00    -0.131 C  
HETATM   23  H   UNL     1      -8.796  14.836  70.052  1.00  0.00     0.000 HD 
BRANCH  22  24
HETATM   24  C   UNL     1      -6.619  14.859  68.754  1.00  0.00    -0.087 C  
BRANCH  24  25
HETATM   25  C   UNL     1      -6.298  13.440  69.106  1.00  0.00    -0.102 A  
HETATM   26  C   UNL     1      -6.029  12.907  70.352  1.00  0.00    -0.105 A  
HETATM   27  C   UNL     1      -5.638  11.539  70.284  1.00  0.00    -0.135 A  
HETATM   28  C   UNL     1      -5.654  11.062  68.992  1.00  0.00    -0.040 A  
HETATM   29  S   UNL     1      -6.150  12.256  67.875  1.00  0.00    -0.097 SA 
ENDBRANCH  24  25
ENDBRANCH  22  24
ENDBRANCH  12  20
BRANCH  12  30
HETATM   30  O   UNL     1     -10.696  16.101  67.661  1.00  0.00    -0.313 OA 
HETATM   31  C   UNL     1     -10.506  17.455  68.059  1.00  0.00    -0.383 C  
ENDBRANCH  12  30
TORSDOF 7
ENDMDL
MODEL       41
REMARK 921   NORMALIZED FREE ENERGY PREDICTED BY IDOCK:   -5.58 KCAL/MOL
REMARK 922        TOTAL FREE ENERGY PREDICTED BY IDOCK:   -8.54 KCAL/MOL
REMARK 923 INTER-LIGAND FREE ENERGY PREDICTED BY IDOCK:   -7.72 KCAL/MOL
REMARK 924 INTRA-LIGAND FREE ENERGY PREDICTED BY IDOCK:   -0.82 KCAL/MOL
REMARK 927      BINDING AFFINITY PREDICTED BY RF-SCORE:    0.00 PKD
ROOT
HETATM    1  C   UNL     1      -9.473  11.468  66.091  1.00  0.00    -0.220 C  
HETATM    2  S   UNL     1      -7.759  11.515  66.657  1.00  0.00    -0.052 SA 
HETATM    3  C   UNL     1      -7.943  10.051  67.691  1.00  0.00    -0.105 C  
HETATM    4  C   UNL     1      -9.175  10.033  68.580  1.00  0.00    -0.141 C  
HETATM    5  C   UNL     1     -10.304  10.767  68.347  1.00  0.00    -0.180 C  
HETATM    6  O   UNL     1     -12.361  12.711  66.945  1.00  0.00    -0.430 OA 
HETATM    7  O   UNL     1     -12.576  11.387  69.058  1.00  0.00    -0.271 OA 
HETATM    8  C   UNL     1     -11.421  10.778  69.381  1.00  0.00    -0.295 C  
HETATM    9  N   UNL     1     -10.372  11.558  67.232  1.00  0.00    -0.201 N  
HETATM   10  C   UNL     1     -11.218  12.443  66.657  1.00  0.00    -0.315 C  
HETATM   11  O   UNL     1     -11.330  10.232  70.473  1.00  0.00    -0.300 OA 
HETATM   12  C   UNL     1     -10.075  12.860  65.594  1.00  0.00    -0.272 C  
ENDROOT
BRANCH   4  13
HETATM   13  C   UNL     1      -8.961   9.145  69.809  1.00  0.00    -0.162 C  
BRANCH  13  14
HETATM   14  O   UNL     1      -9.289   7.773  69.502  1.00  0.00    -0.150 OA 
BRANCH  14  15
HETATM   15  C   UNL     1      -8.813   6.839  70.355  1.00  0.00    -0.152 C  
HETATM   16  O   UNL     1      -8.410   7.018  71.491  1.00  0.00    -0.112 OA 
HETATM   17  N   UNL     1      -8.807   5.631  69.749  1.00  0.00    -0.123 N  
HETATM   18  H2  UNL     1      -9.115   5.451  68.794  1.00  0.00     0.000 HD 
HETATM   19  H1  UNL     1      -8.448   4.925  70.393  1.00  0.00     0.000 HD 
ENDBRANCH  14  15
ENDBRANCH  13  14
ENDBRANCH   4  13
BRANCH  12  20
HETATM   20  N   UNL     1      -9.217  14.043  65.929  1.00  0.00    -0.493 N  
HETATM   21  O   UNL     1     -10.764  15.662  65.448  1.00  0.00    -0.362 OA 
HETATM   22  C   UNL     1      -9.652  15.347  65.861  1.00  0.00    -0.351 C  
HETATM   23  H   UNL     1      -8.255  13.872  66.223  1.00  0.00     0.000 HD 
BRANCH  22  24
HETATM   24  C   UNL     1      -8.628  16.378  66.293  1.00  0.00    -0.375 C  
BRANCH  24  25
HETATM   25  C   UNL     1      -9.289  17.630  66.776  1.00  0.00    -0.278 A  
HETATM   26  C   UNL     1      -9.433  18.833  66.110  1.00  0.00    -0.199 A  
HETATM   27  C   UNL     1     -10.004  19.844  66.936  1.00  0.00    -0.563 A  
HETATM   28  C   UNL     1     -10.309  19.372  68.193  1.00  0.00    -0.415 A  
HETATM   29  S   UNL     1      -9.919  17.717  68.368  1.00  0.00    -0.382 SA 
ENDBRANCH  24  25
ENDBRANCH  22  24
ENDBRANCH  12  20
BRANCH  12  30
HETATM   30  O   UNL     1     -10.513  12.857  64.207  1.00  0.00    -0.380 OA 
HETATM   31  C   UNL     1     -10.069  11.752  63.426  1.00  0.00    -0.446 C  
ENDBRANCH  12  30
TORSDOF 7
ENDMDL
MODEL       42
REMARK 921   NORMALIZED FREE ENERGY PREDICTED BY IDOCK:   -5.56 KCAL/MOL
REMARK 922        TOTAL FREE ENERGY PREDICTED BY IDOCK:   -8.51 KCAL/MOL
REMARK 923 INTER-LIGAND FREE ENERGY PREDICTED BY IDOCK:   -7.84 KCAL/MOL
REMARK 924 INTRA-LIGAND FREE ENERGY PREDICTED BY IDOCK:   -0.67 KCAL/MOL
REMARK 927      BINDING AFFINITY PREDICTED BY RF-SCORE:    0.00 PKD
ROOT
HETATM    1  C   UNL     1      -9.154  11.283  67.242  1.00  0.00    -0.156 C  
HETATM    2  S   UNL     1     -10.777  10.687  67.759  1.00  0.00    -0.278 SA 
HETATM    3  C   UNL     1     -11.663  11.894  66.756  1.00  0.00    -0.202 C  
HETATM    4  C   UNL     1     -11.162  13.324  66.865  1.00  0.00    -0.332 C  
HETATM    5  C   UNL     1      -9.906  13.671  67.277  1.00  0.00    -0.241 C  
HETATM    6  O   UNL     1      -6.907  13.423  68.236  1.00  0.00    -0.084 OA 
HETATM    7  O   UNL     1      -8.281  15.457  67.745  1.00  0.00    -0.139 OA 
HETATM    8  C   UNL     1      -9.561  15.139  67.482  1.00  0.00    -0.207 C  
HETATM    9  N   UNL     1      -9.007  12.687  67.594  1.00  0.00    -0.176 N  
HETATM   10  C   UNL     1      -7.747  12.570  68.067  1.00  0.00    -0.140 C  
HETATM   11  O   UNL     1     -10.382  16.041  67.388  1.00  0.00    -0.281 OA 
HETATM   12  C   UNL     1      -7.953  10.978  68.249  1.00  0.00    -0.124 C  
ENDROOT
BRANCH   4  13
HETATM   13  C   UNL     1     -12.267  14.327  66.524  1.00  0.00    -0.391 C  
BRANCH  13  14
HETATM   14  O   UNL     1     -12.858  14.011  65.245  1.00  0.00    -0.686 OA 
BRANCH  14  15
HETATM   15  C   UNL     1     -12.390  14.701  64.182  1.00  0.00    -0.265 C  
HETATM   16  O   UNL     1     -12.132  15.891  64.134  1.00  0.00    -0.615 OA 
HETATM   17  N   UNL     1     -12.271  13.875  63.119  1.00  0.00    -1.066 N  
HETATM   18  H2  UNL     1     -12.501  12.881  63.119  1.00  0.00     0.000 HD 
HETATM   19  H1  UNL     1     -11.918  14.396  62.316  1.00  0.00     0.000 HD 
ENDBRANCH  14  15
ENDBRANCH  13  14
ENDBRANCH   4  13
BRANCH  12  20
HETATM   20  N   UNL     1      -8.402  10.487  69.593  1.00  0.00    -0.371 N  
HETATM   21  O   UNL     1      -8.142   8.250  69.180  1.00  0.00    -0.116 OA 
HETATM   22  C   UNL     1      -8.422   9.159  69.955  1.00  0.00    -0.147 C  
HETATM   23  H   UNL     1      -8.710  11.177  70.278  1.00  0.00     0.000 HD 
BRANCH  22  24
HETATM   24  C   UNL     1      -8.865   8.900  71.380  1.00  0.00    -0.283 C  
BRANCH  24  25
HETATM   25  C   UNL     1     -10.068   8.011  71.421  1.00  0.00    -0.185 A  
HETATM   26  C   UNL     1     -10.130   6.668  71.741  1.00  0.00    -0.198 A  
HETATM   27  C   UNL     1     -11.432   6.123  71.546  1.00  0.00    -0.325 A  
HETATM   28  C   UNL     1     -12.330   7.075  71.117  1.00  0.00    -0.378 A  
HETATM   29  S   UNL     1     -11.606   8.616  70.963  1.00  0.00    -0.275 SA 
ENDBRANCH  24  25
ENDBRANCH  22  24
ENDBRANCH  12  20
BRANCH  12  30
HETATM   30  O   UNL     1      -6.891  10.164  67.678  1.00  0.00    -0.074 OA 
HETATM   31  C   UNL     1      -6.820  10.158  66.256  1.00  0.00    -0.104 C  
ENDBRANCH  12  30
TORSDOF 7
ENDMDL
MODEL       43
REMARK 921   NORMALIZED FREE ENERGY PREDICTED BY IDOCK:   -5.54 KCAL/MOL
REMARK 922        TOTAL FREE ENERGY PREDICTED BY IDOCK:   -8.48 KCAL/MOL
REMARK 923 INTER-LIGAND FREE ENERGY PREDICTED BY IDOCK:   -7.27 KCAL/MOL
REMARK 924 INTRA-LIGAND FREE ENERGY PREDICTED BY IDOCK:   -1.22 KCAL/MOL
REMARK 927      BINDING AFFINITY PREDICTED BY RF-SCORE:    0.00 PKD
ROOT
HETATM    1  C   UNL     1     -10.501  10.084  67.592  1.00  0.00    -0.246 C  
HETATM    2  S   UNL     1     -10.416  11.592  68.580  1.00  0.00    -0.201 SA 
HETATM    3  C   UNL     1     -11.718  12.413  67.642  1.00  0.00    -0.346 C  
HETATM    4  C   UNL     1     -11.583  12.327  66.131  1.00  0.00    -0.450 C  
HETATM    5  C   UNL     1     -10.863  11.370  65.474  1.00  0.00    -0.220 C  
HETATM    6  O   UNL     1      -9.085   8.814  64.947  1.00  0.00    -0.096 OA 
HETATM    7  O   UNL     1     -10.097  10.436  63.332  1.00  0.00    -0.200 OA 
HETATM    8  C   UNL     1     -10.683  11.467  63.966  1.00  0.00    -0.387 C  
HETATM    9  N   UNL     1     -10.232  10.392  66.196  1.00  0.00    -0.235 N  
HETATM   10  C   UNL     1      -9.417   9.334  65.986  1.00  0.00    -0.247 C  
HETATM   11  O   UNL     1     -11.074  12.418  63.304  1.00  0.00    -0.438 OA 
HETATM   12  C   UNL     1      -9.178   9.191  67.578  1.00  0.00    -0.128 C  
ENDROOT
BRANCH   4  13
HETATM   13  C   UNL     1     -12.297  13.494  65.444  1.00  0.00    -0.478 C  
BRANCH  13  14
HETATM   14  O   UNL     1     -11.569  14.723  65.652  1.00  0.00    -0.341 OA 
BRANCH  14  15
HETATM   15  C   UNL     1     -11.529  15.580  64.608  1.00  0.00    -0.324 C  
HETATM   16  O   UNL     1     -10.876  16.606  64.522  1.00  0.00    -0.847 OA 
HETATM   17  N   UNL     1     -12.371  15.157  63.639  1.00  0.00    -0.920 N  
HETATM   18  H2  UNL     1     -12.949  14.317  63.688  1.00  0.00     0.000 HD 
HETATM   19  H1  UNL     1     -12.341  15.803  62.850  1.00  0.00     0.000 HD 
ENDBRANCH  14  15
ENDBRANCH  13  14
ENDBRANCH   4  13
BRANCH  12  20
HETATM   20  N   UNL     1      -7.980   9.879  68.163  1.00  0.00    -0.099 N  
HETATM   21  O   UNL     1      -6.391   8.766  66.945  1.00  0.00    -0.058 OA 
HETATM   22  C   UNL     1      -6.686   9.629  67.766  1.00  0.00    -0.066 C  
HETATM   23  H   UNL     1      -8.133  10.570  68.897  1.00  0.00     0.000 HD 
BRANCH  22  24
HETATM   24  C   UNL     1      -5.638  10.477  68.460  1.00  0.00    -0.040 C  
BRANCH  24  25
HETATM   25  C   UNL     1      -6.030  11.920  68.473  1.00  0.00    -0.049 A  
HETATM   26  C   UNL     1      -6.397  12.718  67.406  1.00  0.00    -0.139 A  
HETATM   27  C   UNL     1      -6.577  14.080  67.784  1.00  0.00    -0.188 A  
HETATM   28  C   UNL     1      -6.376  14.272  69.132  1.00  0.00    -0.104 A  
HETATM   29  S   UNL     1      -5.984  12.815  69.935  1.00  0.00    -0.127 SA 
ENDBRANCH  24  25
ENDBRANCH  22  24
ENDBRANCH  12  20
BRANCH  12  30
HETATM   30  O   UNL     1      -9.363   7.845  68.096  1.00  0.00    -0.142 OA 
HETATM   31  C   UNL     1      -9.187   7.699  69.502  1.00  0.00    -0.150 C  
ENDBRANCH  12  30
TORSDOF 7
ENDMDL
MODEL       44
REMARK 921   NORMALIZED FREE ENERGY PREDICTED BY IDOCK:   -5.53 KCAL/MOL
REMARK 922        TOTAL FREE ENERGY PREDICTED BY IDOCK:   -8.47 KCAL/MOL
REMARK 923 INTER-LIGAND FREE ENERGY PREDICTED BY IDOCK:   -7.33 KCAL/MOL
REMARK 924 INTRA-LIGAND FREE ENERGY PREDICTED BY IDOCK:   -1.14 KCAL/MOL
REMARK 927      BINDING AFFINITY PREDICTED BY RF-SCORE:    0.00 PKD
ROOT
HETATM    1  C   UNL     1      -9.346  10.567  67.599  1.00  0.00    -0.149 C  
HETATM    2  S   UNL     1     -11.148  10.454  67.624  1.00  0.00    -0.213 SA 
HETATM    3  C   UNL     1     -11.366  11.955  66.652  1.00  0.00    -0.337 C  
HETATM    4  C   UNL     1     -10.541  13.148  67.103  1.00  0.00    -0.259 C  
HETATM    5  C   UNL     1      -9.398  13.059  67.845  1.00  0.00    -0.212 C  
HETATM    6  O   UNL     1      -6.953  11.824  69.418  1.00  0.00    -0.099 OA 
HETATM    7  O   UNL     1      -7.533  14.214  68.957  1.00  0.00    -0.124 OA 
HETATM    8  C   UNL     1      -8.732  14.327  68.359  1.00  0.00    -0.181 C  
HETATM    9  N   UNL     1      -8.921  11.824  68.197  1.00  0.00    -0.175 N  
HETATM   10  C   UNL     1      -7.916  11.286  68.923  1.00  0.00    -0.104 C  
HETATM   11  O   UNL     1      -9.219  15.442  68.224  1.00  0.00    -0.183 OA 
HETATM   12  C   UNL     1      -8.591   9.824  68.792  1.00  0.00    -0.127 C  
ENDROOT
BRANCH   4  13
HETATM   13  C   UNL     1     -11.196  14.467  66.683  1.00  0.00    -0.339 C  
BRANCH  13  14
HETATM   14  O   UNL     1     -10.892  14.764  65.303  1.00  0.00    -0.333 OA 
BRANCH  14  15
HETATM   15  C   UNL     1     -10.993  16.059  64.932  1.00  0.00    -0.384 C  
HETATM   16  O   UNL     1     -11.543  16.498  63.936  1.00  0.00    -1.175 OA 
HETATM   17  N   UNL     1     -10.349  16.840  65.827  1.00  0.00    -0.342 N  
HETATM   18  H2  UNL     1      -9.860  16.503  66.656  1.00  0.00     0.000 HD 
HETATM   19  H1  UNL     1     -10.426  17.819  65.547  1.00  0.00     0.000 HD 
ENDBRANCH  14  15
ENDBRANCH  13  14
ENDBRANCH   4  13
BRANCH  12  20
HETATM   20  N   UNL     1      -9.500   9.379  69.899  1.00  0.00    -0.198 N  
HETATM   21  O   UNL     1      -7.900   9.199  71.527  1.00  0.00    -0.330 OA 
HETATM   22  C   UNL     1      -9.077   9.140  71.187  1.00  0.00    -0.205 C  
HETATM   23  H   UNL     1     -10.489   9.247  69.685  1.00  0.00     0.000 HD 
BRANCH  22  24
HETATM   24  C   UNL     1     -10.179   8.748  72.151  1.00  0.00    -0.371 C  
BRANCH  24  25
HETATM   25  C   UNL     1     -10.221   7.266  72.353  1.00  0.00    -0.196 A  
HETATM   26  C   UNL     1     -10.406   6.278  71.406  1.00  0.00    -0.251 A  
HETATM   27  C   UNL     1     -10.518   4.982  71.988  1.00  0.00    -0.269 A  
HETATM   28  C   UNL     1     -10.380   5.019  73.357  1.00  0.00    -0.202 A  
HETATM   29  S   UNL     1     -10.106   6.606  73.931  1.00  0.00    -0.354 SA 
ENDBRANCH  24  25
ENDBRANCH  22  24
ENDBRANCH  12  20
BRANCH  12  30
HETATM   30  O   UNL     1      -7.680   8.777  68.359  1.00  0.00    -0.094 OA 
HETATM   31  C   UNL     1      -8.296   7.602  67.841  1.00  0.00    -0.123 C  
ENDBRANCH  12  30
TORSDOF 7
ENDMDL
MODEL       45
REMARK 921   NORMALIZED FREE ENERGY PREDICTED BY IDOCK:   -5.52 KCAL/MOL
REMARK 922        TOTAL FREE ENERGY PREDICTED BY IDOCK:   -8.46 KCAL/MOL
REMARK 923 INTER-LIGAND FREE ENERGY PREDICTED BY IDOCK:   -7.25 KCAL/MOL
REMARK 924 INTRA-LIGAND FREE ENERGY PREDICTED BY IDOCK:   -1.21 KCAL/MOL
REMARK 927      BINDING AFFINITY PREDICTED BY RF-SCORE:    0.00 PKD
ROOT
HETATM    1  C   UNL     1     -11.565  12.009  66.331  1.00  0.00    -0.313 C  
HETATM    2  S   UNL     1     -10.083  11.265  65.618  1.00  0.00    -0.258 SA 
HETATM    3  C   UNL     1     -10.361   9.674  66.418  1.00  0.00    -0.176 C  
HETATM    4  C   UNL     1     -10.702   9.741  67.896  1.00  0.00    -0.312 C  
HETATM    5  C   UNL     1     -11.221  10.840  68.519  1.00  0.00    -0.279 C  
HETATM    6  O   UNL     1     -12.407  13.734  68.964  1.00  0.00    -0.302 OA 
HETATM    7  O   UNL     1     -12.039  11.873  70.596  1.00  0.00    -0.373 OA 
HETATM    8  C   UNL     1     -11.391  10.839  70.032  1.00  0.00    -0.319 C  
HETATM    9  N   UNL     1     -11.491  11.964  67.784  1.00  0.00    -0.305 N  
HETATM   10  C   UNL     1     -11.935  13.226  67.973  1.00  0.00    -0.313 C  
HETATM   11  O   UNL     1     -10.997   9.930  70.750  1.00  0.00    -0.307 OA 
HETATM   12  C   UNL     1     -11.552  13.600  66.449  1.00  0.00    -0.350 C  
ENDROOT
BRANCH   4  13
HETATM   13  C   UNL     1     -10.320   8.443  68.613  1.00  0.00    -0.197 C  
BRANCH  13  14
HETATM   14  O   UNL     1      -8.904   8.194  68.484  1.00  0.00    -0.134 OA 
BRANCH  14  15
HETATM   15  C   UNL     1      -8.245   7.879  69.621  1.00  0.00    -0.122 C  
HETATM   16  O   UNL     1      -7.663   6.837  69.869  1.00  0.00    -0.104 OA 
HETATM   17  N   UNL     1      -8.346   8.897  70.503  1.00  0.00    -0.141 N  
HETATM   18  H2  UNL     1      -8.844   9.772  70.336  1.00  0.00     0.000 HD 
HETATM   19  H1  UNL     1      -7.848   8.660  71.362  1.00  0.00     0.000 HD 
ENDBRANCH  14  15
ENDBRANCH  13  14
ENDBRANCH   4  13
BRANCH  12  20
HETATM   20  N   UNL     1     -10.204  14.213  66.204  1.00  0.00    -0.295 N  
HETATM   21  O   UNL     1     -10.620  16.226  67.212  1.00  0.00    -0.309 OA 
HETATM   22  C   UNL     1      -9.843  15.466  66.643  1.00  0.00    -0.255 C  
HETATM   23  H   UNL     1      -9.517  13.669  65.682  1.00  0.00     0.000 HD 
BRANCH  22  24
HETATM   24  C   UNL     1      -8.414  15.859  66.323  1.00  0.00    -0.302 C  
BRANCH  24  25
HETATM   25  C   UNL     1      -7.693  16.326  67.548  1.00  0.00    -0.146 A  
HETATM   26  C   UNL     1      -7.233  17.596  67.839  1.00  0.00    -0.205 A  
HETATM   27  C   UNL     1      -6.476  17.636  69.045  1.00  0.00    -0.228 A  
HETATM   28  C   UNL     1      -6.411  16.403  69.654  1.00  0.00    -0.201 A  
HETATM   29  S   UNL     1      -7.269  15.211  68.780  1.00  0.00    -0.138 SA 
ENDBRANCH  24  25
ENDBRANCH  22  24
ENDBRANCH  12  20
BRANCH  12  30
HETATM   30  O   UNL     1     -12.613  14.261  65.706  1.00  0.00    -0.454 OA 
HETATM   31  C   UNL     1     -12.325  14.537  64.339  1.00  0.00    -0.413 C  
ENDBRANCH  12  30
TORSDOF 7
ENDMDL
MODEL       46
REMARK 921   NORMALIZED FREE ENERGY PREDICTED BY IDOCK:   -5.52 KCAL/MOL
REMARK 922        TOTAL FREE ENERGY PREDICTED BY IDOCK:   -8.46 KCAL/MOL
REMARK 923 INTER-LIGAND FREE ENERGY PREDICTED BY IDOCK:   -7.02 KCAL/MOL
REMARK 924 INTRA-LIGAND FREE ENERGY PREDICTED BY IDOCK:   -1.44 KCAL/MOL
REMARK 927      BINDING AFFINITY PREDICTED BY RF-SCORE:    0.00 PKD
ROOT
HETATM    1  C   UNL     1      -8.473  14.571  67.091  1.00  0.00    -0.212 C  
HETATM    2  S   UNL     1      -7.572  13.851  68.479  1.00  0.00    -0.135 SA 
HETATM    3  C   UNL     1      -7.088  12.386  67.550  1.00  0.00    -0.145 C  
HETATM    4  C   UNL     1      -8.203  11.714  66.766  1.00  0.00    -0.161 C  
HETATM    5  C   UNL     1      -9.353  12.338  66.373  1.00  0.00    -0.219 C  
HETATM    6  O   UNL     1     -11.506  14.600  65.900  1.00  0.00    -0.344 OA 
HETATM    7  O   UNL     1     -11.515  12.195  65.210  1.00  0.00    -0.337 OA 
HETATM    8  C   UNL     1     -10.462  11.529  65.717  1.00  0.00    -0.259 C  
HETATM    9  N   UNL     1      -9.530  13.665  66.664  1.00  0.00    -0.275 N  
HETATM   10  C   UNL     1     -10.472  14.624  66.525  1.00  0.00    -0.290 C  
HETATM   11  O   UNL     1     -10.425  10.312  65.600  1.00  0.00    -0.200 OA 
HETATM   12  C   UNL     1      -9.619  15.614  67.476  1.00  0.00    -0.224 C  
ENDROOT
BRANCH   4  13
HETATM   13  C   UNL     1      -7.906  10.230  66.539  1.00  0.00    -0.116 C  
BRANCH  13  14
HETATM   14  O   UNL     1      -7.697   9.559  67.800  1.00  0.00    -0.088 OA 
BRANCH  14  15
HETATM   15  C   UNL     1      -8.795   9.357  68.560  1.00  0.00    -0.128 C  
HETATM   16  O   UNL     1      -9.009   9.801  69.675  1.00  0.00    -0.184 OA 
HETATM   17  N   UNL     1      -9.652   8.535  67.915  1.00  0.00    -0.149 N  
HETATM   18  H2  UNL     1      -9.493   8.128  66.993  1.00  0.00     0.000 HD 
HETATM   19  H1  UNL     1     -10.481   8.383  68.489  1.00  0.00     0.000 HD 
ENDBRANCH  14  15
ENDBRANCH  13  14
ENDBRANCH   4  13
BRANCH  12  20
HETATM   20  N   UNL     1      -9.954  15.629  68.938  1.00  0.00    -0.204 N  
HETATM   21  O   UNL     1     -12.123  16.334  68.724  1.00  0.00    -0.098 OA 
HETATM   22  C   UNL     1     -11.196  15.955  69.434  1.00  0.00    -0.336 C  
HETATM   23  H   UNL     1      -9.220  15.385  69.602  1.00  0.00     0.000 HD 
BRANCH  22  24
HETATM   24  C   UNL     1     -11.320  15.855  70.941  1.00  0.00    -0.428 C  
BRANCH  24  25
HETATM   25  C   UNL     1     -12.209  14.719  71.339  1.00  0.00    -0.342 A  
HETATM   26  C   UNL     1     -13.112  14.664  72.384  1.00  0.00    -0.472 A  
HETATM   27  C   UNL     1     -13.687  13.369  72.535  1.00  0.00    -0.636 A  
HETATM   28  C   UNL     1     -13.232  12.488  71.581  1.00  0.00    -0.284 A  
HETATM   29  S   UNL     1     -12.127  13.223  70.504  1.00  0.00    -0.237 SA 
ENDBRANCH  24  25
ENDBRANCH  22  24
ENDBRANCH  12  20
BRANCH  12  30
HETATM   30  O   UNL     1      -9.417  16.947  66.931  1.00  0.00    -0.236 OA 
HETATM   31  C   UNL     1      -8.075  17.270  66.580  1.00  0.00    -0.278 C  
ENDBRANCH  12  30
TORSDOF 7
ENDMDL
MODEL       47
REMARK 921   NORMALIZED FREE ENERGY PREDICTED BY IDOCK:   -5.52 KCAL/MOL
REMARK 922        TOTAL FREE ENERGY PREDICTED BY IDOCK:   -8.46 KCAL/MOL
REMARK 923 INTER-LIGAND FREE ENERGY PREDICTED BY IDOCK:   -7.79 KCAL/MOL
REMARK 924 INTRA-LIGAND FREE ENERGY PREDICTED BY IDOCK:   -0.67 KCAL/MOL
REMARK 927      BINDING AFFINITY PREDICTED BY RF-SCORE:    0.00 PKD
ROOT
HETATM    1  C   UNL     1      -8.817   9.628  67.692  1.00  0.00    -0.125 C  
HETATM    2  S   UNL     1     -10.562   9.440  67.267  1.00  0.00    -0.192 SA 
HETATM    3  C   UNL     1     -10.510  10.727  66.008  1.00  0.00    -0.208 C  
HETATM    4  C   UNL     1      -9.828  12.019  66.426  1.00  0.00    -0.238 C  
HETATM    5  C   UNL     1      -8.921  12.118  67.443  1.00  0.00    -0.180 C  
HETATM    6  O   UNL     1      -6.984  11.303  69.801  1.00  0.00    -0.106 OA 
HETATM    7  O   UNL     1      -7.412  13.541  68.765  1.00  0.00    -0.109 OA 
HETATM    8  C   UNL     1      -8.410  13.488  67.865  1.00  0.00    -0.175 C  
HETATM    9  N   UNL     1      -8.560  10.991  68.133  1.00  0.00    -0.134 N  
HETATM   10  C   UNL     1      -7.784  10.641  69.183  1.00  0.00    -0.138 C  
HETATM   11  O   UNL     1      -8.839  14.536  67.402  1.00  0.00    -0.178 OA 
HETATM   12  C   UNL     1      -8.407   9.150  69.158  1.00  0.00    -0.123 C  
ENDROOT
BRANCH   4  13
HETATM   13  C   UNL     1     -10.343  13.207  65.610  1.00  0.00    -0.284 C  
BRANCH  13  14
HETATM   14  O   UNL     1     -10.890  12.756  64.352  1.00  0.00    -0.323 OA 
BRANCH  14  15
HETATM   15  C   UNL     1     -12.187  13.055  64.122  1.00  0.00    -0.401 C  
HETATM   16  O   UNL     1     -13.153  12.678  64.763  1.00  0.00    -0.852 OA 
HETATM   17  N   UNL     1     -12.287  13.830  63.020  1.00  0.00    -1.030 N  
HETATM   18  H2  UNL     1     -11.502  14.143  62.448  1.00  0.00     0.000 HD 
HETATM   19  H1  UNL     1     -13.267  14.055  62.845  1.00  0.00     0.000 HD 
ENDBRANCH  14  15
ENDBRANCH  13  14
ENDBRANCH   4  13
BRANCH  12  20
HETATM   20  N   UNL     1      -9.579   8.874  70.053  1.00  0.00    -0.171 N  
HETATM   21  O   UNL     1      -8.463   9.052  72.045  1.00  0.00    -0.368 OA 
HETATM   22  C   UNL     1      -9.510   8.886  71.428  1.00  0.00    -0.274 C  
HETATM   23  H   UNL     1     -10.477   8.665  69.618  1.00  0.00     0.000 HD 
BRANCH  22  24
HETATM   24  C   UNL     1     -10.829   8.627  72.128  1.00  0.00    -0.424 C  
BRANCH  24  25
HETATM   25  C   UNL     1     -10.840   7.284  72.787  1.00  0.00    -0.314 A  
HETATM   26  C   UNL     1     -10.176   6.888  73.932  1.00  0.00    -0.401 A  
HETATM   27  C   UNL     1     -10.321   5.493  74.187  1.00  0.00    -0.302 A  
HETATM   28  C   UNL     1     -11.118   4.877  73.249  1.00  0.00    -0.337 A  
HETATM   29  S   UNL     1     -11.696   5.979  72.077  1.00  0.00    -0.196 SA 
ENDBRANCH  24  25
ENDBRANCH  22  24
ENDBRANCH  12  20
BRANCH  12  30
HETATM   30  O   UNL     1      -7.418   8.084  69.181  1.00  0.00    -0.090 OA 
HETATM   31  C   UNL     1      -7.731   6.940  68.394  1.00  0.00    -0.116 C  
ENDBRANCH  12  30
TORSDOF 7
ENDMDL
MODEL       48
REMARK 921   NORMALIZED FREE ENERGY PREDICTED BY IDOCK:   -5.49 KCAL/MOL
REMARK 922        TOTAL FREE ENERGY PREDICTED BY IDOCK:   -8.41 KCAL/MOL
REMARK 923 INTER-LIGAND FREE ENERGY PREDICTED BY IDOCK:   -7.30 KCAL/MOL
REMARK 924 INTRA-LIGAND FREE ENERGY PREDICTED BY IDOCK:   -1.11 KCAL/MOL
REMARK 927      BINDING AFFINITY PREDICTED BY RF-SCORE:    0.00 PKD
ROOT
HETATM    1  C   UNL     1      -8.202  15.189  69.178  1.00  0.00    -0.214 C  
HETATM    2  S   UNL     1      -9.733  16.135  69.037  1.00  0.00    -0.258 SA 
HETATM    3  C   UNL     1     -10.779  14.703  69.355  1.00  0.00    -0.222 C  
HETATM    4  C   UNL     1     -10.428  13.453  68.567  1.00  0.00    -0.260 C  
HETATM    5  C   UNL     1      -9.202  13.208  68.017  1.00  0.00    -0.211 C  
HETATM    6  O   UNL     1      -6.159  13.548  67.242  1.00  0.00    -0.327 OA 
HETATM    7  O   UNL     1      -7.757  11.694  66.724  1.00  0.00    -0.156 OA 
HETATM    8  C   UNL     1      -9.006  11.988  67.128  1.00  0.00    -0.185 C  
HETATM    9  N   UNL     1      -8.192  14.116  68.194  1.00  0.00    -0.139 N  
HETATM   10  C   UNL     1      -6.909  14.304  67.814  1.00  0.00    -0.175 C  
HETATM   11  O   UNL     1      -9.921  11.248  66.793  1.00  0.00    -0.199 OA 
HETATM   12  C   UNL     1      -6.939  15.802  68.420  1.00  0.00    -0.116 C  
ENDROOT
BRANCH   4  13
HETATM   13  C   UNL     1     -11.645  12.539  68.405  1.00  0.00    -0.322 C  
BRANCH  13  14
HETATM   14  O   UNL     1     -12.124  12.104  69.695  1.00  0.00    -0.280 OA 
BRANCH  14  15
HETATM   15  C   UNL     1     -11.898  10.811  70.014  1.00  0.00    -0.344 C  
HETATM   16  O   UNL     1     -11.822  10.331  71.132  1.00  0.00    -0.353 OA 
HETATM   17  N   UNL     1     -11.724  10.088  68.886  1.00  0.00    -0.488 N  
HETATM   18  H2  UNL     1     -11.758  10.462  67.937  1.00  0.00     0.000 HD 
HETATM   19  H1  UNL     1     -11.554   9.111  69.126  1.00  0.00     0.000 HD 
ENDBRANCH  14  15
ENDBRANCH  13  14
ENDBRANCH   4  13
BRANCH  12  20
HETATM   20  N   UNL     1      -7.281  16.922  67.482  1.00  0.00    -0.143 N  
HETATM   21  O   UNL     1      -5.337  16.883  66.272  1.00  0.00    -0.355 OA 
HETATM   22  C   UNL     1      -6.460  17.342  66.460  1.00  0.00    -0.237 C  
HETATM   23  H   UNL     1      -8.173  17.399  67.609  1.00  0.00     0.000 HD 
BRANCH  22  24
HETATM   24  C   UNL     1      -7.032  18.457  65.609  1.00  0.00    -0.241 C  
BRANCH  24  25
HETATM   25  C   UNL     1      -8.252  19.051  66.240  1.00  0.00    -0.282 A  
HETATM   26  C   UNL     1      -9.569  18.660  66.090  1.00  0.00    -0.214 A  
HETATM   27  C   UNL     1     -10.475  19.545  66.745  1.00  0.00    -0.590 A  
HETATM   28  C   UNL     1      -9.818  20.560  67.402  1.00  0.00    -0.434 A  
HETATM   29  S   UNL     1      -8.121  20.438  67.238  1.00  0.00    -0.303 SA 
ENDBRANCH  24  25
ENDBRANCH  22  24
ENDBRANCH  12  20
BRANCH  12  30
HETATM   30  O   UNL     1      -5.820  16.121  69.292  1.00  0.00    -0.119 OA 
HETATM   31  C   UNL     1      -5.671  15.281  70.432  1.00  0.00    -0.132 C  
ENDBRANCH  12  30
TORSDOF 7
ENDMDL
MODEL       49
REMARK 921   NORMALIZED FREE ENERGY PREDICTED BY IDOCK:   -5.46 KCAL/MOL
REMARK 922        TOTAL FREE ENERGY PREDICTED BY IDOCK:   -8.37 KCAL/MOL
REMARK 923 INTER-LIGAND FREE ENERGY PREDICTED BY IDOCK:   -7.32 KCAL/MOL
REMARK 924 INTRA-LIGAND FREE ENERGY PREDICTED BY IDOCK:   -1.05 KCAL/MOL
REMARK 927      BINDING AFFINITY PREDICTED BY RF-SCORE:    0.00 PKD
ROOT
HETATM    1  C   UNL     1      -8.850   9.791  66.371  1.00  0.00    -0.146 C  
HETATM    2  S   UNL     1      -8.869   9.444  64.600  1.00  0.00    -0.177 SA 
HETATM    3  C   UNL     1      -9.230  11.152  64.155  1.00  0.00    -0.105 C  
HETATM    4  C   UNL     1     -10.348  11.808  64.948  1.00  0.00    -0.334 C  
HETATM    5  C   UNL     1     -10.765  11.394  66.181  1.00  0.00    -0.267 C  
HETATM    6  O   UNL     1     -10.921   9.772  68.886  1.00  0.00    -0.212 OA 
HETATM    7  O   UNL     1     -12.283  11.713  68.089  1.00  0.00    -0.537 OA 
HETATM    8  C   UNL     1     -11.988  12.038  66.818  1.00  0.00    -0.006 C  
HETATM    9  N   UNL     1     -10.135  10.337  66.782  1.00  0.00    -0.208 N  
HETATM   10  C   UNL     1     -10.235   9.594  67.907  1.00  0.00    -0.198 C  
HETATM   11  O   UNL     1     -12.690  12.858  66.243  1.00  0.00    -0.254 OA 
HETATM   12  C   UNL     1      -9.152   8.547  67.323  1.00  0.00    -0.133 C  
ENDROOT
BRANCH   4  13
HETATM   13  C   UNL     1     -10.995  12.947  64.155  1.00  0.00    -0.408 C  
BRANCH  13  14
HETATM   14  O   UNL     1     -10.412  14.214  64.525  1.00  0.00    -0.408 OA 
BRANCH  14  15
HETATM   15  C   UNL     1     -11.181  15.308  64.331  1.00  0.00    -0.178 C  
HETATM   16  O   UNL     1     -10.870  16.470  64.526  1.00  0.00    -0.802 OA 
HETATM   17  N   UNL     1     -12.408  14.932  63.906  1.00  0.00    -1.064 N  
HETATM   18  H2  UNL     1     -12.708  13.968  63.756  1.00  0.00     0.000 HD 
HETATM   19  H1  UNL     1     -12.989  15.757  63.759  1.00  0.00     0.000 HD 
ENDBRANCH  14  15
ENDBRANCH  13  14
ENDBRANCH   4  13
BRANCH  12  20
HETATM   20  N   UNL     1      -9.675   7.343  66.596  1.00  0.00    -0.268 N  
HETATM   21  O   UNL     1     -10.927   6.494  68.316  1.00  0.00    -0.280 OA 
HETATM   22  C   UNL     1     -10.551   6.437  67.149  1.00  0.00    -0.321 C  
HETATM   23  H   UNL     1      -9.363   7.187  65.638  1.00  0.00     0.000 HD 
BRANCH  22  24
HETATM   24  C   UNL     1     -10.984   5.326  66.214  1.00  0.00    -0.056 C  
BRANCH  24  25
HETATM   25  C   UNL     1      -9.865   4.367  65.957  1.00  0.00    -0.230 A  
HETATM   26  C   UNL     1      -9.308   4.006  64.744  1.00  0.00    -0.162 A  
HETATM   27  C   UNL     1      -8.344   2.965  64.878  1.00  0.00    -0.088 A  
HETATM   28  C   UNL     1      -8.171   2.588  66.191  1.00  0.00    -0.088 A  
HETATM   29  S   UNL     1      -9.158   3.495  67.253  1.00  0.00    -0.184 SA 
ENDBRANCH  24  25
ENDBRANCH  22  24
ENDBRANCH  12  20
BRANCH  12  30
HETATM   30  O   UNL     1      -8.071   8.223  68.241  1.00  0.00    -0.120 OA 
HETATM   31  C   UNL     1      -7.067   7.356  67.725  1.00  0.00    -0.085 C  
ENDBRANCH  12  30
TORSDOF 7
ENDMDL
MODEL       50
REMARK 921   NORMALIZED FREE ENERGY PREDICTED BY IDOCK:   -5.44 KCAL/MOL
REMARK 922        TOTAL FREE ENERGY PREDICTED BY IDOCK:   -8.34 KCAL/MOL
REMARK 923 INTER-LIGAND FREE ENERGY PREDICTED BY IDOCK:   -7.64 KCAL/MOL
REMARK 924 INTRA-LIGAND FREE ENERGY PREDICTED BY IDOCK:   -0.70 KCAL/MOL
REMARK 927      BINDING AFFINITY PREDICTED BY RF-SCORE:    0.00 PKD
ROOT
HETATM    1  C   UNL     1      -8.922   8.861  71.311  1.00  0.00    -0.243 C  
HETATM    2  S   UNL     1      -8.564   8.921  69.543  1.00  0.00    -0.138 SA 
HETATM    3  C   UNL     1      -9.434  10.481  69.305  1.00  0.00    -0.173 C  
HETATM    4  C   UNL     1     -10.812  10.560  69.938  1.00  0.00    -0.334 C  
HETATM    5  C   UNL     1     -11.230   9.776  70.976  1.00  0.00    -0.381 C  
HETATM    6  O   UNL     1     -11.193   7.640  73.302  1.00  0.00    -0.358 OA 
HETATM    7  O   UNL     1     -13.021   9.174  72.550  1.00  0.00    -0.407 OA 
HETATM    8  C   UNL     1     -12.679   9.845  71.436  1.00  0.00    -0.403 C  
HETATM    9  N   UNL     1     -10.362   8.868  71.524  1.00  0.00    -0.296 N  
HETATM   10  C   UNL     1     -10.355   7.906  72.473  1.00  0.00    -0.285 C  
HETATM   11  O   UNL     1     -13.534  10.505  70.862  1.00  0.00    -0.197 OA 
HETATM   12  C   UNL     1      -8.902   7.409  71.972  1.00  0.00    -0.124 C  
ENDROOT
BRANCH   4  13
HETATM   13  C   UNL     1     -11.697  11.578  69.215  1.00  0.00    -0.330 C  
BRANCH  13  14
HETATM   14  O   UNL     1     -11.792  11.257  67.811  1.00  0.00    -0.610 OA 
BRANCH  14  15
HETATM   15  C   UNL     1     -11.784  12.303  66.956  1.00  0.00    -0.329 C  
HETATM   16  O   UNL     1     -12.240  12.331  65.825  1.00  0.00    -0.622 OA 
HETATM   17  N   UNL     1     -11.147  13.350  67.522  1.00  0.00    -0.267 N  
HETATM   18  H2  UNL     1     -10.734  13.352  68.455  1.00  0.00     0.000 HD 
HETATM   19  H1  UNL     1     -11.140  14.140  66.877  1.00  0.00     0.000 HD 
ENDBRANCH  14  15
ENDBRANCH  13  14
ENDBRANCH   4  13
BRANCH  12  20
HETATM   20  N   UNL     1      -8.858   6.291  70.973  1.00  0.00    -0.136 N  
HETATM   21  O   UNL     1     -10.084   4.781  72.182  1.00  0.00    -0.179 OA 
HETATM   22  C   UNL     1      -9.489   5.081  71.152  1.00  0.00    -0.155 C  
HETATM   23  H   UNL     1      -8.331   6.436  70.112  1.00  0.00     0.000 HD 
BRANCH  22  24
HETATM   24  C   UNL     1      -9.350   4.119  69.989  1.00  0.00    -0.237 C  
BRANCH  24  25
HETATM   25  C   UNL     1      -9.794   4.749  68.707  1.00  0.00    -0.148 A  
HETATM   26  C   UNL     1      -9.321   4.516  67.429  1.00  0.00    -0.168 A  
HETATM   27  C   UNL     1      -9.896   5.398  66.469  1.00  0.00    -0.195 A  
HETATM   28  C   UNL     1     -10.813   6.252  67.038  1.00  0.00    -0.383 A  
HETATM   29  S   UNL     1     -10.987   5.981  68.717  1.00  0.00    -0.242 SA 
ENDBRANCH  24  25
ENDBRANCH  22  24
ENDBRANCH  12  20
BRANCH  12  30
HETATM   30  O   UNL     1      -7.920   7.253  73.034  1.00  0.00    -0.095 OA 
HETATM   31  C   UNL     1      -7.915   8.279  74.020  1.00  0.00    -0.210 C  
ENDBRANCH  12  30
TORSDOF 7
ENDMDL
MODEL       51
REMARK 921   NORMALIZED FREE ENERGY PREDICTED BY IDOCK:   -5.39 KCAL/MOL
REMARK 922        TOTAL FREE ENERGY PREDICTED BY IDOCK:   -8.27 KCAL/MOL
REMARK 923 INTER-LIGAND FREE ENERGY PREDICTED BY IDOCK:   -7.10 KCAL/MOL
REMARK 924 INTRA-LIGAND FREE ENERGY PREDICTED BY IDOCK:   -1.17 KCAL/MOL
REMARK 927      BINDING AFFINITY PREDICTED BY RF-SCORE:    0.00 PKD
ROOT
HETATM    1  C   UNL     1     -11.661  10.073  69.810  1.00  0.00    -0.082 C  
HETATM    2  S   UNL     1     -11.821   9.739  71.577  1.00  0.00    -0.364 SA 
HETATM    3  C   UNL     1     -13.135  10.952  71.802  1.00  0.00    -0.459 C  
HETATM    4  C   UNL     1     -12.881  12.310  71.170  1.00  0.00    -0.302 C  
HETATM    5  C   UNL     1     -12.011  12.531  70.141  1.00  0.00    -0.301 C  
HETATM    6  O   UNL     1      -9.920  11.992  67.835  1.00  0.00    -0.187 OA 
HETATM    7  O   UNL     1     -10.989  14.130  68.576  1.00  0.00    -0.238 OA 
HETATM    8  C   UNL     1     -11.733  13.956  69.683  1.00  0.00    -0.311 C  
HETATM    9  N   UNL     1     -11.328  11.474  69.600  1.00  0.00    -0.269 N  
HETATM   10  C   UNL     1     -10.384  11.241  68.661  1.00  0.00    -0.201 C  
HETATM   11  O   UNL     1     -12.179  14.942  70.252  1.00  0.00    -0.296 OA 
HETATM   12  C   UNL     1     -10.248   9.712  69.163  1.00  0.00    -0.202 C  
ENDROOT
BRANCH   4  13
HETATM   13  C   UNL     1     -13.671  13.410  71.885  1.00  0.00    -0.358 C  
BRANCH  13  14
HETATM   14  O   UNL     1     -13.110  13.665  73.191  1.00  0.00    -0.439 OA 
BRANCH  14  15
HETATM   15  C   UNL     1     -12.899  14.961  73.509  1.00  0.00    -0.463 C  
HETATM   16  O   UNL     1     -12.166  15.393  74.382  1.00  0.00    -0.642 OA 
HETATM   17  N   UNL     1     -13.663  15.753  72.726  1.00  0.00    -0.588 N  
HETATM   18  H2  UNL     1     -14.304  15.423  72.004  1.00  0.00     0.000 HD 
HETATM   19  H1  UNL     1     -13.504  16.732  72.966  1.00  0.00     0.000 HD 
ENDBRANCH  14  15
ENDBRANCH  13  14
ENDBRANCH   4  13
BRANCH  12  20
HETATM   20  N   UNL     1      -9.181   9.407  70.173  1.00  0.00    -0.217 N  
HETATM   21  O   UNL     1      -7.382   9.753  68.800  1.00  0.00    -0.071 OA 
HETATM   22  C   UNL     1      -7.833   9.491  69.911  1.00  0.00    -0.138 C  
HETATM   23  H   UNL     1      -9.472   9.121  71.108  1.00  0.00     0.000 HD 
BRANCH  22  24
HETATM   24  C   UNL     1      -6.939   9.185  71.095  1.00  0.00    -0.089 C  
BRANCH  24  25
HETATM   25  C   UNL     1      -7.407   7.968  71.829  1.00  0.00    -0.079 A  
HETATM   26  C   UNL     1      -7.371   6.651  71.412  1.00  0.00    -0.083 A  
HETATM   27  C   UNL     1      -8.026   5.775  72.325  1.00  0.00    -0.107 A  
HETATM   28  C   UNL     1      -8.510   6.446  73.426  1.00  0.00    -0.121 A  
HETATM   29  S   UNL     1      -8.164   8.118  73.360  1.00  0.00    -0.193 SA 
ENDBRANCH  24  25
ENDBRANCH  22  24
ENDBRANCH  12  20
BRANCH  12  30
HETATM   30  O   UNL     1     -10.317   8.720  68.102  1.00  0.00    -0.208 OA 
HETATM   31  C   UNL     1     -10.685   7.407  68.511  1.00  0.00    -0.098 C  
ENDBRANCH  12  30
TORSDOF 7
ENDMDL
MODEL       52
REMARK 921   NORMALIZED FREE ENERGY PREDICTED BY IDOCK:   -5.39 KCAL/MOL
REMARK 922        TOTAL FREE ENERGY PREDICTED BY IDOCK:   -8.27 KCAL/MOL
REMARK 923 INTER-LIGAND FREE ENERGY PREDICTED BY IDOCK:   -7.47 KCAL/MOL
REMARK 924 INTRA-LIGAND FREE ENERGY PREDICTED BY IDOCK:   -0.81 KCAL/MOL
REMARK 927      BINDING AFFINITY PREDICTED BY RF-SCORE:    0.00 PKD
ROOT
HETATM    1  C   UNL     1     -11.064  14.582  68.367  1.00  0.00    -0.256 C  
HETATM    2  S   UNL     1     -11.910  14.757  66.782  1.00  0.00    -0.172 SA 
HETATM    3  C   UNL     1     -11.710  13.018  66.356  1.00  0.00    -0.390 C  
HETATM    4  C   UNL     1     -10.315  12.453  66.565  1.00  0.00    -0.248 C  
HETATM    5  C   UNL     1      -9.385  12.989  67.410  1.00  0.00    -0.209 C  
HETATM    6  O   UNL     1      -8.050  14.866  69.571  1.00  0.00    -0.158 OA 
HETATM    7  O   UNL     1      -7.126  12.872  68.374  1.00  0.00    -0.084 OA 
HETATM    8  C   UNL     1      -7.973  12.423  67.432  1.00  0.00    -0.178 C  
HETATM    9  N   UNL     1      -9.711  14.093  68.153  1.00  0.00    -0.218 N  
HETATM   10  C   UNL     1      -9.129  14.941  69.030  1.00  0.00    -0.175 C  
HETATM   11  O   UNL     1      -7.585  11.559  66.657  1.00  0.00    -0.144 OA 
HETATM   12  C   UNL     1     -10.415  15.916  68.956  1.00  0.00    -0.234 C  
ENDROOT
BRANCH   4  13
HETATM   13  C   UNL     1     -10.061  11.251  65.652  1.00  0.00    -0.247 C  
BRANCH  13  14
HETATM   14  O   UNL     1      -9.695  11.692  64.327  1.00  0.00    -0.230 OA 
BRANCH  14  15
HETATM   15  C   UNL     1     -10.584  11.436  63.343  1.00  0.00    -0.368 C  
HETATM   16  O   UNL     1     -11.690  11.930  63.205  1.00  0.00    -0.400 OA 
HETATM   17  N   UNL     1     -10.086  10.495  62.512  1.00  0.00    -0.752 N  
HETATM   18  H2  UNL     1      -9.176  10.045  62.612  1.00  0.00     0.000 HD 
HETATM   19  H1  UNL     1     -10.758  10.301  61.769  1.00  0.00     0.000 HD 
ENDBRANCH  14  15
ENDBRANCH  13  14
ENDBRANCH   4  13
BRANCH  12  20
HETATM   20  N   UNL     1     -10.370  17.049  67.974  1.00  0.00    -0.324 N  
HETATM   21  O   UNL     1      -8.817  18.320  69.078  1.00  0.00    -0.173 OA 
HETATM   22  C   UNL     1      -9.542  18.141  68.104  1.00  0.00    -0.307 C  
HETATM   23  H   UNL     1     -10.988  17.008  67.164  1.00  0.00     0.000 HD 
BRANCH  22  24
HETATM   24  C   UNL     1      -9.630  19.139  66.967  1.00  0.00    -0.378 C  
BRANCH  24  25
HETATM   25  C   UNL     1      -8.309  19.300  66.283  1.00  0.00    -0.319 A  
HETATM   26  C   UNL     1      -7.740  20.456  65.783  1.00  0.00    -0.047 A  
HETATM   27  C   UNL     1      -6.526  20.203  65.081  1.00  0.00    -0.324 A  
HETATM   28  C   UNL     1      -6.189  18.868  65.098  1.00  0.00    -0.278 A  
HETATM   29  S   UNL     1      -7.326  17.932  65.966  1.00  0.00    -0.225 SA 
ENDBRANCH  24  25
ENDBRANCH  22  24
ENDBRANCH  12  20
BRANCH  12  30
HETATM   30  O   UNL     1     -10.945  16.314  70.250  1.00  0.00    -0.347 OA 
HETATM   31  C   UNL     1     -12.271  15.880  70.530  1.00  0.00    -0.281 C  
ENDBRANCH  12  30
TORSDOF 7
ENDMDL
MODEL       53
REMARK 921   NORMALIZED FREE ENERGY PREDICTED BY IDOCK:   -5.34 KCAL/MOL
REMARK 922        TOTAL FREE ENERGY PREDICTED BY IDOCK:   -8.21 KCAL/MOL
REMARK 923 INTER-LIGAND FREE ENERGY PREDICTED BY IDOCK:   -7.35 KCAL/MOL
REMARK 924 INTRA-LIGAND FREE ENERGY PREDICTED BY IDOCK:   -0.86 KCAL/MOL
REMARK 927      BINDING AFFINITY PREDICTED BY RF-SCORE:    0.00 PKD
ROOT
HETATM    1  C   UNL     1     -10.518  14.648  66.621  1.00  0.00    -0.278 C  
HETATM    2  S   UNL     1     -11.284  16.277  66.743  1.00  0.00     0.351 SA 
HETATM    3  C   UNL     1      -9.765  17.148  66.317  1.00  0.00    -0.278 C  
HETATM    4  C   UNL     1      -8.522  16.689  67.060  1.00  0.00    -0.225 C  
HETATM    5  C   UNL     1      -8.384  15.463  67.648  1.00  0.00    -0.161 C  
HETATM    6  O   UNL     1      -9.013  12.505  68.560  1.00  0.00    -0.153 OA 
HETATM    7  O   UNL     1      -6.973  13.907  68.927  1.00  0.00    -0.103 OA 
HETATM    8  C   UNL     1      -7.149  15.165  68.487  1.00  0.00    -0.110 C  
HETATM    9  N   UNL     1      -9.404  14.554  67.553  1.00  0.00    -0.189 N  
HETATM   10  C   UNL     1      -9.711  13.314  67.994  1.00  0.00    -0.223 C  
HETATM   11  O   UNL     1      -6.299  16.005  68.749  1.00  0.00    -0.111 OA 
HETATM   12  C   UNL     1     -11.225  13.487  67.457  1.00  0.00    -0.283 C  
ENDROOT
BRANCH   4  13
HETATM   13  C   UNL     1      -7.475  17.803  67.130  1.00  0.00    -0.194 C  
BRANCH  13  14
HETATM   14  O   UNL     1      -7.940  18.977  66.432  1.00  0.00    -0.269 OA 
BRANCH  14  15
HETATM   15  C   UNL     1      -7.099  19.501  65.513  1.00  0.00    -0.237 C  
HETATM   16  O   UNL     1      -6.455  18.893  64.675  1.00  0.00    -0.500 OA 
HETATM   17  N   UNL     1      -7.031  20.841  65.669  1.00  0.00    -0.508 N  
HETATM   18  H2  UNL     1      -7.538  21.377  66.373  1.00  0.00     0.000 HD 
HETATM   19  H1  UNL     1      -6.396  21.236  64.975  1.00  0.00     0.000 HD 
ENDBRANCH  14  15
ENDBRANCH  13  14
ENDBRANCH   4  13
BRANCH  12  20
HETATM   20  N   UNL     1     -12.252  13.983  68.430  1.00  0.00    -0.541 N  
HETATM   21  O   UNL     1     -11.918  12.385  70.036  1.00  0.00    -0.328 OA 
HETATM   22  C   UNL     1     -12.484  13.406  69.658  1.00  0.00    -0.009 C  
HETATM   23  H   UNL     1     -12.811  14.794  68.167  1.00  0.00     0.000 HD 
BRANCH  22  24
HETATM   24  C   UNL     1     -13.535  14.106  70.496  1.00  0.00     0.249 C  
BRANCH  24  25
HETATM   25  C   UNL     1     -12.934  14.717  71.722  1.00  0.00    -0.335 A  
HETATM   26  C   UNL     1     -13.124  14.352  73.042  1.00  0.00    -0.581 A  
HETATM   27  C   UNL     1     -12.487  15.248  73.949  1.00  0.00    -0.752 A  
HETATM   28  C   UNL     1     -11.804  16.247  73.293  1.00  0.00    -0.317 A  
HETATM   29  S   UNL     1     -11.922  16.095  71.594  1.00  0.00    -0.390 SA 
ENDBRANCH  24  25
ENDBRANCH  22  24
ENDBRANCH  12  20
BRANCH  12  30
HETATM   30  O   UNL     1     -11.707  12.379  66.646  1.00  0.00    -0.397 OA 
HETATM   31  C   UNL     1     -12.237  12.735  65.374  1.00  0.00    -0.478 C  
ENDBRANCH  12  30
TORSDOF 7
ENDMDL
MODEL       54
REMARK 921   NORMALIZED FREE ENERGY PREDICTED BY IDOCK:   -5.34 KCAL/MOL
REMARK 922        TOTAL FREE ENERGY PREDICTED BY IDOCK:   -8.20 KCAL/MOL
REMARK 923 INTER-LIGAND FREE ENERGY PREDICTED BY IDOCK:   -7.78 KCAL/MOL
REMARK 924 INTRA-LIGAND FREE ENERGY PREDICTED BY IDOCK:   -0.42 KCAL/MOL
REMARK 927      BINDING AFFINITY PREDICTED BY RF-SCORE:    0.00 PKD
ROOT
HETATM    1  C   UNL     1     -10.899  13.638  66.466  1.00  0.00    -0.283 C  
HETATM    2  S   UNL     1      -9.315  13.202  67.213  1.00  0.00    -0.234 SA 
HETATM    3  C   UNL     1      -9.266  14.681  68.242  1.00  0.00    -0.198 C  
HETATM    4  C   UNL     1      -9.587  15.982  67.526  1.00  0.00    -0.222 C  
HETATM    5  C   UNL     1     -10.297  16.067  66.362  1.00  0.00    -0.305 C  
HETATM    6  O   UNL     1     -12.010  15.223  63.846  1.00  0.00    -0.439 OA 
HETATM    7  O   UNL     1     -11.260  17.488  64.601  1.00  0.00    -0.934 OA 
HETATM    8  C   UNL     1     -10.436  17.410  65.660  1.00  0.00    -0.165 C  
HETATM    9  N   UNL     1     -10.791  14.923  65.792  1.00  0.00    -0.326 N  
HETATM   10  C   UNL     1     -11.467  14.543  64.685  1.00  0.00    -0.387 C  
HETATM   11  O   UNL     1      -9.861  18.424  66.034  1.00  0.00    -0.489 OA 
HETATM   12  C   UNL     1     -11.191  12.991  65.036  1.00  0.00    -0.297 C  
ENDROOT
BRANCH   4  13
HETATM   13  C   UNL     1      -8.949  17.178  68.237  1.00  0.00    -0.248 C  
BRANCH  13  14
HETATM   14  O   UNL     1      -7.535  17.238  67.951  1.00  0.00    -0.175 OA 
BRANCH  14  15
HETATM   15  C   UNL     1      -6.921  18.414  68.209  1.00  0.00    -0.249 C  
HETATM   16  O   UNL     1      -5.762  18.706  67.971  1.00  0.00    -0.177 OA 
HETATM   17  N   UNL     1      -7.784  19.254  68.823  1.00  0.00    -0.356 N  
HETATM   18  H2  UNL     1      -8.752  19.033  69.056  1.00  0.00     0.000 HD 
HETATM   19  H1  UNL     1      -7.321  20.142  69.017  1.00  0.00     0.000 HD 
ENDBRANCH  14  15
ENDBRANCH  13  14
ENDBRANCH   4  13
BRANCH  12  20
HETATM   20  N   UNL     1      -9.991  12.342  64.411  1.00  0.00    -0.516 N  
HETATM   21  O   UNL     1     -10.353  10.232  65.225  1.00  0.00    -0.278 OA 
HETATM   22  C   UNL     1      -9.697  11.003  64.531  1.00  0.00    -0.273 C  
HETATM   23  H   UNL     1      -9.357  12.927  63.867  1.00  0.00     0.000 HD 
BRANCH  22  24
HETATM   24  C   UNL     1      -8.462  10.558  63.774  1.00  0.00    -0.127 C  
BRANCH  24  25
HETATM   25  C   UNL     1      -7.728   9.486  64.516  1.00  0.00    -0.118 A  
HETATM   26  C   UNL     1      -6.908   9.616  65.621  1.00  0.00    -0.091 A  
HETATM   27  C   UNL     1      -6.277   8.389  65.976  1.00  0.00    -0.052 A  
HETATM   28  C   UNL     1      -6.660   7.355  65.152  1.00  0.00    -0.044 A  
HETATM   29  S   UNL     1      -7.784   7.862  63.968  1.00  0.00    -0.137 SA 
ENDBRANCH  24  25
ENDBRANCH  22  24
ENDBRANCH  12  20
BRANCH  12  30
HETATM   30  O   UNL     1     -12.373  12.145  64.996  1.00  0.00    -0.454 OA 
HETATM   31  C   UNL     1     -13.005  12.033  63.725  1.00  0.00    -0.206 C  
ENDBRANCH  12  30
TORSDOF 7
ENDMDL
MODEL       55
REMARK 921   NORMALIZED FREE ENERGY PREDICTED BY IDOCK:   -5.31 KCAL/MOL
REMARK 922        TOTAL FREE ENERGY PREDICTED BY IDOCK:   -8.16 KCAL/MOL
REMARK 923 INTER-LIGAND FREE ENERGY PREDICTED BY IDOCK:   -6.95 KCAL/MOL
REMARK 924 INTRA-LIGAND FREE ENERGY PREDICTED BY IDOCK:   -1.21 KCAL/MOL
REMARK 927      BINDING AFFINITY PREDICTED BY RF-SCORE:    0.00 PKD
ROOT
HETATM    1  C   UNL     1     -10.035  12.145  65.392  1.00  0.00    -0.246 C  
HETATM    2  S   UNL     1     -11.764  12.263  65.899  1.00  0.00    -0.331 SA 
HETATM    3  C   UNL     1     -11.614  13.987  66.403  1.00  0.00    -0.369 C  
HETATM    4  C   UNL     1     -10.408  14.309  67.267  1.00  0.00    -0.260 C  
HETATM    5  C   UNL     1      -9.270  13.555  67.316  1.00  0.00    -0.233 C  
HETATM    6  O   UNL     1      -7.167  11.286  66.678  1.00  0.00    -0.138 OA 
HETATM    7  O   UNL     1      -7.017  13.229  68.247  1.00  0.00    -0.085 OA 
HETATM    8  C   UNL     1      -8.182  13.896  68.324  1.00  0.00    -0.158 C  
HETATM    9  N   UNL     1      -9.168  12.443  66.522  1.00  0.00    -0.229 N  
HETATM   10  C   UNL     1      -8.303  11.430  66.289  1.00  0.00    -0.111 C  
HETATM   11  O   UNL     1      -8.306  14.767  69.174  1.00  0.00    -0.160 OA 
HETATM   12  C   UNL     1      -9.414  10.675  65.393  1.00  0.00    -0.215 C  
ENDROOT
BRANCH   4  13
HETATM   13  C   UNL     1     -10.660  15.547  68.132  1.00  0.00    -0.266 C  
BRANCH  13  14
HETATM   14  O   UNL     1     -11.983  15.499  68.708  1.00  0.00    -0.336 OA 
BRANCH  14  15
HETATM   15  C   UNL     1     -12.050  15.502  70.057  1.00  0.00    -0.368 C  
HETATM   16  O   UNL     1     -13.036  15.704  70.744  1.00  0.00    -0.477 OA 
HETATM   17  N   UNL     1     -10.822  15.278  70.575  1.00  0.00    -0.449 N  
HETATM   18  H2  UNL     1      -9.973  15.129  70.030  1.00  0.00     0.000 HD 
HETATM   19  H1  UNL     1     -10.872  15.281  71.594  1.00  0.00     0.000 HD 
ENDBRANCH  14  15
ENDBRANCH  13  14
ENDBRANCH   4  13
BRANCH  12  20
HETATM   20  N   UNL     1     -10.277   9.654  66.075  1.00  0.00    -0.235 N  
HETATM   21  O   UNL     1      -8.618   8.147  66.545  1.00  0.00    -0.127 OA 
HETATM   22  C   UNL     1      -9.794   8.490  66.627  1.00  0.00    -0.272 C  
HETATM   23  H   UNL     1     -11.280   9.834  66.132  1.00  0.00     0.000 HD 
BRANCH  22  24
HETATM   24  C   UNL     1     -10.841   7.632  67.307  1.00  0.00    -0.263 C  
BRANCH  24  25
HETATM   25  C   UNL     1     -10.680   7.656  68.795  1.00  0.00    -0.077 A  
HETATM   26  C   UNL     1     -10.916   6.637  69.698  1.00  0.00    -0.367 A  
HETATM   27  C   UNL     1     -10.777   7.067  71.049  1.00  0.00    -0.256 A  
HETATM   28  C   UNL     1     -10.407   8.391  71.133  1.00  0.00    -0.212 A  
HETATM   29  S   UNL     1     -10.217   9.102  69.591  1.00  0.00    -0.213 SA 
ENDBRANCH  24  25
ENDBRANCH  22  24
ENDBRANCH  12  20
BRANCH  12  30
HETATM   30  O   UNL     1      -8.938  10.230  64.093  1.00  0.00    -0.197 OA 
HETATM   31  C   UNL     1      -9.769  10.568  62.987  1.00  0.00    -0.294 C  
ENDBRANCH  12  30
TORSDOF 7
ENDMDL
MODEL       56
REMARK 921   NORMALIZED FREE ENERGY PREDICTED BY IDOCK:   -5.28 KCAL/MOL
REMARK 922        TOTAL FREE ENERGY PREDICTED BY IDOCK:   -8.12 KCAL/MOL
REMARK 923 INTER-LIGAND FREE ENERGY PREDICTED BY IDOCK:   -7.35 KCAL/MOL
REMARK 924 INTRA-LIGAND FREE ENERGY PREDICTED BY IDOCK:   -0.77 KCAL/MOL
REMARK 927      BINDING AFFINITY PREDICTED BY RF-SCORE:    0.00 PKD
ROOT
HETATM    1  C   UNL     1      -8.416  10.040  67.388  1.00  0.00    -0.121 C  
HETATM    2  S   UNL     1      -9.482  11.271  68.168  1.00  0.00    -0.190 SA 
HETATM    3  C   UNL     1      -9.882  10.204  69.563  1.00  0.00    -0.232 C  
HETATM    4  C   UNL     1     -10.277   8.782  69.203  1.00  0.00    -0.215 C  
HETATM    5  C   UNL     1      -9.942   8.162  68.032  1.00  0.00    -0.184 C  
HETATM    6  O   UNL     1      -8.653   7.641  65.197  1.00  0.00    -0.095 OA 
HETATM    7  O   UNL     1     -10.050   6.142  66.633  1.00  0.00    -0.170 OA 
HETATM    8  C   UNL     1     -10.513   6.786  67.719  1.00  0.00    -0.222 C  
HETATM    9  N   UNL     1      -9.176   8.830  67.114  1.00  0.00    -0.134 N  
HETATM   10  C   UNL     1      -8.675   8.643  65.873  1.00  0.00    -0.172 C  
HETATM   11  O   UNL     1     -11.343   6.228  68.423  1.00  0.00    -0.298 OA 
HETATM   12  C   UNL     1      -8.222  10.192  65.812  1.00  0.00    -0.144 C  
ENDROOT
BRANCH   4  13
HETATM   13  C   UNL     1     -11.160   8.159  70.287  1.00  0.00    -0.221 C  
BRANCH  13  14
HETATM   14  O   UNL     1     -10.976   8.847  71.543  1.00  0.00    -0.275 OA 
BRANCH  14  15
HETATM   15  C   UNL     1     -10.649   8.078  72.605  1.00  0.00    -0.350 C  
HETATM   16  O   UNL     1      -9.552   7.973  73.126  1.00  0.00    -0.268 OA 
HETATM   17  N   UNL     1     -11.732   7.380  73.013  1.00  0.00    -0.579 N  
HETATM   18  H2  UNL     1     -12.656   7.427  72.585  1.00  0.00     0.000 HD 
HETATM   19  H1  UNL     1     -11.485   6.800  73.815  1.00  0.00     0.000 HD 
ENDBRANCH  14  15
ENDBRANCH  13  14
ENDBRANCH   4  13
BRANCH  12  20
HETATM   20  N   UNL     1      -9.171  11.166  65.178  1.00  0.00    -0.279 N  
HETATM   21  O   UNL     1      -9.181  10.233  63.086  1.00  0.00    -0.238 OA 
HETATM   22  C   UNL     1      -9.598  11.078  63.872  1.00  0.00    -0.272 C  
HETATM   23  H   UNL     1      -9.519  11.938  65.747  1.00  0.00     0.000 HD 
BRANCH  22  24
HETATM   24  C   UNL     1     -10.595  12.143  63.461  1.00  0.00    -0.501 C  
BRANCH  24  25
HETATM   25  C   UNL     1     -11.050  12.945  64.640  1.00  0.00    -0.324 A  
HETATM   26  C   UNL     1     -11.971  12.594  65.609  1.00  0.00    -0.507 A  
HETATM   27  C   UNL     1     -12.248  13.666  66.507  1.00  0.00    -0.454 A  
HETATM   28  C   UNL     1     -11.505  14.787  66.215  1.00  0.00    -0.316 A  
HETATM   29  S   UNL     1     -10.472  14.542  64.875  1.00  0.00    -0.345 SA 
ENDBRANCH  24  25
ENDBRANCH  22  24
ENDBRANCH  12  20
BRANCH  12  30
HETATM   30  O   UNL     1      -6.843  10.402  65.399  1.00  0.00    -0.137 OA 
HETATM   31  C   UNL     1      -5.941  10.770  66.438  1.00  0.00    -0.110 C  
ENDBRANCH  12  30
TORSDOF 7
ENDMDL
MODEL       57
REMARK 921   NORMALIZED FREE ENERGY PREDICTED BY IDOCK:   -5.28 KCAL/MOL
REMARK 922        TOTAL FREE ENERGY PREDICTED BY IDOCK:   -8.12 KCAL/MOL
REMARK 923 INTER-LIGAND FREE ENERGY PREDICTED BY IDOCK:   -7.22 KCAL/MOL
REMARK 924 INTRA-LIGAND FREE ENERGY PREDICTED BY IDOCK:   -0.90 KCAL/MOL
REMARK 927      BINDING AFFINITY PREDICTED BY RF-SCORE:    0.00 PKD
ROOT
HETATM    1  C   UNL     1     -10.060  11.447  66.574  1.00  0.00    -0.215 C  
HETATM    2  S   UNL     1     -11.514  11.581  67.635  1.00  0.00    -0.259 SA 
HETATM    3  C   UNL     1     -11.783  13.318  67.236  1.00  0.00    -0.377 C  
HETATM    4  C   UNL     1     -10.547  14.199  67.301  1.00  0.00    -0.277 C  
HETATM    5  C   UNL     1      -9.265  13.738  67.201  1.00  0.00    -0.243 C  
HETATM    6  O   UNL     1      -6.827  11.769  66.810  1.00  0.00    -0.127 OA 
HETATM    7  O   UNL     1      -6.859  14.245  67.173  1.00  0.00    -0.177 OA 
HETATM    8  C   UNL     1      -8.102  14.694  67.422  1.00  0.00    -0.196 C  
HETATM    9  N   UNL     1      -9.047  12.400  67.001  1.00  0.00    -0.201 N  
HETATM   10  C   UNL     1      -8.010  11.539  66.898  1.00  0.00    -0.164 C  
HETATM   11  O   UNL     1      -8.246  15.854  67.781  1.00  0.00    -0.142 OA 
HETATM   12  C   UNL     1      -9.031  10.288  66.955  1.00  0.00    -0.136 C  
ENDROOT
BRANCH   4  13
HETATM   13  C   UNL     1     -10.921  15.660  67.566  1.00  0.00    -0.309 C  
BRANCH  13  14
HETATM   14  O   UNL     1     -11.828  15.753  68.685  1.00  0.00    -0.385 OA 
BRANCH  14  15
HETATM   15  C   UNL     1     -11.312  16.234  69.836  1.00  0.00    -0.261 C  
HETATM   16  O   UNL     1     -11.597  15.891  70.971  1.00  0.00    -0.362 OA 
HETATM   17  N   UNL     1     -10.423  17.214  69.563  1.00  0.00    -0.272 N  
HETATM   18  H2  UNL     1     -10.178  17.541  68.628  1.00  0.00     0.000 HD 
HETATM   19  H1  UNL     1     -10.032  17.578  70.432  1.00  0.00     0.000 HD 
ENDBRANCH  14  15
ENDBRANCH  13  14
ENDBRANCH   4  13
BRANCH  12  20
HETATM   20  N   UNL     1      -9.290   9.667  68.296  1.00  0.00    -0.133 N  
HETATM   21  O   UNL     1     -10.737   8.042  67.581  1.00  0.00    -0.216 OA 
HETATM   22  C   UNL     1     -10.097   8.568  68.486  1.00  0.00    -0.194 C  
HETATM   23  H   UNL     1      -8.843  10.083  69.113  1.00  0.00     0.000 HD 
BRANCH  22  24
HETATM   24  C   UNL     1     -10.175   8.083  69.920  1.00  0.00    -0.204 C  
BRANCH  24  25
HETATM   25  C   UNL     1     -11.320   8.715  70.646  1.00  0.00    -0.247 A  
HETATM   26  C   UNL     1     -11.547  10.057  70.882  1.00  0.00    -0.463 A  
HETATM   27  C   UNL     1     -12.677  10.276  71.722  1.00  0.00    -0.535 A  
HETATM   28  C   UNL     1     -13.296   9.097  72.071  1.00  0.00    -0.445 A  
HETATM   29  S   UNL     1     -12.524   7.739  71.379  1.00  0.00    -0.301 SA 
ENDBRANCH  24  25
ENDBRANCH  22  24
ENDBRANCH  12  20
BRANCH  12  30
HETATM   30  O   UNL     1      -8.833   9.300  65.907  1.00  0.00    -0.147 OA 
HETATM   31  C   UNL     1      -9.274   9.686  64.609  1.00  0.00    -0.234 C  
ENDBRANCH  12  30
TORSDOF 7
ENDMDL
MODEL       58
REMARK 921   NORMALIZED FREE ENERGY PREDICTED BY IDOCK:   -5.28 KCAL/MOL
REMARK 922        TOTAL FREE ENERGY PREDICTED BY IDOCK:   -8.11 KCAL/MOL
REMARK 923 INTER-LIGAND FREE ENERGY PREDICTED BY IDOCK:   -6.87 KCAL/MOL
REMARK 924 INTRA-LIGAND FREE ENERGY PREDICTED BY IDOCK:   -1.24 KCAL/MOL
REMARK 927      BINDING AFFINITY PREDICTED BY RF-SCORE:    0.00 PKD
ROOT
HETATM    1  C   UNL     1      -8.046   9.148  68.573  1.00  0.00    -0.103 C  
HETATM    2  S   UNL     1      -7.812   9.709  70.273  1.00  0.00    -0.168 SA 
HETATM    3  C   UNL     1      -7.740   8.034  70.934  1.00  0.00    -0.084 C  
HETATM    4  C   UNL     1      -8.831   7.095  70.447  1.00  0.00    -0.151 C  
HETATM    5  C   UNL     1      -9.539   7.269  69.292  1.00  0.00    -0.156 C  
HETATM    6  O   UNL     1     -10.501   8.480  66.538  1.00  0.00    -0.256 OA 
HETATM    7  O   UNL     1     -11.284   6.446  67.768  1.00  0.00    -0.323 OA 
HETATM    8  C   UNL     1     -10.704   6.343  68.976  1.00  0.00    -0.286 C  
HETATM    9  N   UNL     1      -9.250   8.336  68.482  1.00  0.00    -0.136 N  
HETATM   10  C   UNL     1      -9.698   8.900  67.338  1.00  0.00    -0.176 C  
HETATM   11  O   UNL     1     -11.114   5.491  69.753  1.00  0.00    -0.256 OA 
HETATM   12  C   UNL     1      -8.757  10.188  67.594  1.00  0.00    -0.121 C  
ENDROOT
BRANCH   4  13
HETATM   13  C   UNL     1      -9.085   5.970  71.454  1.00  0.00    -0.143 C  
BRANCH  13  14
HETATM   14  O   UNL     1      -9.542   6.513  72.711  1.00  0.00    -0.150 OA 
BRANCH  14  15
HETATM   15  C   UNL     1     -10.814   6.968  72.740  1.00  0.00    -0.288 C  
HETATM   16  O   UNL     1     -11.179   8.131  72.741  1.00  0.00    -0.389 OA 
HETATM   17  N   UNL     1     -11.670   5.925  72.806  1.00  0.00    -0.513 N  
HETATM   18  H2  UNL     1     -11.397   4.942  72.830  1.00  0.00     0.000 HD 
HETATM   19  H1  UNL     1     -12.630   6.268  72.828  1.00  0.00     0.000 HD 
ENDBRANCH  14  15
ENDBRANCH  13  14
ENDBRANCH   4  13
BRANCH  12  20
HETATM   20  N   UNL     1      -9.367  11.363  68.300  1.00  0.00    -0.181 N  
HETATM   21  O   UNL     1     -11.128  11.671  66.869  1.00  0.00    -0.280 OA 
HETATM   22  C   UNL     1     -10.527  11.981  67.893  1.00  0.00    -0.202 C  
HETATM   23  H   UNL     1      -8.895  11.724  69.129  1.00  0.00     0.000 HD 
BRANCH  22  24
HETATM   24  C   UNL     1     -10.984  13.117  68.786  1.00  0.00    -0.298 C  
BRANCH  24  25
HETATM   25  C   UNL     1     -11.844  12.616  69.904  1.00  0.00    -0.294 A  
HETATM   26  C   UNL     1     -12.556  13.352  70.832  1.00  0.00    -0.406 A  
HETATM   27  C   UNL     1     -13.158  12.530  71.829  1.00  0.00    -0.450 A  
HETATM   28  C   UNL     1     -12.914  11.193  71.611  1.00  0.00    -0.443 A  
HETATM   29  S   UNL     1     -11.976  10.933  70.206  1.00  0.00    -0.390 SA 
ENDBRANCH  24  25
ENDBRANCH  22  24
ENDBRANCH  12  20
BRANCH  12  30
HETATM   30  O   UNL     1      -7.946  10.578  66.451  1.00  0.00    -0.125 OA 
HETATM   31  C   UNL     1      -6.544  10.642  66.687  1.00  0.00    -0.101 C  
ENDBRANCH  12  30
TORSDOF 7
ENDMDL
MODEL       59
REMARK 921   NORMALIZED FREE ENERGY PREDICTED BY IDOCK:   -5.26 KCAL/MOL
REMARK 922        TOTAL FREE ENERGY PREDICTED BY IDOCK:   -8.09 KCAL/MOL
REMARK 923 INTER-LIGAND FREE ENERGY PREDICTED BY IDOCK:   -8.10 KCAL/MOL
REMARK 924 INTRA-LIGAND FREE ENERGY PREDICTED BY IDOCK:    0.01 KCAL/MOL
REMARK 927      BINDING AFFINITY PREDICTED BY RF-SCORE:    0.00 PKD
ROOT
HETATM    1  C   UNL     1     -10.577  16.737  67.134  1.00  0.00    -0.256 C  
HETATM    2  S   UNL     1      -9.414  16.172  65.873  1.00  0.00    -0.240 SA 
HETATM    3  C   UNL     1     -10.577  14.989  65.171  1.00  0.00    -0.418 C  
HETATM    4  C   UNL     1     -11.298  14.109  66.178  1.00  0.00    -0.337 C  
HETATM    5  C   UNL     1     -11.464  14.423  67.497  1.00  0.00    -0.349 C  
HETATM    6  O   UNL     1     -11.373  16.032  70.213  1.00  0.00    -0.339 OA 
HETATM    7  O   UNL     1     -12.362  13.792  69.698  1.00  0.00    -0.316 OA 
HETATM    8  C   UNL     1     -12.078  13.401  68.443  1.00  0.00    -0.235 C  
HETATM    9  N   UNL     1     -10.984  15.616  67.968  1.00  0.00    -0.308 N  
HETATM   10  C   UNL     1     -10.881  16.285  69.138  1.00  0.00    -0.314 C  
HETATM   11  O   UNL     1     -12.354  12.257  68.107  1.00  0.00    -0.236 OA 
HETATM   12  C   UNL     1      -9.923  17.381  68.439  1.00  0.00    -0.329 C  
ENDROOT
BRANCH   4  13
HETATM   13  C   UNL     1     -11.750  12.792  65.540  1.00  0.00    -0.395 C  
BRANCH  13  14
HETATM   14  O   UNL     1     -10.607  11.976  65.205  1.00  0.00    -0.267 OA 
BRANCH  14  15
HETATM   15  C   UNL     1     -10.687  11.279  64.050  1.00  0.00    -0.377 C  
HETATM   16  O   UNL     1      -9.950  10.382  63.681  1.00  0.00    -0.294 OA 
HETATM   17  N   UNL     1     -11.713  11.747  63.306  1.00  0.00    -0.827 N  
HETATM   18  H2  UNL     1     -12.334  12.511  63.575  1.00  0.00     0.000 HD 
HETATM   19  H1  UNL     1     -11.774  11.221  62.434  1.00  0.00     0.000 HD 
ENDBRANCH  14  15
ENDBRANCH  13  14
ENDBRANCH   4  13
BRANCH  12  20
HETATM   20  N   UNL     1      -8.441  17.170  68.539  1.00  0.00    -0.255 N  
HETATM   21  O   UNL     1      -8.510  15.265  69.808  1.00  0.00    -0.200 OA 
HETATM   22  C   UNL     1      -7.863  16.103  69.188  1.00  0.00    -0.232 C  
HETATM   23  H   UNL     1      -7.827  17.857  68.101  1.00  0.00     0.000 HD 
BRANCH  22  24
HETATM   24  C   UNL     1      -6.349  16.067  69.119  1.00  0.00    -0.151 C  
BRANCH  24  25
HETATM   25  C   UNL     1      -5.823  14.704  69.442  1.00  0.00    -0.097 A  
HETATM   26  C   UNL     1      -5.535  13.670  68.571  1.00  0.00    -0.092 A  
HETATM   27  C   UNL     1      -5.174  12.472  69.253  1.00  0.00    -0.069 A  
HETATM   28  C   UNL     1      -5.165  12.639  70.619  1.00  0.00    -0.137 A  
HETATM   29  S   UNL     1      -5.578  14.235  71.072  1.00  0.00    -0.204 SA 
ENDBRANCH  24  25
ENDBRANCH  22  24
ENDBRANCH  12  20
BRANCH  12  30
HETATM   30  O   UNL     1     -10.311  18.762  68.679  1.00  0.00    -0.351 OA 
HETATM   31  C   UNL     1     -10.510  19.555  67.513  1.00  0.00    -0.472 C  
ENDBRANCH  12  30
TORSDOF 7
ENDMDL
MODEL       60
REMARK 921   NORMALIZED FREE ENERGY PREDICTED BY IDOCK:   -5.25 KCAL/MOL
REMARK 922        TOTAL FREE ENERGY PREDICTED BY IDOCK:   -8.08 KCAL/MOL
REMARK 923 INTER-LIGAND FREE ENERGY PREDICTED BY IDOCK:   -7.42 KCAL/MOL
REMARK 924 INTRA-LIGAND FREE ENERGY PREDICTED BY IDOCK:   -0.66 KCAL/MOL
REMARK 927      BINDING AFFINITY PREDICTED BY RF-SCORE:    0.00 PKD
ROOT
HETATM    1  C   UNL     1     -11.276  11.415  65.917  1.00  0.00    -0.107 C  
HETATM    2  S   UNL     1     -10.533  10.177  67.000  1.00  0.00    -0.224 SA 
HETATM    3  C   UNL     1     -11.567  10.625  68.406  1.00  0.00    -0.194 C  
HETATM    4  C   UNL     1     -11.668  12.114  68.691  1.00  0.00    -0.382 C  
HETATM    5  C   UNL     1     -11.427  13.093  67.770  1.00  0.00    -0.313 C  
HETATM    6  O   UNL     1     -10.759  14.506  65.025  1.00  0.00    -0.375 OA 
HETATM    7  O   UNL     1     -11.328  15.495  67.253  1.00  0.00    -0.281 OA 
HETATM    8  C   UNL     1     -11.421  14.552  68.206  1.00  0.00    -0.311 C  
HETATM    9  N   UNL     1     -11.098  12.742  66.487  1.00  0.00    -0.277 N  
HETATM   10  C   UNL     1     -10.747  13.335  65.325  1.00  0.00    -0.311 C  
HETATM   11  O   UNL     1     -11.529  14.903  69.372  1.00  0.00    -0.266 OA 
HETATM   12  C   UNL     1     -10.371  11.896  64.693  1.00  0.00    -0.284 C  
ENDROOT
BRANCH   4  13
HETATM   13  C   UNL     1     -12.002  12.376  70.162  1.00  0.00    -0.298 C  
BRANCH  13  14
HETATM   14  O   UNL     1     -11.878  11.160  70.931  1.00  0.00    -0.292 OA 
BRANCH  14  15
HETATM   15  C   UNL     1     -12.932  10.835  71.712  1.00  0.00    -0.463 C  
HETATM   16  O   UNL     1     -13.437   9.733  71.844  1.00  0.00    -0.402 OA 
HETATM   17  N   UNL     1     -13.400  11.942  72.330  1.00  0.00    -0.548 N  
HETATM   18  H2  UNL     1     -13.016  12.881  72.223  1.00  0.00     0.000 HD 
HETATM   19  H1  UNL     1     -14.196  11.697  72.919  1.00  0.00     0.000 HD 
ENDBRANCH  14  15
ENDBRANCH  13  14
ENDBRANCH   4  13
BRANCH  12  20
HETATM   20  N   UNL     1      -8.942  11.451  64.788  1.00  0.00    -0.397 N  
HETATM   21  O   UNL     1      -9.172   9.506  63.600  1.00  0.00    -0.206 OA 
HETATM   22  C   UNL     1      -8.457  10.306  64.197  1.00  0.00    -0.179 C  
HETATM   23  H   UNL     1      -8.292  12.029  65.320  1.00  0.00     0.000 HD 
BRANCH  22  24
HETATM   24  C   UNL     1      -6.971  10.080  64.383  1.00  0.00    -0.129 C  
BRANCH  24  25
HETATM   25  C   UNL     1      -6.626   9.897  65.828  1.00  0.00    -0.094 A  
HETATM   26  C   UNL     1      -7.000   8.869  66.673  1.00  0.00    -0.080 A  
HETATM   27  C   UNL     1      -6.591   9.098  68.019  1.00  0.00    -0.060 A  
HETATM   28  C   UNL     1      -5.888  10.274  68.151  1.00  0.00    -0.041 A  
HETATM   29  S   UNL     1      -5.715  11.089  66.658  1.00  0.00    -0.119 SA 
ENDBRANCH  24  25
ENDBRANCH  22  24
ENDBRANCH  12  20
BRANCH  12  30
HETATM   30  O   UNL     1     -10.955  11.641  63.386  1.00  0.00    -0.397 OA 
HETATM   31  C   UNL     1     -12.353  11.888  63.279  1.00  0.00    -0.391 C  
ENDBRANCH  12  30
TORSDOF 7
ENDMDL
MODEL       61
REMARK 921   NORMALIZED FREE ENERGY PREDICTED BY IDOCK:   -5.20 KCAL/MOL
REMARK 922        TOTAL FREE ENERGY PREDICTED BY IDOCK:   -8.01 KCAL/MOL
REMARK 923 INTER-LIGAND FREE ENERGY PREDICTED BY IDOCK:   -7.11 KCAL/MOL
REMARK 924 INTRA-LIGAND FREE ENERGY PREDICTED BY IDOCK:   -0.90 KCAL/MOL
REMARK 927      BINDING AFFINITY PREDICTED BY RF-SCORE:    0.00 PKD
ROOT
HETATM    1  C   UNL     1      -8.783   8.824  67.552  1.00  0.00    -0.134 C  
HETATM    2  S   UNL     1      -8.947  10.553  68.043  1.00  0.00    -0.137 SA 
HETATM    3  C   UNL     1      -8.912  10.173  69.804  1.00  0.00    -0.132 C  
HETATM    4  C   UNL     1      -9.815   9.032  70.241  1.00  0.00    -0.227 C  
HETATM    5  C   UNL     1     -10.274   8.050  69.410  1.00  0.00    -0.210 C  
HETATM    6  O   UNL     1     -10.709   6.301  66.816  1.00  0.00    -0.290 OA 
HETATM    7  O   UNL     1     -11.606   6.001  69.133  1.00  0.00    -0.193 OA 
HETATM    8  C   UNL     1     -11.287   7.038  69.927  1.00  0.00    -0.216 C  
HETATM    9  N   UNL     1      -9.889   8.049  68.096  1.00  0.00    -0.164 N  
HETATM   10  C   UNL     1     -10.120   7.346  66.964  1.00  0.00    -0.258 C  
HETATM   11  O   UNL     1     -11.797   7.107  71.037  1.00  0.00    -0.304 OA 
HETATM   12  C   UNL     1      -9.335   8.462  66.099  1.00  0.00    -0.201 C  
ENDROOT
BRANCH   4  13
HETATM   13  C   UNL     1     -10.205   9.167  71.716  1.00  0.00    -0.235 C  
BRANCH  13  14
HETATM   14  O   UNL     1      -9.099   8.796  72.566  1.00  0.00    -0.367 OA 
BRANCH  14  15
HETATM   15  C   UNL     1      -9.149   7.560  73.109  1.00  0.00    -0.177 C  
HETATM   16  O   UNL     1      -8.358   6.649  72.939  1.00  0.00    -0.117 OA 
HETATM   17  N   UNL     1     -10.257   7.444  73.874  1.00  0.00    -0.403 N  
HETATM   18  H2  UNL     1     -10.951   8.177  74.019  1.00  0.00     0.000 HD 
HETATM   19  H1  UNL     1     -10.295   6.510  74.285  1.00  0.00     0.000 HD 
ENDBRANCH  14  15
ENDBRANCH  13  14
ENDBRANCH   4  13
BRANCH  12  20
HETATM   20  N   UNL     1     -10.152   9.555  65.474  1.00  0.00    -0.348 N  
HETATM   21  O   UNL     1      -8.441  10.580  64.349  1.00  0.00    -0.174 OA 
HETATM   22  C   UNL     1      -9.636  10.501  64.619  1.00  0.00    -0.292 C  
HETATM   23  H   UNL     1     -11.146   9.598  65.697  1.00  0.00     0.000 HD 
BRANCH  22  24
HETATM   24  C   UNL     1     -10.656  11.478  64.070  1.00  0.00    -0.437 C  
BRANCH  24  25
HETATM   25  C   UNL     1     -11.008  12.522  65.082  1.00  0.00    -0.297 A  
HETATM   26  C   UNL     1     -11.995  12.479  66.048  1.00  0.00    -0.456 A  
HETATM   27  C   UNL     1     -12.122  13.713  66.749  1.00  0.00    -0.445 A  
HETATM   28  C   UNL     1     -11.205  14.646  66.320  1.00  0.00    -0.340 A  
HETATM   29  S   UNL     1     -10.192  14.030  65.089  1.00  0.00    -0.334 SA 
ENDBRANCH  24  25
ENDBRANCH  22  24
ENDBRANCH  12  20
BRANCH  12  30
HETATM   30  O   UNL     1      -8.328   7.927  65.197  1.00  0.00    -0.146 OA 
HETATM   31  C   UNL     1      -7.307   7.148  65.810  1.00  0.00    -0.075 C  
ENDBRANCH  12  30
TORSDOF 7
ENDMDL
MODEL       62
REMARK 921   NORMALIZED FREE ENERGY PREDICTED BY IDOCK:   -5.19 KCAL/MOL
REMARK 922        TOTAL FREE ENERGY PREDICTED BY IDOCK:   -7.99 KCAL/MOL
REMARK 923 INTER-LIGAND FREE ENERGY PREDICTED BY IDOCK:   -6.83 KCAL/MOL
REMARK 924 INTRA-LIGAND FREE ENERGY PREDICTED BY IDOCK:   -1.15 KCAL/MOL
REMARK 927      BINDING AFFINITY PREDICTED BY RF-SCORE:    0.00 PKD
ROOT
HETATM    1  C   UNL     1      -8.682   9.540  70.338  1.00  0.00    -0.223 C  
HETATM    2  S   UNL     1      -7.875   8.770  68.918  1.00  0.00    -0.105 SA 
HETATM    3  C   UNL     1      -8.080  10.223  67.873  1.00  0.00    -0.102 C  
HETATM    4  C   UNL     1      -9.467  10.842  67.883  1.00  0.00    -0.165 C  
HETATM    5  C   UNL     1     -10.379  10.675  68.887  1.00  0.00    -0.207 C  
HETATM    6  O   UNL     1     -11.667   9.767  71.624  1.00  0.00    -0.385 OA 
HETATM    7  O   UNL     1     -12.613  11.174  69.785  1.00  0.00    -0.210 OA 
HETATM    8  C   UNL     1     -11.788  11.225  68.724  1.00  0.00    -0.329 C  
HETATM    9  N   UNL     1     -10.039   9.929  69.985  1.00  0.00    -0.254 N  
HETATM   10  C   UNL     1     -10.602   9.480  71.128  1.00  0.00    -0.318 C  
HETATM   11  O   UNL     1     -12.192  11.739  67.690  1.00  0.00    -0.534 OA 
HETATM   12  C   UNL     1      -9.321   8.534  71.399  1.00  0.00    -0.211 C  
ENDROOT
BRANCH   4  13
HETATM   13  C   UNL     1      -9.740  11.615  66.590  1.00  0.00    -0.202 C  
BRANCH  13  14
HETATM   14  O   UNL     1      -9.168  12.939  66.664  1.00  0.00    -0.241 OA 
BRANCH  14  15
HETATM   15  C   UNL     1      -9.946  13.953  66.226  1.00  0.00    -0.306 C  
HETATM   16  O   UNL     1      -9.784  15.144  66.428  1.00  0.00    -0.245 OA 
HETATM   17  N   UNL     1     -10.993  13.456  65.531  1.00  0.00    -0.281 N  
HETATM   18  H2  UNL     1     -11.170  12.465  65.364  1.00  0.00     0.000 HD 
HETATM   19  H1  UNL     1     -11.581  14.222  65.200  1.00  0.00     0.000 HD 
ENDBRANCH  14  15
ENDBRANCH  13  14
ENDBRANCH   4  13
BRANCH  12  20
HETATM   20  N   UNL     1      -9.394   7.114  70.918  1.00  0.00    -0.160 N  
HETATM   21  O   UNL     1     -11.187   6.475  72.192  1.00  0.00    -0.246 OA 
HETATM   22  C   UNL     1     -10.350   6.215  71.332  1.00  0.00    -0.214 C  
HETATM   23  H   UNL     1      -8.695   6.798  70.246  1.00  0.00     0.000 HD 
BRANCH  22  24
HETATM   24  C   UNL     1     -10.260   4.852  70.676  1.00  0.00    -0.282 C  
BRANCH  24  25
HETATM   25  C   UNL     1     -10.148   4.971  69.189  1.00  0.00    -0.187 A  
HETATM   26  C   UNL     1     -10.880   5.777  68.337  1.00  0.00    -0.251 A  
HETATM   27  C   UNL     1     -10.583   5.527  66.966  1.00  0.00    -0.332 A  
HETATM   28  C   UNL     1      -9.611   4.564  66.816  1.00  0.00    -0.190 A  
HETATM   29  S   UNL     1      -9.053   3.977  68.322  1.00  0.00    -0.149 SA 
ENDBRANCH  24  25
ENDBRANCH  22  24
ENDBRANCH  12  20
BRANCH  12  30
HETATM   30  O   UNL     1      -8.761   8.646  72.737  1.00  0.00    -0.387 OA 
HETATM   31  C   UNL     1      -7.519   7.980  72.940  1.00  0.00    -0.119 C  
ENDBRANCH  12  30
TORSDOF 7
ENDMDL
MODEL       63
REMARK 921   NORMALIZED FREE ENERGY PREDICTED BY IDOCK:   -5.17 KCAL/MOL
REMARK 922        TOTAL FREE ENERGY PREDICTED BY IDOCK:   -7.97 KCAL/MOL
REMARK 923 INTER-LIGAND FREE ENERGY PREDICTED BY IDOCK:   -7.34 KCAL/MOL
REMARK 924 INTRA-LIGAND FREE ENERGY PREDICTED BY IDOCK:   -0.63 KCAL/MOL
REMARK 927      BINDING AFFINITY PREDICTED BY RF-SCORE:    0.00 PKD
ROOT
HETATM    1  C   UNL     1     -11.028  15.082  67.322  1.00  0.00    -0.326 C  
HETATM    2  S   UNL     1      -9.959  13.861  66.530  1.00  0.00    -0.292 SA 
HETATM    3  C   UNL     1     -11.097  12.499  66.840  1.00  0.00    -0.278 C  
HETATM    4  C   UNL     1     -11.647  12.419  68.254  1.00  0.00    -0.384 C  
HETATM    5  C   UNL     1     -11.702  13.474  69.120  1.00  0.00    -0.327 C  
HETATM    6  O   UNL     1     -11.457  16.406  70.268  1.00  0.00    -0.296 OA 
HETATM    7  O   UNL     1     -12.326  14.321  71.343  1.00  0.00    -0.334 OA 
HETATM    8  C   UNL     1     -12.142  13.244  70.559  1.00  0.00    -0.314 C  
HETATM    9  N   UNL     1     -11.266  14.705  68.708  1.00  0.00    -0.254 N  
HETATM   10  C   UNL     1     -11.095  15.949  69.209  1.00  0.00    -0.312 C  
HETATM   11  O   UNL     1     -12.366  12.134  71.022  1.00  0.00    -0.351 OA 
HETATM   12  C   UNL     1     -10.295  16.387  67.876  1.00  0.00    -0.286 C  
ENDROOT
BRANCH   4  13
HETATM   13  C   UNL     1     -12.063  10.989  68.607  1.00  0.00    -0.059 C  
BRANCH  13  14
HETATM   14  O   UNL     1     -10.960  10.080  68.410  1.00  0.00    -0.239 OA 
BRANCH  14  15
HETATM   15  C   UNL     1     -10.471   9.481  69.519  1.00  0.00    -0.220 C  
HETATM   16  O   UNL     1     -10.745   8.368  69.935  1.00  0.00    -0.232 OA 
HETATM   17  N   UNL     1      -9.630  10.323  70.158  1.00  0.00    -0.375 N  
HETATM   18  H2  UNL     1      -9.398  11.268  69.850  1.00  0.00     0.000 HD 
HETATM   19  H1  UNL     1      -9.261   9.871  70.995  1.00  0.00     0.000 HD 
ENDBRANCH  14  15
ENDBRANCH  13  14
ENDBRANCH   4  13
BRANCH  12  20
HETATM   20  N   UNL     1      -8.799  16.275  67.899  1.00  0.00    -0.182 N  
HETATM   21  O   UNL     1      -8.431  16.948  65.741  1.00  0.00    -0.492 OA 
HETATM   22  C   UNL     1      -7.991  16.603  66.833  1.00  0.00    -0.220 C  
HETATM   23  H   UNL     1      -8.355  15.937  68.752  1.00  0.00     0.000 HD 
BRANCH  22  24
HETATM   24  C   UNL     1      -6.506  16.459  67.099  1.00  0.00    -0.227 C  
BRANCH  24  25
HETATM   25  C   UNL     1      -6.251  15.632  68.319  1.00  0.00    -0.117 A  
HETATM   26  C   UNL     1      -5.894  16.060  69.584  1.00  0.00    -0.155 A  
HETATM   27  C   UNL     1      -5.609  14.975  70.463  1.00  0.00    -0.140 A  
HETATM   28  C   UNL     1      -5.791  13.755  69.852  1.00  0.00    -0.126 A  
HETATM   29  S   UNL     1      -6.314  13.921  68.233  1.00  0.00    -0.125 SA 
ENDBRANCH  24  25
ENDBRANCH  22  24
ENDBRANCH  12  20
BRANCH  12  30
HETATM   30  O   UNL     1     -10.757  17.628  67.276  1.00  0.00    -0.325 OA 
HETATM   31  C   UNL     1     -10.485  18.809  68.023  1.00  0.00    -0.352 C  
ENDBRANCH  12  30
TORSDOF 7
ENDMDL
MODEL       64
REMARK 921   NORMALIZED FREE ENERGY PREDICTED BY IDOCK:   -5.15 KCAL/MOL
REMARK 922        TOTAL FREE ENERGY PREDICTED BY IDOCK:   -7.93 KCAL/MOL
REMARK 923 INTER-LIGAND FREE ENERGY PREDICTED BY IDOCK:   -6.86 KCAL/MOL
REMARK 924 INTRA-LIGAND FREE ENERGY PREDICTED BY IDOCK:   -1.07 KCAL/MOL
REMARK 927      BINDING AFFINITY PREDICTED BY RF-SCORE:    0.00 PKD
ROOT
HETATM    1  C   UNL     1     -10.234  12.632  65.723  1.00  0.00    -0.272 C  
HETATM    2  S   UNL     1     -11.951  12.611  66.277  1.00  0.00    -0.298 SA 
HETATM    3  C   UNL     1     -11.914  14.329  66.819  1.00  0.00    -0.436 C  
HETATM    4  C   UNL     1     -10.711  14.720  67.659  1.00  0.00    -0.270 C  
HETATM    5  C   UNL     1      -9.520  14.051  67.659  1.00  0.00    -0.210 C  
HETATM    6  O   UNL     1      -7.276  11.958  66.910  1.00  0.00    -0.138 OA 
HETATM    7  O   UNL     1      -7.224  13.872  68.522  1.00  0.00    -0.093 OA 
HETATM    8  C   UNL     1      -8.432  14.449  68.646  1.00  0.00    -0.156 C  
HETATM    9  N   UNL     1      -9.359  12.968  66.836  1.00  0.00    -0.235 N  
HETATM   10  C   UNL     1      -8.429  12.027  66.555  1.00  0.00    -0.065 C  
HETATM   11  O   UNL     1      -8.595  15.289  69.521  1.00  0.00    -0.246 OA 
HETATM   12  C   UNL     1      -9.507  11.212  65.670  1.00  0.00    -0.224 C  
ENDROOT
BRANCH   4  13
HETATM   13  C   UNL     1     -11.028  15.916  68.561  1.00  0.00    -0.324 C  
BRANCH  13  14
HETATM   14  O   UNL     1     -11.141  17.123  67.776  1.00  0.00    -0.263 OA 
BRANCH  14  15
HETATM   15  C   UNL     1     -10.056  17.927  67.755  1.00  0.00    -0.348 C  
HETATM   16  O   UNL     1      -9.530  18.478  68.707  1.00  0.00    -0.332 OA 
HETATM   17  N   UNL     1      -9.627  18.079  66.483  1.00  0.00    -0.307 N  
HETATM   18  H2  UNL     1     -10.058  17.652  65.662  1.00  0.00     0.000 HD 
HETATM   19  H1  UNL     1      -8.807  18.686  66.466  1.00  0.00     0.000 HD 
ENDBRANCH  14  15
ENDBRANCH  13  14
ENDBRANCH   4  13
BRANCH  12  20
HETATM   20  N   UNL     1     -10.273  10.116  66.349  1.00  0.00    -0.233 N  
HETATM   21  O   UNL     1      -8.483   8.769  66.824  1.00  0.00    -0.109 OA 
HETATM   22  C   UNL     1      -9.685   9.001  66.903  1.00  0.00    -0.200 C  
HETATM   23  H   UNL     1     -11.288  10.201  66.404  1.00  0.00     0.000 HD 
BRANCH  22  24
HETATM   24  C   UNL     1     -10.650   8.049  67.580  1.00  0.00    -0.264 C  
BRANCH  24  25
HETATM   25  C   UNL     1     -10.567   8.161  69.070  1.00  0.00    -0.151 A  
HETATM   26  C   UNL     1     -10.740   7.166  70.014  1.00  0.00    -0.268 A  
HETATM   27  C   UNL     1     -10.715   7.672  71.346  1.00  0.00    -0.247 A  
HETATM   28  C   UNL     1     -10.490   9.030  71.377  1.00  0.00    -0.324 A  
HETATM   29  S   UNL     1     -10.298   9.684  69.809  1.00  0.00    -0.260 SA 
ENDBRANCH  24  25
ENDBRANCH  22  24
ENDBRANCH  12  20
BRANCH  12  30
HETATM   30  O   UNL     1      -9.037  10.833  64.347  1.00  0.00    -0.199 OA 
HETATM   31  C   UNL     1      -9.806  11.330  63.257  1.00  0.00    -0.389 C  
ENDBRANCH  12  30
TORSDOF 7
ENDMDL
MODEL       65
REMARK 921   NORMALIZED FREE ENERGY PREDICTED BY IDOCK:   -5.13 KCAL/MOL
REMARK 922        TOTAL FREE ENERGY PREDICTED BY IDOCK:   -7.91 KCAL/MOL
REMARK 923 INTER-LIGAND FREE ENERGY PREDICTED BY IDOCK:   -6.70 KCAL/MOL
REMARK 924 INTRA-LIGAND FREE ENERGY PREDICTED BY IDOCK:   -1.20 KCAL/MOL
REMARK 927      BINDING AFFINITY PREDICTED BY RF-SCORE:    0.00 PKD
ROOT
HETATM    1  C   UNL     1      -7.595   8.345  68.687  1.00  0.00    -0.102 C  
HETATM    2  S   UNL     1      -7.701   9.727  69.843  1.00  0.00    -0.171 SA 
HETATM    3  C   UNL     1      -8.337   8.703  71.182  1.00  0.00    -0.164 C  
HETATM    4  C   UNL     1      -9.473   7.769  70.803  1.00  0.00    -0.163 C  
HETATM    5  C   UNL     1      -9.730   7.344  69.530  1.00  0.00    -0.159 C  
HETATM    6  O   UNL     1      -9.441   6.915  66.415  1.00  0.00    -0.171 OA 
HETATM    7  O   UNL     1     -11.126   5.997  68.019  1.00  0.00    -0.304 OA 
HETATM    8  C   UNL     1     -10.980   6.522  69.248  1.00  0.00    -0.331 C  
HETATM    9  N   UNL     1      -8.909   7.747  68.510  1.00  0.00    -0.131 N  
HETATM   10  C   UNL     1      -8.814   7.624  67.167  1.00  0.00    -0.125 C  
HETATM   11  O   UNL     1     -11.835   6.292  70.092  1.00  0.00    -0.349 OA 
HETATM   12  C   UNL     1      -7.640   8.733  67.139  1.00  0.00    -0.088 C  
ENDROOT
BRANCH   4  13
HETATM   13  C   UNL     1     -10.337   7.424  72.019  1.00  0.00    -0.193 C  
BRANCH  13  14
HETATM   14  O   UNL     1     -10.947   8.616  72.559  1.00  0.00    -0.316 OA 
BRANCH  14  15
HETATM   15  C   UNL     1     -12.116   8.998  71.999  1.00  0.00    -0.370 C  
HETATM   16  O   UNL     1     -12.298   9.939  71.246  1.00  0.00    -0.326 OA 
HETATM   17  N   UNL     1     -13.110   8.188  72.425  1.00  0.00    -0.558 N  
HETATM   18  H2  UNL     1     -12.996   7.408  73.072  1.00  0.00     0.000 HD 
HETATM   19  H1  UNL     1     -13.993   8.476  72.003  1.00  0.00     0.000 HD 
ENDBRANCH  14  15
ENDBRANCH  13  14
ENDBRANCH   4  13
BRANCH  12  20
HETATM   20  N   UNL     1      -8.039  10.157  66.885  1.00  0.00    -0.120 N  
HETATM   21  O   UNL     1      -9.018   9.818  64.843  1.00  0.00    -0.185 OA 
HETATM   22  C   UNL     1      -8.730  10.570  65.769  1.00  0.00    -0.177 C  
HETATM   23  H   UNL     1      -7.783  10.859  67.580  1.00  0.00     0.000 HD 
BRANCH  22  24
HETATM   24  C   UNL     1      -9.068  12.047  65.747  1.00  0.00     0.008 C  
BRANCH  24  25
HETATM   25  C   UNL     1     -10.397  12.290  65.103  1.00  0.00    -0.286 A  
HETATM   26  C   UNL     1     -10.671  12.534  63.770  1.00  0.00    -0.483 A  
HETATM   27  C   UNL     1     -12.043  12.847  63.547  1.00  0.00    -0.633 A  
HETATM   28  C   UNL     1     -12.778  12.799  64.710  1.00  0.00    -0.393 A  
HETATM   29  S   UNL     1     -11.820  12.366  66.057  1.00  0.00    -0.333 SA 
ENDBRANCH  24  25
ENDBRANCH  22  24
ENDBRANCH  12  20
BRANCH  12  30
HETATM   30  O   UNL     1      -6.456   8.339  66.393  1.00  0.00    -0.053 OA 
HETATM   31  C   UNL     1      -5.699   7.275  66.960  1.00  0.00    -0.026 C  
ENDBRANCH  12  30
TORSDOF 7
ENDMDL
MODEL       66
REMARK 921   NORMALIZED FREE ENERGY PREDICTED BY IDOCK:   -5.13 KCAL/MOL
REMARK 922        TOTAL FREE ENERGY PREDICTED BY IDOCK:   -7.90 KCAL/MOL
REMARK 923 INTER-LIGAND FREE ENERGY PREDICTED BY IDOCK:   -7.01 KCAL/MOL
REMARK 924 INTRA-LIGAND FREE ENERGY PREDICTED BY IDOCK:   -0.89 KCAL/MOL
REMARK 927      BINDING AFFINITY PREDICTED BY RF-SCORE:    0.00 PKD
ROOT
HETATM    1  C   UNL     1     -10.156  12.861  66.824  1.00  0.00    -0.238 C  
HETATM    2  S   UNL     1     -11.672  13.015  67.792  1.00  0.00    -0.351 SA 
HETATM    3  C   UNL     1     -11.783  14.796  67.544  1.00  0.00    -0.348 C  
HETATM    4  C   UNL     1     -10.494  15.566  67.776  1.00  0.00    -0.273 C  
HETATM    5  C   UNL     1      -9.245  15.015  67.719  1.00  0.00    -0.181 C  
HETATM    6  O   UNL     1      -6.934  12.902  67.307  1.00  0.00    -0.145 OA 
HETATM    7  O   UNL     1      -6.813  15.330  67.902  1.00  0.00    -0.121 OA 
HETATM    8  C   UNL     1      -8.035  15.852  68.109  1.00  0.00    -0.137 C  
HETATM    9  N   UNL     1      -9.111  13.688  67.407  1.00  0.00    -0.211 N  
HETATM   10  C   UNL     1      -8.135  12.760  67.292  1.00  0.00    -0.172 C  
HETATM   11  O   UNL     1      -8.121  16.983  68.567  1.00  0.00    -0.231 OA 
HETATM   12  C   UNL     1      -9.246  11.595  67.161  1.00  0.00    -0.176 C  
ENDROOT
BRANCH   4  13
HETATM   13  C   UNL     1     -10.779  17.022  68.154  1.00  0.00    -0.374 C  
BRANCH  13  14
HETATM   14  O   UNL     1     -10.819  17.851  66.972  1.00  0.00    -0.258 OA 
BRANCH  14  15
HETATM   15  C   UNL     1     -10.547  19.162  67.151  1.00  0.00    -0.470 C  
HETATM   16  O   UNL     1     -10.479  19.762  68.210  1.00  0.00    -0.431 OA 
HETATM   17  N   UNL     1     -10.386  19.762  65.951  1.00  0.00    -0.502 N  
HETATM   18  H2  UNL     1     -10.459  19.295  65.046  1.00  0.00     0.000 HD 
HETATM   19  H1  UNL     1     -10.180  20.752  66.085  1.00  0.00     0.000 HD 
ENDBRANCH  14  15
ENDBRANCH  13  14
ENDBRANCH   4  13
BRANCH  12  20
HETATM   20  N   UNL     1      -9.649  10.877  68.415  1.00  0.00    -0.170 N  
HETATM   21  O   UNL     1      -7.671   9.775  68.760  1.00  0.00    -0.078 OA 
HETATM   22  C   UNL     1      -8.808  10.054  69.129  1.00  0.00    -0.168 C  
HETATM   23  H   UNL     1     -10.601  11.007  68.758  1.00  0.00     0.000 HD 
BRANCH  22  24
HETATM   24  C   UNL     1      -9.414   9.475  70.391  1.00  0.00    -0.317 C  
BRANCH  24  25
HETATM   25  C   UNL     1      -9.832   8.052  70.190  1.00  0.00    -0.184 A  
HETATM   26  C   UNL     1     -11.045   7.573  69.734  1.00  0.00    -0.143 A  
HETATM   27  C   UNL     1     -11.124   6.151  69.795  1.00  0.00    -0.486 A  
HETATM   28  C   UNL     1      -9.957   5.590  70.263  1.00  0.00    -0.216 A  
HETATM   29  S   UNL     1      -8.773   6.772  70.613  1.00  0.00    -0.143 SA 
ENDBRANCH  24  25
ENDBRANCH  22  24
ENDBRANCH  12  20
BRANCH  12  30
HETATM   30  O   UNL     1      -9.042  10.693  66.038  1.00  0.00    -0.168 OA 
HETATM   31  C   UNL     1     -10.071  10.697  65.054  1.00  0.00    -0.321 C  
ENDBRANCH  12  30
TORSDOF 7
ENDMDL
MODEL       67
REMARK 921   NORMALIZED FREE ENERGY PREDICTED BY IDOCK:   -5.12 KCAL/MOL
REMARK 922        TOTAL FREE ENERGY PREDICTED BY IDOCK:   -7.90 KCAL/MOL
REMARK 923 INTER-LIGAND FREE ENERGY PREDICTED BY IDOCK:   -7.15 KCAL/MOL
REMARK 924 INTRA-LIGAND FREE ENERGY PREDICTED BY IDOCK:   -0.75 KCAL/MOL
REMARK 927      BINDING AFFINITY PREDICTED BY RF-SCORE:    0.00 PKD
ROOT
HETATM    1  C   UNL     1      -9.835   8.858  68.561  1.00  0.00    -0.167 C  
HETATM    2  S   UNL     1     -10.692  10.172  67.668  1.00  0.00    -0.290 SA 
HETATM    3  C   UNL     1      -9.179  10.809  66.926  1.00  0.00    -0.156 C  
HETATM    4  C   UNL     1      -8.014  10.995  67.883  1.00  0.00    -0.112 C  
HETATM    5  C   UNL     1      -7.886  10.344  69.077  1.00  0.00    -0.120 C  
HETATM    6  O   UNL     1      -8.469   8.378  71.480  1.00  0.00    -0.128 OA 
HETATM    7  O   UNL     1      -6.563   9.958  71.114  1.00  0.00    -0.304 OA 
HETATM    8  C   UNL     1      -6.749  10.715  70.019  1.00  0.00    -0.156 C  
HETATM    9  N   UNL     1      -8.839   9.435  69.452  1.00  0.00    -0.149 N  
HETATM   10  C   UNL     1      -9.133   8.639  70.504  1.00  0.00    -0.165 C  
HETATM   11  O   UNL     1      -5.980  11.643  69.809  1.00  0.00    -0.093 OA 
HETATM   12  C   UNL     1     -10.578   8.306  69.861  1.00  0.00    -0.232 C  
ENDROOT
BRANCH   4  13
HETATM   13  C   UNL     1      -7.041  12.061  67.372  1.00  0.00    -0.136 C  
BRANCH  13  14
HETATM   14  O   UNL     1      -7.679  13.356  67.348  1.00  0.00    -0.161 OA 
BRANCH  14  15
HETATM   15  C   UNL     1      -7.152  14.298  68.161  1.00  0.00    -0.126 C  
HETATM   16  O   UNL     1      -6.252  15.077  67.897  1.00  0.00    -0.136 OA 
HETATM   17  N   UNL     1      -7.751  14.243  69.371  1.00  0.00    -0.349 N  
HETATM   18  H2  UNL     1      -8.490  13.589  69.631  1.00  0.00     0.000 HD 
HETATM   19  H1  UNL     1      -7.354  14.954  69.985  1.00  0.00     0.000 HD 
ENDBRANCH  14  15
ENDBRANCH  13  14
ENDBRANCH   4  13
BRANCH  12  20
HETATM   20  N   UNL     1     -11.740   9.149  70.296  1.00  0.00    -0.466 N  
HETATM   21  O   UNL     1     -11.537   8.774  72.546  1.00  0.00    -0.317 OA 
HETATM   22  C   UNL     1     -12.097   9.339  71.611  1.00  0.00    -0.379 C  
HETATM   23  H   UNL     1     -12.298   9.607  69.575  1.00  0.00     0.000 HD 
BRANCH  22  24
HETATM   24  C   UNL     1     -13.275  10.270  71.817  1.00  0.00    -0.534 C  
BRANCH  24  25
HETATM   25  C   UNL     1     -12.959  11.657  71.353  1.00  0.00    -0.324 A  
HETATM   26  C   UNL     1     -12.145  12.044  70.305  1.00  0.00    -0.395 A  
HETATM   27  C   UNL     1     -11.978  13.458  70.243  1.00  0.00    -0.378 A  
HETATM   28  C   UNL     1     -12.696  14.106  71.222  1.00  0.00    -0.361 A  
HETATM   29  S   UNL     1     -13.575  13.014  72.201  1.00  0.00    -0.438 SA 
ENDBRANCH  24  25
ENDBRANCH  22  24
ENDBRANCH  12  20
BRANCH  12  30
HETATM   30  O   UNL     1     -10.900   6.890  69.805  1.00  0.00    -0.234 OA 
HETATM   31  C   UNL     1     -11.028   6.340  68.497  1.00  0.00    -0.340 C  
ENDBRANCH  12  30
TORSDOF 7
ENDMDL
MODEL       68
REMARK 921   NORMALIZED FREE ENERGY PREDICTED BY IDOCK:   -5.08 KCAL/MOL
REMARK 922        TOTAL FREE ENERGY PREDICTED BY IDOCK:   -7.83 KCAL/MOL
REMARK 923 INTER-LIGAND FREE ENERGY PREDICTED BY IDOCK:   -6.95 KCAL/MOL
REMARK 924 INTRA-LIGAND FREE ENERGY PREDICTED BY IDOCK:   -0.88 KCAL/MOL
REMARK 927      BINDING AFFINITY PREDICTED BY RF-SCORE:    0.00 PKD
ROOT
HETATM    1  C   UNL     1      -9.892  14.627  68.789  1.00  0.00    -0.227 C  
HETATM    2  S   UNL     1      -8.140  14.375  69.146  1.00  0.00     0.095 SA 
HETATM    3  C   UNL     1      -7.776  16.140  69.167  1.00  0.00    -0.230 C  
HETATM    4  C   UNL     1      -8.344  16.935  68.004  1.00  0.00    -0.204 C  
HETATM    5  C   UNL     1      -9.406  16.536  67.242  1.00  0.00    -0.222 C  
HETATM    6  O   UNL     1     -11.850  14.832  66.193  1.00  0.00    -0.311 OA 
HETATM    7  O   UNL     1     -10.933  17.012  65.374  1.00  0.00    -0.334 OA 
HETATM    8  C   UNL     1      -9.798  17.345  66.014  1.00  0.00    -0.183 C  
HETATM    9  N   UNL     1     -10.041  15.360  67.541  1.00  0.00    -0.232 N  
HETATM   10  C   UNL     1     -11.043  14.590  67.060  1.00  0.00    -0.322 C  
HETATM   11  O   UNL     1      -9.151  18.299  65.605  1.00  0.00    -0.277 OA 
HETATM   12  C   UNL     1     -10.635  13.406  68.080  1.00  0.00    -0.245 C  
ENDROOT
BRANCH   4  13
HETATM   13  C   UNL     1      -7.526  18.204  67.747  1.00  0.00    -0.213 C  
BRANCH  13  14
HETATM   14  O   UNL     1      -7.918  19.249  68.662  1.00  0.00    -0.348 OA 
BRANCH  14  15
HETATM   15  C   UNL     1      -9.066  19.901  68.371  1.00  0.00    -0.208 C  
HETATM   16  O   UNL     1     -10.144  19.776  68.927  1.00  0.00    -0.455 OA 
HETATM   17  N   UNL     1      -8.869  20.721  67.316  1.00  0.00    -0.514 N  
HETATM   18  H2  UNL     1      -7.988  20.832  66.814  1.00  0.00     0.000 HD 
HETATM   19  H1  UNL     1      -9.735  21.213  67.096  1.00  0.00     0.000 HD 
ENDBRANCH  14  15
ENDBRANCH  13  14
ENDBRANCH   4  13
BRANCH  12  20
HETATM   20  N   UNL     1      -9.704  12.344  67.572  1.00  0.00    -0.189 N  
HETATM   21  O   UNL     1     -11.098  11.487  65.970  1.00  0.00    -0.291 OA 
HETATM   22  C   UNL     1     -10.006  11.497  66.530  1.00  0.00    -0.210 C  
HETATM   23  H   UNL     1      -8.796  12.245  68.026  1.00  0.00     0.000 HD 
BRANCH  22  24
HETATM   24  C   UNL     1      -8.895  10.537  66.156  1.00  0.00    -0.172 C  
BRANCH  24  25
HETATM   25  C   UNL     1      -9.348   9.115  66.262  1.00  0.00    -0.216 A  
HETATM   26  C   UNL     1     -10.390   8.602  67.012  1.00  0.00    -0.368 A  
HETATM   27  C   UNL     1     -10.443   7.179  66.964  1.00  0.00    -0.392 A  
HETATM   28  C   UNL     1      -9.463   6.654  66.152  1.00  0.00    -0.009 A  
HETATM   29  S   UNL     1      -8.495   7.872  65.445  1.00  0.00    -0.081 SA 
ENDBRANCH  24  25
ENDBRANCH  22  24
ENDBRANCH  12  20
BRANCH  12  30
HETATM   30  O   UNL     1     -11.745  12.860  68.845  1.00  0.00    -0.289 OA 
HETATM   31  C   UNL     1     -12.226  13.685  69.901  1.00  0.00    -0.304 C  
ENDBRANCH  12  30
TORSDOF 7
ENDMDL
MODEL       69
REMARK 921   NORMALIZED FREE ENERGY PREDICTED BY IDOCK:   -5.06 KCAL/MOL
REMARK 922        TOTAL FREE ENERGY PREDICTED BY IDOCK:   -7.80 KCAL/MOL
REMARK 923 INTER-LIGAND FREE ENERGY PREDICTED BY IDOCK:   -7.25 KCAL/MOL
REMARK 924 INTRA-LIGAND FREE ENERGY PREDICTED BY IDOCK:   -0.55 KCAL/MOL
REMARK 927      BINDING AFFINITY PREDICTED BY RF-SCORE:    0.00 PKD
ROOT
HETATM    1  C   UNL     1     -10.682  11.312  67.051  1.00  0.00    -0.260 C  
HETATM    2  S   UNL     1      -9.868  10.038  68.037  1.00  0.00    -0.145 SA 
HETATM    3  C   UNL     1     -11.241   9.900  69.195  1.00  0.00    -0.107 C  
HETATM    4  C   UNL     1     -11.788  11.218  69.717  1.00  0.00    -0.437 C  
HETATM    5  C   UNL     1     -11.637  12.419  69.084  1.00  0.00    -0.314 C  
HETATM    6  O   UNL     1     -10.835  14.563  66.908  1.00  0.00    -0.294 OA 
HETATM    7  O   UNL     1     -12.076  14.839  69.063  1.00  0.00    -0.287 OA 
HETATM    8  C   UNL     1     -12.103  13.695  69.770  1.00  0.00    -0.334 C  
HETATM    9  N   UNL     1     -10.978  12.468  67.884  1.00  0.00    -0.218 N  
HETATM   10  C   UNL     1     -10.573  13.385  66.978  1.00  0.00    -0.264 C  
HETATM   11  O   UNL     1     -12.531  13.723  70.916  1.00  0.00    -0.343 OA 
HETATM   12  C   UNL     1      -9.712  12.257  66.206  1.00  0.00    -0.244 C  
ENDROOT
BRANCH   4  13
HETATM   13  C   UNL     1     -12.465  11.038  71.078  1.00  0.00    -0.409 C  
BRANCH  13  14
HETATM   14  O   UNL     1     -13.362   9.907  71.050  1.00  0.00    -0.374 OA 
BRANCH  14  15
HETATM   15  C   UNL     1     -13.179   8.975  72.010  1.00  0.00    -0.429 C  
HETATM   16  O   UNL     1     -12.318   8.113  72.044  1.00  0.00    -0.308 OA 
HETATM   17  N   UNL     1     -14.137   9.100  72.954  1.00  0.00    -0.823 N  
HETATM   18  H2  UNL     1     -14.885   9.793  72.944  1.00  0.00     0.000 HD 
HETATM   19  H1  UNL     1     -14.000   8.395  73.680  1.00  0.00     0.000 HD 
ENDBRANCH  14  15
ENDBRANCH  13  14
ENDBRANCH   4  13
BRANCH  12  20
HETATM   20  N   UNL     1      -8.264  12.119  66.574  1.00  0.00    -0.395 N  
HETATM   21  O   UNL     1      -7.803  10.315  65.240  1.00  0.00    -0.140 OA 
HETATM   22  C   UNL     1      -7.422  11.177  66.027  1.00  0.00     0.036 C  
HETATM   23  H   UNL     1      -7.881  12.760  67.269  1.00  0.00     0.000 HD 
BRANCH  22  24
HETATM   24  C   UNL     1      -5.988  11.255  66.510  1.00  0.00    -0.144 C  
BRANCH  24  25
HETATM   25  C   UNL     1      -5.919  11.263  68.005  1.00  0.00    -0.046 A  
HETATM   26  C   UNL     1      -6.212  10.235  68.881  1.00  0.00    -0.047 A  
HETATM   27  C   UNL     1      -6.156  10.651  70.243  1.00  0.00    -0.123 A  
HETATM   28  C   UNL     1      -5.789  11.972  70.364  1.00  0.00    -0.157 A  
HETATM   29  S   UNL     1      -5.502  12.699  68.844  1.00  0.00    -0.064 SA 
ENDBRANCH  24  25
ENDBRANCH  22  24
ENDBRANCH  12  20
BRANCH  12  30
HETATM   30  O   UNL     1      -9.935  12.207  64.770  1.00  0.00    -0.255 OA 
HETATM   31  C   UNL     1     -10.877  11.234  64.329  1.00  0.00    -0.328 C  
ENDBRANCH  12  30
TORSDOF 7
ENDMDL
MODEL       70
REMARK 921   NORMALIZED FREE ENERGY PREDICTED BY IDOCK:   -5.05 KCAL/MOL
REMARK 922        TOTAL FREE ENERGY PREDICTED BY IDOCK:   -7.80 KCAL/MOL
REMARK 923 INTER-LIGAND FREE ENERGY PREDICTED BY IDOCK:   -6.85 KCAL/MOL
REMARK 924 INTRA-LIGAND FREE ENERGY PREDICTED BY IDOCK:   -0.95 KCAL/MOL
REMARK 927      BINDING AFFINITY PREDICTED BY RF-SCORE:    0.00 PKD
ROOT
HETATM    1  C   UNL     1      -8.575   9.255  69.392  1.00  0.00    -0.142 C  
HETATM    2  S   UNL     1      -8.327   8.942  71.152  1.00  0.00    -0.165 SA 
HETATM    3  C   UNL     1      -7.614   7.310  70.875  1.00  0.00    -0.084 C  
HETATM    4  C   UNL     1      -8.380   6.421  69.911  1.00  0.00    -0.130 C  
HETATM    5  C   UNL     1      -9.247   6.881  68.961  1.00  0.00    -0.137 C  
HETATM    6  O   UNL     1     -10.905   8.866  67.147  1.00  0.00    -0.209 OA 
HETATM    7  O   UNL     1     -10.797   6.366  67.122  1.00  0.00    -0.311 OA 
HETATM    8  C   UNL     1     -10.065   5.890  68.145  1.00  0.00    -0.166 C  
HETATM    9  N   UNL     1      -9.439   8.230  68.824  1.00  0.00    -0.147 N  
HETATM   10  C   UNL     1     -10.193   9.086  68.099  1.00  0.00    -0.204 C  
HETATM   11  O   UNL     1     -10.062   4.685  68.355  1.00  0.00    -0.104 OA 
HETATM   12  C   UNL     1      -9.713  10.315  69.032  1.00  0.00    -0.205 C  
ENDROOT
BRANCH   4  13
HETATM   13  C   UNL     1      -8.111   4.940  70.189  1.00  0.00    -0.073 C  
BRANCH  13  14
HETATM   14  O   UNL     1      -8.315   4.645  71.588  1.00  0.00    -0.101 OA 
BRANCH  14  15
HETATM   15  C   UNL     1      -9.479   4.038  71.909  1.00  0.00    -0.138 C  
HETATM   16  O   UNL     1     -10.142   4.207  72.918  1.00  0.00    -0.146 OA 
HETATM   17  N   UNL     1      -9.814   3.155  70.943  1.00  0.00    -0.089 N  
HETATM   18  H2  UNL     1      -9.270   2.973  70.099  1.00  0.00     0.000 HD 
HETATM   19  H1  UNL     1     -10.693   2.697  71.185  1.00  0.00     0.000 HD 
ENDBRANCH  14  15
ENDBRANCH  13  14
ENDBRANCH   4  13
BRANCH  12  20
HETATM   20  N   UNL     1     -10.586  10.683  70.195  1.00  0.00    -0.458 N  
HETATM   21  O   UNL     1     -12.446  11.250  68.987  1.00  0.00    -0.417 OA 
HETATM   22  C   UNL     1     -11.896  11.085  70.071  1.00  0.00    -0.355 C  
HETATM   23  H   UNL     1     -10.184  10.632  71.132  1.00  0.00     0.000 HD 
BRANCH  22  24
HETATM   24  C   UNL     1     -12.599  11.359  71.386  1.00  0.00    -0.439 C  
BRANCH  24  25
HETATM   25  C   UNL     1     -12.849  12.822  71.573  1.00  0.00    -0.270 A  
HETATM   26  C   UNL     1     -13.733  13.435  72.441  1.00  0.00    -0.698 A  
HETATM   27  C   UNL     1     -13.791  14.846  72.249  1.00  0.00    -0.588 A  
HETATM   28  C   UNL     1     -12.926  15.268  71.265  1.00  0.00    -0.441 A  
HETATM   29  S   UNL     1     -12.042  13.971  70.589  1.00  0.00    -0.341 SA 
ENDBRANCH  24  25
ENDBRANCH  22  24
ENDBRANCH  12  20
BRANCH  12  30
HETATM   30  O   UNL     1      -9.234  11.476  68.299  1.00  0.00    -0.174 OA 
HETATM   31  C   UNL     1      -7.966  11.324  67.669  1.00  0.00    -0.118 C  
ENDBRANCH  12  30
TORSDOF 7
ENDMDL
MODEL       71
REMARK 921   NORMALIZED FREE ENERGY PREDICTED BY IDOCK:   -5.02 KCAL/MOL
REMARK 922        TOTAL FREE ENERGY PREDICTED BY IDOCK:   -7.75 KCAL/MOL
REMARK 923 INTER-LIGAND FREE ENERGY PREDICTED BY IDOCK:   -7.28 KCAL/MOL
REMARK 924 INTRA-LIGAND FREE ENERGY PREDICTED BY IDOCK:   -0.47 KCAL/MOL
REMARK 927      BINDING AFFINITY PREDICTED BY RF-SCORE:    0.00 PKD
ROOT
HETATM    1  C   UNL     1     -10.836  10.100  67.859  1.00  0.00    -0.284 C  
HETATM    2  S   UNL     1      -9.920  10.491  66.354  1.00  0.00    -0.225 SA 
HETATM    3  C   UNL     1      -9.620   8.761  65.952  1.00  0.00    -0.184 C  
HETATM    4  C   UNL     1      -9.121   7.903  67.102  1.00  0.00    -0.158 C  
HETATM    5  C   UNL     1      -9.298   8.205  68.423  1.00  0.00    -0.135 C  
HETATM    6  O   UNL     1     -10.250   9.696  71.039  1.00  0.00    -0.288 OA 
HETATM    7  O   UNL     1      -8.944   7.578  70.774  1.00  0.00    -0.147 OA 
HETATM    8  C   UNL     1      -8.631   7.345  69.487  1.00  0.00    -0.134 C  
HETATM    9  N   UNL     1      -9.993   9.334  68.766  1.00  0.00    -0.175 N  
HETATM   10  C   UNL     1     -10.349  10.016  69.877  1.00  0.00    -0.272 C  
HETATM   11  O   UNL     1      -7.855   6.436  69.226  1.00  0.00    -0.102 OA 
HETATM   12  C   UNL     1     -10.866  11.247  68.968  1.00  0.00    -0.222 C  
ENDROOT
BRANCH   4  13
HETATM   13  C   UNL     1      -8.330   6.696  66.591  1.00  0.00    -0.117 C  
BRANCH  13  14
HETATM   14  O   UNL     1      -9.165   5.860  65.762  1.00  0.00    -0.135 OA 
BRANCH  14  15
HETATM   15  C   UNL     1     -10.127   5.156  66.398  1.00  0.00    -0.239 C  
HETATM   16  O   UNL     1     -10.088   4.720  67.536  1.00  0.00    -0.162 OA 
HETATM   17  N   UNL     1     -11.172   4.956  65.565  1.00  0.00    -0.932 N  
HETATM   18  H2  UNL     1     -11.226   5.286  64.601  1.00  0.00     0.000 HD 
HETATM   19  H1  UNL     1     -11.898   4.424  66.045  1.00  0.00     0.000 HD 
ENDBRANCH  14  15
ENDBRANCH  13  14
ENDBRANCH   4  13
BRANCH  12  20
HETATM   20  N   UNL     1      -9.903  12.367  68.706  1.00  0.00    -0.419 N  
HETATM   21  O   UNL     1     -11.302  13.651  67.426  1.00  0.00    -0.291 OA 
HETATM   22  C   UNL     1     -10.220  13.495  67.983  1.00  0.00    -0.243 C  
HETATM   23  H   UNL     1      -8.959  12.287  69.084  1.00  0.00     0.000 HD 
BRANCH  22  24
HETATM   24  C   UNL     1      -9.105  14.517  67.888  1.00  0.00    -0.191 C  
BRANCH  24  25
HETATM   25  C   UNL     1      -9.632  15.859  67.488  1.00  0.00    -0.221 A  
HETATM   26  C   UNL     1      -9.525  16.490  66.263  1.00  0.00    -0.339 A  
HETATM   27  C   UNL     1     -10.039  17.820  66.292  1.00  0.00    -0.345 A  
HETATM   28  C   UNL     1     -10.551  18.147  67.527  1.00  0.00    -0.401 A  
HETATM   29  S   UNL     1     -10.424  16.854  68.638  1.00  0.00    -0.369 SA 
ENDBRANCH  24  25
ENDBRANCH  22  24
ENDBRANCH  12  20
BRANCH  12  30
HETATM   30  O   UNL     1     -12.201  11.720  69.298  1.00  0.00    -0.255 OA 
HETATM   31  C   UNL     1     -12.393  12.126  70.649  1.00  0.00    -0.295 C  
ENDBRANCH  12  30
TORSDOF 7
ENDMDL
MODEL       72
REMARK 921   NORMALIZED FREE ENERGY PREDICTED BY IDOCK:   -5.01 KCAL/MOL
REMARK 922        TOTAL FREE ENERGY PREDICTED BY IDOCK:   -7.74 KCAL/MOL
REMARK 923 INTER-LIGAND FREE ENERGY PREDICTED BY IDOCK:   -6.35 KCAL/MOL
REMARK 924 INTRA-LIGAND FREE ENERGY PREDICTED BY IDOCK:   -1.39 KCAL/MOL
REMARK 927      BINDING AFFINITY PREDICTED BY RF-SCORE:    0.00 PKD
ROOT
HETATM    1  C   UNL     1      -9.947   6.318  69.000  1.00  0.00    -0.146 C  
HETATM    2  S   UNL     1     -11.026   6.819  67.642  1.00  0.00    -0.242 SA 
HETATM    3  C   UNL     1      -9.672   6.923  66.457  1.00  0.00    -0.124 C  
HETATM    4  C   UNL     1      -8.441   7.671  66.940  1.00  0.00    -0.126 C  
HETATM    5  C   UNL     1      -8.123   7.864  68.254  1.00  0.00    -0.123 C  
HETATM    6  O   UNL     1      -8.245   7.707  71.406  1.00  0.00    -0.097 OA 
HETATM    7  O   UNL     1      -6.564   8.801  69.910  1.00  0.00    -0.040 OA 
HETATM    8  C   UNL     1      -6.940   8.750  68.620  1.00  0.00    -0.064 C  
HETATM    9  N   UNL     1      -8.932   7.336  69.226  1.00  0.00    -0.136 N  
HETATM   10  C   UNL     1      -9.030   7.318  70.574  1.00  0.00    -0.154 C  
HETATM   11  O   UNL     1      -6.300   9.388  67.796  1.00  0.00    -0.057 OA 
HETATM   12  C   UNL     1     -10.490   6.634  70.467  1.00  0.00    -0.203 C  
ENDROOT
BRANCH   4  13
HETATM   13  C   UNL     1      -7.644   8.244  65.765  1.00  0.00    -0.082 C  
BRANCH  13  14
HETATM   14  O   UNL     1      -8.517   8.954  64.861  1.00  0.00    -0.163 OA 
BRANCH  14  15
HETATM   15  C   UNL     1      -8.574  10.295  65.013  1.00  0.00    -0.180 C  
HETATM   16  O   UNL     1      -9.561  11.004  64.921  1.00  0.00    -0.221 OA 
HETATM   17  N   UNL     1      -7.336  10.779  65.255  1.00  0.00    -0.359 N  
HETATM   18  H2  UNL     1      -6.487  10.217  65.314  1.00  0.00     0.000 HD 
HETATM   19  H1  UNL     1      -7.378  11.792  65.369  1.00  0.00     0.000 HD 
ENDBRANCH  14  15
ENDBRANCH  13  14
ENDBRANCH   4  13
BRANCH  12  20
HETATM   20  N   UNL     1     -11.684   7.542  70.487  1.00  0.00    -0.459 N  
HETATM   21  O   UNL     1     -11.451   8.270  72.645  1.00  0.00    -0.395 OA 
HETATM   22  C   UNL     1     -12.040   8.313  71.569  1.00  0.00    -0.299 C  
HETATM   23  H   UNL     1     -12.265   7.590  69.650  1.00  0.00     0.000 HD 
BRANCH  22  24
HETATM   24  C   UNL     1     -13.254   9.192  71.347  1.00  0.00    -0.359 C  
BRANCH  24  25
HETATM   25  C   UNL     1     -12.862  10.622  71.151  1.00  0.00    -0.420 A  
HETATM   26  C   UNL     1     -13.171  11.711  71.943  1.00  0.00    -0.475 A  
HETATM   27  C   UNL     1     -12.732  12.940  71.372  1.00  0.00    -0.366 A  
HETATM   28  C   UNL     1     -12.072  12.747  70.179  1.00  0.00    -0.298 A  
HETATM   29  S   UNL     1     -11.974  11.093  69.761  1.00  0.00    -0.370 SA 
ENDBRANCH  24  25
ENDBRANCH  22  24
ENDBRANCH  12  20
BRANCH  12  30
HETATM   30  O   UNL     1     -10.665   5.456  71.302  1.00  0.00    -0.237 OA 
HETATM   31  C   UNL     1      -9.927   4.306  70.904  1.00  0.00    -0.155 C  
ENDBRANCH  12  30
TORSDOF 7
ENDMDL
MODEL       73
REMARK 921   NORMALIZED FREE ENERGY PREDICTED BY IDOCK:   -4.99 KCAL/MOL
REMARK 922        TOTAL FREE ENERGY PREDICTED BY IDOCK:   -7.70 KCAL/MOL
REMARK 923 INTER-LIGAND FREE ENERGY PREDICTED BY IDOCK:   -6.89 KCAL/MOL
REMARK 924 INTRA-LIGAND FREE ENERGY PREDICTED BY IDOCK:   -0.81 KCAL/MOL
REMARK 927      BINDING AFFINITY PREDICTED BY RF-SCORE:    0.00 PKD
ROOT
HETATM    1  C   UNL     1     -11.443  12.401  67.970  1.00  0.00    -0.322 C  
HETATM    2  S   UNL     1      -9.881  11.515  67.783  1.00  0.00    -0.180 SA 
HETATM    3  C   UNL     1     -10.556   9.965  68.406  1.00  0.00    -0.222 C  
HETATM    4  C   UNL     1     -11.370  10.078  69.684  1.00  0.00    -0.253 C  
HETATM    5  C   UNL     1     -11.967  11.227  70.120  1.00  0.00    -0.369 C  
HETATM    6  O   UNL     1     -12.965  14.222  70.202  1.00  0.00    -0.204 OA 
HETATM    7  O   UNL     1     -13.341  12.351  71.821  1.00  0.00    -0.414 OA 
HETATM    8  C   UNL     1     -12.638  11.256  71.486  1.00  0.00    -0.312 C  
HETATM    9  N   UNL     1     -11.869  12.363  69.361  1.00  0.00    -0.312 N  
HETATM   10  C   UNL     1     -12.234  13.663  69.418  1.00  0.00    -0.259 C  
HETATM   11  O   UNL     1     -12.594  10.322  72.274  1.00  0.00    -0.218 OA 
HETATM   12  C   UNL     1     -11.326  13.985  68.121  1.00  0.00    -0.292 C  
ENDROOT
BRANCH   4  13
HETATM   13  C   UNL     1     -11.371   8.757  70.459  1.00  0.00    -0.227 C  
BRANCH  13  14
HETATM   14  O   UNL     1     -10.024   8.265  70.619  1.00  0.00    -0.181 OA 
BRANCH  14  15
HETATM   15  C   UNL     1      -9.443   8.488  71.819  1.00  0.00    -0.258 C  
HETATM   16  O   UNL     1      -8.276   8.768  72.030  1.00  0.00    -0.323 OA 
HETATM   17  N   UNL     1     -10.353   8.320  72.803  1.00  0.00    -0.307 N  
HETATM   18  H2  UNL     1     -11.330   8.063  72.663  1.00  0.00     0.000 HD 
HETATM   19  H1  UNL     1      -9.915   8.488  73.709  1.00  0.00     0.000 HD 
ENDBRANCH  14  15
ENDBRANCH  13  14
ENDBRANCH   4  13
BRANCH  12  20
HETATM   20  N   UNL     1      -9.925  14.467  68.359  1.00  0.00    -0.234 N  
HETATM   21  O   UNL     1      -9.218  14.369  66.183  1.00  0.00    -0.231 OA 
HETATM   22  C   UNL     1      -9.000  14.653  67.357  1.00  0.00    -0.195 C  
HETATM   23  H   UNL     1      -9.643  14.668  69.318  1.00  0.00     0.000 HD 
BRANCH  22  24
HETATM   24  C   UNL     1      -7.664  15.194  67.824  1.00  0.00    -0.164 C  
BRANCH  24  25
HETATM   25  C   UNL     1      -6.923  14.181  68.638  1.00  0.00    -0.107 A  
HETATM   26  C   UNL     1      -6.559  14.252  69.969  1.00  0.00    -0.088 A  
HETATM   27  C   UNL     1      -5.746  13.151  70.369  1.00  0.00    -0.170 A  
HETATM   28  C   UNL     1      -5.545  12.259  69.340  1.00  0.00    -0.078 A  
HETATM   29  S   UNL     1      -6.342  12.742  67.908  1.00  0.00    -0.135 SA 
ENDBRANCH  24  25
ENDBRANCH  22  24
ENDBRANCH  12  20
BRANCH  12  30
HETATM   30  O   UNL     1     -12.009  14.734  67.078  1.00  0.00    -0.350 OA 
HETATM   31  C   UNL     1     -12.373  13.985  65.923  1.00  0.00    -0.486 C  
ENDBRANCH  12  30
TORSDOF 7
ENDMDL
MODEL       74
REMARK 921   NORMALIZED FREE ENERGY PREDICTED BY IDOCK:   -4.95 KCAL/MOL
REMARK 922        TOTAL FREE ENERGY PREDICTED BY IDOCK:   -7.65 KCAL/MOL
REMARK 923 INTER-LIGAND FREE ENERGY PREDICTED BY IDOCK:   -6.85 KCAL/MOL
REMARK 924 INTRA-LIGAND FREE ENERGY PREDICTED BY IDOCK:   -0.80 KCAL/MOL
REMARK 927      BINDING AFFINITY PREDICTED BY RF-SCORE:    0.00 PKD
ROOT
HETATM    1  C   UNL     1      -9.973  10.065  70.082  1.00  0.00    -0.184 C  
HETATM    2  S   UNL     1     -11.621  10.444  70.715  1.00  0.00    -0.337 SA 
HETATM    3  C   UNL     1     -11.736   8.909  71.652  1.00  0.00    -0.341 C  
HETATM    4  C   UNL     1     -11.339   7.653  70.894  1.00  0.00    -0.291 C  
HETATM    5  C   UNL     1     -10.532   7.640  69.792  1.00  0.00    -0.232 C  
HETATM    6  O   UNL     1      -8.625   8.639  67.481  1.00  0.00    -0.132 OA 
HETATM    7  O   UNL     1      -9.405   6.329  68.043  1.00  0.00    -0.117 OA 
HETATM    8  C   UNL     1     -10.317   6.340  69.031  1.00  0.00    -0.206 C  
HETATM    9  N   UNL     1     -10.007   8.819  69.331  1.00  0.00    -0.191 N  
HETATM   10  C   UNL     1      -9.245   9.266  68.308  1.00  0.00    -0.131 C  
HETATM   11  O   UNL     1     -10.907   5.302  69.297  1.00  0.00    -0.151 OA 
HETATM   12  C   UNL     1      -9.571  10.794  68.721  1.00  0.00    -0.189 C  
ENDROOT
BRANCH   4  13
HETATM   13  C   UNL     1     -12.019   6.413  71.481  1.00  0.00    -0.273 C  
BRANCH  13  14
HETATM   14  O   UNL     1     -11.487   6.118  72.790  1.00  0.00    -0.254 OA 
BRANCH  14  15
HETATM   15  C   UNL     1     -10.223   5.643  72.830  1.00  0.00    -0.186 C  
HETATM   16  O   UNL     1      -9.255   6.171  73.349  1.00  0.00    -0.132 OA 
HETATM   17  N   UNL     1     -10.156   4.470  72.162  1.00  0.00    -0.189 N  
HETATM   18  H2  UNL     1     -10.941   4.013  71.698  1.00  0.00     0.000 HD 
HETATM   19  H1  UNL     1      -9.202   4.111  72.193  1.00  0.00     0.000 HD 
ENDBRANCH  14  15
ENDBRANCH  13  14
ENDBRANCH   4  13
BRANCH  12  20
HETATM   20  N   UNL     1     -10.722  11.467  68.033  1.00  0.00    -0.189 N  
HETATM   21  O   UNL     1     -10.115  13.623  68.507  1.00  0.00    -0.231 OA 
HETATM   22  C   UNL     1     -10.873  12.832  67.955  1.00  0.00    -0.220 C  
HETATM   23  H   UNL     1     -11.433  10.878  67.599  1.00  0.00     0.000 HD 
BRANCH  22  24
HETATM   24  C   UNL     1     -12.086  13.289  67.169  1.00  0.00    -0.352 C  
BRANCH  24  25
HETATM   25  C   UNL     1     -11.919  13.018  65.707  1.00  0.00    -0.429 A  
HETATM   26  C   UNL     1     -12.843  12.493  64.823  1.00  0.00    -0.287 A  
HETATM   27  C   UNL     1     -12.284  12.256  63.533  1.00  0.00    -0.669 A  
HETATM   28  C   UNL     1     -10.964  12.639  63.465  1.00  0.00    -0.364 A  
HETATM   29  S   UNL     1     -10.408  13.290  64.944  1.00  0.00    -0.331 SA 
ENDBRANCH  24  25
ENDBRANCH  22  24
ENDBRANCH  12  20
BRANCH  12  30
HETATM   30  O   UNL     1      -8.401  11.651  68.828  1.00  0.00    -0.128 OA 
HETATM   31  C   UNL     1      -7.262  11.060  69.445  1.00  0.00    -0.114 C  
ENDBRANCH  12  30
TORSDOF 7
ENDMDL
MODEL       75
REMARK 921   NORMALIZED FREE ENERGY PREDICTED BY IDOCK:   -4.92 KCAL/MOL
REMARK 922        TOTAL FREE ENERGY PREDICTED BY IDOCK:   -7.61 KCAL/MOL
REMARK 923 INTER-LIGAND FREE ENERGY PREDICTED BY IDOCK:   -6.65 KCAL/MOL
REMARK 924 INTRA-LIGAND FREE ENERGY PREDICTED BY IDOCK:   -0.95 KCAL/MOL
REMARK 927      BINDING AFFINITY PREDICTED BY RF-SCORE:    0.00 PKD
ROOT
HETATM    1  C   UNL     1      -8.523   7.989  67.572  1.00  0.00    -0.127 C  
HETATM    2  S   UNL     1     -10.195   7.874  66.901  1.00  0.00    -0.303 SA 
HETATM    3  C   UNL     1      -9.997   9.330  65.859  1.00  0.00    -0.219 C  
HETATM    4  C   UNL     1      -9.393  10.544  66.544  1.00  0.00    -0.189 C  
HETATM    5  C   UNL     1      -8.627  10.489  67.675  1.00  0.00    -0.118 C  
HETATM    6  O   UNL     1      -7.002   9.331  70.122  1.00  0.00    -0.051 OA 
HETATM    7  O   UNL     1      -7.323  11.697  69.374  1.00  0.00    -0.039 OA 
HETATM    8  C   UNL     1      -8.194  11.781  68.353  1.00  0.00    -0.154 C  
HETATM    9  N   UNL     1      -8.344   9.272  68.235  1.00  0.00    -0.119 N  
HETATM   10  C   UNL     1      -7.706   8.770  69.316  1.00  0.00    -0.095 C  
HETATM   11  O   UNL     1      -8.573  12.887  67.994  1.00  0.00    -0.169 OA 
HETATM   12  C   UNL     1      -8.300   7.302  68.995  1.00  0.00    -0.126 C  
ENDROOT
BRANCH   4  13
HETATM   13  C   UNL     1      -9.814  11.841  65.848  1.00  0.00    -0.238 C  
BRANCH  13  14
HETATM   14  O   UNL     1     -11.230  11.827  65.571  1.00  0.00    -0.309 OA 
BRANCH  14  15
HETATM   15  C   UNL     1     -11.602  12.224  64.334  1.00  0.00    -0.360 C  
HETATM   16  O   UNL     1     -10.874  12.437  63.380  1.00  0.00    -0.451 OA 
HETATM   17  N   UNL     1     -12.942  12.397  64.295  1.00  0.00    -0.740 N  
HETATM   18  H2  UNL     1     -13.576  12.251  65.080  1.00  0.00     0.000 HD 
HETATM   19  H1  UNL     1     -13.223  12.697  63.361  1.00  0.00     0.000 HD 
ENDBRANCH  14  15
ENDBRANCH  13  14
ENDBRANCH   4  13
BRANCH  12  20
HETATM   20  N   UNL     1      -9.574   6.905  69.681  1.00  0.00    -0.147 N  
HETATM   21  O   UNL     1      -8.736   6.816  71.810  1.00  0.00    -0.128 OA 
HETATM   22  C   UNL     1      -9.689   6.732  71.041  1.00  0.00    -0.174 C  
HETATM   23  H   UNL     1     -10.403   6.755  69.105  1.00  0.00     0.000 HD 
BRANCH  22  24
HETATM   24  C   UNL     1     -11.084   6.379  71.517  1.00  0.00    -0.322 C  
BRANCH  24  25
HETATM   25  C   UNL     1     -11.955   7.592  71.591  1.00  0.00    -0.299 A  
HETATM   26  C   UNL     1     -11.573   8.914  71.722  1.00  0.00    -0.422 A  
HETATM   27  C   UNL     1     -12.688   9.787  71.889  1.00  0.00    -0.501 A  
HETATM   28  C   UNL     1     -13.885   9.108  71.845  1.00  0.00    -0.395 A  
HETATM   29  S   UNL     1     -13.662   7.432  71.592  1.00  0.00    -0.309 SA 
ENDBRANCH  24  25
ENDBRANCH  22  24
ENDBRANCH  12  20
BRANCH  12  30
HETATM   30  O   UNL     1      -7.308   6.238  68.993  1.00  0.00    -0.081 OA 
HETATM   31  C   UNL     1      -7.089   5.606  67.736  1.00  0.00    -0.071 C  
ENDBRANCH  12  30
TORSDOF 7
ENDMDL
MODEL       76
REMARK 921   NORMALIZED FREE ENERGY PREDICTED BY IDOCK:   -4.91 KCAL/MOL
REMARK 922        TOTAL FREE ENERGY PREDICTED BY IDOCK:   -7.60 KCAL/MOL
REMARK 923 INTER-LIGAND FREE ENERGY PREDICTED BY IDOCK:   -7.07 KCAL/MOL
REMARK 924 INTRA-LIGAND FREE ENERGY PREDICTED BY IDOCK:   -0.53 KCAL/MOL
REMARK 927      BINDING AFFINITY PREDICTED BY RF-SCORE:    0.00 PKD
ROOT
HETATM    1  C   UNL     1     -11.351  12.065  66.156  1.00  0.00    -0.351 C  
HETATM    2  S   UNL     1      -9.864  11.650  65.222  1.00  0.00    -0.241 SA 
HETATM    3  C   UNL     1      -9.966   9.896  65.621  1.00  0.00    -0.283 C  
HETATM    4  C   UNL     1     -10.218   9.576  67.085  1.00  0.00    -0.305 C  
HETATM    5  C   UNL     1     -10.781  10.444  67.978  1.00  0.00    -0.249 C  
HETATM    6  O   UNL     1     -12.157  13.028  69.163  1.00  0.00    -0.276 OA 
HETATM    7  O   UNL     1     -11.544  10.872  70.276  1.00  0.00    -0.299 OA 
HETATM    8  C   UNL     1     -10.855  10.066  69.451  1.00  0.00    -0.239 C  
HETATM    9  N   UNL     1     -11.182  11.681  67.550  1.00  0.00    -0.273 N  
HETATM   10  C   UNL     1     -11.710  12.816  68.060  1.00  0.00    -0.356 C  
HETATM   11  O   UNL     1     -10.347   9.051  69.909  1.00  0.00    -0.193 OA 
HETATM   12  C   UNL     1     -11.454  13.577  66.658  1.00  0.00    -0.339 C  
ENDROOT
BRANCH   4  13
HETATM   13  C   UNL     1      -9.692   8.185  67.447  1.00  0.00    -0.170 C  
BRANCH  13  14
HETATM   14  O   UNL     1      -8.335   8.270  67.933  1.00  0.00    -0.126 OA 
BRANCH  14  15
HETATM   15  C   UNL     1      -7.593   7.145  67.838  1.00  0.00    -0.111 C  
HETATM   16  O   UNL     1      -6.378   7.068  67.779  1.00  0.00    -0.039 OA 
HETATM   17  N   UNL     1      -8.406   6.067  67.777  1.00  0.00    -0.112 N  
HETATM   18  H2  UNL     1      -9.426   6.098  67.800  1.00  0.00     0.000 HD 
HETATM   19  H1  UNL     1      -7.846   5.217  67.706  1.00  0.00     0.000 HD 
ENDBRANCH  14  15
ENDBRANCH  13  14
ENDBRANCH   4  13
BRANCH  12  20
HETATM   20  N   UNL     1     -10.176  14.349  66.512  1.00  0.00    -0.268 N  
HETATM   21  O   UNL     1     -10.426  15.664  68.370  1.00  0.00    -0.233 OA 
HETATM   22  C   UNL     1      -9.754  15.306  67.408  1.00  0.00    -0.208 C  
HETATM   23  H   UNL     1      -9.586  14.155  65.703  1.00  0.00     0.000 HD 
BRANCH  22  24
HETATM   24  C   UNL     1      -8.408  15.922  67.086  1.00  0.00    -0.231 C  
BRANCH  24  25
HETATM   25  C   UNL     1      -8.345  17.350  67.530  1.00  0.00    -0.206 A  
HETATM   26  C   UNL     1      -8.990  18.444  66.985  1.00  0.00    -0.275 A  
HETATM   27  C   UNL     1      -8.587  19.669  67.594  1.00  0.00    -0.365 A  
HETATM   28  C   UNL     1      -7.674  19.466  68.604  1.00  0.00    -0.359 A  
HETATM   29  S   UNL     1      -7.318  17.809  68.823  1.00  0.00    -0.251 SA 
ENDBRANCH  24  25
ENDBRANCH  22  24
ENDBRANCH  12  20
BRANCH  12  30
HETATM   30  O   UNL     1     -12.607  14.297  66.143  1.00  0.00    -0.436 OA 
HETATM   31  C   UNL     1     -12.521  14.701  64.780  1.00  0.00    -0.273 C  
ENDBRANCH  12  30
TORSDOF 7
ENDMDL
MODEL       77
REMARK 921   NORMALIZED FREE ENERGY PREDICTED BY IDOCK:   -4.88 KCAL/MOL
REMARK 922        TOTAL FREE ENERGY PREDICTED BY IDOCK:   -7.55 KCAL/MOL
REMARK 923 INTER-LIGAND FREE ENERGY PREDICTED BY IDOCK:   -6.53 KCAL/MOL
REMARK 924 INTRA-LIGAND FREE ENERGY PREDICTED BY IDOCK:   -1.02 KCAL/MOL
REMARK 927      BINDING AFFINITY PREDICTED BY RF-SCORE:    0.00 PKD
ROOT
HETATM    1  C   UNL     1     -10.523  13.700  68.783  1.00  0.00    -0.202 C  
HETATM    2  S   UNL     1     -11.680  12.417  68.260  1.00  0.00    -0.329 SA 
HETATM    3  C   UNL     1     -10.717  11.088  69.004  1.00  0.00    -0.219 C  
HETATM    4  C   UNL     1      -9.228  11.120  68.708  1.00  0.00    -0.151 C  
HETATM    5  C   UNL     1      -8.540  12.238  68.330  1.00  0.00    -0.172 C  
HETATM    6  O   UNL     1      -7.904  15.249  67.618  1.00  0.00    -0.133 OA 
HETATM    7  O   UNL     1      -6.392  13.256  67.698  1.00  0.00    -0.147 OA 
HETATM    8  C   UNL     1      -7.078  12.121  67.922  1.00  0.00    -0.101 C  
HETATM    9  N   UNL     1      -9.204  13.432  68.229  1.00  0.00    -0.207 N  
HETATM   10  C   UNL     1      -8.957  14.709  67.863  1.00  0.00    -0.174 C  
HETATM   11  O   UNL     1      -6.494  11.051  67.822  1.00  0.00    -0.061 OA 
HETATM   12  C   UNL     1     -10.538  15.040  67.917  1.00  0.00    -0.259 C  
ENDROOT
BRANCH   4  13
HETATM   13  C   UNL     1      -8.611   9.723  68.817  1.00  0.00    -0.127 C  
BRANCH  13  14
HETATM   14  O   UNL     1      -9.395   8.766  68.072  1.00  0.00    -0.141 OA 
BRANCH  14  15
HETATM   15  C   UNL     1      -9.170   8.713  66.741  1.00  0.00    -0.169 C  
HETATM   16  O   UNL     1      -9.870   9.178  65.858  1.00  0.00    -0.286 OA 
HETATM   17  N   UNL     1      -8.037   8.018  66.498  1.00  0.00    -0.101 N  
HETATM   18  H2  UNL     1      -7.442   7.597  67.211  1.00  0.00     0.000 HD 
HETATM   19  H1  UNL     1      -7.867   7.979  65.492  1.00  0.00     0.000 HD 
ENDBRANCH  14  15
ENDBRANCH  13  14
ENDBRANCH   4  13
BRANCH  12  20
HETATM   20  N   UNL     1     -11.314  14.924  66.638  1.00  0.00    -0.347 N  
HETATM   21  O   UNL     1     -10.148  16.500  65.454  1.00  0.00    -0.570 OA 
HETATM   22  C   UNL     1     -11.025  15.642  65.500  1.00  0.00    -0.300 C  
HETATM   23  H   UNL     1     -12.101  14.276  66.611  1.00  0.00     0.000 HD 
BRANCH  22  24
HETATM   24  C   UNL     1     -11.911  15.327  64.312  1.00  0.00    -0.235 C  
BRANCH  24  25
HETATM   25  C   UNL     1     -11.819  13.882  63.936  1.00  0.00    -0.278 A  
HETATM   26  C   UNL     1     -12.781  13.091  63.335  1.00  0.00    -0.046 A  
HETATM   27  C   UNL     1     -12.383  11.726  63.247  1.00  0.00    -0.412 A  
HETATM   28  C   UNL     1     -11.118  11.524  63.752  1.00  0.00    -0.390 A  
HETATM   29  S   UNL     1     -10.414  12.976  64.316  1.00  0.00    -0.339 SA 
ENDBRANCH  24  25
ENDBRANCH  22  24
ENDBRANCH  12  20
BRANCH  12  30
HETATM   30  O   UNL     1     -10.878  16.234  68.674  1.00  0.00    -0.284 OA 
HETATM   31  C   UNL     1     -11.353  16.006  69.997  1.00  0.00    -0.352 C  
ENDBRANCH  12  30
TORSDOF 7
ENDMDL
MODEL       78
REMARK 921   NORMALIZED FREE ENERGY PREDICTED BY IDOCK:   -4.87 KCAL/MOL
REMARK 922        TOTAL FREE ENERGY PREDICTED BY IDOCK:   -7.54 KCAL/MOL
REMARK 923 INTER-LIGAND FREE ENERGY PREDICTED BY IDOCK:   -6.42 KCAL/MOL
REMARK 924 INTRA-LIGAND FREE ENERGY PREDICTED BY IDOCK:   -1.12 KCAL/MOL
REMARK 927      BINDING AFFINITY PREDICTED BY RF-SCORE:    0.00 PKD
ROOT
HETATM    1  C   UNL     1     -10.679  11.696  65.611  1.00  0.00    -0.278 C  
HETATM    2  S   UNL     1      -9.010  11.043  65.399  1.00  0.00    -0.140 SA 
HETATM    3  C   UNL     1      -9.435   9.429  66.077  1.00  0.00    -0.241 C  
HETATM    4  C   UNL     1     -10.223   9.456  67.376  1.00  0.00    -0.298 C  
HETATM    5  C   UNL     1     -10.971  10.517  67.802  1.00  0.00    -0.313 C  
HETATM    6  O   UNL     1     -12.394  13.336  67.844  1.00  0.00    -0.177 OA 
HETATM    7  O   UNL     1     -12.451  11.476  69.516  1.00  0.00    -0.163 OA 
HETATM    8  C   UNL     1     -11.603  10.486  69.186  1.00  0.00    -0.224 C  
HETATM    9  N   UNL     1     -11.059  11.635  67.015  1.00  0.00    -0.287 N  
HETATM   10  C   UNL     1     -11.610  12.869  67.052  1.00  0.00    -0.362 C  
HETATM   11  O   UNL     1     -11.403   9.589  69.994  1.00  0.00    -0.233 OA 
HETATM   12  C   UNL     1     -10.791  13.284  65.722  1.00  0.00    -0.274 C  
ENDROOT
BRANCH   4  13
HETATM   13  C   UNL     1     -10.012   8.171  68.180  1.00  0.00    -0.186 C  
BRANCH  13  14
HETATM   14  O   UNL     1      -8.674   8.127  68.720  1.00  0.00    -0.136 OA 
BRANCH  14  15
HETATM   15  C   UNL     1      -7.958   7.012  68.457  1.00  0.00    -0.123 C  
HETATM   16  O   UNL     1      -7.140   6.857  67.565  1.00  0.00    -0.079 OA 
HETATM   17  N   UNL     1      -8.302   6.035  69.323  1.00  0.00    -0.114 N  
HETATM   18  H2  UNL     1      -8.997   6.125  70.064  1.00  0.00     0.000 HD 
HETATM   19  H1  UNL     1      -7.761   5.193  69.125  1.00  0.00     0.000 HD 
ENDBRANCH  14  15
ENDBRANCH  13  14
ENDBRANCH   4  13
BRANCH  12  20
HETATM   20  N   UNL     1      -9.471  13.971  65.908  1.00  0.00    -0.514 N  
HETATM   21  O   UNL     1     -10.289  15.933  66.760  1.00  0.00    -0.286 OA 
HETATM   22  C   UNL     1      -9.333  15.229  66.448  1.00  0.00    -0.296 C  
HETATM   23  H   UNL     1      -8.627  13.478  65.616  1.00  0.00     0.000 HD 
BRANCH  22  24
HETATM   24  C   UNL     1      -7.900  15.704  66.586  1.00  0.00    -0.134 C  
BRANCH  24  25
HETATM   25  C   UNL     1      -7.266  15.162  67.828  1.00  0.00    -0.167 A  
HETATM   26  C   UNL     1      -7.541  15.490  69.142  1.00  0.00    -0.204 A  
HETATM   27  C   UNL     1      -6.645  14.865  70.056  1.00  0.00    -0.162 A  
HETATM   28  C   UNL     1      -5.736  14.054  69.414  1.00  0.00    -0.088 A  
HETATM   29  S   UNL     1      -5.975  14.040  67.722  1.00  0.00    -0.051 SA 
ENDBRANCH  24  25
ENDBRANCH  22  24
ENDBRANCH  12  20
BRANCH  12  30
HETATM   30  O   UNL     1     -11.603  13.897  64.682  1.00  0.00    -0.354 OA 
HETATM   31  C   UNL     1     -11.928  13.055  63.581  1.00  0.00    -0.539 C  
ENDBRANCH  12  30
TORSDOF 7
ENDMDL
MODEL       79
REMARK 921   NORMALIZED FREE ENERGY PREDICTED BY IDOCK:   -4.86 KCAL/MOL
REMARK 922        TOTAL FREE ENERGY PREDICTED BY IDOCK:   -7.53 KCAL/MOL
REMARK 923 INTER-LIGAND FREE ENERGY PREDICTED BY IDOCK:   -6.42 KCAL/MOL
REMARK 924 INTRA-LIGAND FREE ENERGY PREDICTED BY IDOCK:   -1.11 KCAL/MOL
REMARK 927      BINDING AFFINITY PREDICTED BY RF-SCORE:    0.00 PKD
ROOT
HETATM    1  C   UNL     1      -7.865   8.003  69.409  1.00  0.00    -0.113 C  
HETATM    2  S   UNL     1      -7.715   9.506  70.398  1.00  0.00    -0.156 SA 
HETATM    3  C   UNL     1      -8.387   8.732  71.880  1.00  0.00    -0.062 C  
HETATM    4  C   UNL     1      -9.657   7.924  71.672  1.00  0.00    -0.206 C  
HETATM    5  C   UNL     1     -10.050   7.400  70.474  1.00  0.00    -0.191 C  
HETATM    6  O   UNL     1     -10.027   6.595  67.420  1.00  0.00    -0.129 OA 
HETATM    7  O   UNL     1     -11.707   6.097  69.206  1.00  0.00    -0.189 OA 
HETATM    8  C   UNL     1     -11.412   6.730  70.355  1.00  0.00    -0.365 C  
HETATM    9  N   UNL     1      -9.255   7.573  69.372  1.00  0.00    -0.149 N  
HETATM   10  C   UNL     1      -9.266   7.291  68.050  1.00  0.00    -0.131 C  
HETATM   11  O   UNL     1     -12.231   6.712  71.263  1.00  0.00    -0.356 OA 
HETATM   12  C   UNL     1      -7.963   8.221  67.831  1.00  0.00    -0.123 C  
ENDROOT
BRANCH   4  13
HETATM   13  C   UNL     1     -10.475   7.836  72.963  1.00  0.00    -0.369 C  
BRANCH  13  14
HETATM   14  O   UNL     1      -9.811   6.987  73.924  1.00  0.00    -0.258 OA 
BRANCH  14  15
HETATM   15  C   UNL     1      -9.872   5.657  73.692  1.00  0.00    -0.172 C  
HETATM   16  O   UNL     1      -8.941   4.910  73.449  1.00  0.00    -0.113 OA 
HETATM   17  N   UNL     1     -11.159   5.247  73.729  1.00  0.00    -0.419 N  
HETATM   18  H2  UNL     1     -11.963   5.850  73.905  1.00  0.00     0.000 HD 
HETATM   19  H1  UNL     1     -11.206   4.243  73.553  1.00  0.00     0.000 HD 
ENDBRANCH  14  15
ENDBRANCH  13  14
ENDBRANCH   4  13
BRANCH  12  20
HETATM   20  N   UNL     1      -8.191   9.649  67.431  1.00  0.00    -0.114 N  
HETATM   21  O   UNL     1      -9.507   9.227  65.605  1.00  0.00    -0.242 OA 
HETATM   22  C   UNL     1      -8.979  10.029  66.368  1.00  0.00    -0.144 C  
HETATM   23  H   UNL     1      -7.736  10.380  67.979  1.00  0.00     0.000 HD 
BRANCH  22  24
HETATM   24  C   UNL     1      -9.105  11.528  66.181  1.00  0.00    -0.217 C  
BRANCH  24  25
HETATM   25  C   UNL     1     -10.359  11.879  65.444  1.00  0.00    -0.267 A  
HETATM   26  C   UNL     1     -10.563  11.931  64.078  1.00  0.00    -0.422 A  
HETATM   27  C   UNL     1     -11.854  12.431  63.742  1.00  0.00    -0.587 A  
HETATM   28  C   UNL     1     -12.606  12.712  64.860  1.00  0.00    -0.450 A  
HETATM   29  S   UNL     1     -11.761  12.361  66.304  1.00  0.00    -0.364 SA 
ENDBRANCH  24  25
ENDBRANCH  22  24
ENDBRANCH  12  20
BRANCH  12  30
HETATM   30  O   UNL     1      -6.893   7.590  67.076  1.00  0.00    -0.066 OA 
HETATM   31  C   UNL     1      -5.722   8.380  66.893  1.00  0.00    -0.041 C  
ENDBRANCH  12  30
TORSDOF 7
ENDMDL
MODEL       80
REMARK 921   NORMALIZED FREE ENERGY PREDICTED BY IDOCK:   -4.85 KCAL/MOL
REMARK 922        TOTAL FREE ENERGY PREDICTED BY IDOCK:   -7.51 KCAL/MOL
REMARK 923 INTER-LIGAND FREE ENERGY PREDICTED BY IDOCK:   -7.47 KCAL/MOL
REMARK 924 INTRA-LIGAND FREE ENERGY PREDICTED BY IDOCK:   -0.04 KCAL/MOL
REMARK 927      BINDING AFFINITY PREDICTED BY RF-SCORE:    0.00 PKD
ROOT
HETATM    1  C   UNL     1     -10.278  11.760  68.239  1.00  0.00    -0.205 C  
HETATM    2  S   UNL     1     -11.302  11.402  69.682  1.00  0.00    -0.256 SA 
HETATM    3  C   UNL     1     -12.278  12.906  69.502  1.00  0.00    -0.119 C  
HETATM    4  C   UNL     1     -11.479  14.176  69.269  1.00  0.00    -0.337 C  
HETATM    5  C   UNL     1     -10.207  14.207  68.770  1.00  0.00    -0.215 C  
HETATM    6  O   UNL     1      -7.458  13.240  67.552  1.00  0.00    -0.149 OA 
HETATM    7  O   UNL     1      -8.264  15.549  68.083  1.00  0.00    -0.140 OA 
HETATM    8  C   UNL     1      -9.452  15.527  68.712  1.00  0.00    -0.210 C  
HETATM    9  N   UNL     1      -9.595  13.032  68.421  1.00  0.00    -0.209 N  
HETATM   10  C   UNL     1      -8.399  12.601  67.962  1.00  0.00    -0.175 C  
HETATM   11  O   UNL     1      -9.889  16.570  69.179  1.00  0.00    -0.257 OA 
HETATM   12  C   UNL     1      -8.840  11.069  68.223  1.00  0.00    -0.144 C  
ENDROOT
BRANCH   4  13
HETATM   13  C   UNL     1     -12.253  15.412  69.734  1.00  0.00    -0.306 C  
BRANCH  13  14
HETATM   14  O   UNL     1     -12.128  15.578  71.162  1.00  0.00    -0.313 OA 
BRANCH  14  15
HETATM   15  C   UNL     1     -13.282  15.657  71.860  1.00  0.00    -0.453 C  
HETATM   16  O   UNL     1     -13.409  15.909  73.046  1.00  0.00    -0.526 OA 
HETATM   17  N   UNL     1     -14.325  15.373  71.049  1.00  0.00    -0.848 N  
HETATM   18  H2  UNL     1     -14.252  15.136  70.059  1.00  0.00     0.000 HD 
HETATM   19  H1  UNL     1     -15.197  15.433  71.575  1.00  0.00     0.000 HD 
ENDBRANCH  14  15
ENDBRANCH  13  14
ENDBRANCH   4  13
BRANCH  12  20
HETATM   20  N   UNL     1      -8.452  10.451  69.534  1.00  0.00    -0.315 N  
HETATM   21  O   UNL     1      -9.013   8.294  69.008  1.00  0.00    -0.146 OA 
HETATM   22  C   UNL     1      -8.539   9.103  69.799  1.00  0.00    -0.142 C  
HETATM   23  H   UNL     1      -8.104  11.065  70.271  1.00  0.00     0.000 HD 
BRANCH  22  24
HETATM   24  C   UNL     1      -8.046   8.697  71.173  1.00  0.00    -0.176 C  
BRANCH  24  25
HETATM   25  C   UNL     1      -9.171   8.215  72.033  1.00  0.00    -0.191 A  
HETATM   26  C   UNL     1      -9.131   7.278  73.049  1.00  0.00    -0.180 A  
HETATM   27  C   UNL     1     -10.427   6.978  73.560  1.00  0.00    -0.413 A  
HETATM   28  C   UNL     1     -11.409   7.719  72.943  1.00  0.00    -0.349 A  
HETATM   29  S   UNL     1     -10.768   8.778  71.765  1.00  0.00    -0.361 SA 
ENDBRANCH  24  25
ENDBRANCH  22  24
ENDBRANCH  12  20
BRANCH  12  30
HETATM   30  O   UNL     1      -8.620  10.178  67.095  1.00  0.00    -0.125 OA 
HETATM   31  C   UNL     1      -9.571  10.279  66.039  1.00  0.00    -0.206 C  
ENDBRANCH  12  30
TORSDOF 7
ENDMDL
MODEL       81
REMARK 921   NORMALIZED FREE ENERGY PREDICTED BY IDOCK:   -4.83 KCAL/MOL
REMARK 922        TOTAL FREE ENERGY PREDICTED BY IDOCK:   -7.48 KCAL/MOL
REMARK 923 INTER-LIGAND FREE ENERGY PREDICTED BY IDOCK:   -5.98 KCAL/MOL
REMARK 924 INTRA-LIGAND FREE ENERGY PREDICTED BY IDOCK:   -1.50 KCAL/MOL
REMARK 927      BINDING AFFINITY PREDICTED BY RF-SCORE:    0.00 PKD
ROOT
HETATM    1  C   UNL     1     -11.362   8.211  71.840  1.00  0.00    -0.296 C  
HETATM    2  S   UNL     1     -12.378   6.872  71.183  1.00  0.00    -0.323 SA 
HETATM    3  C   UNL     1     -11.962   5.746  72.527  1.00  0.00    -0.100 C  
HETATM    4  C   UNL     1     -10.484   5.659  72.869  1.00  0.00    -0.246 C  
HETATM    5  C   UNL     1      -9.566   6.625  72.571  1.00  0.00    -0.153 C  
HETATM    6  O   UNL     1      -8.320   9.340  71.544  1.00  0.00    -0.323 OA 
HETATM    7  O   UNL     1      -7.230   7.389  72.670  1.00  0.00    -0.070 OA 
HETATM    8  C   UNL     1      -8.089   6.368  72.835  1.00  0.00    -0.106 C  
HETATM    9  N   UNL     1      -9.978   7.774  71.948  1.00  0.00    -0.169 N  
HETATM   10  C   UNL     1      -9.446   8.910  71.446  1.00  0.00    -0.274 C  
HETATM   11  O   UNL     1      -7.655   5.291  73.220  1.00  0.00    -0.094 OA 
HETATM   12  C   UNL     1     -10.865   9.289  70.774  1.00  0.00    -0.284 C  
ENDROOT
BRANCH   4  13
HETATM   13  C   UNL     1     -10.144   4.317  73.523  1.00  0.00    -0.146 C  
BRANCH  13  14
HETATM   14  O   UNL     1     -10.416   3.230  72.613  1.00  0.00    -0.159 OA 
BRANCH  14  15
HETATM   15  C   UNL     1      -9.481   2.992  71.667  1.00  0.00    -0.141 C  
HETATM   16  O   UNL     1      -9.608   3.117  70.461  1.00  0.00    -0.168 OA 
HETATM   17  N   UNL     1      -8.347   2.545  72.250  1.00  0.00    -0.055 N  
HETATM   18  H2  UNL     1      -8.216   2.408  73.252  1.00  0.00     0.000 HD 
HETATM   19  H1  UNL     1      -7.641   2.366  71.535  1.00  0.00     0.000 HD 
ENDBRANCH  14  15
ENDBRANCH  13  14
ENDBRANCH   4  13
BRANCH  12  20
HETATM   20  N   UNL     1     -11.088   8.877  69.349  1.00  0.00    -0.436 N  
HETATM   21  O   UNL     1      -9.326  10.024  68.442  1.00  0.00    -0.135 OA 
HETATM   22  C   UNL     1     -10.271   9.254  68.307  1.00  0.00    -0.201 C  
HETATM   23  H   UNL     1     -11.892   8.284  69.140  1.00  0.00     0.000 HD 
BRANCH  22  24
HETATM   24  C   UNL     1     -10.661   8.679  66.960  1.00  0.00    -0.293 C  
BRANCH  24  25
HETATM   25  C   UNL     1     -10.234   7.250  66.836  1.00  0.00    -0.269 A  
HETATM   26  C   UNL     1     -10.994   6.110  67.020  1.00  0.00    -0.414 A  
HETATM   27  C   UNL     1     -10.214   4.920  66.943  1.00  0.00    -0.254 A  
HETATM   28  C   UNL     1      -8.891   5.188  66.669  1.00  0.00    -0.112 A  
HETATM   29  S   UNL     1      -8.599   6.863  66.494  1.00  0.00    -0.135 SA 
ENDBRANCH  24  25
ENDBRANCH  22  24
ENDBRANCH  12  20
BRANCH  12  30
HETATM   30  O   UNL     1     -11.317  10.645  71.045  1.00  0.00    -0.186 OA 
HETATM   31  C   UNL     1     -12.678  10.770  71.442  1.00  0.00    -0.439 C  
ENDBRANCH  12  30
TORSDOF 7
ENDMDL
MODEL       82
REMARK 921   NORMALIZED FREE ENERGY PREDICTED BY IDOCK:   -4.83 KCAL/MOL
REMARK 922        TOTAL FREE ENERGY PREDICTED BY IDOCK:   -7.48 KCAL/MOL
REMARK 923 INTER-LIGAND FREE ENERGY PREDICTED BY IDOCK:   -6.57 KCAL/MOL
REMARK 924 INTRA-LIGAND FREE ENERGY PREDICTED BY IDOCK:   -0.91 KCAL/MOL
REMARK 927      BINDING AFFINITY PREDICTED BY RF-SCORE:    0.00 PKD
ROOT
HETATM    1  C   UNL     1     -10.319  12.915  69.227  1.00  0.00     0.326 C  
HETATM    2  S   UNL     1     -11.884  12.202  68.677  1.00  0.00    -0.254 SA 
HETATM    3  C   UNL     1     -11.494  10.566  69.323  1.00  0.00    -0.256 C  
HETATM    4  C   UNL     1     -10.108  10.045  68.982  1.00  0.00    -0.211 C  
HETATM    5  C   UNL     1      -9.050  10.838  68.638  1.00  0.00    -0.173 C  
HETATM    6  O   UNL     1      -7.319  13.415  68.059  1.00  0.00    -0.098 OA 
HETATM    7  O   UNL     1      -6.683  10.996  67.991  1.00  0.00    -0.062 OA 
HETATM    8  C   UNL     1      -7.747  10.198  68.179  1.00  0.00    -0.088 C  
HETATM    9  N   UNL     1      -9.209  12.198  68.619  1.00  0.00    -0.083 N  
HETATM   10  C   UNL     1      -8.497  13.305  68.310  1.00  0.00    -0.160 C  
HETATM   11  O   UNL     1      -7.616   8.993  68.007  1.00  0.00    -0.091 OA 
HETATM   12  C   UNL     1      -9.831  14.208  68.430  1.00  0.00    -0.231 C  
ENDROOT
BRANCH   4  13
HETATM   13  C   UNL     1     -10.070   8.515  69.000  1.00  0.00    -0.199 C  
BRANCH  13  14
HETATM   14  O   UNL     1     -10.229   8.023  70.348  1.00  0.00    -0.197 OA 
BRANCH  14  15
HETATM   15  C   UNL     1     -11.389   7.387  70.621  1.00  0.00    -0.281 C  
HETATM   16  O   UNL     1     -12.003   7.396  71.674  1.00  0.00    -0.281 OA 
HETATM   17  N   UNL     1     -11.784   6.677  69.542  1.00  0.00    -0.657 N  
HETATM   18  H2  UNL     1     -11.282   6.628  68.655  1.00  0.00     0.000 HD 
HETATM   19  H1  UNL     1     -12.660   6.196  69.747  1.00  0.00     0.000 HD 
ENDBRANCH  14  15
ENDBRANCH  13  14
ENDBRANCH   4  13
BRANCH  12  20
HETATM   20  N   UNL     1     -10.605  14.471  67.173  1.00  0.00    -0.271 N  
HETATM   21  O   UNL     1      -8.948  15.578  66.045  1.00  0.00    -0.324 OA 
HETATM   22  C   UNL     1     -10.080  15.105  66.070  1.00  0.00    -0.302 C  
HETATM   23  H   UNL     1     -11.577  14.163  67.134  1.00  0.00     0.000 HD 
BRANCH  22  24
HETATM   24  C   UNL     1     -11.030  15.218  64.895  1.00  0.00    -0.445 C  
BRANCH  24  25
HETATM   25  C   UNL     1     -11.365  13.871  64.336  1.00  0.00    -0.341 A  
HETATM   26  C   UNL     1     -12.605  13.378  63.976  1.00  0.00    -0.192 A  
HETATM   27  C   UNL     1     -12.555  12.003  63.603  1.00  0.00    -0.605 A  
HETATM   28  C   UNL     1     -11.274  11.501  63.658  1.00  0.00    -0.362 A  
HETATM   29  S   UNL     1     -10.141  12.685  64.143  1.00  0.00    -0.173 SA 
ENDBRANCH  24  25
ENDBRANCH  22  24
ENDBRANCH  12  20
BRANCH  12  30
HETATM   30  O   UNL     1      -9.681  15.395  69.258  1.00  0.00    -0.234 OA 
HETATM   31  C   UNL     1     -10.891  15.937  69.776  1.00  0.00    -0.328 C  
ENDBRANCH  12  30
TORSDOF 7
ENDMDL
MODEL       83
REMARK 921   NORMALIZED FREE ENERGY PREDICTED BY IDOCK:   -4.83 KCAL/MOL
REMARK 922        TOTAL FREE ENERGY PREDICTED BY IDOCK:   -7.48 KCAL/MOL
REMARK 923 INTER-LIGAND FREE ENERGY PREDICTED BY IDOCK:   -6.91 KCAL/MOL
REMARK 924 INTRA-LIGAND FREE ENERGY PREDICTED BY IDOCK:   -0.56 KCAL/MOL
REMARK 927      BINDING AFFINITY PREDICTED BY RF-SCORE:    0.00 PKD
ROOT
HETATM    1  C   UNL     1      -8.772   9.188  69.492  1.00  0.00    -0.140 C  
HETATM    2  S   UNL     1      -8.738   8.770  71.248  1.00  0.00    -0.219 SA 
HETATM    3  C   UNL     1      -8.178   7.084  70.951  1.00  0.00    -0.121 C  
HETATM    4  C   UNL     1      -8.931   6.329  69.869  1.00  0.00    -0.141 C  
HETATM    5  C   UNL     1      -9.644   6.924  68.867  1.00  0.00    -0.139 C  
HETATM    6  O   UNL     1     -10.889   9.160  67.016  1.00  0.00    -0.182 OA 
HETATM    7  O   UNL     1     -11.044   6.667  66.862  1.00  0.00    -0.400 OA 
HETATM    8  C   UNL     1     -10.475   6.068  67.922  1.00  0.00    -0.234 C  
HETATM    9  N   UNL     1      -9.677   8.292  68.788  1.00  0.00    -0.154 N  
HETATM   10  C   UNL     1     -10.259   9.257  68.042  1.00  0.00    -0.209 C  
HETATM   11  O   UNL     1     -10.621   4.862  68.064  1.00  0.00     0.028 OA 
HETATM   12  C   UNL     1      -9.749  10.382  69.084  1.00  0.00    -0.220 C  
ENDROOT
BRANCH   4  13
HETATM   13  C   UNL     1      -8.850   4.816  70.089  1.00  0.00    -0.094 C  
BRANCH  13  14
HETATM   14  O   UNL     1      -7.789   4.247  69.293  1.00  0.00    -0.058 OA 
BRANCH  14  15
HETATM   15  C   UNL     1      -7.883   2.926  69.026  1.00  0.00    -0.046 C  
HETATM   16  O   UNL     1      -7.045   2.223  68.488  1.00  0.00    -0.043 OA 
HETATM   17  N   UNL     1      -9.091   2.467  69.418  1.00  0.00    -0.108 N  
HETATM   18  H2  UNL     1      -9.823   3.032  69.850  1.00  0.00     0.000 HD 
HETATM   19  H1  UNL     1      -9.162   1.469  69.217  1.00  0.00     0.000 HD 
ENDBRANCH  14  15
ENDBRANCH  13  14
ENDBRANCH   4  13
BRANCH  12  20
HETATM   20  N   UNL     1     -10.691  10.792  70.177  1.00  0.00    -0.458 N  
HETATM   21  O   UNL     1     -12.493  11.252  68.840  1.00  0.00    -0.433 OA 
HETATM   22  C   UNL     1     -12.001  11.158  69.960  1.00  0.00    -0.367 C  
HETATM   23  H   UNL     1     -10.342  10.800  71.135  1.00  0.00     0.000 HD 
BRANCH  22  24
HETATM   24  C   UNL     1     -12.780  11.485  71.218  1.00  0.00    -0.469 C  
BRANCH  24  25
HETATM   25  C   UNL     1     -12.974  12.961  71.368  1.00  0.00    -0.270 A  
HETATM   26  C   UNL     1     -13.806  13.630  72.245  1.00  0.00    -0.689 A  
HETATM   27  C   UNL     1     -13.822  15.036  72.011  1.00  0.00    -0.578 A  
HETATM   28  C   UNL     1     -12.977  15.398  70.987  1.00  0.00    -0.492 A  
HETATM   29  S   UNL     1     -12.161  14.050  70.323  1.00  0.00    -0.372 SA 
ENDBRANCH  24  25
ENDBRANCH  22  24
ENDBRANCH  12  20
BRANCH  12  30
HETATM   30  O   UNL     1      -9.077  11.515  68.467  1.00  0.00    -0.175 OA 
HETATM   31  C   UNL     1      -8.188  11.195  67.402  1.00  0.00    -0.132 C  
ENDBRANCH  12  30
TORSDOF 7
ENDMDL
MODEL       84
REMARK 921   NORMALIZED FREE ENERGY PREDICTED BY IDOCK:   -4.83 KCAL/MOL
REMARK 922        TOTAL FREE ENERGY PREDICTED BY IDOCK:   -7.48 KCAL/MOL
REMARK 923 INTER-LIGAND FREE ENERGY PREDICTED BY IDOCK:   -6.44 KCAL/MOL
REMARK 924 INTRA-LIGAND FREE ENERGY PREDICTED BY IDOCK:   -1.04 KCAL/MOL
REMARK 927      BINDING AFFINITY PREDICTED BY RF-SCORE:    0.00 PKD
ROOT
HETATM    1  C   UNL     1      -9.446   9.761  69.881  1.00  0.00    -0.231 C  
HETATM    2  S   UNL     1      -9.556  10.530  68.252  1.00  0.00    -0.163 SA 
HETATM    3  C   UNL     1     -10.174  12.090  68.907  1.00  0.00    -0.058 C  
HETATM    4  C   UNL     1     -11.304  11.971  69.915  1.00  0.00    -0.144 C  
HETATM    5  C   UNL     1     -11.566  10.849  70.650  1.00  0.00    -0.242 C  
HETATM    6  O   UNL     1     -11.295   7.941  71.853  1.00  0.00    -0.253 OA 
HETATM    7  O   UNL     1     -12.961   9.742  72.346  1.00  0.00    -0.363 OA 
HETATM    8  C   UNL     1     -12.811  10.796  71.525  1.00  0.00    -0.462 C  
HETATM    9  N   UNL     1     -10.756   9.753  70.514  1.00  0.00    -0.297 N  
HETATM   10  C   UNL     1     -10.669   8.484  70.972  1.00  0.00    -0.228 C  
HETATM   11  O   UNL     1     -13.658  11.678  71.540  1.00  0.00     0.019 OA 
HETATM   12  C   UNL     1      -9.505   8.166  69.898  1.00  0.00    -0.160 C  
ENDROOT
BRANCH   4  13
HETATM   13  C   UNL     1     -12.157  13.242  69.946  1.00  0.00    -0.308 C  
BRANCH  13  14
HETATM   14  O   UNL     1     -11.612  14.192  70.886  1.00  0.00    -0.200 OA 
BRANCH  14  15
HETATM   15  C   UNL     1     -12.461  15.137  71.344  1.00  0.00    -0.344 C  
HETATM   16  O   UNL     1     -12.172  16.158  71.943  1.00  0.00    -0.472 OA 
HETATM   17  N   UNL     1     -13.735  14.775  71.072  1.00  0.00    -0.555 N  
HETATM   18  H2  UNL     1     -14.012  13.918  70.594  1.00  0.00     0.000 HD 
HETATM   19  H1  UNL     1     -14.376  15.489  71.418  1.00  0.00     0.000 HD 
ENDBRANCH  14  15
ENDBRANCH  13  14
ENDBRANCH   4  13
BRANCH  12  20
HETATM   20  N   UNL     1      -9.918   7.563  68.588  1.00  0.00    -0.167 N  
HETATM   21  O   UNL     1     -10.850   5.651  69.436  1.00  0.00    -0.320 OA 
HETATM   22  C   UNL     1     -10.592   6.368  68.474  1.00  0.00    -0.252 C  
HETATM   23  H   UNL     1      -9.686   8.067  67.732  1.00  0.00     0.000 HD 
BRANCH  22  24
HETATM   24  C   UNL     1     -10.950   5.978  67.055  1.00  0.00    -0.364 C  
BRANCH  24  25
HETATM   25  C   UNL     1      -9.876   5.142  66.434  1.00  0.00    -0.193 A  
HETATM   26  C   UNL     1      -9.640   3.790  66.599  1.00  0.00    -0.197 A  
HETATM   27  C   UNL     1      -8.445   3.365  65.949  1.00  0.00    -0.110 A  
HETATM   28  C   UNL     1      -7.826   4.397  65.281  1.00  0.00    -0.086 A  
HETATM   29  S   UNL     1      -8.690   5.865  65.428  1.00  0.00    -0.052 SA 
ENDBRANCH  24  25
ENDBRANCH  22  24
ENDBRANCH  12  20
BRANCH  12  30
HETATM   30  O   UNL     1      -8.323   7.533  70.461  1.00  0.00    -0.127 OA 
HETATM   31  C   UNL     1      -7.946   7.981  71.758  1.00  0.00    -0.112 C  
ENDBRANCH  12  30
TORSDOF 7
ENDMDL
MODEL       85
REMARK 921   NORMALIZED FREE ENERGY PREDICTED BY IDOCK:   -4.82 KCAL/MOL
REMARK 922        TOTAL FREE ENERGY PREDICTED BY IDOCK:   -7.47 KCAL/MOL
REMARK 923 INTER-LIGAND FREE ENERGY PREDICTED BY IDOCK:   -6.24 KCAL/MOL
REMARK 924 INTRA-LIGAND FREE ENERGY PREDICTED BY IDOCK:   -1.24 KCAL/MOL
REMARK 927      BINDING AFFINITY PREDICTED BY RF-SCORE:    0.00 PKD
ROOT
HETATM    1  C   UNL     1      -9.214   9.073  71.567  1.00  0.00    -0.190 C  
HETATM    2  S   UNL     1      -8.088   8.603  70.237  1.00  0.00    -0.119 SA 
HETATM    3  C   UNL     1      -8.270  10.175  69.375  1.00  0.00    -0.166 C  
HETATM    4  C   UNL     1      -9.698  10.662  69.204  1.00  0.00    -0.205 C  
HETATM    5  C   UNL     1     -10.747  10.265  69.985  1.00  0.00    -0.292 C  
HETATM    6  O   UNL     1     -12.385   8.841  72.279  1.00  0.00    -0.373 OA 
HETATM    7  O   UNL     1     -13.147  10.425  70.499  1.00  0.00    -0.328 OA 
HETATM    8  C   UNL     1     -12.159  10.709  69.631  1.00  0.00    -0.240 C  
HETATM    9  N   UNL     1     -10.523   9.393  71.017  1.00  0.00    -0.307 N  
HETATM   10  C   UNL     1     -11.224   8.727  71.962  1.00  0.00    -0.373 C  
HETATM   11  O   UNL     1     -12.430  11.338  68.617  1.00  0.00    -0.442 OA 
HETATM   12  C   UNL     1      -9.912   7.865  72.342  1.00  0.00    -0.229 C  
ENDROOT
BRANCH   4  13
HETATM   13  C   UNL     1      -9.825  11.597  67.998  1.00  0.00    -0.190 C  
BRANCH  13  14
HETATM   14  O   UNL     1      -9.284  12.898  68.311  1.00  0.00    -0.204 OA 
BRANCH  14  15
HETATM   15  C   UNL     1     -10.102  13.953  68.101  1.00  0.00    -0.250 C  
HETATM   16  O   UNL     1     -10.017  15.061  68.603  1.00  0.00    -0.207 OA 
HETATM   17  N   UNL     1     -11.092  13.600  67.252  1.00  0.00    -0.287 N  
HETATM   18  H2  UNL     1     -11.206  12.677  66.833  1.00  0.00     0.000 HD 
HETATM   19  H1  UNL     1     -11.710  14.397  67.094  1.00  0.00     0.000 HD 
ENDBRANCH  14  15
ENDBRANCH  13  14
ENDBRANCH   4  13
BRANCH  12  20
HETATM   20  N   UNL     1      -9.737   6.535  71.670  1.00  0.00    -0.164 N  
HETATM   21  O   UNL     1     -11.548   5.500  72.616  1.00  0.00    -0.300 OA 
HETATM   22  C   UNL     1     -10.598   5.475  71.839  1.00  0.00    -0.234 C  
HETATM   23  H   UNL     1      -8.935   6.410  71.053  1.00  0.00     0.000 HD 
BRANCH  22  24
HETATM   24  C   UNL     1     -10.252   4.246  71.023  1.00  0.00    -0.070 C  
BRANCH  24  25
HETATM   25  C   UNL     1      -9.474   4.609  69.798  1.00  0.00    -0.168 A  
HETATM   26  C   UNL     1      -8.128   4.414  69.550  1.00  0.00    -0.061 A  
HETATM   27  C   UNL     1      -7.711   5.007  68.323  1.00  0.00    -0.083 A  
HETATM   28  C   UNL     1      -8.758   5.604  67.658  1.00  0.00    -0.107 A  
HETATM   29  S   UNL     1     -10.233   5.438  68.504  1.00  0.00    -0.146 SA 
ENDBRANCH  24  25
ENDBRANCH  22  24
ENDBRANCH  12  20
BRANCH  12  30
HETATM   30  O   UNL     1      -9.612   7.820  73.765  1.00  0.00    -0.288 OA 
HETATM   31  C   UNL     1      -8.234   7.691  74.098  1.00  0.00    -0.211 C  
ENDBRANCH  12  30
TORSDOF 7
ENDMDL
MODEL       86
REMARK 921   NORMALIZED FREE ENERGY PREDICTED BY IDOCK:   -4.80 KCAL/MOL
REMARK 922        TOTAL FREE ENERGY PREDICTED BY IDOCK:   -7.45 KCAL/MOL
REMARK 923 INTER-LIGAND FREE ENERGY PREDICTED BY IDOCK:   -6.97 KCAL/MOL
REMARK 924 INTRA-LIGAND FREE ENERGY PREDICTED BY IDOCK:   -0.48 KCAL/MOL
REMARK 927      BINDING AFFINITY PREDICTED BY RF-SCORE:    0.00 PKD
ROOT
HETATM    1  C   UNL     1      -9.701   7.255  70.732  1.00  0.00    -0.171 C  
HETATM    2  S   UNL     1     -11.207   6.731  69.885  1.00  0.00    -0.320 SA 
HETATM    3  C   UNL     1     -10.379   5.400  68.998  1.00  0.00    -0.212 C  
HETATM    4  C   UNL     1      -9.067   5.779  68.332  1.00  0.00    -0.118 C  
HETATM    5  C   UNL     1      -8.295   6.844  68.700  1.00  0.00    -0.121 C  
HETATM    6  O   UNL     1      -7.261   9.368  70.292  1.00  0.00    -0.074 OA 
HETATM    7  O   UNL     1      -6.255   8.169  68.340  1.00  0.00    -0.047 OA 
HETATM    8  C   UNL     1      -7.073   7.212  67.870  1.00  0.00    -0.085 C  
HETATM    9  N   UNL     1      -8.688   7.625  69.755  1.00  0.00    -0.139 N  
HETATM   10  C   UNL     1      -8.289   8.743  70.402  1.00  0.00    -0.140 C  
HETATM   11  O   UNL     1      -6.786   6.657  66.818  1.00  0.00    -0.061 OA 
HETATM   12  C   UNL     1      -9.677   8.771  71.228  1.00  0.00    -0.265 C  
ENDROOT
BRANCH   4  13
HETATM   13  C   UNL     1      -8.760   4.859  67.147  1.00  0.00    -0.103 C  
BRANCH  13  14
HETATM   14  O   UNL     1      -9.570   5.217  66.007  1.00  0.00    -0.155 OA 
BRANCH  14  15
HETATM   15  C   UNL     1     -10.128   4.193  65.324  1.00  0.00    -0.202 C  
HETATM   16  O   UNL     1      -9.598   3.140  65.014  1.00  0.00    -0.153 OA 
HETATM   17  N   UNL     1     -11.396   4.512  64.981  1.00  0.00    -0.920 N  
HETATM   18  H2  UNL     1     -11.861   5.392  65.204  1.00  0.00     0.000 HD 
HETATM   19  H1  UNL     1     -11.817   3.739  64.466  1.00  0.00     0.000 HD 
ENDBRANCH  14  15
ENDBRANCH  13  14
ENDBRANCH   4  13
BRANCH  12  20
HETATM   20  N   UNL     1     -10.795   9.605  70.674  1.00  0.00    -0.295 N  
HETATM   21  O   UNL     1     -12.206   9.415  72.468  1.00  0.00    -0.160 OA 
HETATM   22  C   UNL     1     -11.953   9.885  71.363  1.00  0.00    -0.404 C  
HETATM   23  H   UNL     1     -10.691   9.985  69.733  1.00  0.00     0.000 HD 
BRANCH  22  24
HETATM   24  C   UNL     1     -12.923  10.788  70.627  1.00  0.00    -0.313 C  
BRANCH  24  25
HETATM   25  C   UNL     1     -12.834  12.197  71.120  1.00  0.00    -0.217 A  
HETATM   26  C   UNL     1     -13.326  12.723  72.300  1.00  0.00    -0.563 A  
HETATM   27  C   UNL     1     -13.166  14.138  72.371  1.00  0.00    -0.566 A  
HETATM   28  C   UNL     1     -12.527  14.641  71.260  1.00  0.00    -0.339 A  
HETATM   29  S   UNL     1     -12.114  13.411  70.147  1.00  0.00    -0.303 SA 
ENDBRANCH  24  25
ENDBRANCH  22  24
ENDBRANCH  12  20
BRANCH  12  30
HETATM   30  O   UNL     1      -9.520   8.925  72.665  1.00  0.00    -0.236 OA 
HETATM   31  C   UNL     1      -9.244   7.727  73.384  1.00  0.00    -0.284 C  
ENDBRANCH  12  30
TORSDOF 7
ENDMDL
MODEL       87
REMARK 921   NORMALIZED FREE ENERGY PREDICTED BY IDOCK:   -4.79 KCAL/MOL
REMARK 922        TOTAL FREE ENERGY PREDICTED BY IDOCK:   -7.42 KCAL/MOL
REMARK 923 INTER-LIGAND FREE ENERGY PREDICTED BY IDOCK:   -6.42 KCAL/MOL
REMARK 924 INTRA-LIGAND FREE ENERGY PREDICTED BY IDOCK:   -1.00 KCAL/MOL
REMARK 927      BINDING AFFINITY PREDICTED BY RF-SCORE:    0.00 PKD
ROOT
HETATM    1  C   UNL     1     -10.398  10.883  65.339  1.00  0.00    -0.261 C  
HETATM    2  S   UNL     1      -8.673  10.593  64.894  1.00  0.00    -0.134 SA 
HETATM    3  C   UNL     1      -8.690   8.891  65.484  1.00  0.00    -0.183 C  
HETATM    4  C   UNL     1      -9.303   8.685  66.859  1.00  0.00    -0.216 C  
HETATM    5  C   UNL     1     -10.184   9.547  67.447  1.00  0.00    -0.227 C  
HETATM    6  O   UNL     1     -12.111  12.014  67.869  1.00  0.00    -0.531 OA 
HETATM    7  O   UNL     1     -11.600  10.089  69.384  1.00  0.00    -0.150 OA 
HETATM    8  C   UNL     1     -10.623   9.311  68.885  1.00  0.00    -0.199 C  
HETATM    9  N   UNL     1     -10.584  10.667  66.766  1.00  0.00    -0.250 N  
HETATM   10  C   UNL     1     -11.354  11.760  66.962  1.00  0.00    -0.321 C  
HETATM   11  O   UNL     1     -10.155   8.429  69.593  1.00  0.00    -0.190 OA 
HETATM   12  C   UNL     1     -10.802  12.407  65.588  1.00  0.00    -0.277 C  
ENDROOT
BRANCH   4  13
HETATM   13  C   UNL     1      -8.749   7.425  67.530  1.00  0.00    -0.124 C  
BRANCH  13  14
HETATM   14  O   UNL     1      -9.577   6.284  67.220  1.00  0.00    -0.119 OA 
BRANCH  14  15
HETATM   15  C   UNL     1      -8.979   5.275  66.549  1.00  0.00    -0.120 C  
HETATM   16  O   UNL     1      -8.141   4.501  66.979  1.00  0.00    -0.101 OA 
HETATM   17  N   UNL     1      -9.420   5.252  65.273  1.00  0.00    -0.358 N  
HETATM   18  H2  UNL     1     -10.102   5.899  64.875  1.00  0.00     0.000 HD 
HETATM   19  H1  UNL     1      -8.969   4.490  64.766  1.00  0.00     0.000 HD 
ENDBRANCH  14  15
ENDBRANCH  13  14
ENDBRANCH   4  13
BRANCH  12  20
HETATM   20  N   UNL     1      -9.627  13.335  65.682  1.00  0.00    -0.490 N  
HETATM   21  O   UNL     1     -10.665  14.986  66.882  1.00  0.00    -0.295 OA 
HETATM   22  C   UNL     1      -9.652  14.534  66.357  1.00  0.00    -0.303 C  
HETATM   23  H   UNL     1      -8.760  13.061  65.219  1.00  0.00     0.000 HD 
BRANCH  22  24
HETATM   24  C   UNL     1      -8.335  15.283  66.362  1.00  0.00    -0.003 C  
BRANCH  24  25
HETATM   25  C   UNL     1      -7.573  15.035  67.625  1.00  0.00    -0.178 A  
HETATM   26  C   UNL     1      -7.142  13.827  68.141  1.00  0.00    -0.118 A  
HETATM   27  C   UNL     1      -6.559  13.967  69.434  1.00  0.00    -0.118 A  
HETATM   28  C   UNL     1      -6.533  15.280  69.849  1.00  0.00    -0.162 A  
HETATM   29  S   UNL     1      -7.197  16.334  68.678  1.00  0.00    -0.177 SA 
ENDBRANCH  24  25
ENDBRANCH  22  24
ENDBRANCH  12  20
BRANCH  12  30
HETATM   30  O   UNL     1     -11.838  12.901  64.695  1.00  0.00    -0.336 OA 
HETATM   31  C   UNL     1     -11.958  12.213  63.454  1.00  0.00    -0.481 C  
ENDBRANCH  12  30
TORSDOF 7
ENDMDL
MODEL       88
REMARK 921   NORMALIZED FREE ENERGY PREDICTED BY IDOCK:   -4.76 KCAL/MOL
REMARK 922        TOTAL FREE ENERGY PREDICTED BY IDOCK:   -7.38 KCAL/MOL
REMARK 923 INTER-LIGAND FREE ENERGY PREDICTED BY IDOCK:   -5.84 KCAL/MOL
REMARK 924 INTRA-LIGAND FREE ENERGY PREDICTED BY IDOCK:   -1.54 KCAL/MOL
REMARK 927      BINDING AFFINITY PREDICTED BY RF-SCORE:    0.00 PKD
ROOT
HETATM    1  C   UNL     1      -9.241   5.922  68.266  1.00  0.00    -0.117 C  
HETATM    2  S   UNL     1     -10.854   6.348  67.576  1.00  0.00    -0.367 SA 
HETATM    3  C   UNL     1     -10.158   7.473  66.352  1.00  0.00    -0.012 C  
HETATM    4  C   UNL     1      -9.128   8.455  66.882  1.00  0.00    -0.179 C  
HETATM    5  C   UNL     1      -8.406   8.272  68.028  1.00  0.00    -0.129 C  
HETATM    6  O   UNL     1      -7.260   6.931  70.648  1.00  0.00    -0.066 OA 
HETATM    7  O   UNL     1      -6.699   9.123  69.580  1.00  0.00    -0.046 OA 
HETATM    8  C   UNL     1      -7.505   9.387  68.536  1.00  0.00    -0.080 C  
HETATM    9  N   UNL     1      -8.580   7.123  68.754  1.00  0.00    -0.125 N  
HETATM   10  C   UNL     1      -8.145   6.569  69.908  1.00  0.00    -0.121 C  
HETATM   11  O   UNL     1      -7.456  10.497  68.022  1.00  0.00    -0.088 OA 
HETATM   12  C   UNL     1      -9.250   5.399  69.773  1.00  0.00    -0.132 C  
ENDROOT
BRANCH   4  13
HETATM   13  C   UNL     1      -9.055   9.709  66.008  1.00  0.00    -0.171 C  
BRANCH  13  14
HETATM   14  O   UNL     1     -10.346  10.352  65.941  1.00  0.00    -0.245 OA 
BRANCH  14  15
HETATM   15  C   UNL     1     -10.716  11.068  67.026  1.00  0.00    -0.270 C  
HETATM   16  O   UNL     1     -11.662  10.849  67.764  1.00  0.00    -0.569 OA 
HETATM   17  N   UNL     1      -9.888  12.125  67.178  1.00  0.00    -0.196 N  
HETATM   18  H2  UNL     1      -9.103  12.349  66.567  1.00  0.00     0.000 HD 
HETATM   19  H1  UNL     1     -10.167  12.665  67.998  1.00  0.00     0.000 HD 
ENDBRANCH  14  15
ENDBRANCH  13  14
ENDBRANCH   4  13
BRANCH  12  20
HETATM   20  N   UNL     1     -10.561   5.600  70.475  1.00  0.00    -0.278 N  
HETATM   21  O   UNL     1      -9.735   5.659  72.610  1.00  0.00    -0.154 OA 
HETATM   22  C   UNL     1     -10.684   5.750  71.837  1.00  0.00    -0.242 C  
HETATM   23  H   UNL     1     -11.410   5.627  69.909  1.00  0.00     0.000 HD 
BRANCH  22  24
HETATM   24  C   UNL     1     -12.100   5.991  72.320  1.00  0.00    -0.196 C  
BRANCH  24  25
HETATM   25  C   UNL     1     -12.532   7.399  72.056  1.00  0.00    -0.247 A  
HETATM   26  C   UNL     1     -11.779   8.555  72.141  1.00  0.00    -0.448 A  
HETATM   27  C   UNL     1     -12.564   9.728  71.943  1.00  0.00    -0.479 A  
HETATM   28  C   UNL     1     -13.881   9.429  71.680  1.00  0.00    -0.259 A  
HETATM   29  S   UNL     1     -14.164   7.743  71.660  1.00  0.00    -0.443 SA 
ENDBRANCH  24  25
ENDBRANCH  22  24
ENDBRANCH  12  20
BRANCH  12  30
HETATM   30  O   UNL     1      -8.726   4.052  69.938  1.00  0.00    -0.066 OA 
HETATM   31  C   UNL     1      -8.803   3.218  68.787  1.00  0.00    -0.115 C  
ENDBRANCH  12  30
TORSDOF 7
ENDMDL
MODEL       89
REMARK 921   NORMALIZED FREE ENERGY PREDICTED BY IDOCK:   -4.75 KCAL/MOL
REMARK 922        TOTAL FREE ENERGY PREDICTED BY IDOCK:   -7.37 KCAL/MOL
REMARK 923 INTER-LIGAND FREE ENERGY PREDICTED BY IDOCK:   -6.28 KCAL/MOL
REMARK 924 INTRA-LIGAND FREE ENERGY PREDICTED BY IDOCK:   -1.10 KCAL/MOL
REMARK 927      BINDING AFFINITY PREDICTED BY RF-SCORE:    0.00 PKD
ROOT
HETATM    1  C   UNL     1      -9.076  11.458  66.473  1.00  0.00    -0.186 C  
HETATM    2  S   UNL     1     -10.825  11.899  66.409  1.00  0.00    -0.290 SA 
HETATM    3  C   UNL     1     -10.502  13.544  65.750  1.00  0.00    -0.291 C  
HETATM    4  C   UNL     1      -9.410  14.326  66.461  1.00  0.00    -0.292 C  
HETATM    5  C   UNL     1      -8.419  13.759  67.210  1.00  0.00    -0.194 C  
HETATM    6  O   UNL     1      -6.604  11.574  68.592  1.00  0.00    -0.056 OA 
HETATM    7  O   UNL     1      -6.413  14.069  68.599  1.00  0.00    -0.081 OA 
HETATM    8  C   UNL     1      -7.463  14.649  67.992  1.00  0.00    -0.131 C  
HETATM    9  N   UNL     1      -8.361  12.395  67.326  1.00  0.00    -0.177 N  
HETATM   10  C   UNL     1      -7.631  11.455  67.965  1.00  0.00    -0.110 C  
HETATM   11  O   UNL     1      -7.587  15.864  68.065  1.00  0.00    -0.124 OA 
HETATM   12  C   UNL     1      -8.688  10.317  67.520  1.00  0.00    -0.125 C  
ENDROOT
BRANCH   4  13
HETATM   13  C   UNL     1      -9.607  15.834  66.289  1.00  0.00    -0.313 C  
BRANCH  13  14
HETATM   14  O   UNL     1     -10.890  16.238  66.813  1.00  0.00    -0.253 OA 
BRANCH  14  15
HETATM   15  C   UNL     1     -10.988  16.324  68.158  1.00  0.00    -0.343 C  
HETATM   16  O   UNL     1     -11.691  15.647  68.889  1.00  0.00    -0.364 OA 
HETATM   17  N   UNL     1     -10.199  17.324  68.609  1.00  0.00    -0.331 N  
HETATM   18  H2  UNL     1      -9.618  17.923  68.023  1.00  0.00     0.000 HD 
HETATM   19  H1  UNL     1     -10.273  17.389  69.625  1.00  0.00     0.000 HD 
ENDBRANCH  14  15
ENDBRANCH  13  14
ENDBRANCH   4  13
BRANCH  12  20
HETATM   20  N   UNL     1      -9.789   9.981  68.482  1.00  0.00    -0.153 N  
HETATM   21  O   UNL     1      -8.463   9.606  70.312  1.00  0.00    -0.189 OA 
HETATM   22  C   UNL     1      -9.581   9.689  69.811  1.00  0.00    -0.219 C  
HETATM   23  H   UNL     1     -10.747   9.968  68.131  1.00  0.00     0.000 HD 
BRANCH  22  24
HETATM   24  C   UNL     1     -10.845   9.428  70.606  1.00  0.00    -0.346 C  
BRANCH  24  25
HETATM   25  C   UNL     1     -10.884   8.022  71.116  1.00  0.00    -0.238 A  
HETATM   26  C   UNL     1     -10.817   6.846  70.393  1.00  0.00    -0.297 A  
HETATM   27  C   UNL     1     -11.017   5.695  71.209  1.00  0.00    -0.251 A  
HETATM   28  C   UNL     1     -11.195   6.027  72.533  1.00  0.00    -0.290 A  
HETATM   29  S   UNL     1     -11.110   7.715  72.788  1.00  0.00    -0.389 SA 
ENDBRANCH  24  25
ENDBRANCH  22  24
ENDBRANCH  12  20
BRANCH  12  30
HETATM   30  O   UNL     1      -8.087   9.138  66.919  1.00  0.00    -0.110 OA 
HETATM   31  C   UNL     1      -8.892   7.963  66.935  1.00  0.00    -0.133 C  
ENDBRANCH  12  30
TORSDOF 7
ENDMDL
MODEL       90
REMARK 921   NORMALIZED FREE ENERGY PREDICTED BY IDOCK:   -4.74 KCAL/MOL
REMARK 922        TOTAL FREE ENERGY PREDICTED BY IDOCK:   -7.36 KCAL/MOL
REMARK 923 INTER-LIGAND FREE ENERGY PREDICTED BY IDOCK:   -6.30 KCAL/MOL
REMARK 924 INTRA-LIGAND FREE ENERGY PREDICTED BY IDOCK:   -1.06 KCAL/MOL
REMARK 927      BINDING AFFINITY PREDICTED BY RF-SCORE:    0.00 PKD
ROOT
HETATM    1  C   UNL     1     -11.156   9.183  68.889  1.00  0.00     0.127 C  
HETATM    2  S   UNL     1     -10.668   9.744  70.534  1.00  0.00    -0.327 SA 
HETATM    3  C   UNL     1     -11.813  11.135  70.521  1.00  0.00    -0.351 C  
HETATM    4  C   UNL     1     -11.805  11.973  69.254  1.00  0.00    -0.377 C  
HETATM    5  C   UNL     1     -11.364  11.529  68.039  1.00  0.00    -0.298 C  
HETATM    6  O   UNL     1     -10.243   9.614  65.792  1.00  0.00    -0.261 OA 
HETATM    7  O   UNL     1     -10.974  12.004  65.658  1.00  0.00    -0.279 OA 
HETATM    8  C   UNL     1     -11.269  12.501  66.872  1.00  0.00    -0.303 C  
HETATM    9  N   UNL     1     -10.920  10.239  67.917  1.00  0.00    -0.286 N  
HETATM   10  C   UNL     1     -10.379   9.430  66.979  1.00  0.00    -0.252 C  
HETATM   11  O   UNL     1     -11.481  13.701  66.980  1.00  0.00    -0.314 OA 
HETATM   12  C   UNL     1     -10.070   8.314  68.105  1.00  0.00    -0.200 C  
ENDROOT
BRANCH   4  13
HETATM   13  C   UNL     1     -12.284  13.401  69.529  1.00  0.00    -0.205 C  
BRANCH  13  14
HETATM   14  O   UNL     1     -12.411  13.625  70.950  1.00  0.00    -0.351 OA 
BRANCH  14  15
HETATM   15  C   UNL     1     -12.416  14.913  71.355  1.00  0.00    -0.337 C  
HETATM   16  O   UNL     1     -13.386  15.642  71.476  1.00  0.00    -0.494 OA 
HETATM   17  N   UNL     1     -11.150  15.324  71.586  1.00  0.00    -0.510 N  
HETATM   18  H2  UNL     1     -10.316  14.748  71.472  1.00  0.00     0.000 HD 
HETATM   19  H1  UNL     1     -11.154  16.297  71.893  1.00  0.00     0.000 HD 
ENDBRANCH  14  15
ENDBRANCH  13  14
ENDBRANCH   4  13
BRANCH  12  20
HETATM   20  N   UNL     1      -8.711   8.329  68.741  1.00  0.00    -0.136 N  
HETATM   21  O   UNL     1      -7.520   7.734  66.878  1.00  0.00    -0.090 OA 
HETATM   22  C   UNL     1      -7.545   8.072  68.057  1.00  0.00    -0.112 C  
HETATM   23  H   UNL     1      -8.649   8.541  69.737  1.00  0.00     0.000 HD 
BRANCH  22  24
HETATM   24  C   UNL     1      -6.285   8.191  68.892  1.00  0.00    -0.040 C  
BRANCH  24  25
HETATM   25  C   UNL     1      -6.033   9.609  69.295  1.00  0.00    -0.034 A  
HETATM   26  C   UNL     1      -5.868  10.121  70.568  1.00  0.00    -0.091 A  
HETATM   27  C   UNL     1      -5.776  11.543  70.574  1.00  0.00    -0.146 A  
HETATM   28  C   UNL     1      -5.839  12.068  69.303  1.00  0.00    -0.074 A  
HETATM   29  S   UNL     1      -5.996  10.851  68.113  1.00  0.00    -0.049 SA 
ENDBRANCH  24  25
ENDBRANCH  22  24
ENDBRANCH  12  20
BRANCH  12  30
HETATM   30  O   UNL     1     -10.516   6.973  67.763  1.00  0.00    -0.187 OA 
HETATM   31  C   UNL     1     -10.674   6.080  68.860  1.00  0.00    -0.317 C  
ENDBRANCH  12  30
TORSDOF 7
ENDMDL
MODEL       91
REMARK 921   NORMALIZED FREE ENERGY PREDICTED BY IDOCK:   -4.73 KCAL/MOL
REMARK 922        TOTAL FREE ENERGY PREDICTED BY IDOCK:   -7.34 KCAL/MOL
REMARK 923 INTER-LIGAND FREE ENERGY PREDICTED BY IDOCK:   -6.18 KCAL/MOL
REMARK 924 INTRA-LIGAND FREE ENERGY PREDICTED BY IDOCK:   -1.17 KCAL/MOL
REMARK 927      BINDING AFFINITY PREDICTED BY RF-SCORE:    0.00 PKD
ROOT
HETATM    1  C   UNL     1     -11.561   8.199  71.810  1.00  0.00    -0.291 C  
HETATM    2  S   UNL     1     -12.535   6.844  71.124  1.00  0.00    -0.278 SA 
HETATM    3  C   UNL     1     -12.303   5.796  72.572  1.00  0.00     0.169 C  
HETATM    4  C   UNL     1     -10.875   5.699  73.082  1.00  0.00    -0.321 C  
HETATM    5  C   UNL     1      -9.902   6.625  72.832  1.00  0.00    -0.164 C  
HETATM    6  O   UNL     1      -8.474   9.242  71.791  1.00  0.00    -0.283 OA 
HETATM    7  O   UNL     1      -7.571   7.343  73.147  1.00  0.00    -0.086 OA 
HETATM    8  C   UNL     1      -8.472   6.353  73.276  1.00  0.00    -0.121 C  
HETATM    9  N   UNL     1     -10.210   7.740  72.099  1.00  0.00    -0.201 N  
HETATM   10  C   UNL     1      -9.593   8.832  71.593  1.00  0.00    -0.293 C  
HETATM   11  O   UNL     1      -8.114   5.293  73.771  1.00  0.00    -0.108 OA 
HETATM   12  C   UNL     1     -10.918   9.198  70.744  1.00  0.00    -0.270 C  
ENDROOT
BRANCH   4  13
HETATM   13  C   UNL     1     -10.648   4.394  73.850  1.00  0.00    -0.260 C  
BRANCH  13  14
HETATM   14  O   UNL     1     -10.870   3.257  72.988  1.00  0.00    -0.156 OA 
BRANCH  14  15
HETATM   15  C   UNL     1      -9.803   2.824  72.281  1.00  0.00    -0.164 C  
HETATM   16  O   UNL     1      -9.756   2.605  71.083  1.00  0.00    -0.154 OA 
HETATM   17  N   UNL     1      -8.757   2.622  73.112  1.00  0.00    -0.077 N  
HETATM   18  H2  UNL     1      -8.771   2.774  74.121  1.00  0.00     0.000 HD 
HETATM   19  H1  UNL     1      -7.952   2.296  72.578  1.00  0.00     0.000 HD 
ENDBRANCH  14  15
ENDBRANCH  13  14
ENDBRANCH   4  13
BRANCH  12  20
HETATM   20  N   UNL     1     -10.994   8.702  69.330  1.00  0.00    -0.427 N  
HETATM   21  O   UNL     1      -9.275   9.963  68.494  1.00  0.00    -0.132 OA 
HETATM   22  C   UNL     1     -10.136   9.104  68.332  1.00  0.00    -0.196 C  
HETATM   23  H   UNL     1     -11.723   8.028  69.095  1.00  0.00     0.000 HD 
BRANCH  22  24
HETATM   24  C   UNL     1     -10.368   8.434  66.992  1.00  0.00    -0.385 C  
BRANCH  24  25
HETATM   25  C   UNL     1      -9.845   9.271  65.868  1.00  0.00    -0.265 A  
HETATM   26  C   UNL     1     -10.396  10.417  65.326  1.00  0.00    -0.267 A  
HETATM   27  C   UNL     1      -9.684  10.871  64.178  1.00  0.00    -0.347 A  
HETATM   28  C   UNL     1      -8.593  10.078  63.902  1.00  0.00    -0.191 A  
HETATM   29  S   UNL     1      -8.425   8.804  65.029  1.00  0.00    -0.162 SA 
ENDBRANCH  24  25
ENDBRANCH  22  24
ENDBRANCH  12  20
BRANCH  12  30
HETATM   30  O   UNL     1     -11.359  10.577  70.880  1.00  0.00    -0.306 OA 
HETATM   31  C   UNL     1     -12.728  10.752  71.229  1.00  0.00    -0.441 C  
ENDBRANCH  12  30
TORSDOF 7
ENDMDL
MODEL       92
REMARK 921   NORMALIZED FREE ENERGY PREDICTED BY IDOCK:   -4.71 KCAL/MOL
REMARK 922        TOTAL FREE ENERGY PREDICTED BY IDOCK:   -7.31 KCAL/MOL
REMARK 923 INTER-LIGAND FREE ENERGY PREDICTED BY IDOCK:   -6.79 KCAL/MOL
REMARK 924 INTRA-LIGAND FREE ENERGY PREDICTED BY IDOCK:   -0.52 KCAL/MOL
REMARK 927      BINDING AFFINITY PREDICTED BY RF-SCORE:    0.00 PKD
ROOT
HETATM    1  C   UNL     1     -10.685   8.152  69.872  1.00  0.00    -0.241 C  
HETATM    2  S   UNL     1     -10.644   8.322  68.076  1.00  0.00    -0.066 SA 
HETATM    3  C   UNL     1      -9.978   6.668  67.822  1.00  0.00    -0.132 C  
HETATM    4  C   UNL     1      -8.802   6.297  68.709  1.00  0.00    -0.123 C  
HETATM    5  C   UNL     1      -8.518   6.896  69.904  1.00  0.00    -0.140 C  
HETATM    6  O   UNL     1      -8.765   8.777  72.429  1.00  0.00    -0.392 OA 
HETATM    7  O   UNL     1      -7.056   7.034  71.876  1.00  0.00    -0.068 OA 
HETATM    8  C   UNL     1      -7.234   6.540  70.639  1.00  0.00    -0.074 C  
HETATM    9  N   UNL     1      -9.346   7.881  70.374  1.00  0.00    -0.159 N  
HETATM   10  C   UNL     1      -9.426   8.736  71.417  1.00  0.00    -0.259 C  
HETATM   11  O   UNL     1      -6.377   5.802  70.172  1.00  0.00    -0.026 OA 
HETATM   12  C   UNL     1     -10.643   9.517  70.698  1.00  0.00    -0.308 C  
ENDROOT
BRANCH   4  13
HETATM   13  C   UNL     1      -7.934   5.216  68.058  1.00  0.00    -0.091 C  
BRANCH  13  14
HETATM   14  O   UNL     1      -8.535   3.915  68.231  1.00  0.00    -0.089 OA 
BRANCH  14  15
HETATM   15  C   UNL     1      -8.992   3.313  67.112  1.00  0.00    -0.157 C  
HETATM   16  O   UNL     1      -8.957   3.751  65.974  1.00  0.00    -0.124 OA 
HETATM   17  N   UNL     1      -9.551   2.124  67.429  1.00  0.00    -0.405 N  
HETATM   18  H2  UNL     1      -9.618   1.740  68.372  1.00  0.00     0.000 HD 
HETATM   19  H1  UNL     1      -9.896   1.669  66.584  1.00  0.00     0.000 HD 
ENDBRANCH  14  15
ENDBRANCH  13  14
ENDBRANCH   4  13
BRANCH  12  20
HETATM   20  N   UNL     1     -10.300  10.716  69.864  1.00  0.00    -0.444 N  
HETATM   21  O   UNL     1     -12.411  11.129  69.079  1.00  0.00    -0.439 OA 
HETATM   22  C   UNL     1     -11.227  11.443  69.153  1.00  0.00    -0.272 C  
HETATM   23  H   UNL     1      -9.324  11.009  69.822  1.00  0.00     0.000 HD 
BRANCH  22  24
HETATM   24  C   UNL     1     -10.662  12.644  68.422  1.00  0.00    -0.260 C  
BRANCH  24  25
HETATM   25  C   UNL     1     -11.060  12.639  66.980  1.00  0.00    -0.281 A  
HETATM   26  C   UNL     1     -10.656  11.772  65.983  1.00  0.00    -0.302 A  
HETATM   27  C   UNL     1     -11.143  12.155  64.700  1.00  0.00    -0.366 A  
HETATM   28  C   UNL     1     -11.931  13.282  64.763  1.00  0.00    -0.388 A  
HETATM   29  S   UNL     1     -12.090  13.863  66.363  1.00  0.00    -0.454 SA 
ENDBRANCH  24  25
ENDBRANCH  22  24
ENDBRANCH  12  20
BRANCH  12  30
HETATM   30  O   UNL     1     -11.804   9.735  71.546  1.00  0.00    -0.379 OA 
HETATM   31  C   UNL     1     -12.549   8.568  71.878  1.00  0.00    -0.354 C  
ENDBRANCH  12  30
TORSDOF 7
ENDMDL
MODEL       93
REMARK 921   NORMALIZED FREE ENERGY PREDICTED BY IDOCK:   -4.69 KCAL/MOL
REMARK 922        TOTAL FREE ENERGY PREDICTED BY IDOCK:   -7.29 KCAL/MOL
REMARK 923 INTER-LIGAND FREE ENERGY PREDICTED BY IDOCK:   -6.99 KCAL/MOL
REMARK 924 INTRA-LIGAND FREE ENERGY PREDICTED BY IDOCK:   -0.30 KCAL/MOL
REMARK 927      BINDING AFFINITY PREDICTED BY RF-SCORE:    0.00 PKD
ROOT
HETATM    1  C   UNL     1      -8.213  12.908  67.577  1.00  0.00    -0.184 C  
HETATM    2  S   UNL     1      -7.918  11.652  68.840  1.00  0.00     0.044 SA 
HETATM    3  C   UNL     1      -7.265  10.458  67.660  1.00  0.00    -0.086 C  
HETATM    4  C   UNL     1      -8.088  10.276  66.396  1.00  0.00    -0.123 C  
HETATM    5  C   UNL     1      -8.970  11.199  65.911  1.00  0.00    -0.199 C  
HETATM    6  O   UNL     1     -10.623  13.873  65.609  1.00  0.00    -0.283 OA 
HETATM    7  O   UNL     1     -10.593  11.825  64.172  1.00  0.00    -0.294 OA 
HETATM    8  C   UNL     1      -9.844  10.849  64.715  1.00  0.00    -0.288 C  
HETATM    9  N   UNL     1      -9.125  12.390  66.569  1.00  0.00    -0.208 N  
HETATM   10  C   UNL     1      -9.875  13.512  66.487  1.00  0.00    -0.291 C  
HETATM   11  O   UNL     1      -9.872   9.736  64.207  1.00  0.00    -0.106 OA 
HETATM   12  C   UNL     1      -9.328  13.994  67.929  1.00  0.00    -0.206 C  
ENDROOT
BRANCH   4  13
HETATM   13  C   UNL     1      -7.856   8.894  65.777  1.00  0.00    -0.099 C  
BRANCH  13  14
HETATM   14  O   UNL     1      -8.551   7.880  66.535  1.00  0.00    -0.129 OA 
BRANCH  14  15
HETATM   15  C   UNL     1      -7.904   6.705  66.696  1.00  0.00    -0.104 C  
HETATM   16  O   UNL     1      -8.104   5.666  66.090  1.00  0.00    -0.104 OA 
HETATM   17  N   UNL     1      -6.988   6.821  67.682  1.00  0.00    -0.080 N  
HETATM   18  H2  UNL     1      -6.812   7.667  68.224  1.00  0.00     0.000 HD 
HETATM   19  H1  UNL     1      -6.499   5.933  67.804  1.00  0.00     0.000 HD 
ENDBRANCH  14  15
ENDBRANCH  13  14
ENDBRANCH   4  13
BRANCH  12  20
HETATM   20  N   UNL     1     -10.151  13.646  69.134  1.00  0.00    -0.424 N  
HETATM   21  O   UNL     1     -12.194  14.172  68.243  1.00  0.00    -0.317 OA 
HETATM   22  C   UNL     1     -11.524  13.731  69.172  1.00  0.00    -0.298 C  
HETATM   23  H   UNL     1      -9.665  13.328  69.972  1.00  0.00     0.000 HD 
BRANCH  22  24
HETATM   24  C   UNL     1     -12.149  13.281  70.478  1.00  0.00    -0.391 C  
BRANCH  24  25
HETATM   25  C   UNL     1     -12.462  14.448  71.360  1.00  0.00    -0.359 A  
HETATM   26  C   UNL     1     -11.682  15.558  71.621  1.00  0.00    -0.498 A  
HETATM   27  C   UNL     1     -12.255  16.403  72.615  1.00  0.00    -0.482 A  
HETATM   28  C   UNL     1     -13.470  15.929  73.056  1.00  0.00    -0.568 A  
HETATM   29  S   UNL     1     -13.918  14.482  72.265  1.00  0.00    -0.510 SA 
ENDBRANCH  24  25
ENDBRANCH  22  24
ENDBRANCH  12  20
BRANCH  12  30
HETATM   30  O   UNL     1      -8.836  15.362  67.960  1.00  0.00    -0.163 OA 
HETATM   31  C   UNL     1      -9.838  16.373  68.022  1.00  0.00    -0.238 C  
ENDBRANCH  12  30
TORSDOF 7
ENDMDL
MODEL       94
REMARK 921   NORMALIZED FREE ENERGY PREDICTED BY IDOCK:   -4.68 KCAL/MOL
REMARK 922        TOTAL FREE ENERGY PREDICTED BY IDOCK:   -7.27 KCAL/MOL
REMARK 923 INTER-LIGAND FREE ENERGY PREDICTED BY IDOCK:   -6.28 KCAL/MOL
REMARK 924 INTRA-LIGAND FREE ENERGY PREDICTED BY IDOCK:   -0.99 KCAL/MOL
REMARK 927      BINDING AFFINITY PREDICTED BY RF-SCORE:    0.00 PKD
ROOT
HETATM    1  C   UNL     1     -10.395   9.848  66.889  1.00  0.00    -0.235 C  
HETATM    2  S   UNL     1     -10.207  10.899  68.345  1.00  0.00    -0.187 SA 
HETATM    3  C   UNL     1     -11.572  11.979  67.878  1.00  0.00    -0.337 C  
HETATM    4  C   UNL     1     -11.567  12.447  66.433  1.00  0.00    -0.442 C  
HETATM    5  C   UNL     1     -10.917  11.805  65.417  1.00  0.00    -0.297 C  
HETATM    6  O   UNL     1      -9.223   9.645  63.856  1.00  0.00    -0.249 OA 
HETATM    7  O   UNL     1     -10.347  11.721  63.026  1.00  0.00    -0.342 OA 
HETATM    8  C   UNL     1     -10.863  12.443  64.036  1.00  0.00    -0.397 C  
HETATM    9  N   UNL     1     -10.240  10.644  65.681  1.00  0.00    -0.261 N  
HETATM   10  C   UNL     1      -9.459   9.748  65.037  1.00  0.00    -0.272 C  
HETATM   11  O   UNL     1     -11.296  13.562  63.797  1.00  0.00    -0.272 OA 
HETATM   12  C   UNL     1      -9.089   9.045  66.444  1.00  0.00    -0.170 C  
ENDROOT
BRANCH   4  13
HETATM   13  C   UNL     1     -12.320  13.770  66.275  1.00  0.00    -0.433 C  
BRANCH  13  14
HETATM   14  O   UNL     1     -11.821  14.750  67.211  1.00  0.00    -0.378 OA 
BRANCH  14  15
HETATM   15  C   UNL     1     -10.685  15.391  66.857  1.00  0.00    -0.314 C  
HETATM   16  O   UNL     1     -10.486  16.024  65.835  1.00  0.00    -0.329 OA 
HETATM   17  N   UNL     1      -9.743  15.206  67.807  1.00  0.00    -0.211 N  
HETATM   18  H2  UNL     1      -9.869  14.663  68.662  1.00  0.00     0.000 HD 
HETATM   19  H1  UNL     1      -8.885  15.690  67.541  1.00  0.00     0.000 HD 
ENDBRANCH  14  15
ENDBRANCH  13  14
ENDBRANCH   4  13
BRANCH  12  20
HETATM   20  N   UNL     1      -7.837   9.497  67.135  1.00  0.00    -0.095 N  
HETATM   21  O   UNL     1      -7.974   8.077  68.927  1.00  0.00    -0.114 OA 
HETATM   22  C   UNL     1      -7.367   8.944  68.305  1.00  0.00    -0.083 C  
HETATM   23  H   UNL     1      -7.303  10.258  66.715  1.00  0.00     0.000 HD 
BRANCH  22  24
HETATM   24  C   UNL     1      -6.057   9.525  68.796  1.00  0.00    -0.043 C  
BRANCH  24  25
HETATM   25  C   UNL     1      -6.063  11.019  68.719  1.00  0.00    -0.043 A  
HETATM   26  C   UNL     1      -6.718  11.916  69.541  1.00  0.00    -0.054 A  
HETATM   27  C   UNL     1      -6.596  13.260  69.082  1.00  0.00    -0.105 A  
HETATM   28  C   UNL     1      -5.825  13.349  67.946  1.00  0.00    -0.135 A  
HETATM   29  S   UNL     1      -5.242  11.822  67.445  1.00  0.00    -0.094 SA 
ENDBRANCH  24  25
ENDBRANCH  22  24
ENDBRANCH  12  20
BRANCH  12  30
HETATM   30  O   UNL     1      -9.247   7.600  66.455  1.00  0.00    -0.170 OA 
HETATM   31  C   UNL     1     -10.553   7.127  66.770  1.00  0.00    -0.221 C  
ENDBRANCH  12  30
TORSDOF 7
ENDMDL
MODEL       95
REMARK 921   NORMALIZED FREE ENERGY PREDICTED BY IDOCK:   -4.66 KCAL/MOL
REMARK 922        TOTAL FREE ENERGY PREDICTED BY IDOCK:   -7.25 KCAL/MOL
REMARK 923 INTER-LIGAND FREE ENERGY PREDICTED BY IDOCK:   -6.17 KCAL/MOL
REMARK 924 INTRA-LIGAND FREE ENERGY PREDICTED BY IDOCK:   -1.08 KCAL/MOL
REMARK 927      BINDING AFFINITY PREDICTED BY RF-SCORE:    0.00 PKD
ROOT
HETATM    1  C   UNL     1      -8.955  11.939  67.686  1.00  0.00    -0.169 C  
HETATM    2  S   UNL     1      -7.326  12.563  67.223  1.00  0.00    -0.069 SA 
HETATM    3  C   UNL     1      -7.376  13.905  68.425  1.00  0.00    -0.115 C  
HETATM    4  C   UNL     1      -8.665  14.709  68.450  1.00  0.00    -0.175 C  
HETATM    5  C   UNL     1      -9.868  14.251  67.990  1.00  0.00    -0.224 C  
HETATM    6  O   UNL     1     -12.064  12.324  66.790  1.00  0.00    -0.593 OA 
HETATM    7  O   UNL     1     -12.261  14.677  67.619  1.00  0.00    -0.268 OA 
HETATM    8  C   UNL     1     -11.061  15.194  67.935  1.00  0.00    -0.321 C  
HETATM    9  N   UNL     1      -9.956  12.977  67.494  1.00  0.00    -0.209 N  
HETATM   10  C   UNL     1     -10.872  12.167  66.919  1.00  0.00    -0.250 C  
HETATM   11  O   UNL     1     -10.985  16.387  68.196  1.00  0.00    -0.337 OA 
HETATM   12  C   UNL     1      -9.717  11.095  66.565  1.00  0.00    -0.198 C  
ENDROOT
BRANCH   4  13
HETATM   13  C   UNL     1      -8.428  16.122  68.987  1.00  0.00    -0.251 C  
BRANCH  13  14
HETATM   14  O   UNL     1      -7.494  16.831  68.145  1.00  0.00    -0.162 OA 
BRANCH  14  15
HETATM   15  C   UNL     1      -7.741  18.145  67.950  1.00  0.00    -0.235 C  
HETATM   16  O   UNL     1      -6.968  19.072  68.119  1.00  0.00    -0.234 OA 
HETATM   17  N   UNL     1      -9.024  18.314  67.560  1.00  0.00    -0.253 N  
HETATM   18  H2  UNL     1      -9.703  17.564  67.432  1.00  0.00     0.000 HD 
HETATM   19  H1  UNL     1      -9.211  19.307  67.413  1.00  0.00     0.000 HD 
ENDBRANCH  14  15
ENDBRANCH  13  14
ENDBRANCH   4  13
BRANCH  12  20
HETATM   20  N   UNL     1      -9.082  11.182  65.209  1.00  0.00    -0.295 N  
HETATM   21  O   UNL     1     -11.019  11.145  63.987  1.00  0.00    -0.364 OA 
HETATM   22  C   UNL     1      -9.796  11.238  64.033  1.00  0.00    -0.291 C  
HETATM   23  H   UNL     1      -8.064  11.202  65.155  1.00  0.00     0.000 HD 
BRANCH  22  24
HETATM   24  C   UNL     1      -8.947  11.373  62.785  1.00  0.00    -0.219 C  
BRANCH  24  25
HETATM   25  C   UNL     1      -8.042  10.194  62.614  1.00  0.00    -0.143 A  
HETATM   26  C   UNL     1      -8.389   8.874  62.394  1.00  0.00    -0.194 A  
HETATM   27  C   UNL     1      -7.258   8.007  62.411  1.00  0.00    -0.092 A  
HETATM   28  C   UNL     1      -6.083   8.695  62.609  1.00  0.00    -0.087 A  
HETATM   29  S   UNL     1      -6.344  10.378  62.760  1.00  0.00    -0.114 SA 
ENDBRANCH  24  25
ENDBRANCH  22  24
ENDBRANCH  12  20
BRANCH  12  30
HETATM   30  O   UNL     1     -10.023   9.728  66.956  1.00  0.00    -0.181 OA 
HETATM   31  C   UNL     1      -8.906   8.936  67.346  1.00  0.00    -0.129 C  
ENDBRANCH  12  30
TORSDOF 7
ENDMDL
MODEL       96
REMARK 921   NORMALIZED FREE ENERGY PREDICTED BY IDOCK:   -4.53 KCAL/MOL
REMARK 922        TOTAL FREE ENERGY PREDICTED BY IDOCK:   -7.05 KCAL/MOL
REMARK 923 INTER-LIGAND FREE ENERGY PREDICTED BY IDOCK:   -6.27 KCAL/MOL
REMARK 924 INTRA-LIGAND FREE ENERGY PREDICTED BY IDOCK:   -0.78 KCAL/MOL
REMARK 927      BINDING AFFINITY PREDICTED BY RF-SCORE:    0.00 PKD
ROOT
HETATM    1  C   UNL     1     -10.188  12.397  66.959  1.00  0.00    -0.220 C  
HETATM    2  S   UNL     1     -11.057  13.970  66.796  1.00  0.00    -0.314 SA 
HETATM    3  C   UNL     1      -9.589  14.851  66.234  1.00  0.00    -0.307 C  
HETATM    4  C   UNL     1      -8.332  14.608  67.051  1.00  0.00    -0.214 C  
HETATM    5  C   UNL     1      -8.126  13.512  67.841  1.00  0.00    -0.165 C  
HETATM    6  O   UNL     1      -8.582  10.720  69.244  1.00  0.00    -0.129 OA 
HETATM    7  O   UNL     1      -6.640  12.293  69.375  1.00  0.00    -0.109 OA 
HETATM    8  C   UNL     1      -6.888  13.443  68.724  1.00  0.00    -0.101 C  
HETATM    9  N   UNL     1      -9.085  12.536  67.899  1.00  0.00    -0.191 N  
HETATM   10  C   UNL     1      -9.320  11.372  68.545  1.00  0.00    -0.180 C  
HETATM   11  O   UNL     1      -6.097  14.368  68.843  1.00  0.00    -0.083 OA 
HETATM   12  C   UNL     1     -10.833  11.353  67.979  1.00  0.00    -0.217 C  
ENDROOT
BRANCH   4  13
HETATM   13  C   UNL     1      -7.358  15.783  66.934  1.00  0.00    -0.139 C  
BRANCH  13  14
HETATM   14  O   UNL     1      -7.746  16.850  67.825  1.00  0.00    -0.168 OA 
BRANCH  14  15
HETATM   15  C   UNL     1      -7.647  18.106  67.335  1.00  0.00    -0.213 C  
HETATM   16  O   UNL     1      -6.797  18.936  67.608  1.00  0.00    -0.210 OA 
HETATM   17  N   UNL     1      -8.675  18.349  66.493  1.00  0.00    -0.283 N  
HETATM   18  H2  UNL     1      -9.415  17.685  66.262  1.00  0.00     0.000 HD 
HETATM   19  H1  UNL     1      -8.600  19.296  66.123  1.00  0.00     0.000 HD 
ENDBRANCH  14  15
ENDBRANCH  13  14
ENDBRANCH   4  13
BRANCH  12  20
HETATM   20  N   UNL     1     -11.906  11.941  68.848  1.00  0.00    -0.311 N  
HETATM   21  O   UNL     1     -11.429  10.740  70.738  1.00  0.00    -0.306 OA 
HETATM   22  C   UNL     1     -12.086  11.607  70.170  1.00  0.00    -0.333 C  
HETATM   23  H   UNL     1     -12.537  12.627  68.434  1.00  0.00     0.000 HD 
BRANCH  22  24
HETATM   24  C   UNL     1     -13.201  12.363  70.866  1.00  0.00     0.261 C  
BRANCH  24  25
HETATM   25  C   UNL     1     -12.680  13.584  71.556  1.00  0.00    -0.322 A  
HETATM   26  C   UNL     1     -12.878  13.976  72.866  1.00  0.00    -0.365 A  
HETATM   27  C   UNL     1     -12.333  15.266  73.134  1.00  0.00    -0.558 A  
HETATM   28  C   UNL     1     -11.708  15.801  72.031  1.00  0.00    -0.479 A  
HETATM   29  S   UNL     1     -11.768  14.747  70.687  1.00  0.00    -0.293 SA 
ENDBRANCH  24  25
ENDBRANCH  22  24
ENDBRANCH  12  20
BRANCH  12  30
HETATM   30  O   UNL     1     -11.232  10.094  67.368  1.00  0.00    -0.244 OA 
HETATM   31  C   UNL     1     -10.477   9.700  66.226  1.00  0.00    -0.079 C  
ENDBRANCH  12  30
TORSDOF 7
ENDMDL
MODEL       97
REMARK 921   NORMALIZED FREE ENERGY PREDICTED BY IDOCK:   -4.51 KCAL/MOL
REMARK 922        TOTAL FREE ENERGY PREDICTED BY IDOCK:   -7.03 KCAL/MOL
REMARK 923 INTER-LIGAND FREE ENERGY PREDICTED BY IDOCK:   -6.69 KCAL/MOL
REMARK 924 INTRA-LIGAND FREE ENERGY PREDICTED BY IDOCK:   -0.34 KCAL/MOL
REMARK 927      BINDING AFFINITY PREDICTED BY RF-SCORE:    0.00 PKD
ROOT
HETATM    1  C   UNL     1      -8.288   8.557  69.380  1.00  0.00    -0.119 C  
HETATM    2  S   UNL     1      -9.525   9.858  69.198  1.00  0.00    -0.208 SA 
HETATM    3  C   UNL     1     -10.187   9.617  70.856  1.00  0.00    -0.232 C  
HETATM    4  C   UNL     1     -10.462   8.174  71.243  1.00  0.00    -0.254 C  
HETATM    5  C   UNL     1      -9.871   7.092  70.655  1.00  0.00    -0.182 C  
HETATM    6  O   UNL     1      -7.995   5.366  68.789  1.00  0.00    -0.086 OA 
HETATM    7  O   UNL     1      -9.630   4.647  70.543  1.00  0.00    -0.163 OA 
HETATM    8  C   UNL     1     -10.328   5.689  71.027  1.00  0.00    -0.233 C  
HETATM    9  N   UNL     1      -8.943   7.289  69.666  1.00  0.00    -0.141 N  
HETATM   10  C   UNL     1      -8.185   6.559  68.817  1.00  0.00    -0.119 C  
HETATM   11  O   UNL     1     -11.275   5.467  71.769  1.00  0.00    -0.206 OA 
HETATM   12  C   UNL     1      -7.768   7.902  68.021  1.00  0.00    -0.125 C  
ENDROOT
BRANCH   4  13
HETATM   13  C   UNL     1     -11.540   8.086  72.326  1.00  0.00    -0.366 C  
BRANCH  13  14
HETATM   14  O   UNL     1     -12.847   7.960  71.727  1.00  0.00    -0.317 OA 
BRANCH  14  15
HETATM   15  C   UNL     1     -13.686   9.006  71.896  1.00  0.00    -0.441 C  
HETATM   16  O   UNL     1     -14.326   9.281  72.896  1.00  0.00    -0.461 OA 
HETATM   17  N   UNL     1     -13.758   9.722  70.752  1.00  0.00    -0.478 N  
HETATM   18  H2  UNL     1     -13.255   9.506  69.891  1.00  0.00     0.000 HD 
HETATM   19  H1  UNL     1     -14.391  10.511  70.879  1.00  0.00     0.000 HD 
ENDBRANCH  14  15
ENDBRANCH  13  14
ENDBRANCH   4  13
BRANCH  12  20
HETATM   20  N   UNL     1      -8.584   8.276  66.819  1.00  0.00    -0.124 N  
HETATM   21  O   UNL     1      -7.452  10.196  66.294  1.00  0.00    -0.102 OA 
HETATM   22  C   UNL     1      -8.329   9.378  66.035  1.00  0.00    -0.119 C  
HETATM   23  H   UNL     1      -9.372   7.680  66.569  1.00  0.00     0.000 HD 
BRANCH  22  24
HETATM   24  C   UNL     1      -9.252   9.532  64.843  1.00  0.00    -0.284 C  
BRANCH  24  25
HETATM   25  C   UNL     1     -10.078  10.775  64.954  1.00  0.00    -0.322 A  
HETATM   26  C   UNL     1     -10.815  11.219  66.035  1.00  0.00    -0.273 A  
HETATM   27  C   UNL     1     -11.580  12.382  65.729  1.00  0.00    -0.449 A  
HETATM   28  C   UNL     1     -11.376  12.807  64.436  1.00  0.00    -0.347 A  
HETATM   29  S   UNL     1     -10.260  11.815  63.603  1.00  0.00    -0.468 SA 
ENDBRANCH  24  25
ENDBRANCH  22  24
ENDBRANCH  12  20
BRANCH  12  30
HETATM   30  O   UNL     1      -6.338   8.051  67.799  1.00  0.00    -0.050 OA 
HETATM   31  C   UNL     1      -5.749   7.090  66.929  1.00  0.00    -0.022 C  
ENDBRANCH  12  30
TORSDOF 7
ENDMDL
MODEL       98
REMARK 921   NORMALIZED FREE ENERGY PREDICTED BY IDOCK:   -4.50 KCAL/MOL
REMARK 922        TOTAL FREE ENERGY PREDICTED BY IDOCK:   -7.02 KCAL/MOL
REMARK 923 INTER-LIGAND FREE ENERGY PREDICTED BY IDOCK:   -6.39 KCAL/MOL
REMARK 924 INTRA-LIGAND FREE ENERGY PREDICTED BY IDOCK:   -0.63 KCAL/MOL
REMARK 927      BINDING AFFINITY PREDICTED BY RF-SCORE:    0.00 PKD
ROOT
HETATM    1  C   UNL     1     -10.680   8.099  69.668  1.00  0.00    -0.195 C  
HETATM    2  S   UNL     1     -10.111   8.962  68.189  1.00  0.00    -0.197 SA 
HETATM    3  C   UNL     1      -8.949   7.661  67.740  1.00  0.00    -0.131 C  
HETATM    4  C   UNL     1      -8.070   7.155  68.872  1.00  0.00    -0.121 C  
HETATM    5  C   UNL     1      -8.375   7.275  70.198  1.00  0.00    -0.137 C  
HETATM    6  O   UNL     1      -9.961   7.957  72.842  1.00  0.00    -0.246 OA 
HETATM    7  O   UNL     1      -7.738   6.850  72.535  1.00  0.00    -0.094 OA 
HETATM    8  C   UNL     1      -7.354   6.858  71.246  1.00  0.00    -0.081 C  
HETATM    9  N   UNL     1      -9.559   7.860  70.564  1.00  0.00    -0.170 N  
HETATM   10  C   UNL     1     -10.217   8.216  71.690  1.00  0.00    -0.206 C  
HETATM   11  O   UNL     1      -6.217   6.501  70.970  1.00  0.00    -0.038 OA 
HETATM   12  C   UNL     1     -11.306   9.022  70.810  1.00  0.00    -0.277 C  
ENDROOT
BRANCH   4  13
HETATM   13  C   UNL     1      -6.764   6.560  68.337  1.00  0.00    -0.068 C  
BRANCH  13  14
HETATM   14  O   UNL     1      -7.036   5.408  67.510  1.00  0.00    -0.064 OA 
BRANCH  14  15
HETATM   15  C   UNL     1      -6.949   4.203  68.115  1.00  0.00    -0.051 C  
HETATM   16  O   UNL     1      -7.787   3.318  68.114  1.00  0.00    -0.063 OA 
HETATM   17  N   UNL     1      -5.777   4.112  68.781  1.00  0.00    -0.020 N  
HETATM   18  H2  UNL     1      -5.065   4.842  68.822  1.00  0.00     0.000 HD 
HETATM   19  H1  UNL     1      -5.710   3.202  69.237  1.00  0.00     0.000 HD 
ENDBRANCH  14  15
ENDBRANCH  13  14
ENDBRANCH   4  13
BRANCH  12  20
HETATM   20  N   UNL     1     -11.075  10.488  70.595  1.00  0.00    -0.420 N  
HETATM   21  O   UNL     1     -12.858  10.857  69.206  1.00  0.00    -0.173 OA 
HETATM   22  C   UNL     1     -11.898  11.289  69.837  1.00  0.00    -0.360 C  
HETATM   23  H   UNL     1     -10.260  10.916  71.036  1.00  0.00     0.000 HD 
BRANCH  22  24
HETATM   24  C   UNL     1     -11.497  12.750  69.800  1.00  0.00    -0.199 C  
BRANCH  24  25
HETATM   25  C   UNL     1     -12.333  13.566  70.735  1.00  0.00    -0.363 A  
HETATM   26  C   UNL     1     -13.204  13.123  71.713  1.00  0.00    -0.494 A  
HETATM   27  C   UNL     1     -13.925  14.191  72.321  1.00  0.00    -0.646 A  
HETATM   28  C   UNL     1     -13.557  15.416  71.813  1.00  0.00    -0.498 A  
HETATM   29  S   UNL     1     -12.342  15.277  70.620  1.00  0.00    -0.409 SA 
ENDBRANCH  24  25
ENDBRANCH  22  24
ENDBRANCH  12  20
BRANCH  12  30
HETATM   30  O   UNL     1     -12.689   8.712  71.133  1.00  0.00    -0.247 OA 
HETATM   31  C   UNL     1     -13.146   9.188  72.395  1.00  0.00    -0.423 C  
ENDBRANCH  12  30
TORSDOF 7
ENDMDL
MODEL       99
REMARK 921   NORMALIZED FREE ENERGY PREDICTED BY IDOCK:   -4.50 KCAL/MOL
REMARK 922        TOTAL FREE ENERGY PREDICTED BY IDOCK:   -7.01 KCAL/MOL
REMARK 923 INTER-LIGAND FREE ENERGY PREDICTED BY IDOCK:   -6.12 KCAL/MOL
REMARK 924 INTRA-LIGAND FREE ENERGY PREDICTED BY IDOCK:   -0.89 KCAL/MOL
REMARK 927      BINDING AFFINITY PREDICTED BY RF-SCORE:    0.00 PKD
ROOT
HETATM    1  C   UNL     1      -9.025   8.549  70.936  1.00  0.00    -0.172 C  
HETATM    2  S   UNL     1      -8.871   8.571  69.137  1.00  0.00    -0.142 SA 
HETATM    3  C   UNL     1      -9.760  10.129  68.969  1.00  0.00    -0.206 C  
HETATM    4  C   UNL     1     -11.057  10.227  69.754  1.00  0.00    -0.340 C  
HETATM    5  C   UNL     1     -11.354   9.465  70.849  1.00  0.00    -0.319 C  
HETATM    6  O   UNL     1     -11.055   7.376  73.198  1.00  0.00    -0.353 OA 
HETATM    7  O   UNL     1     -12.955   8.902  72.629  1.00  0.00    -0.407 OA 
HETATM    8  C   UNL     1     -12.741   9.549  71.470  1.00  0.00    -0.372 C  
HETATM    9  N   UNL     1     -10.431   8.566  71.312  1.00  0.00    -0.211 N  
HETATM   10  C   UNL     1     -10.317   7.622  72.273  1.00  0.00    -0.224 C  
HETATM   11  O   UNL     1     -13.655  10.202  70.984  1.00  0.00    -0.285 OA 
HETATM   12  C   UNL     1      -8.931   7.110  71.620  1.00  0.00    -0.133 C  
ENDROOT
BRANCH   4  13
HETATM   13  C   UNL     1     -12.017  11.234  69.117  1.00  0.00    -0.336 C  
BRANCH  13  14
HETATM   14  O   UNL     1     -11.550  12.583  69.335  1.00  0.00    -0.284 OA 
BRANCH  14  15
HETATM   15  C   UNL     1     -11.939  13.505  68.427  1.00  0.00    -0.343 C  
HETATM   16  O   UNL     1     -12.129  13.330  67.236  1.00  0.00    -0.357 OA 
HETATM   17  N   UNL     1     -12.064  14.710  69.026  1.00  0.00    -0.516 N  
HETATM   18  H2  UNL     1     -11.890  14.895  70.015  1.00  0.00     0.000 HD 
HETATM   19  H1  UNL     1     -12.357  15.406  68.341  1.00  0.00     0.000 HD 
ENDBRANCH  14  15
ENDBRANCH  13  14
ENDBRANCH   4  13
BRANCH  12  20
HETATM   20  N   UNL     1      -9.005   5.972  70.645  1.00  0.00    -0.145 N  
HETATM   21  O   UNL     1      -9.620   4.353  72.144  1.00  0.00    -0.138 OA 
HETATM   22  C   UNL     1      -9.381   4.693  70.989  1.00  0.00    -0.147 C  
HETATM   23  H   UNL     1      -8.761   6.156  69.672  1.00  0.00     0.000 HD 
BRANCH  22  24
HETATM   24  C   UNL     1      -9.431   3.717  69.831  1.00  0.00    -0.262 C  
BRANCH  24  25
HETATM   25  C   UNL     1      -8.180   3.780  69.013  1.00  0.00    -0.064 A  
HETATM   26  C   UNL     1      -6.895   3.435  69.386  1.00  0.00    -0.041 A  
HETATM   27  C   UNL     1      -5.935   3.753  68.382  1.00  0.00    -0.027 A  
HETATM   28  C   UNL     1      -6.521   4.297  67.262  1.00  0.00    -0.042 A  
HETATM   29  S   UNL     1      -8.219   4.412  67.420  1.00  0.00    -0.100 SA 
ENDBRANCH  24  25
ENDBRANCH  22  24
ENDBRANCH  12  20
BRANCH  12  30
HETATM   30  O   UNL     1      -7.835   6.971  72.565  1.00  0.00    -0.093 OA 
HETATM   31  C   UNL     1      -6.672   7.740  72.273  1.00  0.00    -0.060 C  
ENDBRANCH  12  30
TORSDOF 7
ENDMDL
MODEL      100
REMARK 921   NORMALIZED FREE ENERGY PREDICTED BY IDOCK:   -4.46 KCAL/MOL
REMARK 922        TOTAL FREE ENERGY PREDICTED BY IDOCK:   -6.97 KCAL/MOL
REMARK 923 INTER-LIGAND FREE ENERGY PREDICTED BY IDOCK:   -6.01 KCAL/MOL
REMARK 924 INTRA-LIGAND FREE ENERGY PREDICTED BY IDOCK:   -0.95 KCAL/MOL
REMARK 927      BINDING AFFINITY PREDICTED BY RF-SCORE:    0.00 PKD
ROOT
HETATM    1  C   UNL     1     -11.233  10.161  68.168  1.00  0.00    -0.180 C  
HETATM    2  S   UNL     1     -11.008  11.671  69.132  1.00  0.00    -0.192 SA 
HETATM    3  C   UNL     1     -11.868  12.700  67.929  1.00  0.00    -0.332 C  
HETATM    4  C   UNL     1     -11.453  12.495  66.482  1.00  0.00    -0.418 C  
HETATM    5  C   UNL     1     -10.852  11.364  66.005  1.00  0.00    -0.249 C  
HETATM    6  O   UNL     1      -9.637   8.451  65.900  1.00  0.00    -0.173 OA 
HETATM    7  O   UNL     1      -9.902  10.155  64.086  1.00  0.00    -0.305 OA 
HETATM    8  C   UNL     1     -10.352  11.327  64.568  1.00  0.00    -0.322 C  
HETATM    9  N   UNL     1     -10.622  10.316  66.856  1.00  0.00    -0.238 N  
HETATM   10  C   UNL     1     -10.046   9.094  66.839  1.00  0.00    -0.258 C  
HETATM   11  O   UNL     1     -10.372  12.299  63.826  1.00  0.00    -0.387 OA 
HETATM   12  C   UNL     1     -10.174   8.999  68.446  1.00  0.00    -0.201 C  
ENDROOT
BRANCH   4  13
HETATM   13  C   UNL     1     -11.725  13.747  65.644  1.00  0.00    -0.347 C  
BRANCH  13  14
HETATM   14  O   UNL     1     -11.162  14.913  66.282  1.00  0.00    -0.340 OA 
BRANCH  14  15
HETATM   15  C   UNL     1     -10.241  15.599  65.570  1.00  0.00    -0.385 C  
HETATM   16  O   UNL     1     -10.103  16.809  65.518  1.00  0.00    -0.566 OA 
HETATM   17  N   UNL     1      -9.477  14.737  64.863  1.00  0.00     0.014 N  
HETATM   18  H2  UNL     1      -9.581  13.722  64.865  1.00  0.00     0.000 HD 
HETATM   19  H1  UNL     1      -8.782  15.255  64.325  1.00  0.00     0.000 HD 
ENDBRANCH  14  15
ENDBRANCH  13  14
ENDBRANCH   4  13
BRANCH  12  20
HETATM   20  N   UNL     1      -8.995   9.439  69.263  1.00  0.00    -0.147 N  
HETATM   21  O   UNL     1      -7.637   7.658  68.782  1.00  0.00    -0.097 OA 
HETATM   22  C   UNL     1      -7.809   8.743  69.329  1.00  0.00    -0.100 C  
HETATM   23  H   UNL     1      -9.077  10.302  69.799  1.00  0.00     0.000 HD 
BRANCH  22  24
HETATM   24  C   UNL     1      -6.739   9.401  70.177  1.00  0.00    -0.066 C  
BRANCH  24  25
HETATM   25  C   UNL     1      -6.504   8.637  71.442  1.00  0.00    -0.066 A  
HETATM   26  C   UNL     1      -5.310   8.428  72.106  1.00  0.00    -0.039 A  
HETATM   27  C   UNL     1      -5.452   7.541  73.212  1.00  0.00    -0.044 A  
HETATM   28  C   UNL     1      -6.755   7.128  73.377  1.00  0.00    -0.065 A  
HETATM   29  S   UNL     1      -7.798   7.819  72.212  1.00  0.00    -0.116 SA 
ENDBRANCH  24  25
ENDBRANCH  22  24
ENDBRANCH  12  20
BRANCH  12  30
HETATM   30  O   UNL     1     -10.764   7.761  68.931  1.00  0.00    -0.185 OA 
HETATM   31  C   UNL     1     -11.200   7.779  70.287  1.00  0.00    -0.206 C  
ENDBRANCH  12  30
TORSDOF 7
ENDMDL
MODEL      101
REMARK 921   NORMALIZED FREE ENERGY PREDICTED BY IDOCK:   -4.45 KCAL/MOL
REMARK 922        TOTAL FREE ENERGY PREDICTED BY IDOCK:   -6.95 KCAL/MOL
REMARK 923 INTER-LIGAND FREE ENERGY PREDICTED BY IDOCK:   -6.16 KCAL/MOL
REMARK 924 INTRA-LIGAND FREE ENERGY PREDICTED BY IDOCK:   -0.79 KCAL/MOL
REMARK 927      BINDING AFFINITY PREDICTED BY RF-SCORE:    0.00 PKD
ROOT
HETATM    1  C   UNL     1      -8.913  11.942  67.650  1.00  0.00    -0.169 C  
HETATM    2  S   UNL     1      -7.603  12.713  68.623  1.00  0.00    -0.037 SA 
HETATM    3  C   UNL     1      -6.814  11.141  69.013  1.00  0.00    -0.092 C  
HETATM    4  C   UNL     1      -7.749  10.043  69.488  1.00  0.00    -0.146 C  
HETATM    5  C   UNL     1      -9.091  10.009  69.233  1.00  0.00    -0.200 C  
HETATM    6  O   UNL     1     -11.930  10.792  68.090  1.00  0.00    -0.527 OA 
HETATM    7  O   UNL     1     -11.238   8.839  69.493  1.00  0.00    -0.057 OA 
HETATM    8  C   UNL     1      -9.954   8.935  69.879  1.00  0.00    -0.188 C  
HETATM    9  N   UNL     1      -9.656  11.002  68.476  1.00  0.00    -0.181 N  
HETATM   10  C   UNL     1     -10.876  11.382  68.037  1.00  0.00    -0.217 C  
HETATM   11  O   UNL     1      -9.527   8.138  70.703  1.00  0.00    -0.160 OA 
HETATM   12  C   UNL     1     -10.263  12.783  67.517  1.00  0.00    -0.216 C  
ENDROOT
BRANCH   4  13
HETATM   13  C   UNL     1      -7.009   9.018  70.352  1.00  0.00    -0.058 C  
BRANCH  13  14
HETATM   14  O   UNL     1      -6.059   8.279  69.555  1.00  0.00    -0.035 OA 
BRANCH  14  15
HETATM   15  C   UNL     1      -6.099   6.934  69.670  1.00  0.00    -0.033 C  
HETATM   16  O   UNL     1      -5.203   6.202  70.054  1.00  0.00    -0.012 OA 
HETATM   17  N   UNL     1      -7.300   6.476  69.254  1.00  0.00    -0.090 N  
HETATM   18  H2  UNL     1      -8.062   7.058  68.906  1.00  0.00     0.000 HD 
HETATM   19  H1  UNL     1      -7.331   5.460  69.342  1.00  0.00     0.000 HD 
ENDBRANCH  14  15
ENDBRANCH  13  14
ENDBRANCH   4  13
BRANCH  12  20
HETATM   20  N   UNL     1     -10.335  13.959  68.446  1.00  0.00    -0.244 N  
HETATM   21  O   UNL     1     -12.613  14.195  68.428  1.00  0.00     0.070 OA 
HETATM   22  C   UNL     1     -11.515  14.541  68.851  1.00  0.00    -0.300 C  
HETATM   23  H   UNL     1      -9.461  14.349  68.797  1.00  0.00     0.000 HD 
BRANCH  22  24
HETATM   24  C   UNL     1     -11.349  15.685  69.831  1.00  0.00    -0.340 C  
BRANCH  24  25
HETATM   25  C   UNL     1     -12.235  15.511  71.024  1.00  0.00    -0.396 A  
HETATM   26  C   UNL     1     -13.613  15.402  71.058  1.00  0.00    -0.465 A  
HETATM   27  C   UNL     1     -14.122  15.377  72.389  1.00  0.00    -0.645 A  
HETATM   28  C   UNL     1     -13.115  15.433  73.327  1.00  0.00    -0.524 A  
HETATM   29  S   UNL     1     -11.568  15.503  72.603  1.00  0.00    -0.291 SA 
ENDBRANCH  24  25
ENDBRANCH  22  24
ENDBRANCH  12  20
BRANCH  12  30
HETATM   30  O   UNL     1     -10.618  13.125  66.148  1.00  0.00    -0.273 OA 
HETATM   31  C   UNL     1     -10.235  14.429  65.722  1.00  0.00    -0.337 C  
ENDBRANCH  12  30
TORSDOF 7
ENDMDL
MODEL      102
REMARK 921   NORMALIZED FREE ENERGY PREDICTED BY IDOCK:   -4.44 KCAL/MOL
REMARK 922        TOTAL FREE ENERGY PREDICTED BY IDOCK:   -6.94 KCAL/MOL
REMARK 923 INTER-LIGAND FREE ENERGY PREDICTED BY IDOCK:   -6.12 KCAL/MOL
REMARK 924 INTRA-LIGAND FREE ENERGY PREDICTED BY IDOCK:   -0.82 KCAL/MOL
REMARK 927      BINDING AFFINITY PREDICTED BY RF-SCORE:    0.00 PKD
ROOT
HETATM    1  C   UNL     1      -7.539   8.719  68.848  1.00  0.00    -0.091 C  
HETATM    2  S   UNL     1      -7.747   9.756  70.310  1.00  0.00    -0.132 SA 
HETATM    3  C   UNL     1      -8.317   8.389  71.337  1.00  0.00    -0.145 C  
HETATM    4  C   UNL     1      -9.383   7.507  70.711  1.00  0.00    -0.162 C  
HETATM    5  C   UNL     1      -9.603   7.398  69.367  1.00  0.00    -0.155 C  
HETATM    6  O   UNL     1      -9.270   7.785  66.250  1.00  0.00    -0.178 OA 
HETATM    7  O   UNL     1     -10.895   6.383  67.537  1.00  0.00    -0.276 OA 
HETATM    8  C   UNL     1     -10.791   6.593  68.861  1.00  0.00    -0.277 C  
HETATM    9  N   UNL     1      -8.808   8.098  68.498  1.00  0.00    -0.134 N  
HETATM   10  C   UNL     1      -8.698   8.322  67.170  1.00  0.00    -0.123 C  
HETATM   11  O   UNL     1     -11.632   6.102  69.602  1.00  0.00    -0.407 OA 
HETATM   12  C   UNL     1      -7.605   9.479  67.446  1.00  0.00    -0.095 C  
ENDROOT
BRANCH   4  13
HETATM   13  C   UNL     1     -10.227   6.811  71.783  1.00  0.00    -0.190 C  
BRANCH  13  14
HETATM   14  O   UNL     1      -9.475   5.746  72.403  1.00  0.00    -0.144 OA 
BRANCH  14  15
HETATM   15  C   UNL     1     -10.163   4.622  72.700  1.00  0.00    -0.184 C  
HETATM   16  O   UNL     1     -10.110   3.552  72.117  1.00  0.00    -0.166 OA 
HETATM   17  N   UNL     1     -10.981   4.852  73.751  1.00  0.00    -0.310 N  
HETATM   18  H2  UNL     1     -11.066   5.740  74.245  1.00  0.00     0.000 HD 
HETATM   19  H1  UNL     1     -11.500   4.003  73.975  1.00  0.00     0.000 HD 
ENDBRANCH  14  15
ENDBRANCH  13  14
ENDBRANCH   4  13
BRANCH  12  20
HETATM   20  N   UNL     1      -8.100  10.891  67.547  1.00  0.00    -0.115 N  
HETATM   21  O   UNL     1      -9.023  11.019  65.455  1.00  0.00    -0.201 OA 
HETATM   22  C   UNL     1      -8.803  11.528  66.550  1.00  0.00    -0.190 C  
HETATM   23  H   UNL     1      -7.905  11.409  68.404  1.00  0.00     0.000 HD 
BRANCH  22  24
HETATM   24  C   UNL     1      -9.246  12.936  66.890  1.00  0.00    -0.234 C  
BRANCH  24  25
HETATM   25  C   UNL     1     -10.482  13.314  66.137  1.00  0.00    -0.293 A  
HETATM   26  C   UNL     1     -11.743  12.754  66.225  1.00  0.00    -0.460 A  
HETATM   27  C   UNL     1     -12.642  13.289  65.257  1.00  0.00    -0.528 A  
HETATM   28  C   UNL     1     -12.049  14.263  64.485  1.00  0.00    -0.480 A  
HETATM   29  S   UNL     1     -10.423  14.536  64.936  1.00  0.00    -0.345 SA 
ENDBRANCH  24  25
ENDBRANCH  22  24
ENDBRANCH  12  20
BRANCH  12  30
HETATM   30  O   UNL     1      -6.392   9.364  66.651  1.00  0.00    -0.064 OA 
HETATM   31  C   UNL     1      -5.696   8.128  66.768  1.00  0.00    -0.040 C  
ENDBRANCH  12  30
TORSDOF 7
ENDMDL
MODEL      103
REMARK 921   NORMALIZED FREE ENERGY PREDICTED BY IDOCK:   -4.43 KCAL/MOL
REMARK 922        TOTAL FREE ENERGY PREDICTED BY IDOCK:   -6.92 KCAL/MOL
REMARK 923 INTER-LIGAND FREE ENERGY PREDICTED BY IDOCK:   -5.94 KCAL/MOL
REMARK 924 INTRA-LIGAND FREE ENERGY PREDICTED BY IDOCK:   -0.98 KCAL/MOL
REMARK 927      BINDING AFFINITY PREDICTED BY RF-SCORE:    0.00 PKD
ROOT
HETATM    1  C   UNL     1      -8.821   9.405  66.986  1.00  0.00    -0.127 C  
HETATM    2  S   UNL     1     -10.400   9.026  67.775  1.00  0.00    -0.246 SA 
HETATM    3  C   UNL     1     -11.262  10.379  66.954  1.00  0.00     0.134 C  
HETATM    4  C   UNL     1     -10.548  11.720  66.986  1.00  0.00    -0.267 C  
HETATM    5  C   UNL     1      -9.203  11.873  67.175  1.00  0.00    -0.183 C  
HETATM    6  O   UNL     1      -6.151  11.173  67.589  1.00  0.00    -0.047 OA 
HETATM    7  O   UNL     1      -7.281  13.395  67.366  1.00  0.00    -0.163 OA 
HETATM    8  C   UNL     1      -8.619  13.270  67.330  1.00  0.00    -0.210 C  
HETATM    9  N   UNL     1      -8.415  10.762  67.319  1.00  0.00    -0.124 N  
HETATM   10  C   UNL     1      -7.122  10.452  67.562  1.00  0.00    -0.086 C  
HETATM   11  O   UNL     1      -9.305  14.281  67.390  1.00  0.00    -0.192 OA 
HETATM   12  C   UNL     1      -7.521   8.900  67.762  1.00  0.00    -0.093 C  
ENDROOT
BRANCH   4  13
HETATM   13  C   UNL     1     -11.538  12.880  66.854  1.00  0.00    -0.368 C  
BRANCH  13  14
HETATM   14  O   UNL     1     -12.336  12.728  65.660  1.00  0.00    -0.525 OA 
BRANCH  14  15
HETATM   15  C   UNL     1     -11.807  13.222  64.520  1.00  0.00    -0.387 C  
HETATM   16  O   UNL     1     -11.837  12.710  63.413  1.00  0.00    -0.502 OA 
HETATM   17  N   UNL     1     -11.180  14.391  64.777  1.00  0.00    -0.412 N  
HETATM   18  H2  UNL     1     -11.116  14.834  65.693  1.00  0.00     0.000 HD 
HETATM   19  H1  UNL     1     -10.781  14.764  63.915  1.00  0.00     0.000 HD 
ENDBRANCH  14  15
ENDBRANCH  13  14
ENDBRANCH   4  13
BRANCH  12  20
HETATM   20  N   UNL     1      -7.797   8.430  69.160  1.00  0.00    -0.103 N  
HETATM   21  O   UNL     1      -8.342   6.270  68.632  1.00  0.00    -0.111 OA 
HETATM   22  C   UNL     1      -8.150   7.138  69.478  1.00  0.00    -0.130 C  
HETATM   23  H   UNL     1      -7.720   9.108  69.919  1.00  0.00     0.000 HD 
BRANCH  22  24
HETATM   24  C   UNL     1      -8.332   6.880  70.960  1.00  0.00    -0.126 C  
BRANCH  24  25
HETATM   25  C   UNL     1      -9.761   7.048  71.368  1.00  0.00    -0.169 A  
HETATM   26  C   UNL     1     -10.782   6.118  71.313  1.00  0.00    -0.310 A  
HETATM   27  C   UNL     1     -12.044   6.678  71.667  1.00  0.00    -0.404 A  
HETATM   28  C   UNL     1     -11.940   8.006  72.015  1.00  0.00    -0.327 A  
HETATM   29  S   UNL     1     -10.328   8.567  71.925  1.00  0.00    -0.335 SA 
ENDBRANCH  24  25
ENDBRANCH  22  24
ENDBRANCH  12  20
BRANCH  12  30
HETATM   30  O   UNL     1      -6.703   7.965  67.007  1.00  0.00    -0.064 OA 
HETATM   31  C   UNL     1      -7.087   7.772  65.649  1.00  0.00    -0.060 C  
ENDBRANCH  12  30
TORSDOF 7
ENDMDL
MODEL      104
REMARK 921   NORMALIZED FREE ENERGY PREDICTED BY IDOCK:   -4.41 KCAL/MOL
REMARK 922        TOTAL FREE ENERGY PREDICTED BY IDOCK:   -6.90 KCAL/MOL
REMARK 923 INTER-LIGAND FREE ENERGY PREDICTED BY IDOCK:   -6.46 KCAL/MOL
REMARK 924 INTRA-LIGAND FREE ENERGY PREDICTED BY IDOCK:   -0.44 KCAL/MOL
REMARK 927      BINDING AFFINITY PREDICTED BY RF-SCORE:    0.00 PKD
ROOT
HETATM    1  C   UNL     1      -7.815  10.158  66.733  1.00  0.00    -0.108 C  
HETATM    2  S   UNL     1      -9.435   9.703  66.080  1.00  0.00    -0.237 SA 
HETATM    3  C   UNL     1      -9.676  11.290  65.263  1.00  0.00    -0.239 C  
HETATM    4  C   UNL     1      -9.368  12.512  66.112  1.00  0.00    -0.136 C  
HETATM    5  C   UNL     1      -8.554  12.504  67.209  1.00  0.00    -0.191 C  
HETATM    6  O   UNL     1      -6.553  11.483  69.429  1.00  0.00    -0.096 OA 
HETATM    7  O   UNL     1      -7.512  13.762  69.047  1.00  0.00    -0.088 OA 
HETATM    8  C   UNL     1      -8.431  13.756  68.065  1.00  0.00    -0.176 C  
HETATM    9  N   UNL     1      -7.936  11.338  67.577  1.00  0.00    -0.120 N  
HETATM   10  C   UNL     1      -7.132  10.875  68.560  1.00  0.00    -0.076 C  
HETATM   11  O   UNL     1      -9.101  14.763  67.880  1.00  0.00    -0.177 OA 
HETATM   12  C   UNL     1      -7.345   9.362  68.034  1.00  0.00    -0.079 C  
ENDROOT
BRANCH   4  13
HETATM   13  C   UNL     1     -10.146  13.737  65.624  1.00  0.00    -0.298 C  
BRANCH  13  14
HETATM   14  O   UNL     1     -11.076  13.363  64.585  1.00  0.00    -0.332 OA 
BRANCH  14  15
HETATM   15  C   UNL     1     -12.276  13.984  64.602  1.00  0.00    -0.435 C  
HETATM   16  O   UNL     1     -13.230  13.721  65.314  1.00  0.00    -0.755 OA 
HETATM   17  N   UNL     1     -12.298  14.956  63.664  1.00  0.00    -1.053 N  
HETATM   18  H2  UNL     1     -11.527  15.187  63.038  1.00  0.00     0.000 HD 
HETATM   19  H1  UNL     1     -13.204  15.426  63.677  1.00  0.00     0.000 HD 
ENDBRANCH  14  15
ENDBRANCH  13  14
ENDBRANCH   4  13
BRANCH  12  20
HETATM   20  N   UNL     1      -8.435   8.553  68.674  1.00  0.00    -0.130 N  
HETATM   21  O   UNL     1      -8.028   6.595  67.557  1.00  0.00    -0.111 OA 
HETATM   22  C   UNL     1      -8.658   7.222  68.404  1.00  0.00    -0.124 C  
HETATM   23  H   UNL     1      -9.045   9.016  69.347  1.00  0.00     0.000 HD 
BRANCH  22  24
HETATM   24  C   UNL     1      -9.782   6.595  69.203  1.00  0.00    -0.148 C  
BRANCH  24  25
HETATM   25  C   UNL     1      -9.985   7.307  70.504  1.00  0.00    -0.190 A  
HETATM   26  C   UNL     1      -9.181   7.284  71.627  1.00  0.00    -0.155 A  
HETATM   27  C   UNL     1      -9.762   7.983  72.725  1.00  0.00    -0.348 A  
HETATM   28  C   UNL     1     -10.974   8.546  72.394  1.00  0.00    -0.320 A  
HETATM   29  S   UNL     1     -11.398   8.242  70.766  1.00  0.00    -0.246 SA 
ENDBRANCH  24  25
ENDBRANCH  22  24
ENDBRANCH  12  20
BRANCH  12  30
HETATM   30  O   UNL     1      -6.115   8.607  67.857  1.00  0.00    -0.049 OA 
HETATM   31  C   UNL     1      -5.412   8.855  66.643  1.00  0.00    -0.039 C  
ENDBRANCH  12  30
TORSDOF 7
ENDMDL
MODEL      105
REMARK 921   NORMALIZED FREE ENERGY PREDICTED BY IDOCK:   -4.40 KCAL/MOL
REMARK 922        TOTAL FREE ENERGY PREDICTED BY IDOCK:   -6.88 KCAL/MOL
REMARK 923 INTER-LIGAND FREE ENERGY PREDICTED BY IDOCK:   -6.41 KCAL/MOL
REMARK 924 INTRA-LIGAND FREE ENERGY PREDICTED BY IDOCK:   -0.47 KCAL/MOL
REMARK 927      BINDING AFFINITY PREDICTED BY RF-SCORE:    0.00 PKD
ROOT
HETATM    1  C   UNL     1      -9.275   8.186  69.288  1.00  0.00    -0.151 C  
HETATM    2  S   UNL     1      -8.390   9.701  69.715  1.00  0.00    -0.190 SA 
HETATM    3  C   UNL     1      -7.468   8.919  71.051  1.00  0.00    -0.110 C  
HETATM    4  C   UNL     1      -8.295   8.072  72.003  1.00  0.00    -0.179 C  
HETATM    5  C   UNL     1      -9.509   7.526  71.693  1.00  0.00    -0.149 C  
HETATM    6  O   UNL     1     -12.072   6.696  70.044  1.00  0.00    -0.280 OA 
HETATM    7  O   UNL     1     -11.428   6.162  72.403  1.00  0.00    -0.285 OA 
HETATM    8  C   UNL     1     -10.311   6.813  72.772  1.00  0.00    -0.209 C  
HETATM    9  N   UNL     1     -10.029   7.713  70.440  1.00  0.00    -0.188 N  
HETATM   10  C   UNL     1     -11.151   7.420  69.745  1.00  0.00    -0.152 C  
HETATM   11  O   UNL     1      -9.972   6.778  73.947  1.00  0.00    -0.243 OA 
HETATM   12  C   UNL     1     -10.672   8.387  68.544  1.00  0.00    -0.021 C  
ENDROOT
BRANCH   4  13
HETATM   13  C   UNL     1      -7.628   7.970  73.377  1.00  0.00    -0.154 C  
BRANCH  13  14
HETATM   14  O   UNL     1      -6.324   7.361  73.260  1.00  0.00    -0.062 OA 
BRANCH  14  15
HETATM   15  C   UNL     1      -6.209   6.098  73.726  1.00  0.00    -0.065 C  
HETATM   16  O   UNL     1      -5.332   5.294  73.462  1.00  0.00    -0.020 OA 
HETATM   17  N   UNL     1      -7.256   5.812  74.531  1.00  0.00    -0.088 N  
HETATM   18  H2  UNL     1      -8.018   6.452  74.754  1.00  0.00     0.000 HD 
HETATM   19  H1  UNL     1      -7.169   4.858  74.883  1.00  0.00     0.000 HD 
ENDBRANCH  14  15
ENDBRANCH  13  14
ENDBRANCH   4  13
BRANCH  12  20
HETATM   20  N   UNL     1     -11.165   9.804  68.557  1.00  0.00    -0.496 N  
HETATM   21  O   UNL     1     -10.132  10.482  66.628  1.00  0.00    -0.206 OA 
HETATM   22  C   UNL     1     -10.879  10.722  67.572  1.00  0.00    -0.288 C  
HETATM   23  H   UNL     1     -11.744  10.104  69.341  1.00  0.00     0.000 HD 
BRANCH  22  24
HETATM   24  C   UNL     1     -11.524  12.079  67.768  1.00  0.00    -0.394 C  
BRANCH  24  25
HETATM   25  C   UNL     1     -11.709  12.786  66.462  1.00  0.00    -0.400 A  
HETATM   26  C   UNL     1     -12.159  12.266  65.263  1.00  0.00    -0.361 A  
HETATM   27  C   UNL     1     -12.082  13.210  64.199  1.00  0.00    -0.496 A  
HETATM   28  C   UNL     1     -11.608  14.430  64.626  1.00  0.00    -0.409 A  
HETATM   29  S   UNL     1     -11.272  14.436  66.302  1.00  0.00    -0.345 SA 
ENDBRANCH  24  25
ENDBRANCH  22  24
ENDBRANCH  12  20
BRANCH  12  30
HETATM   30  O   UNL     1     -10.734   7.783  67.222  1.00  0.00    -0.307 OA 
HETATM   31  C   UNL     1      -9.770   6.766  66.967  1.00  0.00    -0.156 C  
ENDBRANCH  12  30
TORSDOF 7
ENDMDL
MODEL      106
REMARK 921   NORMALIZED FREE ENERGY PREDICTED BY IDOCK:   -4.39 KCAL/MOL
REMARK 922        TOTAL FREE ENERGY PREDICTED BY IDOCK:   -6.87 KCAL/MOL
REMARK 923 INTER-LIGAND FREE ENERGY PREDICTED BY IDOCK:   -5.87 KCAL/MOL
REMARK 924 INTRA-LIGAND FREE ENERGY PREDICTED BY IDOCK:   -0.99 KCAL/MOL
REMARK 927      BINDING AFFINITY PREDICTED BY RF-SCORE:    0.00 PKD
ROOT
HETATM    1  C   UNL     1     -11.301   7.926  70.593  1.00  0.00    -0.259 C  
HETATM    2  S   UNL     1     -10.507   9.371  71.327  1.00  0.00    -0.258 SA 
HETATM    3  C   UNL     1     -10.936  10.447  69.947  1.00  0.00    -0.305 C  
HETATM    4  C   UNL     1     -10.653   9.878  68.567  1.00  0.00    -0.248 C  
HETATM    5  C   UNL     1     -10.532   8.545  68.292  1.00  0.00    -0.171 C  
HETATM    6  O   UNL     1     -10.507   5.411  68.680  1.00  0.00    -0.181 OA 
HETATM    7  O   UNL     1     -10.140   6.784  66.621  1.00  0.00    -0.185 OA 
HETATM    8  C   UNL     1     -10.107   8.099  66.900  1.00  0.00    -0.297 C  
HETATM    9  N   UNL     1     -10.700   7.634  69.301  1.00  0.00    -0.200 N  
HETATM   10  C   UNL     1     -10.627   6.298  69.493  1.00  0.00    -0.271 C  
HETATM   11  O   UNL     1      -9.771   8.879  66.019  1.00  0.00    -0.260 OA 
HETATM   12  C   UNL     1     -10.754   6.511  71.089  1.00  0.00    -0.240 C  
ENDROOT
BRANCH   4  13
HETATM   13  C   UNL     1     -10.448  10.994  67.538  1.00  0.00    -0.209 C  
BRANCH  13  14
HETATM   14  O   UNL     1     -11.718  11.553  67.141  1.00  0.00    -0.567 OA 
BRANCH  14  15
HETATM   15  C   UNL     1     -11.770  12.108  65.910  1.00  0.00    -0.328 C  
HETATM   16  O   UNL     1     -12.652  12.819  65.461  1.00  0.00    -0.611 OA 
HETATM   17  N   UNL     1     -10.688  11.730  65.195  1.00  0.00    -0.282 N  
HETATM   18  H2  UNL     1      -9.944  11.118  65.532  1.00  0.00     0.000 HD 
HETATM   19  H1  UNL     1     -10.727  12.148  64.265  1.00  0.00     0.000 HD 
ENDBRANCH  14  15
ENDBRANCH  13  14
ENDBRANCH   4  13
BRANCH  12  20
HETATM   20  N   UNL     1      -9.483   6.598  71.880  1.00  0.00    -0.151 N  
HETATM   21  O   UNL     1      -8.581   4.609  71.189  1.00  0.00    -0.107 OA 
HETATM   22  C   UNL     1      -8.485   5.651  71.831  1.00  0.00    -0.127 C  
HETATM   23  H   UNL     1      -9.350   7.405  72.489  1.00  0.00     0.000 HD 
BRANCH  22  24
HETATM   24  C   UNL     1      -7.269   5.971  72.677  1.00  0.00    -0.086 C  
BRANCH  24  25
HETATM   25  C   UNL     1      -6.445   7.052  72.054  1.00  0.00    -0.052 A  
HETATM   26  C   UNL     1      -6.229   8.337  72.516  1.00  0.00    -0.073 A  
HETATM   27  C   UNL     1      -5.491   9.129  71.589  1.00  0.00    -0.058 A  
HETATM   28  C   UNL     1      -5.137   8.414  70.467  1.00  0.00    -0.022 A  
HETATM   29  S   UNL     1      -5.683   6.796  70.539  1.00  0.00    -0.024 SA 
ENDBRANCH  24  25
ENDBRANCH  22  24
ENDBRANCH  12  20
BRANCH  12  30
HETATM   30  O   UNL     1     -11.759   5.676  71.729  1.00  0.00    -0.094 OA 
HETATM   31  C   UNL     1     -11.516   5.364  73.097  1.00  0.00    -0.208 C  
ENDBRANCH  12  30
TORSDOF 7
ENDMDL
MODEL      107
REMARK 921   NORMALIZED FREE ENERGY PREDICTED BY IDOCK:   -4.37 KCAL/MOL
REMARK 922        TOTAL FREE ENERGY PREDICTED BY IDOCK:   -6.84 KCAL/MOL
REMARK 923 INTER-LIGAND FREE ENERGY PREDICTED BY IDOCK:   -6.05 KCAL/MOL
REMARK 924 INTRA-LIGAND FREE ENERGY PREDICTED BY IDOCK:   -0.79 KCAL/MOL
REMARK 927      BINDING AFFINITY PREDICTED BY RF-SCORE:    0.00 PKD
ROOT
HETATM    1  C   UNL     1     -10.126   8.874  68.803  1.00  0.00    -0.200 C  
HETATM    2  S   UNL     1     -10.617   9.682  67.266  1.00  0.00    -0.214 SA 
HETATM    3  C   UNL     1      -9.566   8.632  66.247  1.00  0.00    -0.252 C  
HETATM    4  C   UNL     1      -8.142   8.456  66.747  1.00  0.00    -0.098 C  
HETATM    5  C   UNL     1      -7.751   8.644  68.042  1.00  0.00    -0.102 C  
HETATM    6  O   UNL     1      -7.887   9.231  71.143  1.00  0.00    -0.289 OA 
HETATM    7  O   UNL     1      -5.935   8.620  69.701  1.00  0.00    -0.032 OA 
HETATM    8  C   UNL     1      -6.273   8.578  68.400  1.00  0.00    -0.054 C  
HETATM    9  N   UNL     1      -8.686   8.986  68.983  1.00  0.00    -0.137 N  
HETATM   10  C   UNL     1      -8.746   9.303  70.295  1.00  0.00    -0.219 C  
HETATM   11  O   UNL     1      -5.386   8.456  67.566  1.00  0.00    -0.033 OA 
HETATM   12  C   UNL     1     -10.289   9.749  70.127  1.00  0.00    -0.282 C  
ENDROOT
BRANCH   4  13
HETATM   13  C   UNL     1      -7.189   8.115  65.598  1.00  0.00    -0.071 C  
BRANCH  13  14
HETATM   14  O   UNL     1      -7.424   8.986  64.472  1.00  0.00    -0.100 OA 
BRANCH  14  15
HETATM   15  C   UNL     1      -6.442   9.867  64.180  1.00  0.00    -0.126 C  
HETATM   16  O   UNL     1      -5.457  10.119  64.853  1.00  0.00    -0.076 OA 
HETATM   17  N   UNL     1      -6.718  10.487  63.012  1.00  0.00    -0.308 N  
HETATM   18  H2  UNL     1      -7.543  10.316  62.437  1.00  0.00     0.000 HD 
HETATM   19  H1  UNL     1      -5.976  11.152  62.792  1.00  0.00     0.000 HD 
ENDBRANCH  14  15
ENDBRANCH  13  14
ENDBRANCH   4  13
BRANCH  12  20
HETATM   20  N   UNL     1     -10.566  11.200  69.862  1.00  0.00    -0.423 N  
HETATM   21  O   UNL     1     -12.819  10.999  69.504  1.00  0.00    -0.188 OA 
HETATM   22  C   UNL     1     -11.821  11.705  69.609  1.00  0.00    -0.352 C  
HETATM   23  H   UNL     1      -9.779  11.848  69.870  1.00  0.00     0.000 HD 
BRANCH  22  24
HETATM   24  C   UNL     1     -11.870  13.208  69.418  1.00  0.00    -0.383 C  
BRANCH  24  25
HETATM   25  C   UNL     1     -11.463  13.593  68.031  1.00  0.00    -0.310 A  
HETATM   26  C   UNL     1     -12.197  13.494  66.865  1.00  0.00    -0.377 A  
HETATM   27  C   UNL     1     -11.433  13.838  65.712  1.00  0.00    -0.324 A  
HETATM   28  C   UNL     1     -10.152  14.221  66.039  1.00  0.00    -0.318 A  
HETATM   29  S   UNL     1      -9.880  14.177  67.725  1.00  0.00    -0.236 SA 
ENDBRANCH  24  25
ENDBRANCH  22  24
ENDBRANCH  12  20
BRANCH  12  30
HETATM   30  O   UNL     1     -11.193   9.176  71.112  1.00  0.00    -0.272 OA 
HETATM   31  C   UNL     1     -11.608   7.838  70.857  1.00  0.00    -0.274 C  
ENDBRANCH  12  30
TORSDOF 7
ENDMDL
MODEL      108
REMARK 921   NORMALIZED FREE ENERGY PREDICTED BY IDOCK:   -4.36 KCAL/MOL
REMARK 922        TOTAL FREE ENERGY PREDICTED BY IDOCK:   -6.81 KCAL/MOL
REMARK 923 INTER-LIGAND FREE ENERGY PREDICTED BY IDOCK:   -5.88 KCAL/MOL
REMARK 924 INTRA-LIGAND FREE ENERGY PREDICTED BY IDOCK:   -0.94 KCAL/MOL
REMARK 927      BINDING AFFINITY PREDICTED BY RF-SCORE:    0.00 PKD
ROOT
HETATM    1  C   UNL     1     -11.738   8.861  70.029  1.00  0.00     0.230 C  
HETATM    2  S   UNL     1     -10.916  10.447  70.292  1.00  0.00    -0.231 SA 
HETATM    3  C   UNL     1     -10.840  10.827  68.533  1.00  0.00    -0.228 C  
HETATM    4  C   UNL     1     -10.341   9.700  67.645  1.00  0.00    -0.290 C  
HETATM    5  C   UNL     1     -10.372   8.377  67.986  1.00  0.00    -0.215 C  
HETATM    6  O   UNL     1     -10.932   5.731  69.617  1.00  0.00    -0.354 OA 
HETATM    7  O   UNL     1      -9.889   6.047  67.365  1.00  0.00    -0.119 OA 
HETATM    8  C   UNL     1      -9.714   7.349  67.077  1.00  0.00    -0.191 C  
HETATM    9  N   UNL     1     -10.909   8.008  69.191  1.00  0.00    -0.095 N  
HETATM   10  C   UNL     1     -11.094   6.889  69.926  1.00  0.00    -0.288 C  
HETATM   11  O   UNL     1      -9.065   7.649  66.084  1.00  0.00    -0.173 OA 
HETATM   12  C   UNL     1     -11.551   7.784  71.191  1.00  0.00    -0.281 C  
ENDROOT
BRANCH   4  13
HETATM   13  C   UNL     1      -9.731  10.242  66.350  1.00  0.00    -0.201 C  
BRANCH  13  14
HETATM   14  O   UNL     1     -10.639  11.166  65.713  1.00  0.00    -0.259 OA 
BRANCH  14  15
HETATM   15  C   UNL     1     -10.784  11.038  64.376  1.00  0.00    -0.269 C  
HETATM   16  O   UNL     1     -11.557  11.649  63.658  1.00  0.00    -0.424 OA 
HETATM   17  N   UNL     1      -9.951  10.078  63.917  1.00  0.00    -0.475 N  
HETATM   18  H2  UNL     1      -9.309   9.533  64.493  1.00  0.00     0.000 HD 
HETATM   19  H1  UNL     1     -10.060   9.982  62.907  1.00  0.00     0.000 HD 
ENDBRANCH  14  15
ENDBRANCH  13  14
ENDBRANCH   4  13
BRANCH  12  20
HETATM   20  N   UNL     1     -10.498   8.154  72.194  1.00  0.00    -0.259 N  
HETATM   21  O   UNL     1     -10.677   6.280  73.498  1.00  0.00    -0.262 OA 
HETATM   22  C   UNL     1     -10.126   7.347  73.245  1.00  0.00    -0.316 C  
HETATM   23  H   UNL     1     -10.032   9.055  72.091  1.00  0.00     0.000 HD 
BRANCH  22  24
HETATM   24  C   UNL     1      -9.007   7.903  74.102  1.00  0.00    -0.126 C  
BRANCH  24  25
HETATM   25  C   UNL     1      -7.690   7.292  73.740  1.00  0.00    -0.107 A  
HETATM   26  C   UNL     1      -6.797   7.697  72.766  1.00  0.00    -0.072 A  
HETATM   27  C   UNL     1      -5.706   6.792  72.621  1.00  0.00    -0.038 A  
HETATM   28  C   UNL     1      -5.783   5.745  73.512  1.00  0.00    -0.036 A  
HETATM   29  S   UNL     1      -7.156   5.862  74.522  1.00  0.00    -0.087 SA 
ENDBRANCH  24  25
ENDBRANCH  22  24
ENDBRANCH  12  20
BRANCH  12  30
HETATM   30  O   UNL     1     -12.795   7.358  71.813  1.00  0.00    -0.332 OA 
HETATM   31  C   UNL     1     -13.893   8.252  71.665  1.00  0.00    -0.377 C  
ENDBRANCH  12  30
TORSDOF 7
ENDMDL
MODEL      109
REMARK 921   NORMALIZED FREE ENERGY PREDICTED BY IDOCK:   -4.32 KCAL/MOL
REMARK 922        TOTAL FREE ENERGY PREDICTED BY IDOCK:   -6.77 KCAL/MOL
REMARK 923 INTER-LIGAND FREE ENERGY PREDICTED BY IDOCK:   -5.58 KCAL/MOL
REMARK 924 INTRA-LIGAND FREE ENERGY PREDICTED BY IDOCK:   -1.19 KCAL/MOL
REMARK 927      BINDING AFFINITY PREDICTED BY RF-SCORE:    0.00 PKD
ROOT
HETATM    1  C   UNL     1      -9.068   7.869  68.817  1.00  0.00    -0.140 C  
HETATM    2  S   UNL     1     -10.755   7.233  68.737  1.00  0.00    -0.087 SA 
HETATM    3  C   UNL     1     -10.252   5.674  67.987  1.00  0.00    -0.186 C  
HETATM    4  C   UNL     1      -9.289   5.795  66.819  1.00  0.00    -0.140 C  
HETATM    5  C   UNL     1      -8.480   6.874  66.595  1.00  0.00    -0.121 C  
HETATM    6  O   UNL     1      -7.045   9.658  66.995  1.00  0.00    -0.084 OA 
HETATM    7  O   UNL     1      -6.767   7.945  65.192  1.00  0.00    -0.050 OA 
HETATM    8  C   UNL     1      -7.660   6.947  65.315  1.00  0.00    -0.099 C  
HETATM    9  N   UNL     1      -8.495   7.919  67.480  1.00  0.00    -0.123 N  
HETATM   10  C   UNL     1      -7.936   9.141  67.627  1.00  0.00    -0.100 C  
HETATM   11  O   UNL     1      -7.752   6.126  64.412  1.00  0.00    -0.092 OA 
HETATM   12  C   UNL     1      -8.930   9.458  68.860  1.00  0.00    -0.136 C  
ENDROOT
BRANCH   4  13
HETATM   13  C   UNL     1      -9.394   4.587  65.885  1.00  0.00    -0.159 C  
BRANCH  13  14
HETATM   14  O   UNL     1     -10.581   4.683  65.068  1.00  0.00    -0.088 OA 
BRANCH  14  15
HETATM   15  C   UNL     1     -10.589   3.949  63.934  1.00  0.00    -0.217 C  
HETATM   16  O   UNL     1     -11.103   2.856  63.769  1.00  0.00    -0.249 OA 
HETATM   17  N   UNL     1      -9.894   4.593  62.970  1.00  0.00    -0.365 N  
HETATM   18  H2  UNL     1      -9.433   5.496  63.082  1.00  0.00     0.000 HD 
HETATM   19  H1  UNL     1      -9.900   4.039  62.113  1.00  0.00     0.000 HD 
ENDBRANCH  14  15
ENDBRANCH  13  14
ENDBRANCH   4  13
BRANCH  12  20
HETATM   20  N   UNL     1     -10.206  10.184  68.553  1.00  0.00    -0.166 N  
HETATM   21  O   UNL     1      -9.291  12.266  68.283  1.00  0.00    -0.203 OA 
HETATM   22  C   UNL     1     -10.269  11.526  68.253  1.00  0.00    -0.196 C  
HETATM   23  H   UNL     1     -11.076   9.653  68.567  1.00  0.00     0.000 HD 
BRANCH  22  24
HETATM   24  C   UNL     1     -11.659  12.035  67.927  1.00  0.00    -0.405 C  
BRANCH  24  25
HETATM   25  C   UNL     1     -11.779  12.396  66.481  1.00  0.00    -0.379 A  
HETATM   26  C   UNL     1     -11.381  11.662  65.379  1.00  0.00    -0.218 A  
HETATM   27  C   UNL     1     -11.539  12.384  64.161  1.00  0.00    -0.458 A  
HETATM   28  C   UNL     1     -12.085  13.630  64.367  1.00  0.00    -0.427 A  
HETATM   29  S   UNL     1     -12.414  13.920  66.019  1.00  0.00    -0.415 SA 
ENDBRANCH  24  25
ENDBRANCH  22  24
ENDBRANCH  12  20
BRANCH  12  30
HETATM   30  O   UNL     1      -8.268   9.965  70.052  1.00  0.00    -0.175 OA 
HETATM   31  C   UNL     1      -7.197   9.167  70.545  1.00  0.00    -0.097 C  
ENDBRANCH  12  30
TORSDOF 7
ENDMDL
MODEL      110
REMARK 921   NORMALIZED FREE ENERGY PREDICTED BY IDOCK:   -4.30 KCAL/MOL
REMARK 922        TOTAL FREE ENERGY PREDICTED BY IDOCK:   -6.74 KCAL/MOL
REMARK 923 INTER-LIGAND FREE ENERGY PREDICTED BY IDOCK:   -6.36 KCAL/MOL
REMARK 924 INTRA-LIGAND FREE ENERGY PREDICTED BY IDOCK:   -0.38 KCAL/MOL
REMARK 927      BINDING AFFINITY PREDICTED BY RF-SCORE:    0.00 PKD
ROOT
HETATM    1  C   UNL     1      -8.181   9.585  70.398  1.00  0.00    -0.190 C  
HETATM    2  S   UNL     1      -7.339   8.974  68.923  1.00  0.00    -0.075 SA 
HETATM    3  C   UNL     1      -7.847  10.378  67.915  1.00  0.00    -0.101 C  
HETATM    4  C   UNL     1      -9.317  10.751  68.013  1.00  0.00    -0.152 C  
HETATM    5  C   UNL     1     -10.127  10.424  69.063  1.00  0.00    -0.213 C  
HETATM    6  O   UNL     1     -11.082   9.290  71.852  1.00  0.00    -0.367 OA 
HETATM    7  O   UNL     1     -12.358  10.529  70.092  1.00  0.00    -0.300 OA 
HETATM    8  C   UNL     1     -11.616  10.727  68.988  1.00  0.00    -0.299 C  
HETATM    9  N   UNL     1      -9.602   9.739  70.127  1.00  0.00    -0.250 N  
HETATM   10  C   UNL     1     -10.014   9.193  71.293  1.00  0.00    -0.303 C  
HETATM   11  O   UNL     1     -12.160  11.172  67.986  1.00  0.00    -0.635 OA 
HETATM   12  C   UNL     1      -8.578   8.477  71.476  1.00  0.00    -0.181 C  
ENDROOT
BRANCH   4  13
HETATM   13  C   UNL     1      -9.791  11.475  66.750  1.00  0.00    -0.203 C  
BRANCH  13  14
HETATM   14  O   UNL     1      -9.763  12.905  66.949  1.00  0.00    -0.227 OA 
BRANCH  14  15
HETATM   15  C   UNL     1     -10.519  13.642  66.105  1.00  0.00    -0.297 C  
HETATM   16  O   UNL     1     -11.638  14.078  66.311  1.00  0.00    -0.341 OA 
HETATM   17  N   UNL     1      -9.862  13.813  64.937  1.00  0.00    -0.605 N  
HETATM   18  H2  UNL     1      -8.935  13.443  64.724  1.00  0.00     0.000 HD 
HETATM   19  H1  UNL     1     -10.432  14.370  64.300  1.00  0.00     0.000 HD 
ENDBRANCH  14  15
ENDBRANCH  13  14
ENDBRANCH   4  13
BRANCH  12  20
HETATM   20  N   UNL     1      -8.437   7.069  70.976  1.00  0.00    -0.132 N  
HETATM   21  O   UNL     1      -6.203   6.832  71.421  1.00  0.00    -0.040 OA 
HETATM   22  C   UNL     1      -7.262   6.354  71.027  1.00  0.00    -0.078 C  
HETATM   23  H   UNL     1      -9.258   6.617  70.575  1.00  0.00     0.000 HD 
BRANCH  22  24
HETATM   24  C   UNL     1      -7.365   4.933  70.510  1.00  0.00    -0.054 C  
BRANCH  24  25
HETATM   25  C   UNL     1      -8.195   4.083  71.420  1.00  0.00    -0.077 A  
HETATM   26  C   UNL     1      -9.234   3.235  71.087  1.00  0.00    -0.195 A  
HETATM   27  C   UNL     1      -9.876   2.687  72.236  1.00  0.00    -0.230 A  
HETATM   28  C   UNL     1      -9.285   3.109  73.406  1.00  0.00    -0.088 A  
HETATM   29  S   UNL     1      -7.958   4.147  73.117  1.00  0.00    -0.090 SA 
ENDBRANCH  24  25
ENDBRANCH  22  24
ENDBRANCH  12  20
BRANCH  12  30
HETATM   30  O   UNL     1      -7.969   8.673  72.782  1.00  0.00    -0.370 OA 
HETATM   31  C   UNL     1      -8.600   7.993  73.862  1.00  0.00    -0.262 C  
ENDBRANCH  12  30
TORSDOF 7
ENDMDL
MODEL      111
REMARK 921   NORMALIZED FREE ENERGY PREDICTED BY IDOCK:   -4.30 KCAL/MOL
REMARK 922        TOTAL FREE ENERGY PREDICTED BY IDOCK:   -6.74 KCAL/MOL
REMARK 923 INTER-LIGAND FREE ENERGY PREDICTED BY IDOCK:   -6.26 KCAL/MOL
REMARK 924 INTRA-LIGAND FREE ENERGY PREDICTED BY IDOCK:   -0.48 KCAL/MOL
REMARK 927      BINDING AFFINITY PREDICTED BY RF-SCORE:    0.00 PKD
ROOT
HETATM    1  C   UNL     1      -9.531   7.122  70.553  1.00  0.00    -0.162 C  
HETATM    2  S   UNL     1     -11.147   6.491  70.055  1.00  0.00    -0.395 SA 
HETATM    3  C   UNL     1     -10.457   5.024  69.270  1.00  0.00    -0.035 C  
HETATM    4  C   UNL     1      -9.274   5.274  68.349  1.00  0.00    -0.135 C  
HETATM    5  C   UNL     1      -8.466   6.373  68.414  1.00  0.00    -0.116 C  
HETATM    6  O   UNL     1      -7.220   9.105  69.395  1.00  0.00    -0.064 OA 
HETATM    7  O   UNL     1      -6.527   7.595  67.523  1.00  0.00    -0.054 OA 
HETATM    8  C   UNL     1      -7.399   6.587  67.350  1.00  0.00    -0.091 C  
HETATM    9  N   UNL     1      -8.693   7.318  69.380  1.00  0.00    -0.137 N  
HETATM   10  C   UNL     1      -8.210   8.519  69.767  1.00  0.00    -0.121 C  
HETATM   11  O   UNL     1      -7.278   5.867  66.368  1.00  0.00    -0.073 OA 
HETATM   12  C   UNL     1      -9.447   8.698  70.790  1.00  0.00    -0.190 C  
ENDROOT
BRANCH   4  13
HETATM   13  C   UNL     1      -9.150   4.172  67.293  1.00  0.00    -0.144 C  
BRANCH  13  14
HETATM   14  O   UNL     1     -10.195   4.301  66.305  1.00  0.00    -0.219 OA 
BRANCH  14  15
HETATM   15  C   UNL     1      -9.900   3.861  65.062  1.00  0.00    -0.192 C  
HETATM   16  O   UNL     1      -8.806   3.532  64.638  1.00  0.00    -0.113 OA 
HETATM   17  N   UNL     1     -11.017   3.865  64.301  1.00  0.00    -0.555 N  
HETATM   18  H2  UNL     1     -11.942   4.156  64.617  1.00  0.00     0.000 HD 
HETATM   19  H1  UNL     1     -10.795   3.533  63.362  1.00  0.00     0.000 HD 
ENDBRANCH  14  15
ENDBRANCH  13  14
ENDBRANCH   4  13
BRANCH  12  20
HETATM   20  N   UNL     1     -10.650   9.448  70.298  1.00  0.00    -0.230 N  
HETATM   21  O   UNL     1      -9.521  11.033  69.090  1.00  0.00    -0.156 OA 
HETATM   22  C   UNL     1     -10.582  10.534  69.456  1.00  0.00    -0.246 C  
HETATM   23  H   UNL     1     -11.570   9.134  70.605  1.00  0.00     0.000 HD 
BRANCH  22  24
HETATM   24  C   UNL     1     -11.926  11.103  69.049  1.00  0.00    -0.389 C  
BRANCH  24  25
HETATM   25  C   UNL     1     -11.783  12.478  68.476  1.00  0.00    -0.324 A  
HETATM   26  C   UNL     1     -11.773  13.687  69.146  1.00  0.00    -0.376 A  
HETATM   27  C   UNL     1     -11.749  14.799  68.255  1.00  0.00    -0.340 A  
HETATM   28  C   UNL     1     -11.706  14.404  66.937  1.00  0.00    -0.402 A  
HETATM   29  S   UNL     1     -11.683  12.702  66.779  1.00  0.00    -0.370 SA 
ENDBRANCH  24  25
ENDBRANCH  22  24
ENDBRANCH  12  20
BRANCH  12  30
HETATM   30  O   UNL     1      -9.062   9.077  72.140  1.00  0.00    -0.372 OA 
HETATM   31  C   UNL     1      -9.327   8.107  73.149  1.00  0.00    -0.258 C  
ENDBRANCH  12  30
TORSDOF 7
ENDMDL
MODEL      112
REMARK 921   NORMALIZED FREE ENERGY PREDICTED BY IDOCK:   -4.29 KCAL/MOL
REMARK 922        TOTAL FREE ENERGY PREDICTED BY IDOCK:   -6.73 KCAL/MOL
REMARK 923 INTER-LIGAND FREE ENERGY PREDICTED BY IDOCK:   -5.69 KCAL/MOL
REMARK 924 INTRA-LIGAND FREE ENERGY PREDICTED BY IDOCK:   -1.03 KCAL/MOL
REMARK 927      BINDING AFFINITY PREDICTED BY RF-SCORE:    0.00 PKD
ROOT
HETATM    1  C   UNL     1     -10.381   7.935  69.650  1.00  0.00    -0.216 C  
HETATM    2  S   UNL     1     -10.781   6.902  68.224  1.00  0.00    -0.194 SA 
HETATM    3  C   UNL     1     -10.199   5.392  69.015  1.00  0.00    -0.221 C  
HETATM    4  C   UNL     1      -8.842   5.492  69.691  1.00  0.00    -0.120 C  
HETATM    5  C   UNL     1      -8.274   6.662  70.110  1.00  0.00    -0.133 C  
HETATM    6  O   UNL     1      -7.894   9.733  70.743  1.00  0.00    -0.304 OA 
HETATM    7  O   UNL     1      -6.374   7.794  71.186  1.00  0.00    -0.035 OA 
HETATM    8  C   UNL     1      -6.850   6.658  70.647  1.00  0.00    -0.062 C  
HETATM    9  N   UNL     1      -8.961   7.836  69.950  1.00  0.00    -0.146 N  
HETATM   10  C   UNL     1      -8.782   9.160  70.156  1.00  0.00    -0.181 C  
HETATM   11  O   UNL     1      -6.134   5.666  70.640  1.00  0.00    -0.027 OA 
HETATM   12  C   UNL     1     -10.137   9.481  69.337  1.00  0.00    -0.198 C  
ENDROOT
BRANCH   4  13
HETATM   13  C   UNL     1      -8.162   4.123  69.776  1.00  0.00    -0.058 C  
BRANCH  13  14
HETATM   14  O   UNL     1      -8.229   3.447  68.503  1.00  0.00    -0.071 OA 
BRANCH  14  15
HETATM   15  C   UNL     1      -7.196   2.631  68.202  1.00  0.00    -0.049 C  
HETATM   16  O   UNL     1      -7.238   1.598  67.556  1.00  0.00    -0.048 OA 
HETATM   17  N   UNL     1      -6.062   3.105  68.764  1.00  0.00    -0.027 N  
HETATM   18  H2  UNL     1      -5.997   3.952  69.329  1.00  0.00     0.000 HD 
HETATM   19  H1  UNL     1      -5.281   2.489  68.537  1.00  0.00     0.000 HD 
ENDBRANCH  14  15
ENDBRANCH  13  14
ENDBRANCH   4  13
BRANCH  12  20
HETATM   20  N   UNL     1     -10.006   9.788  67.874  1.00  0.00    -0.156 N  
HETATM   21  O   UNL     1      -8.956  11.810  68.101  1.00  0.00    -0.168 OA 
HETATM   22  C   UNL     1      -9.390  10.916  67.382  1.00  0.00    -0.155 C  
HETATM   23  H   UNL     1     -10.397   9.123  67.207  1.00  0.00     0.000 HD 
BRANCH  22  24
HETATM   24  C   UNL     1      -9.331  10.993  65.870  1.00  0.00    -0.229 C  
BRANCH  24  25
HETATM   25  C   UNL     1     -10.446  11.829  65.325  1.00  0.00    -0.274 A  
HETATM   26  C   UNL     1     -11.586  12.264  65.974  1.00  0.00    -0.451 A  
HETATM   27  C   UNL     1     -12.488  12.933  65.097  1.00  0.00    -0.561 A  
HETATM   28  C   UNL     1     -11.992  13.019  63.815  1.00  0.00    -0.518 A  
HETATM   29  S   UNL     1     -10.445  12.306  63.678  1.00  0.00    -0.433 SA 
ENDBRANCH  24  25
ENDBRANCH  22  24
ENDBRANCH  12  20
BRANCH  12  30
HETATM   30  O   UNL     1     -11.055  10.378  70.020  1.00  0.00    -0.272 OA 
HETATM   31  C   UNL     1     -11.722   9.829  71.152  1.00  0.00    -0.385 C  
ENDBRANCH  12  30
TORSDOF 7
ENDMDL
MODEL      113
REMARK 921   NORMALIZED FREE ENERGY PREDICTED BY IDOCK:   -4.26 KCAL/MOL
REMARK 922        TOTAL FREE ENERGY PREDICTED BY IDOCK:   -6.68 KCAL/MOL
REMARK 923 INTER-LIGAND FREE ENERGY PREDICTED BY IDOCK:   -6.55 KCAL/MOL
REMARK 924 INTRA-LIGAND FREE ENERGY PREDICTED BY IDOCK:   -0.14 KCAL/MOL
REMARK 927      BINDING AFFINITY PREDICTED BY RF-SCORE:    0.00 PKD
ROOT
HETATM    1  C   UNL     1      -9.368  13.496  67.777  1.00  0.00    -0.213 C  
HETATM    2  S   UNL     1      -8.315  12.369  68.715  1.00  0.00     0.225 SA 
HETATM    3  C   UNL     1      -7.405  11.827  67.257  1.00  0.00    -0.141 C  
HETATM    4  C   UNL     1      -8.260  11.458  66.057  1.00  0.00     0.017 C  
HETATM    5  C   UNL     1      -9.537  11.899  65.855  1.00  0.00    -0.231 C  
HETATM    6  O   UNL     1     -12.256  13.454  66.269  1.00  0.00    -0.414 OA 
HETATM    7  O   UNL     1     -11.543  11.912  64.432  1.00  0.00    -0.331 OA 
HETATM    8  C   UNL     1     -10.348  11.351  64.690  1.00  0.00    -0.307 C  
HETATM    9  N   UNL     1     -10.103  12.756  66.762  1.00  0.00    -0.232 N  
HETATM   10  C   UNL     1     -11.284  13.374  66.984  1.00  0.00    -0.305 C  
HETATM   11  O   UNL     1      -9.951  10.452  63.961  1.00  0.00    -0.323 OA 
HETATM   12  C   UNL     1     -10.776  13.843  68.444  1.00  0.00    -0.257 C  
ENDROOT
BRANCH   4  13
HETATM   13  C   UNL     1      -7.534  10.469  65.142  1.00  0.00    -0.036 C  
BRANCH  13  14
HETATM   14  O   UNL     1      -7.258   9.240  65.846  1.00  0.00    -0.088 OA 
BRANCH  14  15
HETATM   15  C   UNL     1      -7.557   8.095  65.194  1.00  0.00    -0.097 C  
HETATM   16  O   UNL     1      -7.649   6.978  65.674  1.00  0.00    -0.084 OA 
HETATM   17  N   UNL     1      -7.714   8.349  63.877  1.00  0.00    -0.135 N  
HETATM   18  H2  UNL     1      -7.621   9.266  63.440  1.00  0.00     0.000 HD 
HETATM   19  H1  UNL     1      -7.940   7.485  63.384  1.00  0.00     0.000 HD 
ENDBRANCH  14  15
ENDBRANCH  13  14
ENDBRANCH   4  13
BRANCH  12  20
HETATM   20  N   UNL     1     -11.123  12.967  69.612  1.00  0.00    -0.468 N  
HETATM   21  O   UNL     1     -12.411  11.461  68.465  1.00  0.00    -0.504 OA 
HETATM   22  C   UNL     1     -11.885  11.825  69.512  1.00  0.00    -0.337 C  
HETATM   23  H   UNL     1     -10.775  13.234  70.533  1.00  0.00     0.000 HD 
BRANCH  22  24
HETATM   24  C   UNL     1     -12.066  11.072  70.814  1.00  0.00    -0.467 C  
BRANCH  24  25
HETATM   25  C   UNL     1     -11.573   9.664  70.700  1.00  0.00    -0.299 A  
HETATM   26  C   UNL     1     -10.594   9.165  69.862  1.00  0.00    -0.246 A  
HETATM   27  C   UNL     1     -10.483   7.747  69.940  1.00  0.00    -0.232 A  
HETATM   28  C   UNL     1     -11.357   7.212  70.860  1.00  0.00    -0.286 A  
HETATM   29  S   UNL     1     -12.293   8.417  71.630  1.00  0.00    -0.334 SA 
ENDBRANCH  24  25
ENDBRANCH  22  24
ENDBRANCH  12  20
BRANCH  12  30
HETATM   30  O   UNL     1     -10.969  15.257  68.724  1.00  0.00    -0.239 OA 
HETATM   31  C   UNL     1     -11.211  16.080  67.588  1.00  0.00    -0.183 C  
ENDBRANCH  12  30
TORSDOF 7
ENDMDL
MODEL      114
REMARK 921   NORMALIZED FREE ENERGY PREDICTED BY IDOCK:   -4.25 KCAL/MOL
REMARK 922        TOTAL FREE ENERGY PREDICTED BY IDOCK:   -6.67 KCAL/MOL
REMARK 923 INTER-LIGAND FREE ENERGY PREDICTED BY IDOCK:   -6.04 KCAL/MOL
REMARK 924 INTRA-LIGAND FREE ENERGY PREDICTED BY IDOCK:   -0.63 KCAL/MOL
REMARK 927      BINDING AFFINITY PREDICTED BY RF-SCORE:    0.00 PKD
ROOT
HETATM    1  C   UNL     1     -10.533  12.580  66.499  1.00  0.00    -0.238 C  
HETATM    2  S   UNL     1     -11.985  12.477  67.566  1.00  0.00    -0.086 SA 
HETATM    3  C   UNL     1     -11.847  14.191  68.106  1.00  0.00    -0.352 C  
HETATM    4  C   UNL     1     -10.456  14.628  68.532  1.00  0.00    -0.247 C  
HETATM    5  C   UNL     1      -9.301  14.013  68.142  1.00  0.00    -0.201 C  
HETATM    6  O   UNL     1      -7.327  12.029  66.679  1.00  0.00    -0.028 OA 
HETATM    7  O   UNL     1      -6.845  13.930  68.233  1.00  0.00    -0.086 OA 
HETATM    8  C   UNL     1      -7.974  14.451  68.745  1.00  0.00    -0.133 C  
HETATM    9  N   UNL     1      -9.365  12.945  67.287  1.00  0.00    -0.204 N  
HETATM   10  C   UNL     1      -8.535  12.050  66.707  1.00  0.00    -0.155 C  
HETATM   11  O   UNL     1      -7.885  15.275  69.644  1.00  0.00    -0.220 OA 
HETATM   12  C   UNL     1      -9.804  11.194  66.189  1.00  0.00    -0.225 C  
ENDROOT
BRANCH   4  13
HETATM   13  C   UNL     1     -10.520  15.801  69.514  1.00  0.00    -0.270 C  
BRANCH  13  14
HETATM   14  O   UNL     1     -10.663  15.319  70.867  1.00  0.00    -0.266 OA 
BRANCH  14  15
HETATM   15  C   UNL     1     -11.908  14.956  71.246  1.00  0.00    -0.339 C  
HETATM   16  O   UNL     1     -12.289  13.838  71.548  1.00  0.00    -0.308 OA 
HETATM   17  N   UNL     1     -12.725  16.032  71.213  1.00  0.00    -0.529 N  
HETATM   18  H2  UNL     1     -12.445  16.975  70.943  1.00  0.00     0.000 HD 
HETATM   19  H1  UNL     1     -13.666  15.758  71.499  1.00  0.00     0.000 HD 
ENDBRANCH  14  15
ENDBRANCH  13  14
ENDBRANCH   4  13
BRANCH  12  20
HETATM   20  N   UNL     1     -10.272  10.059  67.051  1.00  0.00    -0.225 N  
HETATM   21  O   UNL     1      -8.366   8.797  66.919  1.00  0.00    -0.107 OA 
HETATM   22  C   UNL     1      -9.493   8.971  67.372  1.00  0.00    -0.144 C  
HETATM   23  H   UNL     1     -11.223  10.096  67.419  1.00  0.00     0.000 HD 
BRANCH  22  24
HETATM   24  C   UNL     1     -10.157   7.970  68.296  1.00  0.00    -0.227 C  
BRANCH  24  25
HETATM   25  C   UNL     1     -10.101   6.587  67.729  1.00  0.00    -0.148 A  
HETATM   26  C   UNL     1     -10.860   6.050  66.706  1.00  0.00    -0.356 A  
HETATM   27  C   UNL     1     -10.618   4.657  66.525  1.00  0.00    -0.043 A  
HETATM   28  C   UNL     1      -9.659   4.184  67.392  1.00  0.00    -0.180 A  
HETATM   29  S   UNL     1      -9.048   5.416  68.407  1.00  0.00    -0.111 SA 
ENDBRANCH  24  25
ENDBRANCH  22  24
ENDBRANCH  12  20
BRANCH  12  30
HETATM   30  O   UNL     1      -9.760  10.848  64.777  1.00  0.00    -0.229 OA 
HETATM   31  C   UNL     1     -10.176  11.873  63.881  1.00  0.00    -0.389 C  
ENDBRANCH  12  30
TORSDOF 7
ENDMDL
MODEL      115
REMARK 921   NORMALIZED FREE ENERGY PREDICTED BY IDOCK:   -4.25 KCAL/MOL
REMARK 922        TOTAL FREE ENERGY PREDICTED BY IDOCK:   -6.66 KCAL/MOL
REMARK 923 INTER-LIGAND FREE ENERGY PREDICTED BY IDOCK:   -5.79 KCAL/MOL
REMARK 924 INTRA-LIGAND FREE ENERGY PREDICTED BY IDOCK:   -0.87 KCAL/MOL
REMARK 927      BINDING AFFINITY PREDICTED BY RF-SCORE:    0.00 PKD
ROOT
HETATM    1  C   UNL     1      -8.707   9.236  68.068  1.00  0.00    -0.125 C  
HETATM    2  S   UNL     1      -8.538  10.571  69.272  1.00  0.00    -0.080 SA 
HETATM    3  C   UNL     1      -8.094   9.455  70.615  1.00  0.00    -0.161 C  
HETATM    4  C   UNL     1      -8.978   8.229  70.761  1.00  0.00    -0.166 C  
HETATM    5  C   UNL     1      -9.746   7.708  69.759  1.00  0.00    -0.171 C  
HETATM    6  O   UNL     1     -11.034   7.274  66.908  1.00  0.00    -0.343 OA 
HETATM    7  O   UNL     1     -11.330   5.975  69.026  1.00  0.00    -0.340 OA 
HETATM    8  C   UNL     1     -10.700   6.561  70.060  1.00  0.00    -0.249 C  
HETATM    9  N   UNL     1      -9.716   8.289  68.519  1.00  0.00    -0.153 N  
HETATM   10  C   UNL     1     -10.310   8.154  67.313  1.00  0.00    -0.303 C  
HETATM   11  O   UNL     1     -10.895   6.129  71.188  1.00  0.00    -0.247 OA 
HETATM   12  C   UNL     1      -9.653   9.545  66.821  1.00  0.00    -0.176 C  
ENDROOT
BRANCH   4  13
HETATM   13  C   UNL     1      -8.956   7.697  72.197  1.00  0.00    -0.133 C  
BRANCH  13  14
HETATM   14  O   UNL     1      -7.693   7.056  72.477  1.00  0.00    -0.092 OA 
BRANCH  14  15
HETATM   15  C   UNL     1      -7.561   5.781  72.051  1.00  0.00    -0.101 C  
HETATM   16  O   UNL     1      -6.730   5.349  71.270  1.00  0.00    -0.045 OA 
HETATM   17  N   UNL     1      -8.531   5.015  72.596  1.00  0.00    -0.116 N  
HETATM   18  H2  UNL     1      -9.255   5.349  73.233  1.00  0.00     0.000 HD 
HETATM   19  H1  UNL     1      -8.431   4.052  72.274  1.00  0.00     0.000 HD 
ENDBRANCH  14  15
ENDBRANCH  13  14
ENDBRANCH   4  13
BRANCH  12  20
HETATM   20  N   UNL     1     -10.472  10.792  66.979  1.00  0.00    -0.235 N  
HETATM   21  O   UNL     1     -10.620  11.318  64.755  1.00  0.00    -0.303 OA 
HETATM   22  C   UNL     1     -10.917  11.553  65.922  1.00  0.00    -0.243 C  
HETATM   23  H   UNL     1     -10.713  11.093  67.923  1.00  0.00     0.000 HD 
BRANCH  22  24
HETATM   24  C   UNL     1     -11.770  12.742  66.315  1.00  0.00    -0.460 C  
BRANCH  24  25
HETATM   25  C   UNL     1     -10.974  13.753  67.078  1.00  0.00    -0.290 A  
HETATM   26  C   UNL     1      -9.963  14.573  66.614  1.00  0.00    -0.276 A  
HETATM   27  C   UNL     1      -9.345  15.317  67.661  1.00  0.00    -0.199 A  
HETATM   28  C   UNL     1      -9.925  15.066  68.884  1.00  0.00    -0.236 A  
HETATM   29  S   UNL     1     -11.215  13.951  68.764  1.00  0.00    -0.289 SA 
ENDBRANCH  24  25
ENDBRANCH  22  24
ENDBRANCH  12  20
BRANCH  12  30
HETATM   30  O   UNL     1      -8.982   9.472  65.533  1.00  0.00    -0.166 OA 
HETATM   31  C   UNL     1      -7.563   9.368  65.586  1.00  0.00    -0.095 C  
ENDBRANCH  12  30
TORSDOF 7
ENDMDL
MODEL      116
REMARK 921   NORMALIZED FREE ENERGY PREDICTED BY IDOCK:   -4.24 KCAL/MOL
REMARK 922        TOTAL FREE ENERGY PREDICTED BY IDOCK:   -6.66 KCAL/MOL
REMARK 923 INTER-LIGAND FREE ENERGY PREDICTED BY IDOCK:   -6.43 KCAL/MOL
REMARK 924 INTRA-LIGAND FREE ENERGY PREDICTED BY IDOCK:   -0.23 KCAL/MOL
REMARK 927      BINDING AFFINITY PREDICTED BY RF-SCORE:    0.00 PKD
ROOT
HETATM    1  C   UNL     1      -9.266  12.723  68.622  1.00  0.00     0.041 C  
HETATM    2  S   UNL     1      -8.801  13.759  67.219  1.00  0.00    -0.227 SA 
HETATM    3  C   UNL     1      -8.935  15.289  68.161  1.00  0.00    -0.173 C  
HETATM    4  C   UNL     1     -10.196  15.432  68.995  1.00  0.00    -0.233 C  
HETATM    5  C   UNL     1     -10.966  14.384  69.414  1.00  0.00    -0.231 C  
HETATM    6  O   UNL     1     -11.962  11.429  69.914  1.00  0.00    -0.307 OA 
HETATM    7  O   UNL     1     -12.944  13.608  70.652  1.00  0.00    -0.197 OA 
HETATM    8  C   UNL     1     -12.285  14.654  70.124  1.00  0.00    -0.335 C  
HETATM    9  N   UNL     1     -10.586  13.105  69.102  1.00  0.00    -0.051 N  
HETATM   10  C   UNL     1     -11.037  11.840  69.253  1.00  0.00    -0.218 C  
HETATM   11  O   UNL     1     -12.753  15.776  70.263  1.00  0.00    -0.353 OA 
HETATM   12  C   UNL     1      -9.888  11.300  68.255  1.00  0.00    -0.197 C  
ENDROOT
BRANCH   4  13
HETATM   13  C   UNL     1     -10.535  16.904  69.242  1.00  0.00    -0.319 C  
BRANCH  13  14
HETATM   14  O   UNL     1      -9.544  17.759  68.633  1.00  0.00    -0.309 OA 
BRANCH  14  15
HETATM   15  C   UNL     1     -10.012  18.791  67.898  1.00  0.00    -0.354 C  
HETATM   16  O   UNL     1     -10.261  19.919  68.289  1.00  0.00    -0.433 OA 
HETATM   17  N   UNL     1     -10.214  18.389  66.624  1.00  0.00    -0.373 N  
HETATM   18  H2  UNL     1     -10.039  17.449  66.270  1.00  0.00     0.000 HD 
HETATM   19  H1  UNL     1     -10.568  19.169  66.069  1.00  0.00     0.000 HD 
ENDBRANCH  14  15
ENDBRANCH  13  14
ENDBRANCH   4  13
BRANCH  12  20
HETATM   20  N   UNL     1     -10.244  11.152  66.805  1.00  0.00    -0.224 N  
HETATM   21  O   UNL     1      -8.296  10.151  66.135  1.00  0.00    -0.125 OA 
HETATM   22  C   UNL     1      -9.426  10.553  65.874  1.00  0.00    -0.190 C  
HETATM   23  H   UNL     1     -11.143  11.517  66.491  1.00  0.00     0.000 HD 
BRANCH  22  24
HETATM   24  C   UNL     1     -10.011  10.471  64.479  1.00  0.00    -0.413 C  
BRANCH  24  25
HETATM   25  C   UNL     1     -10.743  11.727  64.123  1.00  0.00    -0.357 A  
HETATM   26  C   UNL     1     -10.301  13.032  64.221  1.00  0.00    -0.385 A  
HETATM   27  C   UNL     1     -11.323  13.976  63.911  1.00  0.00     0.119 A  
HETATM   28  C   UNL     1     -12.501  13.361  63.554  1.00  0.00    -0.210 A  
HETATM   29  S   UNL     1     -12.368  11.657  63.581  1.00  0.00    -0.060 SA 
ENDBRANCH  24  25
ENDBRANCH  22  24
ENDBRANCH  12  20
BRANCH  12  30
HETATM   30  O   UNL     1      -9.128  10.170  68.765  1.00  0.00    -0.139 OA 
HETATM   31  C   UNL     1      -9.898   9.032  69.139  1.00  0.00    -0.175 C  
ENDBRANCH  12  30
TORSDOF 7
ENDMDL
MODEL      117
REMARK 921   NORMALIZED FREE ENERGY PREDICTED BY IDOCK:   -4.24 KCAL/MOL
REMARK 922        TOTAL FREE ENERGY PREDICTED BY IDOCK:   -6.65 KCAL/MOL
REMARK 923 INTER-LIGAND FREE ENERGY PREDICTED BY IDOCK:   -6.09 KCAL/MOL
REMARK 924 INTRA-LIGAND FREE ENERGY PREDICTED BY IDOCK:   -0.55 KCAL/MOL
REMARK 927      BINDING AFFINITY PREDICTED BY RF-SCORE:    0.00 PKD
ROOT
HETATM    1  C   UNL     1      -8.833  13.508  68.414  1.00  0.00    -0.146 C  
HETATM    2  S   UNL     1      -8.366  14.586  67.044  1.00  0.00    -0.106 SA 
HETATM    3  C   UNL     1      -8.683  16.095  67.976  1.00  0.00    -0.176 C  
HETATM    4  C   UNL     1     -10.002  16.130  68.728  1.00  0.00    -0.231 C  
HETATM    5  C   UNL     1     -10.709  15.021  69.097  1.00  0.00    -0.249 C  
HETATM    6  O   UNL     1     -11.492  11.992  69.530  1.00  0.00    -0.284 OA 
HETATM    7  O   UNL     1     -12.693  14.081  70.206  1.00  0.00    -0.318 OA 
HETATM    8  C   UNL     1     -12.088  15.180  69.721  1.00  0.00    -0.319 C  
HETATM    9  N   UNL     1     -10.207  13.779  68.809  1.00  0.00    -0.203 N  
HETATM   10  C   UNL     1     -10.563  12.481  68.931  1.00  0.00    -0.118 C  
HETATM   11  O   UNL     1     -12.654  16.259  69.832  1.00  0.00     0.047 OA 
HETATM   12  C   UNL     1      -9.313  12.041  68.007  1.00  0.00    -0.196 C  
ENDROOT
BRANCH   4  13
HETATM   13  C   UNL     1     -10.474  17.569  68.954  1.00  0.00    -0.286 C  
BRANCH  13  14
HETATM   14  O   UNL     1      -9.462  18.505  68.525  1.00  0.00    -0.321 OA 
BRANCH  14  15
HETATM   15  C   UNL     1      -9.866  19.477  67.679  1.00  0.00    -0.364 C  
HETATM   16  O   UNL     1      -9.351  20.570  67.514  1.00  0.00    -0.380 OA 
HETATM   17  N   UNL     1     -10.985  19.083  67.032  1.00  0.00    -0.329 N  
HETATM   18  H2  UNL     1     -11.454  18.187  67.163  1.00  0.00     0.000 HD 
HETATM   19  H1  UNL     1     -11.290  19.817  66.393  1.00  0.00     0.000 HD 
ENDBRANCH  14  15
ENDBRANCH  13  14
ENDBRANCH   4  13
BRANCH  12  20
HETATM   20  N   UNL     1      -9.563  11.874  66.537  1.00  0.00    -0.208 N  
HETATM   21  O   UNL     1     -11.453  10.593  66.715  1.00  0.00    -0.175 OA 
HETATM   22  C   UNL     1     -10.639  11.190  66.017  1.00  0.00    -0.239 C  
HETATM   23  H   UNL     1      -8.897  12.290  65.886  1.00  0.00     0.000 HD 
BRANCH  22  24
HETATM   24  C   UNL     1     -10.716  11.192  64.504  1.00  0.00    -0.368 C  
BRANCH  24  25
HETATM   25  C   UNL     1      -9.679  10.293  63.907  1.00  0.00    -0.261 A  
HETATM   26  C   UNL     1      -9.073   9.189  64.477  1.00  0.00    -0.065 A  
HETATM   27  C   UNL     1      -8.036   8.656  63.656  1.00  0.00    -0.163 A  
HETATM   28  C   UNL     1      -7.909   9.348  62.473  1.00  0.00    -0.117 A  
HETATM   29  S   UNL     1      -9.040  10.623  62.351  1.00  0.00    -0.283 SA 
ENDBRANCH  24  25
ENDBRANCH  22  24
ENDBRANCH  12  20
BRANCH  12  30
HETATM   30  O   UNL     1      -8.498  10.973  68.564  1.00  0.00    -0.139 OA 
HETATM   31  C   UNL     1      -7.113  11.269  68.707  1.00  0.00    -0.096 C  
ENDBRANCH  12  30
TORSDOF 7
ENDMDL
MODEL      118
REMARK 921   NORMALIZED FREE ENERGY PREDICTED BY IDOCK:   -4.22 KCAL/MOL
REMARK 922        TOTAL FREE ENERGY PREDICTED BY IDOCK:   -6.62 KCAL/MOL
REMARK 923 INTER-LIGAND FREE ENERGY PREDICTED BY IDOCK:   -6.14 KCAL/MOL
REMARK 924 INTRA-LIGAND FREE ENERGY PREDICTED BY IDOCK:   -0.48 KCAL/MOL
REMARK 927      BINDING AFFINITY PREDICTED BY RF-SCORE:    0.00 PKD
ROOT
HETATM    1  C   UNL     1     -10.716   8.869  69.218  1.00  0.00    -0.162 C  
HETATM    2  S   UNL     1     -10.522   8.927  67.424  1.00  0.00    -0.244 SA 
HETATM    3  C   UNL     1     -10.192   7.161  67.291  1.00  0.00    -0.245 C  
HETATM    4  C   UNL     1      -9.179   6.612  68.280  1.00  0.00    -0.121 C  
HETATM    5  C   UNL     1      -8.858   7.208  69.467  1.00  0.00    -0.137 C  
HETATM    6  O   UNL     1      -8.883   9.239  71.886  1.00  0.00    -0.274 OA 
HETATM    7  O   UNL     1      -7.533   7.160  71.538  1.00  0.00    -0.084 OA 
HETATM    8  C   UNL     1      -7.726   6.643  70.312  1.00  0.00    -0.098 C  
HETATM    9  N   UNL     1      -9.497   8.364  69.831  1.00  0.00    -0.166 N  
HETATM   10  C   UNL     1      -9.469   9.275  70.829  1.00  0.00    -0.271 C  
HETATM   11  O   UNL     1      -7.008   5.723  69.943  1.00  0.00    -0.061 OA 
HETATM   12  C   UNL     1     -10.450  10.242  69.986  1.00  0.00    -0.241 C  
ENDROOT
BRANCH   4  13
HETATM   13  C   UNL     1      -8.509   5.344  67.743  1.00  0.00    -0.105 C  
BRANCH  13  14
HETATM   14  O   UNL     1      -9.388   4.208  67.890  1.00  0.00    -0.141 OA 
BRANCH  14  15
HETATM   15  C   UNL     1      -8.796   2.994  67.928  1.00  0.00    -0.131 C  
HETATM   16  O   UNL     1      -7.605   2.754  67.833  1.00  0.00    -0.056 OA 
HETATM   17  N   UNL     1      -9.737   2.033  68.054  1.00  0.00    -0.341 N  
HETATM   18  H2  UNL     1     -10.742   2.198  68.112  1.00  0.00     0.000 HD 
HETATM   19  H1  UNL     1      -9.290   1.116  68.083  1.00  0.00     0.000 HD 
ENDBRANCH  14  15
ENDBRANCH  13  14
ENDBRANCH   4  13
BRANCH  12  20
HETATM   20  N   UNL     1      -9.815  11.300  69.132  1.00  0.00    -0.416 N  
HETATM   21  O   UNL     1     -11.753  12.255  68.374  1.00  0.00    -0.304 OA 
HETATM   22  C   UNL     1     -10.527  12.242  68.426  1.00  0.00    -0.233 C  
HETATM   23  H   UNL     1      -8.797  11.321  69.072  1.00  0.00     0.000 HD 
BRANCH  22  24
HETATM   24  C   UNL     1      -9.675  13.242  67.672  1.00  0.00    -0.219 C  
BRANCH  24  25
HETATM   25  C   UNL     1     -10.039  14.648  68.033  1.00  0.00    -0.227 A  
HETATM   26  C   UNL     1     -10.009  15.247  69.278  1.00  0.00    -0.251 A  
HETATM   27  C   UNL     1     -10.551  16.565  69.259  1.00  0.00    -0.327 A  
HETATM   28  C   UNL     1     -10.944  16.942  67.995  1.00  0.00    -0.271 A  
HETATM   29  S   UNL     1     -10.650  15.717  66.840  1.00  0.00    -0.303 SA 
ENDBRANCH  24  25
ENDBRANCH  22  24
ENDBRANCH  12  20
BRANCH  12  30
HETATM   30  O   UNL     1     -11.596  10.737  70.733  1.00  0.00    -0.322 OA 
HETATM   31  C   UNL     1     -12.414   9.738  71.334  1.00  0.00    -0.387 C  
ENDBRANCH  12  30
TORSDOF 7
ENDMDL
MODEL      119
REMARK 921   NORMALIZED FREE ENERGY PREDICTED BY IDOCK:   -4.21 KCAL/MOL
REMARK 922        TOTAL FREE ENERGY PREDICTED BY IDOCK:   -6.61 KCAL/MOL
REMARK 923 INTER-LIGAND FREE ENERGY PREDICTED BY IDOCK:   -5.52 KCAL/MOL
REMARK 924 INTRA-LIGAND FREE ENERGY PREDICTED BY IDOCK:   -1.09 KCAL/MOL
REMARK 927      BINDING AFFINITY PREDICTED BY RF-SCORE:    0.00 PKD
ROOT
HETATM    1  C   UNL     1     -11.196   6.739  70.951  1.00  0.00    -0.292 C  
HETATM    2  S   UNL     1     -11.326   6.233  69.223  1.00  0.00    -0.190 SA 
HETATM    3  C   UNL     1     -10.159   4.873  69.418  1.00  0.00    -0.200 C  
HETATM    4  C   UNL     1      -8.875   5.218  70.152  1.00  0.00    -0.144 C  
HETATM    5  C   UNL     1      -8.736   6.274  71.008  1.00  0.00    -0.136 C  
HETATM    6  O   UNL     1      -9.444   8.800  72.767  1.00  0.00    -0.236 OA 
HETATM    7  O   UNL     1      -7.287   7.555  72.527  1.00  0.00    -0.070 OA 
HETATM    8  C   UNL     1      -7.364   6.606  71.577  1.00  0.00    -0.087 C  
HETATM    9  N   UNL     1      -9.816   7.076  71.265  1.00  0.00    -0.175 N  
HETATM   10  C   UNL     1     -10.113   8.196  71.962  1.00  0.00    -0.237 C  
HETATM   11  O   UNL     1      -6.339   6.031  71.236  1.00  0.00    -0.041 OA 
HETATM   12  C   UNL     1     -11.564   8.262  71.254  1.00  0.00    -0.281 C  
ENDROOT
BRANCH   4  13
HETATM   13  C   UNL     1      -7.737   4.276  69.752  1.00  0.00    -0.053 C  
BRANCH  13  14
HETATM   14  O   UNL     1      -7.505   4.341  68.328  1.00  0.00    -0.063 OA 
BRANCH  14  15
HETATM   15  C   UNL     1      -6.222   4.505  67.937  1.00  0.00    -0.036 C  
HETATM   16  O   UNL     1      -5.483   3.657  67.467  1.00  0.00    -0.018 OA 
HETATM   17  N   UNL     1      -5.832   5.776  68.176  1.00  0.00    -0.012 N  
HETATM   18  H2  UNL     1      -6.417   6.503  68.589  1.00  0.00     0.000 HD 
HETATM   19  H1  UNL     1      -4.863   5.900  67.880  1.00  0.00     0.000 HD 
ENDBRANCH  14  15
ENDBRANCH  13  14
ENDBRANCH   4  13
BRANCH  12  20
HETATM   20  N   UNL     1     -11.696   9.109  70.023  1.00  0.00    -0.451 N  
HETATM   21  O   UNL     1     -12.008  11.112  71.087  1.00  0.00    -0.255 OA 
HETATM   22  C   UNL     1     -11.871  10.474  70.048  1.00  0.00    -0.308 C  
HETATM   23  H   UNL     1     -11.654   8.646  69.115  1.00  0.00     0.000 HD 
BRANCH  22  24
HETATM   24  C   UNL     1     -11.929  11.128  68.683  1.00  0.00    -0.289 C  
BRANCH  24  25
HETATM   25  C   UNL     1     -11.034  12.325  68.615  1.00  0.00    -0.239 A  
HETATM   26  C   UNL     1     -11.353  13.647  68.859  1.00  0.00    -0.332 A  
HETATM   27  C   UNL     1     -10.271  14.528  68.569  1.00  0.00    -0.240 A  
HETATM   28  C   UNL     1      -9.151  13.848  68.148  1.00  0.00    -0.193 A  
HETATM   29  S   UNL     1      -9.403  12.157  68.115  1.00  0.00    -0.202 SA 
ENDBRANCH  24  25
ENDBRANCH  22  24
ENDBRANCH  12  20
BRANCH  12  30
HETATM   30  O   UNL     1     -12.677   8.433  72.176  1.00  0.00    -0.337 OA 
HETATM   31  C   UNL     1     -13.943   7.993  71.697  1.00  0.00    -0.400 C  
ENDBRANCH  12  30
TORSDOF 7
ENDMDL
MODEL      120
REMARK 921   NORMALIZED FREE ENERGY PREDICTED BY IDOCK:   -4.18 KCAL/MOL
REMARK 922        TOTAL FREE ENERGY PREDICTED BY IDOCK:   -6.57 KCAL/MOL
REMARK 923 INTER-LIGAND FREE ENERGY PREDICTED BY IDOCK:   -6.01 KCAL/MOL
REMARK 924 INTRA-LIGAND FREE ENERGY PREDICTED BY IDOCK:   -0.57 KCAL/MOL
REMARK 927      BINDING AFFINITY PREDICTED BY RF-SCORE:    0.00 PKD
ROOT
HETATM    1  C   UNL     1      -8.941   9.894  66.908  1.00  0.00    -0.138 C  
HETATM    2  S   UNL     1     -10.613  10.565  66.802  1.00  0.00    -0.189 SA 
HETATM    3  C   UNL     1     -10.045  12.208  66.329  1.00  0.00    -0.224 C  
HETATM    4  C   UNL     1      -8.910  12.770  67.168  1.00  0.00    -0.202 C  
HETATM    5  C   UNL     1      -8.046  12.010  67.905  1.00  0.00    -0.150 C  
HETATM    6  O   UNL     1      -6.610   9.485  69.147  1.00  0.00    -0.048 OA 
HETATM    7  O   UNL     1      -6.107  11.922  69.415  1.00  0.00    -0.077 OA 
HETATM    8  C   UNL     1      -7.036  12.689  68.819  1.00  0.00    -0.087 C  
HETATM    9  N   UNL     1      -8.167  10.645  67.885  1.00  0.00    -0.111 N  
HETATM   10  C   UNL     1      -7.603   9.561  68.461  1.00  0.00    -0.081 C  
HETATM   11  O   UNL     1      -7.010  13.898  69.008  1.00  0.00    -0.108 OA 
HETATM   12  C   UNL     1      -8.766   8.619  67.852  1.00  0.00    -0.137 C  
ENDROOT
BRANCH   4  13
HETATM   13  C   UNL     1      -8.904  14.300  67.141  1.00  0.00    -0.229 C  
BRANCH  13  14
HETATM   14  O   UNL     1      -9.882  14.825  68.064  1.00  0.00    -0.212 OA 
BRANCH  14  15
HETATM   15  C   UNL     1     -10.668  15.822  67.602  1.00  0.00    -0.310 C  
HETATM   16  O   UNL     1     -10.525  16.451  66.567  1.00  0.00    -0.302 OA 
HETATM   17  N   UNL     1     -11.656  16.072  68.489  1.00  0.00    -0.367 N  
HETATM   18  H2  UNL     1     -11.789  15.581  69.374  1.00  0.00     0.000 HD 
HETATM   19  H1  UNL     1     -12.249  16.825  68.140  1.00  0.00     0.000 HD 
ENDBRANCH  14  15
ENDBRANCH  13  14
ENDBRANCH   4  13
BRANCH  12  20
HETATM   20  N   UNL     1      -9.958   8.342  68.720  1.00  0.00    -0.178 N  
HETATM   21  O   UNL     1      -8.805   7.644  70.571  1.00  0.00    -0.146 OA 
HETATM   22  C   UNL     1      -9.870   7.911  70.024  1.00  0.00    -0.181 C  
HETATM   23  H   UNL     1     -10.886   8.480  68.320  1.00  0.00     0.000 HD 
BRANCH  22  24
HETATM   24  C   UNL     1     -11.204   7.743  70.724  1.00  0.00    -0.281 C  
BRANCH  24  25
HETATM   25  C   UNL     1     -11.863   9.065  70.961  1.00  0.00    -0.285 A  
HETATM   26  C   UNL     1     -11.516  10.299  70.444  1.00  0.00    -0.415 A  
HETATM   27  C   UNL     1     -12.296  11.357  70.996  1.00  0.00    -0.448 A  
HETATM   28  C   UNL     1     -13.234  10.893  71.891  1.00  0.00    -0.403 A  
HETATM   29  S   UNL     1     -13.181   9.192  72.051  1.00  0.00    -0.476 SA 
ENDBRANCH  24  25
ENDBRANCH  22  24
ENDBRANCH  12  20
BRANCH  12  30
HETATM   30  O   UNL     1      -8.281   7.432  67.166  1.00  0.00    -0.115 OA 
HETATM   31  C   UNL     1      -7.859   7.631  65.820  1.00  0.00    -0.106 C  
ENDBRANCH  12  30
TORSDOF 7
ENDMDL
MODEL      121
REMARK 921   NORMALIZED FREE ENERGY PREDICTED BY IDOCK:   -4.17 KCAL/MOL
REMARK 922        TOTAL FREE ENERGY PREDICTED BY IDOCK:   -6.56 KCAL/MOL
REMARK 923 INTER-LIGAND FREE ENERGY PREDICTED BY IDOCK:   -5.96 KCAL/MOL
REMARK 924 INTRA-LIGAND FREE ENERGY PREDICTED BY IDOCK:   -0.60 KCAL/MOL
REMARK 927      BINDING AFFINITY PREDICTED BY RF-SCORE:    0.00 PKD
ROOT
HETATM    1  C   UNL     1      -9.127  10.207  69.327  1.00  0.00    -0.198 C  
HETATM    2  S   UNL     1     -10.293  10.673  68.030  1.00  0.00    -0.190 SA 
HETATM    3  C   UNL     1     -11.454  11.421  69.186  1.00  0.00    -0.299 C  
HETATM    4  C   UNL     1     -11.775  10.588  70.416  1.00  0.00    -0.434 C  
HETATM    5  C   UNL     1     -10.973   9.596  70.906  1.00  0.00    -0.342 C  
HETATM    6  O   UNL     1      -8.509   7.651  71.251  1.00  0.00    -0.113 OA 
HETATM    7  O   UNL     1     -10.596   7.867  72.614  1.00  0.00    -0.275 OA 
HETATM    8  C   UNL     1     -11.463   8.733  72.060  1.00  0.00    -0.371 C  
HETATM    9  N   UNL     1      -9.781   9.329  70.286  1.00  0.00    -0.215 N  
HETATM   10  C   UNL     1      -8.752   8.459  70.385  1.00  0.00    -0.141 C  
HETATM   11  O   UNL     1     -12.591   8.815  72.526  1.00  0.00    -0.391 OA 
HETATM   12  C   UNL     1      -8.157   8.989  68.979  1.00  0.00    -0.107 C  
ENDROOT
BRANCH   4  13
HETATM   13  C   UNL     1     -13.145  10.953  70.992  1.00  0.00    -0.206 C  
BRANCH  13  14
HETATM   14  O   UNL     1     -13.004  11.912  72.062  1.00  0.00    -0.394 OA 
BRANCH  14  15
HETATM   15  C   UNL     1     -13.198  13.208  71.735  1.00  0.00    -0.403 C  
HETATM   16  O   UNL     1     -12.490  13.902  71.025  1.00  0.00    -0.340 OA 
HETATM   17  N   UNL     1     -14.309  13.672  72.349  1.00  0.00    -0.416 N  
HETATM   18  H2  UNL     1     -14.910  13.125  72.967  1.00  0.00     0.000 HD 
HETATM   19  H1  UNL     1     -14.456  14.650  72.102  1.00  0.00     0.000 HD 
ENDBRANCH  14  15
ENDBRANCH  13  14
ENDBRANCH   4  13
BRANCH  12  20
HETATM   20  N   UNL     1      -8.545   8.243  67.737  1.00  0.00    -0.130 N  
HETATM   21  O   UNL     1      -6.951   6.604  67.880  1.00  0.00    -0.077 OA 
HETATM   22  C   UNL     1      -7.927   7.087  67.315  1.00  0.00    -0.111 C  
HETATM   23  H   UNL     1      -9.310   8.613  67.173  1.00  0.00     0.000 HD 
BRANCH  22  24
HETATM   24  C   UNL     1      -8.518   6.479  66.059  1.00  0.00    -0.145 C  
BRANCH  24  25
HETATM   25  C   UNL     1      -8.345   4.993  66.042  1.00  0.00    -0.114 A  
HETATM   26  C   UNL     1      -7.562   4.232  65.195  1.00  0.00    -0.078 A  
HETATM   27  C   UNL     1      -7.749   2.833  65.395  1.00  0.00    -0.077 A  
HETATM   28  C   UNL     1      -8.641   2.572  66.410  1.00  0.00    -0.113 A  
HETATM   29  S   UNL     1      -9.238   4.006  67.123  1.00  0.00    -0.179 SA 
ENDBRANCH  24  25
ENDBRANCH  22  24
ENDBRANCH  12  20
BRANCH  12  30
HETATM   30  O   UNL     1      -6.743   9.327  69.013  1.00  0.00    -0.050 OA 
HETATM   31  C   UNL     1      -6.397  10.581  68.432  1.00  0.00    -0.054 C  
ENDBRANCH  12  30
TORSDOF 7
ENDMDL
MODEL      122
REMARK 921   NORMALIZED FREE ENERGY PREDICTED BY IDOCK:   -4.13 KCAL/MOL
REMARK 922        TOTAL FREE ENERGY PREDICTED BY IDOCK:   -6.50 KCAL/MOL
REMARK 923 INTER-LIGAND FREE ENERGY PREDICTED BY IDOCK:   -6.00 KCAL/MOL
REMARK 924 INTRA-LIGAND FREE ENERGY PREDICTED BY IDOCK:   -0.50 KCAL/MOL
REMARK 927      BINDING AFFINITY PREDICTED BY RF-SCORE:    0.00 PKD
ROOT
HETATM    1  C   UNL     1      -9.483  10.863  67.392  1.00  0.00    -0.155 C  
HETATM    2  S   UNL     1     -10.121  12.292  68.292  1.00  0.00    -0.217 SA 
HETATM    3  C   UNL     1     -11.716  12.248  67.454  1.00  0.00    -0.335 C  
HETATM    4  C   UNL     1     -11.653  12.101  65.943  1.00  0.00    -0.425 C  
HETATM    5  C   UNL     1     -10.587  11.583  65.263  1.00  0.00    -0.283 C  
HETATM    6  O   UNL     1      -7.787  10.243  64.680  1.00  0.00    -0.149 OA 
HETATM    7  O   UNL     1      -9.588  10.968  63.102  1.00  0.00    -0.289 OA 
HETATM    8  C   UNL     1     -10.578  11.615  63.741  1.00  0.00    -0.416 C  
HETATM    9  N   UNL     1      -9.499  11.132  65.962  1.00  0.00    -0.200 N  
HETATM   10  C   UNL     1      -8.272  10.619  65.722  1.00  0.00    -0.161 C  
HETATM   11  O   UNL     1     -11.443  12.170  63.077  1.00  0.00    -0.236 OA 
HETATM   12  C   UNL     1      -7.894  10.767  67.286  1.00  0.00    -0.113 C  
ENDROOT
BRANCH   4  13
HETATM   13  C   UNL     1     -12.906  12.674  65.277  1.00  0.00     0.056 C  
BRANCH  13  14
HETATM   14  O   UNL     1     -12.995  14.096  65.511  1.00  0.00    -0.657 OA 
BRANCH  14  15
HETATM   15  C   UNL     1     -11.901  14.825  65.198  1.00  0.00    -0.313 C  
HETATM   16  O   UNL     1     -11.040  15.223  65.963  1.00  0.00    -0.332 OA 
HETATM   17  N   UNL     1     -11.899  15.098  63.875  1.00  0.00    -0.854 N  
HETATM   18  H2  UNL     1     -12.616  14.800  63.212  1.00  0.00     0.000 HD 
HETATM   19  H1  UNL     1     -11.073  15.648  63.638  1.00  0.00     0.000 HD 
ENDBRANCH  14  15
ENDBRANCH  13  14
ENDBRANCH   4  13
BRANCH  12  20
HETATM   20  N   UNL     1      -7.183  12.019  67.710  1.00  0.00    -0.099 N  
HETATM   21  O   UNL     1      -7.160  11.583  69.958  1.00  0.00     0.074 OA 
HETATM   22  C   UNL     1      -6.844  12.300  69.014  1.00  0.00    -0.094 C  
HETATM   23  H   UNL     1      -6.938  12.699  66.992  1.00  0.00     0.000 HD 
BRANCH  22  24
HETATM   24  C   UNL     1      -6.086  13.599  69.203  1.00  0.00    -0.093 C  
BRANCH  24  25
HETATM   25  C   UNL     1      -6.852  14.759  68.649  1.00  0.00    -0.103 A  
HETATM   26  C   UNL     1      -7.008  15.129  67.326  1.00  0.00    -0.123 A  
HETATM   27  C   UNL     1      -7.699  16.367  67.187  1.00  0.00    -0.220 A  
HETATM   28  C   UNL     1      -8.077  16.886  68.405  1.00  0.00    -0.237 A  
HETATM   29  S   UNL     1      -7.612  15.877  69.704  1.00  0.00     0.104 SA 
ENDBRANCH  24  25
ENDBRANCH  22  24
ENDBRANCH  12  20
BRANCH  12  30
HETATM   30  O   UNL     1      -7.329   9.569  67.885  1.00  0.00    -0.082 OA 
HETATM   31  C   UNL     1      -6.070   9.157  67.363  1.00  0.00    -0.054 C  
ENDBRANCH  12  30
TORSDOF 7
ENDMDL
MODEL      123
REMARK 921   NORMALIZED FREE ENERGY PREDICTED BY IDOCK:   -4.13 KCAL/MOL
REMARK 922        TOTAL FREE ENERGY PREDICTED BY IDOCK:   -6.49 KCAL/MOL
REMARK 923 INTER-LIGAND FREE ENERGY PREDICTED BY IDOCK:   -5.92 KCAL/MOL
REMARK 924 INTRA-LIGAND FREE ENERGY PREDICTED BY IDOCK:   -0.57 KCAL/MOL
REMARK 927      BINDING AFFINITY PREDICTED BY RF-SCORE:    0.00 PKD
ROOT
HETATM    1  C   UNL     1      -8.996   6.957  67.244  1.00  0.00    -0.118 C  
HETATM    2  S   UNL     1     -10.501   7.832  67.724  1.00  0.00    -0.187 SA 
HETATM    3  C   UNL     1     -10.365   9.029  66.384  1.00  0.00    -0.149 C  
HETATM    4  C   UNL     1      -8.991   9.651  66.203  1.00  0.00    -0.186 C  
HETATM    5  C   UNL     1      -7.827   9.089  66.645  1.00  0.00    -0.100 C  
HETATM    6  O   UNL     1      -5.811   7.023  67.926  1.00  0.00    -0.023 OA 
HETATM    7  O   UNL     1      -5.379   9.235  66.839  1.00  0.00    -0.038 OA 
HETATM    8  C   UNL     1      -6.525   9.870  66.534  1.00  0.00    -0.071 C  
HETATM    9  N   UNL     1      -7.864   7.871  67.269  1.00  0.00    -0.111 N  
HETATM   10  C   UNL     1      -7.019   7.010  67.879  1.00  0.00    -0.083 C  
HETATM   11  O   UNL     1      -6.469  11.030  66.150  1.00  0.00    -0.128 OA 
HETATM   12  C   UNL     1      -8.272   6.138  68.407  1.00  0.00    -0.115 C  
ENDROOT
BRANCH   4  13
HETATM   13  C   UNL     1      -9.087  11.023  65.530  1.00  0.00    -0.207 C  
BRANCH  13  14
HETATM   14  O   UNL     1     -10.400  11.214  64.961  1.00  0.00    -0.272 OA 
BRANCH  14  15
HETATM   15  C   UNL     1     -10.445  11.795  63.742  1.00  0.00    -0.416 C  
HETATM   16  O   UNL     1     -11.390  12.381  63.241  1.00  0.00    -0.437 OA 
HETATM   17  N   UNL     1      -9.270  11.606  63.103  1.00  0.00    -0.554 N  
HETATM   18  H2  UNL     1      -8.469  11.101  63.483  1.00  0.00     0.000 HD 
HETATM   19  H1  UNL     1      -9.304  12.044  62.182  1.00  0.00     0.000 HD 
ENDBRANCH  14  15
ENDBRANCH  13  14
ENDBRANCH   4  13
BRANCH  12  20
HETATM   20  N   UNL     1      -8.799   6.443  69.778  1.00  0.00    -0.141 N  
HETATM   21  O   UNL     1     -10.570   4.992  69.731  1.00  0.00    -0.222 OA 
HETATM   22  C   UNL     1      -9.887   5.812  70.337  1.00  0.00    -0.186 C  
HETATM   23  H   UNL     1      -8.323   7.159  70.327  1.00  0.00     0.000 HD 
BRANCH  22  24
HETATM   24  C   UNL     1     -10.209   6.245  71.753  1.00  0.00    -0.224 C  
BRANCH  24  25
HETATM   25  C   UNL     1     -11.188   7.377  71.765  1.00  0.00    -0.246 A  
HETATM   26  C   UNL     1     -12.568   7.314  71.774  1.00  0.00    -0.376 A  
HETATM   27  C   UNL     1     -13.170   8.600  71.652  1.00  0.00    -0.381 A  
HETATM   28  C   UNL     1     -12.231   9.605  71.588  1.00  0.00    -0.402 A  
HETATM   29  S   UNL     1     -10.636   8.998  71.688  1.00  0.00    -0.354 SA 
ENDBRANCH  24  25
ENDBRANCH  22  24
ENDBRANCH  12  20
BRANCH  12  30
HETATM   30  O   UNL     1      -8.165   4.711  68.150  1.00  0.00    -0.091 OA 
HETATM   31  C   UNL     1      -8.083   4.338  66.778  1.00  0.00    -0.101 C  
ENDBRANCH  12  30
TORSDOF 7
ENDMDL
MODEL      124
REMARK 921   NORMALIZED FREE ENERGY PREDICTED BY IDOCK:   -4.12 KCAL/MOL
REMARK 922        TOTAL FREE ENERGY PREDICTED BY IDOCK:   -6.48 KCAL/MOL
REMARK 923 INTER-LIGAND FREE ENERGY PREDICTED BY IDOCK:   -5.92 KCAL/MOL
REMARK 924 INTRA-LIGAND FREE ENERGY PREDICTED BY IDOCK:   -0.57 KCAL/MOL
REMARK 927      BINDING AFFINITY PREDICTED BY RF-SCORE:    0.00 PKD
ROOT
HETATM    1  C   UNL     1      -8.884   8.338  68.284  1.00  0.00    -0.140 C  
HETATM    2  S   UNL     1     -10.580   8.946  68.396  1.00  0.00    -0.089 SA 
HETATM    3  C   UNL     1     -10.190  10.512  67.594  1.00  0.00    -0.197 C  
HETATM    4  C   UNL     1      -8.952  11.220  68.118  1.00  0.00    -0.166 C  
HETATM    5  C   UNL     1      -7.932  10.600  68.783  1.00  0.00    -0.135 C  
HETATM    6  O   UNL     1      -6.170   8.326  70.086  1.00  0.00    -0.031 OA 
HETATM    7  O   UNL     1      -5.751  10.787  69.902  1.00  0.00    -0.049 OA 
HETATM    8  C   UNL     1      -6.810  11.433  69.385  1.00  0.00    -0.112 C  
HETATM    9  N   UNL     1      -7.986   9.246  68.982  1.00  0.00    -0.095 N  
HETATM   10  C   UNL     1      -7.272   8.275  69.593  1.00  0.00    -0.061 C  
HETATM   11  O   UNL     1      -6.812  12.657  69.391  1.00  0.00    -0.066 OA 
HETATM   12  C   UNL     1      -8.477   7.225  69.353  1.00  0.00    -0.133 C  
ENDROOT
BRANCH   4  13
HETATM   13  C   UNL     1      -9.029  12.729  67.870  1.00  0.00    -0.186 C  
BRANCH  13  14
HETATM   14  O   UNL     1     -10.360  13.104  67.452  1.00  0.00    -0.236 OA 
BRANCH  14  15
HETATM   15  C   UNL     1     -10.946  14.104  68.146  1.00  0.00    -0.249 C  
HETATM   16  O   UNL     1     -10.480  14.713  69.093  1.00  0.00    -0.240 OA 
HETATM   17  N   UNL     1     -12.186  14.330  67.658  1.00  0.00    -0.597 N  
HETATM   18  H2  UNL     1     -12.614  13.823  66.884  1.00  0.00     0.000 HD 
HETATM   19  H1  UNL     1     -12.629  15.086  68.182  1.00  0.00     0.000 HD 
ENDBRANCH  14  15
ENDBRANCH  13  14
ENDBRANCH   4  13
BRANCH  12  20
HETATM   20  N   UNL     1      -9.477   7.054  70.458  1.00  0.00    -0.166 N  
HETATM   21  O   UNL     1     -10.830   5.550  69.385  1.00  0.00    -0.298 OA 
HETATM   22  C   UNL     1     -10.552   6.197  70.390  1.00  0.00    -0.257 C  
HETATM   23  H   UNL     1      -9.353   7.604  71.308  1.00  0.00     0.000 HD 
BRANCH  22  24
HETATM   24  C   UNL     1     -11.403   6.151  71.643  1.00  0.00    -0.341 C  
BRANCH  24  25
HETATM   25  C   UNL     1     -12.315   7.334  71.724  1.00  0.00    -0.341 A  
HETATM   26  C   UNL     1     -11.989   8.649  71.999  1.00  0.00    -0.442 A  
HETATM   27  C   UNL     1     -13.141   9.479  72.120  1.00  0.00    -0.522 A  
HETATM   28  C   UNL     1     -14.306   8.779  71.901  1.00  0.00    -0.354 A  
HETATM   29  S   UNL     1     -14.008   7.135  71.539  1.00  0.00    -0.210 SA 
ENDBRANCH  24  25
ENDBRANCH  22  24
ENDBRANCH  12  20
BRANCH  12  30
HETATM   30  O   UNL     1      -8.065   5.960  68.766  1.00  0.00    -0.101 OA 
HETATM   31  C   UNL     1      -7.862   5.974  67.357  1.00  0.00    -0.102 C  
ENDBRANCH  12  30
TORSDOF 7
ENDMDL
MODEL      125
REMARK 921   NORMALIZED FREE ENERGY PREDICTED BY IDOCK:   -4.10 KCAL/MOL
REMARK 922        TOTAL FREE ENERGY PREDICTED BY IDOCK:   -6.46 KCAL/MOL
REMARK 923 INTER-LIGAND FREE ENERGY PREDICTED BY IDOCK:   -5.55 KCAL/MOL
REMARK 924 INTRA-LIGAND FREE ENERGY PREDICTED BY IDOCK:   -0.91 KCAL/MOL
REMARK 927      BINDING AFFINITY PREDICTED BY RF-SCORE:    0.00 PKD
ROOT
HETATM    1  C   UNL     1      -8.773   9.619  68.812  1.00  0.00    -0.126 C  
HETATM    2  S   UNL     1      -9.977   9.763  70.149  1.00  0.00    -0.243 SA 
HETATM    3  C   UNL     1      -9.902   8.010  70.557  1.00  0.00    -0.182 C  
HETATM    4  C   UNL     1      -9.992   7.062  69.373  1.00  0.00    -0.165 C  
HETATM    5  C   UNL     1      -9.694   7.406  68.085  1.00  0.00    -0.151 C  
HETATM    6  O   UNL     1      -8.745   9.101  65.595  1.00  0.00    -0.153 OA 
HETATM    7  O   UNL     1      -9.517   6.725  65.729  1.00  0.00     0.077 OA 
HETATM    8  C   UNL     1      -9.957   6.415  66.961  1.00  0.00    -0.163 C  
HETATM    9  N   UNL     1      -9.253   8.674  67.814  1.00  0.00    -0.135 N  
HETATM   10  C   UNL     1      -8.907   9.429  66.748  1.00  0.00    -0.127 C  
HETATM   11  O   UNL     1     -10.518   5.341  67.132  1.00  0.00    -0.223 OA 
HETATM   12  C   UNL     1      -8.854  10.744  67.684  1.00  0.00    -0.132 C  
ENDROOT
BRANCH   4  13
HETATM   13  C   UNL     1     -10.533   5.694  69.798  1.00  0.00    -0.306 C  
BRANCH  13  14
HETATM   14  O   UNL     1      -9.477   4.890  70.367  1.00  0.00    -0.142 OA 
BRANCH  14  15
HETATM   15  C   UNL     1      -9.743   4.307  71.557  1.00  0.00    -0.174 C  
HETATM   16  O   UNL     1     -10.384   3.287  71.749  1.00  0.00    -0.041 OA 
HETATM   17  N   UNL     1      -9.216   5.048  72.556  1.00  0.00    -0.132 N  
HETATM   18  H2  UNL     1      -8.696   5.917  72.431  1.00  0.00     0.000 HD 
HETATM   19  H1  UNL     1      -9.417   4.608  73.454  1.00  0.00     0.000 HD 
ENDBRANCH  14  15
ENDBRANCH  13  14
ENDBRANCH   4  13
BRANCH  12  20
HETATM   20  N   UNL     1     -10.090  11.590  67.762  1.00  0.00    -0.179 N  
HETATM   21  O   UNL     1      -9.980  12.451  65.642  1.00  0.00    -0.250 OA 
HETATM   22  C   UNL     1     -10.568  12.345  66.714  1.00  0.00    -0.226 C  
HETATM   23  H   UNL     1     -10.607  11.606  68.641  1.00  0.00     0.000 HD 
BRANCH  22  24
HETATM   24  C   UNL     1     -11.860  13.081  67.005  1.00  0.00    -0.437 C  
BRANCH  24  25
HETATM   25  C   UNL     1     -11.717  13.985  68.188  1.00  0.00    -0.352 A  
HETATM   26  C   UNL     1     -12.176  13.787  69.477  1.00  0.00    -0.344 A  
HETATM   27  C   UNL     1     -11.966  14.926  70.308  1.00  0.00    -0.365 A  
HETATM   28  C   UNL     1     -11.323  15.941  69.637  1.00  0.00    -0.342 A  
HETATM   29  S   UNL     1     -10.966  15.517  68.020  1.00  0.00    -0.321 SA 
ENDBRANCH  24  25
ENDBRANCH  22  24
ENDBRANCH  12  20
BRANCH  12  30
HETATM   30  O   UNL     1      -7.641  11.534  67.544  1.00  0.00    -0.107 OA 
HETATM   31  C   UNL     1      -7.287  12.322  68.676  1.00  0.00    -0.106 C  
ENDBRANCH  12  30
TORSDOF 7
ENDMDL
MODEL      126
REMARK 921   NORMALIZED FREE ENERGY PREDICTED BY IDOCK:   -4.09 KCAL/MOL
REMARK 922        TOTAL FREE ENERGY PREDICTED BY IDOCK:   -6.44 KCAL/MOL
REMARK 923 INTER-LIGAND FREE ENERGY PREDICTED BY IDOCK:   -5.15 KCAL/MOL
REMARK 924 INTRA-LIGAND FREE ENERGY PREDICTED BY IDOCK:   -1.29 KCAL/MOL
REMARK 927      BINDING AFFINITY PREDICTED BY RF-SCORE:    0.00 PKD
ROOT
HETATM    1  C   UNL     1      -7.314   8.044  69.463  1.00  0.00    -0.086 C  
HETATM    2  S   UNL     1      -7.600   6.556  70.445  1.00  0.00    -0.098 SA 
HETATM    3  C   UNL     1      -6.953   5.457  69.173  1.00  0.00    -0.056 C  
HETATM    4  C   UNL     1      -7.471   5.711  67.768  1.00  0.00    -0.077 C  
HETATM    5  C   UNL     1      -7.997   6.898  67.343  1.00  0.00    -0.112 C  
HETATM    6  O   UNL     1      -8.927   9.917  67.341  1.00  0.00    -0.134 OA 
HETATM    7  O   UNL     1      -8.988   8.209  65.513  1.00  0.00    -0.137 OA 
HETATM    8  C   UNL     1      -8.614   6.995  65.955  1.00  0.00    -0.148 C  
HETATM    9  N   UNL     1      -8.049   7.958  68.210  1.00  0.00    -0.121 N  
HETATM   10  C   UNL     1      -8.503   9.231  68.241  1.00  0.00    -0.120 C  
HETATM   11  O   UNL     1      -8.754   6.031  65.215  1.00  0.00    -0.134 OA 
HETATM   12  C   UNL     1      -8.226   9.301  69.831  1.00  0.00    -0.145 C  
ENDROOT
BRANCH   4  13
HETATM   13  C   UNL     1      -7.395   4.445  66.911  1.00  0.00    -0.080 C  
BRANCH  13  14
HETATM   14  O   UNL     1      -8.227   3.407  67.471  1.00  0.00    -0.084 OA 
BRANCH  14  15
HETATM   15  C   UNL     1      -9.065   2.782  66.614  1.00  0.00    -0.136 C  
HETATM   16  O   UNL     1      -8.931   1.669  66.135  1.00  0.00    -0.120 OA 
HETATM   17  N   UNL     1     -10.100   3.597  66.314  1.00  0.00    -0.367 N  
HETATM   18  H2  UNL     1     -10.230   4.541  66.678  1.00  0.00     0.000 HD 
HETATM   19  H1  UNL     1     -10.732   3.125  65.667  1.00  0.00     0.000 HD 
ENDBRANCH  14  15
ENDBRANCH  13  14
ENDBRANCH   4  13
BRANCH  12  20
HETATM   20  N   UNL     1      -9.367   8.972  70.748  1.00  0.00    -0.227 N  
HETATM   21  O   UNL     1     -10.801  10.598  70.011  1.00  0.00    -0.274 OA 
HETATM   22  C   UNL     1     -10.575   9.630  70.732  1.00  0.00    -0.322 C  
HETATM   23  H   UNL     1      -9.239   8.217  71.423  1.00  0.00     0.000 HD 
BRANCH  22  24
HETATM   24  C   UNL     1     -11.598   9.096  71.713  1.00  0.00    -0.457 C  
BRANCH  24  25
HETATM   25  C   UNL     1     -11.306   7.676  72.084  1.00  0.00    -0.293 A  
HETATM   26  C   UNL     1     -11.673   6.524  71.414  1.00  0.00    -0.378 A  
HETATM   27  C   UNL     1     -11.327   5.345  72.136  1.00  0.00    -0.149 A  
HETATM   28  C   UNL     1     -10.678   5.633  73.315  1.00  0.00    -0.269 A  
HETATM   29  S   UNL     1     -10.477   7.315  73.541  1.00  0.00    -0.337 SA 
ENDBRANCH  24  25
ENDBRANCH  22  24
ENDBRANCH  12  20
BRANCH  12  30
HETATM   30  O   UNL     1      -7.478  10.472  70.261  1.00  0.00    -0.176 OA 
HETATM   31  C   UNL     1      -6.077  10.279  70.428  1.00  0.00    -0.110 C  
ENDBRANCH  12  30
TORSDOF 7
ENDMDL
MODEL      127
REMARK 921   NORMALIZED FREE ENERGY PREDICTED BY IDOCK:   -4.09 KCAL/MOL
REMARK 922        TOTAL FREE ENERGY PREDICTED BY IDOCK:   -6.44 KCAL/MOL
REMARK 923 INTER-LIGAND FREE ENERGY PREDICTED BY IDOCK:   -6.41 KCAL/MOL
REMARK 924 INTRA-LIGAND FREE ENERGY PREDICTED BY IDOCK:   -0.03 KCAL/MOL
REMARK 927      BINDING AFFINITY PREDICTED BY RF-SCORE:    0.00 PKD
ROOT
HETATM    1  C   UNL     1     -10.564   9.266  69.560  1.00  0.00    -0.224 C  
HETATM    2  S   UNL     1     -11.210  10.661  68.613  1.00  0.00    -0.280 SA 
HETATM    3  C   UNL     1      -9.846  10.638  67.437  1.00  0.00    -0.170 C  
HETATM    4  C   UNL     1      -8.459  10.542  68.050  1.00  0.00    -0.120 C  
HETATM    5  C   UNL     1      -8.201  10.052  69.299  1.00  0.00    -0.147 C  
HETATM    6  O   UNL     1      -8.644   8.746  72.140  1.00  0.00    -0.355 OA 
HETATM    7  O   UNL     1      -6.538   9.515  71.029  1.00  0.00    -0.123 OA 
HETATM    8  C   UNL     1      -6.790  10.135  69.863  1.00  0.00    -0.124 C  
HETATM    9  N   UNL     1      -9.236   9.583  70.063  1.00  0.00    -0.218 N  
HETATM   10  C   UNL     1      -9.447   9.084  71.302  1.00  0.00    -0.269 C  
HETATM   11  O   UNL     1      -5.872  10.709  69.293  1.00  0.00    -0.040 OA 
HETATM   12  C   UNL     1     -11.044   9.181  71.080  1.00  0.00    -0.305 C  
ENDROOT
BRANCH   4  13
HETATM   13  C   UNL     1      -7.398  11.132  67.118  1.00  0.00    -0.121 C  
BRANCH  13  14
HETATM   14  O   UNL     1      -7.683  10.786  65.746  1.00  0.00    -0.152 OA 
BRANCH  14  15
HETATM   15  C   UNL     1      -6.808   9.952  65.144  1.00  0.00    -0.124 C  
HETATM   16  O   UNL     1      -6.608   8.779  65.410  1.00  0.00    -0.066 OA 
HETATM   17  N   UNL     1      -6.124  10.620  64.189  1.00  0.00    -0.371 N  
HETATM   18  H2  UNL     1      -6.249  11.605  63.958  1.00  0.00     0.000 HD 
HETATM   19  H1  UNL     1      -5.463   9.990  63.734  1.00  0.00     0.000 HD 
ENDBRANCH  14  15
ENDBRANCH  13  14
ENDBRANCH   4  13
BRANCH  12  20
HETATM   20  N   UNL     1     -11.736  10.421  71.565  1.00  0.00    -0.168 N  
HETATM   21  O   UNL     1     -13.839   9.872  70.845  1.00  0.00    -0.154 OA 
HETATM   22  C   UNL     1     -13.089  10.641  71.437  1.00  0.00    -0.400 C  
HETATM   23  H   UNL     1     -11.172  11.141  72.016  1.00  0.00     0.000 HD 
BRANCH  22  24
HETATM   24  C   UNL     1     -13.576  11.941  72.044  1.00  0.00    -0.190 C  
BRANCH  24  25
HETATM   25  C   UNL     1     -12.856  13.116  71.463  1.00  0.00    -0.307 A  
HETATM   26  C   UNL     1     -12.280  13.234  70.212  1.00  0.00    -0.391 A  
HETATM   27  C   UNL     1     -11.567  14.458  70.056  1.00  0.00    -0.334 A  
HETATM   28  C   UNL     1     -11.650  15.249  71.180  1.00  0.00    -0.370 A  
HETATM   29  S   UNL     1     -12.593  14.523  72.407  1.00  0.00    -0.277 SA 
ENDBRANCH  24  25
ENDBRANCH  22  24
ENDBRANCH  12  20
BRANCH  12  30
HETATM   30  O   UNL     1     -11.773   7.966  71.406  1.00  0.00    -0.269 OA 
HETATM   31  C   UNL     1     -11.370   6.799  70.696  1.00  0.00    -0.334 C  
ENDBRANCH  12  30
TORSDOF 7
ENDMDL
MODEL      128
REMARK 921   NORMALIZED FREE ENERGY PREDICTED BY IDOCK:   -4.09 KCAL/MOL
REMARK 922        TOTAL FREE ENERGY PREDICTED BY IDOCK:   -6.43 KCAL/MOL
REMARK 923 INTER-LIGAND FREE ENERGY PREDICTED BY IDOCK:   -5.28 KCAL/MOL
REMARK 924 INTRA-LIGAND FREE ENERGY PREDICTED BY IDOCK:   -1.15 KCAL/MOL
REMARK 927      BINDING AFFINITY PREDICTED BY RF-SCORE:    0.00 PKD
ROOT
HETATM    1  C   UNL     1      -9.082   9.797  65.022  1.00  0.00    -0.231 C  
HETATM    2  S   UNL     1      -7.306   9.631  64.743  1.00  0.00    -0.125 SA 
HETATM    3  C   UNL     1      -7.353   7.831  64.796  1.00  0.00    -0.075 C  
HETATM    4  C   UNL     1      -8.133   7.234  65.955  1.00  0.00    -0.125 C  
HETATM    5  C   UNL     1      -9.107   7.894  66.650  1.00  0.00    -0.163 C  
HETATM    6  O   UNL     1     -11.139  10.148  67.524  1.00  0.00    -0.298 OA 
HETATM    7  O   UNL     1     -10.776   7.854  68.455  1.00  0.00    -0.144 OA 
HETATM    8  C   UNL     1      -9.723   7.247  67.882  1.00  0.00    -0.140 C  
HETATM    9  N   UNL     1      -9.445   9.170  66.284  1.00  0.00    -0.216 N  
HETATM   10  C   UNL     1     -10.264  10.166  66.690  1.00  0.00    -0.224 C  
HETATM   11  O   UNL     1      -9.327   6.189  68.352  1.00  0.00    -0.118 OA 
HETATM   12  C   UNL     1      -9.556  11.184  65.655  1.00  0.00    -0.224 C  
ENDROOT
BRANCH   4  13
HETATM   13  C   UNL     1      -7.638   5.825  66.290  1.00  0.00    -0.091 C  
BRANCH  13  14
HETATM   14  O   UNL     1      -7.926   4.917  65.205  1.00  0.00    -0.093 OA 
BRANCH  14  15
HETATM   15  C   UNL     1      -9.221   4.569  65.044  1.00  0.00    -0.157 C  
HETATM   16  O   UNL     1      -9.983   4.154  65.900  1.00  0.00    -0.209 OA 
HETATM   17  N   UNL     1      -9.573   4.712  63.747  1.00  0.00    -0.354 N  
HETATM   18  H2  UNL     1      -8.955   5.034  63.003  1.00  0.00     0.000 HD 
HETATM   19  H1  UNL     1     -10.551   4.449  63.625  1.00  0.00     0.000 HD 
ENDBRANCH  14  15
ENDBRANCH  13  14
ENDBRANCH   4  13
BRANCH  12  20
HETATM   20  N   UNL     1      -8.429  12.027  66.174  1.00  0.00    -0.393 N  
HETATM   21  O   UNL     1      -9.631  13.161  67.760  1.00  0.00    -0.195 OA 
HETATM   22  C   UNL     1      -8.559  12.921  67.213  1.00  0.00    -0.205 C  
HETATM   23  H   UNL     1      -7.515  11.933  65.732  1.00  0.00     0.000 HD 
BRANCH  22  24
HETATM   24  C   UNL     1      -7.276  13.628  67.601  1.00  0.00    -0.179 C  
BRANCH  24  25
HETATM   25  C   UNL     1      -6.630  12.972  68.780  1.00  0.00    -0.096 A  
HETATM   26  C   UNL     1      -6.632  11.633  69.123  1.00  0.00    -0.101 A  
HETATM   27  C   UNL     1      -6.020  11.396  70.388  1.00  0.00    -0.142 A  
HETATM   28  C   UNL     1      -5.540  12.555  70.953  1.00  0.00    -0.124 A  
HETATM   29  S   UNL     1      -5.817  13.917  69.957  1.00  0.00    -0.145 SA 
ENDBRANCH  24  25
ENDBRANCH  22  24
ENDBRANCH  12  20
BRANCH  12  30
HETATM   30  O   UNL     1     -10.481  11.933  64.820  1.00  0.00    -0.264 OA 
HETATM   31  C   UNL     1     -10.245  11.852  63.418  1.00  0.00    -0.449 C  
ENDBRANCH  12  30
TORSDOF 7
ENDMDL
MODEL      129
REMARK 921   NORMALIZED FREE ENERGY PREDICTED BY IDOCK:   -4.05 KCAL/MOL
REMARK 922        TOTAL FREE ENERGY PREDICTED BY IDOCK:   -6.38 KCAL/MOL
REMARK 923 INTER-LIGAND FREE ENERGY PREDICTED BY IDOCK:   -5.89 KCAL/MOL
REMARK 924 INTRA-LIGAND FREE ENERGY PREDICTED BY IDOCK:   -0.49 KCAL/MOL
REMARK 927      BINDING AFFINITY PREDICTED BY RF-SCORE:    0.00 PKD
ROOT
HETATM    1  C   UNL     1      -8.746   8.894  69.101  1.00  0.00    -0.132 C  
HETATM    2  S   UNL     1      -9.034   9.523  67.434  1.00  0.00    -0.130 SA 
HETATM    3  C   UNL     1      -9.559  11.145  68.016  1.00  0.00    -0.176 C  
HETATM    4  C   UNL     1     -10.568  11.133  69.151  1.00  0.00    -0.238 C  
HETATM    5  C   UNL     1     -10.755  10.084  70.006  1.00  0.00    -0.299 C  
HETATM    6  O   UNL     1     -10.375   7.285  71.419  1.00  0.00    -0.200 OA 
HETATM    7  O   UNL     1     -11.958   9.153  71.938  1.00  0.00    -0.352 OA 
HETATM    8  C   UNL     1     -11.892  10.130  71.017  1.00  0.00    -0.383 C  
HETATM    9  N   UNL     1      -9.976   8.965  69.875  1.00  0.00    -0.183 N  
HETATM   10  C   UNL     1      -9.848   7.739  70.430  1.00  0.00    -0.183 C  
HETATM   11  O   UNL     1     -12.724  11.026  71.050  1.00  0.00    -0.359 OA 
HETATM   12  C   UNL     1      -8.817   7.308  69.263  1.00  0.00    -0.136 C  
ENDROOT
BRANCH   4  13
HETATM   13  C   UNL     1     -11.400  12.418  69.167  1.00  0.00    -0.269 C  
BRANCH  13  14
HETATM   14  O   UNL     1     -11.131  13.208  67.989  1.00  0.00    -0.243 OA 
BRANCH  14  15
HETATM   15  C   UNL     1     -11.801  14.376  67.885  1.00  0.00    -0.349 C  
HETATM   16  O   UNL     1     -12.001  15.191  68.769  1.00  0.00    -0.314 OA 
HETATM   17  N   UNL     1     -12.275  14.519  66.627  1.00  0.00    -0.439 N  
HETATM   18  H2  UNL     1     -12.146  13.847  65.871  1.00  0.00     0.000 HD 
HETATM   19  H1  UNL     1     -12.781  15.402  66.548  1.00  0.00     0.000 HD 
ENDBRANCH  14  15
ENDBRANCH  13  14
ENDBRANCH   4  13
BRANCH  12  20
HETATM   20  N   UNL     1      -9.382   6.603  68.066  1.00  0.00    -0.115 N  
HETATM   21  O   UNL     1     -10.063   4.703  69.149  1.00  0.00    -0.174 OA 
HETATM   22  C   UNL     1      -9.993   5.370  68.121  1.00  0.00    -0.158 C  
HETATM   23  H   UNL     1      -9.310   7.063  67.159  1.00  0.00     0.000 HD 
BRANCH  22  24
HETATM   24  C   UNL     1     -10.533   4.873  66.796  1.00  0.00    -0.237 C  
BRANCH  24  25
HETATM   25  C   UNL     1      -9.450   4.261  65.964  1.00  0.00    -0.177 A  
HETATM   26  C   UNL     1      -8.851   4.772  64.828  1.00  0.00    -0.153 A  
HETATM   27  C   UNL     1      -7.947   3.847  64.229  1.00  0.00    -0.086 A  
HETATM   28  C   UNL     1      -7.859   2.675  64.945  1.00  0.00    -0.081 A  
HETATM   29  S   UNL     1      -8.852   2.698  66.337  1.00  0.00    -0.128 SA 
ENDBRANCH  24  25
ENDBRANCH  22  24
ENDBRANCH  12  20
BRANCH  12  30
HETATM   30  O   UNL     1      -7.585   6.703  69.742  1.00  0.00    -0.099 OA 
HETATM   31  C   UNL     1      -7.630   6.185  71.068  1.00  0.00    -0.097 C  
ENDBRANCH  12  30
TORSDOF 7
ENDMDL
MODEL      130
REMARK 921   NORMALIZED FREE ENERGY PREDICTED BY IDOCK:   -4.03 KCAL/MOL
REMARK 922        TOTAL FREE ENERGY PREDICTED BY IDOCK:   -6.36 KCAL/MOL
REMARK 923 INTER-LIGAND FREE ENERGY PREDICTED BY IDOCK:   -5.83 KCAL/MOL
REMARK 924 INTRA-LIGAND FREE ENERGY PREDICTED BY IDOCK:   -0.53 KCAL/MOL
REMARK 927      BINDING AFFINITY PREDICTED BY RF-SCORE:    0.00 PKD
ROOT
HETATM    1  C   UNL     1      -8.742   9.096  70.922  1.00  0.00    -0.221 C  
HETATM    2  S   UNL     1      -7.910   8.215  69.583  1.00  0.00    -0.105 SA 
HETATM    3  C   UNL     1      -8.057   9.595  68.434  1.00  0.00    -0.104 C  
HETATM    4  C   UNL     1      -9.432  10.237  68.360  1.00  0.00    -0.149 C  
HETATM    5  C   UNL     1     -10.374  10.156  69.345  1.00  0.00    -0.232 C  
HETATM    6  O   UNL     1     -11.757   9.464  72.099  1.00  0.00    -0.290 OA 
HETATM    7  O   UNL     1     -12.623  10.756  70.139  1.00  0.00    -0.327 OA 
HETATM    8  C   UNL     1     -11.767  10.718  69.103  1.00  0.00    -0.296 C  
HETATM    9  N   UNL     1     -10.080   9.483  70.502  1.00  0.00    -0.270 N  
HETATM   10  C   UNL     1     -10.684   9.125  71.657  1.00  0.00    -0.371 C  
HETATM   11  O   UNL     1     -12.131  11.165  68.024  1.00  0.00    -0.635 OA 
HETATM   12  C   UNL     1      -9.430   8.178  72.031  1.00  0.00    -0.215 C  
ENDROOT
BRANCH   4  13
HETATM   13  C   UNL     1      -9.652  10.922  67.009  1.00  0.00    -0.173 C  
BRANCH  13  14
HETATM   14  O   UNL     1      -9.567  12.356  67.151  1.00  0.00    -0.198 OA 
BRANCH  14  15
HETATM   15  C   UNL     1      -8.397  12.843  67.620  1.00  0.00    -0.176 C  
HETATM   16  O   UNL     1      -8.226  13.494  68.636  1.00  0.00    -0.130 OA 
HETATM   17  N   UNL     1      -7.399  12.534  66.763  1.00  0.00    -0.361 N  
HETATM   18  H2  UNL     1      -7.511  12.012  65.894  1.00  0.00     0.000 HD 
HETATM   19  H1  UNL     1      -6.515  12.901  67.117  1.00  0.00     0.000 HD 
ENDBRANCH  14  15
ENDBRANCH  13  14
ENDBRANCH   4  13
BRANCH  12  20
HETATM   20  N   UNL     1      -9.517   6.730  71.647  1.00  0.00    -0.156 N  
HETATM   21  O   UNL     1     -11.232   6.166  73.057  1.00  0.00    -0.242 OA 
HETATM   22  C   UNL     1     -10.441   5.855  72.171  1.00  0.00    -0.207 C  
HETATM   23  H   UNL     1      -8.853   6.374  70.960  1.00  0.00     0.000 HD 
BRANCH  22  24
HETATM   24  C   UNL     1     -10.375   4.452  71.601  1.00  0.00    -0.118 C  
BRANCH  24  25
HETATM   25  C   UNL     1      -9.592   3.540  72.491  1.00  0.00    -0.135 A  
HETATM   26  C   UNL     1      -8.244   3.590  72.794  1.00  0.00    -0.081 A  
HETATM   27  C   UNL     1      -7.823   2.476  73.578  1.00  0.00    -0.051 A  
HETATM   28  C   UNL     1      -8.868   1.632  73.876  1.00  0.00    -0.058 A  
HETATM   29  S   UNL     1     -10.347   2.187  73.225  1.00  0.00    -0.134 SA 
ENDBRANCH  24  25
ENDBRANCH  22  24
ENDBRANCH  12  20
BRANCH  12  30
HETATM   30  O   UNL     1      -8.907   8.374  73.373  1.00  0.00    -0.253 OA 
HETATM   31  C   UNL     1      -7.564   7.945  73.577  1.00  0.00    -0.147 C  
ENDBRANCH  12  30
TORSDOF 7
ENDMDL
MODEL      131
REMARK 921   NORMALIZED FREE ENERGY PREDICTED BY IDOCK:   -4.02 KCAL/MOL
REMARK 922        TOTAL FREE ENERGY PREDICTED BY IDOCK:   -6.34 KCAL/MOL
REMARK 923 INTER-LIGAND FREE ENERGY PREDICTED BY IDOCK:   -5.35 KCAL/MOL
REMARK 924 INTRA-LIGAND FREE ENERGY PREDICTED BY IDOCK:   -0.99 KCAL/MOL
REMARK 927      BINDING AFFINITY PREDICTED BY RF-SCORE:    0.00 PKD
ROOT
HETATM    1  C   UNL     1     -11.416   8.544  70.831  1.00  0.00    -0.267 C  
HETATM    2  S   UNL     1     -12.214   6.926  70.771  1.00  0.00    -0.221 SA 
HETATM    3  C   UNL     1     -12.017   6.639  72.539  1.00  0.00    -0.054 C  
HETATM    4  C   UNL     1     -10.633   6.931  73.094  1.00  0.00    -0.330 C  
HETATM    5  C   UNL     1      -9.723   7.759  72.502  1.00  0.00    -0.204 C  
HETATM    6  O   UNL     1      -8.436   9.811  70.475  1.00  0.00    -0.171 OA 
HETATM    7  O   UNL     1      -7.494   8.797  72.559  1.00  0.00    -0.335 OA 
HETATM    8  C   UNL     1      -8.317   7.866  73.074  1.00  0.00    -0.165 C  
HETATM    9  N   UNL     1     -10.061   8.408  71.343  1.00  0.00    -0.199 N  
HETATM   10  C   UNL     1      -9.497   9.234  70.434  1.00  0.00    -0.246 C  
HETATM   11  O   UNL     1      -7.914   7.171  73.997  1.00  0.00    -0.106 OA 
HETATM   12  C   UNL     1     -10.773   9.048  69.460  1.00  0.00    -0.206 C  
ENDROOT
BRANCH   4  13
HETATM   13  C   UNL     1     -10.363   6.119  74.364  1.00  0.00    -0.261 C  
BRANCH  13  14
HETATM   14  O   UNL     1     -10.882   4.779  74.226  1.00  0.00    -0.310 OA 
BRANCH  14  15
HETATM   15  C   UNL     1     -10.060   3.875  73.650  1.00  0.00    -0.130 C  
HETATM   16  O   UNL     1     -10.193   3.351  72.557  1.00  0.00    -0.157 OA 
HETATM   17  N   UNL     1      -9.042   3.584  74.489  1.00  0.00    -0.085 N  
HETATM   18  H2  UNL     1      -8.913   3.986  75.418  1.00  0.00     0.000 HD 
HETATM   19  H1  UNL     1      -8.421   2.901  74.054  1.00  0.00     0.000 HD 
ENDBRANCH  14  15
ENDBRANCH  13  14
ENDBRANCH   4  13
BRANCH  12  20
HETATM   20  N   UNL     1     -10.689   7.985  68.405  1.00  0.00    -0.412 N  
HETATM   21  O   UNL     1      -8.769   8.730  67.403  1.00  0.00    -0.128 OA 
HETATM   22  C   UNL     1      -9.668   7.898  67.486  1.00  0.00    -0.159 C  
HETATM   23  H   UNL     1     -11.432   7.288  68.365  1.00  0.00     0.000 HD 
BRANCH  22  24
HETATM   24  C   UNL     1      -9.764   6.714  66.546  1.00  0.00    -0.176 C  
BRANCH  24  25
HETATM   25  C   UNL     1      -8.901   5.582  67.008  1.00  0.00    -0.110 A  
HETATM   26  C   UNL     1      -8.196   4.675  66.241  1.00  0.00    -0.107 A  
HETATM   27  C   UNL     1      -7.589   3.654  67.029  1.00  0.00    -0.079 A  
HETATM   28  C   UNL     1      -7.822   3.834  68.373  1.00  0.00    -0.068 A  
HETATM   29  S   UNL     1      -8.755   5.233  68.680  1.00  0.00    -0.093 SA 
ENDBRANCH  24  25
ENDBRANCH  22  24
ENDBRANCH  12  20
BRANCH  12  30
HETATM   30  O   UNL     1     -11.336  10.293  68.961  1.00  0.00    -0.231 OA 
HETATM   31  C   UNL     1     -12.221  10.966  69.851  1.00  0.00    -0.336 C  
ENDBRANCH  12  30
TORSDOF 7
ENDMDL
MODEL      132
REMARK 921   NORMALIZED FREE ENERGY PREDICTED BY IDOCK:   -4.01 KCAL/MOL
REMARK 922        TOTAL FREE ENERGY PREDICTED BY IDOCK:   -6.33 KCAL/MOL
REMARK 923 INTER-LIGAND FREE ENERGY PREDICTED BY IDOCK:   -5.29 KCAL/MOL
REMARK 924 INTRA-LIGAND FREE ENERGY PREDICTED BY IDOCK:   -1.04 KCAL/MOL
REMARK 927      BINDING AFFINITY PREDICTED BY RF-SCORE:    0.00 PKD
ROOT
HETATM    1  C   UNL     1      -7.766  10.515  69.177  1.00  0.00    -0.131 C  
HETATM    2  S   UNL     1      -9.282   9.836  69.883  1.00  0.00    -0.220 SA 
HETATM    3  C   UNL     1      -8.683   8.137  69.821  1.00  0.00    -0.135 C  
HETATM    4  C   UNL     1      -8.046   7.720  68.507  1.00  0.00    -0.123 C  
HETATM    5  C   UNL     1      -7.521   8.589  67.593  1.00  0.00    -0.094 C  
HETATM    6  O   UNL     1      -6.567  11.282  66.246  1.00  0.00    -0.109 OA 
HETATM    7  O   UNL     1      -6.393   8.922  65.433  1.00  0.00    -0.062 OA 
HETATM    8  C   UNL     1      -7.037   8.068  66.248  1.00  0.00    -0.066 C  
HETATM    9  N   UNL     1      -7.528   9.932  67.864  1.00  0.00    -0.089 N  
HETATM   10  C   UNL     1      -7.183  11.096  67.269  1.00  0.00    -0.113 C  
HETATM   11  O   UNL     1      -7.177   6.906  65.890  1.00  0.00    -0.070 OA 
HETATM   12  C   UNL     1      -7.915  11.926  68.446  1.00  0.00    -0.154 C  
ENDROOT
BRANCH   4  13
HETATM   13  C   UNL     1      -8.136   6.205  68.303  1.00  0.00    -0.111 C  
BRANCH  13  14
HETATM   14  O   UNL     1      -9.516   5.784  68.249  1.00  0.00    -0.115 OA 
BRANCH  14  15
HETATM   15  C   UNL     1      -9.876   5.048  67.175  1.00  0.00    -0.182 C  
HETATM   16  O   UNL     1     -10.237   5.462  66.087  1.00  0.00    -0.181 OA 
HETATM   17  N   UNL     1      -9.816   3.734  67.483  1.00  0.00    -0.182 N  
HETATM   18  H2  UNL     1      -9.542   3.355  68.390  1.00  0.00     0.000 HD 
HETATM   19  H1  UNL     1     -10.088   3.177  66.673  1.00  0.00     0.000 HD 
ENDBRANCH  14  15
ENDBRANCH  13  14
ENDBRANCH   4  13
BRANCH  12  20
HETATM   20  N   UNL     1      -9.338  12.341  68.219  1.00  0.00    -0.212 N  
HETATM   21  O   UNL     1      -8.905  14.058  66.767  1.00  0.00    -0.225 OA 
HETATM   22  C   UNL     1      -9.713  13.354  67.366  1.00  0.00    -0.221 C  
HETATM   23  H   UNL     1     -10.070  11.845  68.727  1.00  0.00     0.000 HD 
BRANCH  22  24
HETATM   24  C   UNL     1     -11.209  13.566  67.256  1.00  0.00    -0.319 C  
BRANCH  24  25
HETATM   25  C   UNL     1     -11.695  13.301  65.867  1.00  0.00    -0.365 A  
HETATM   26  C   UNL     1     -12.022  12.088  65.291  1.00  0.00    -0.207 A  
HETATM   27  C   UNL     1     -12.323  12.209  63.904  1.00  0.00    -0.587 A  
HETATM   28  C   UNL     1     -12.251  13.515  63.473  1.00  0.00    -0.346 A  
HETATM   29  S   UNL     1     -11.834  14.585  64.739  1.00  0.00    -0.452 SA 
ENDBRANCH  24  25
ENDBRANCH  22  24
ENDBRANCH  12  20
BRANCH  12  30
HETATM   30  O   UNL     1      -7.106  12.985  69.029  1.00  0.00    -0.093 OA 
HETATM   31  C   UNL     1      -6.070  12.555  69.905  1.00  0.00    -0.130 C  
ENDBRANCH  12  30
TORSDOF 7
ENDMDL
MODEL      133
REMARK 921   NORMALIZED FREE ENERGY PREDICTED BY IDOCK:   -4.01 KCAL/MOL
REMARK 922        TOTAL FREE ENERGY PREDICTED BY IDOCK:   -6.33 KCAL/MOL
REMARK 923 INTER-LIGAND FREE ENERGY PREDICTED BY IDOCK:   -5.89 KCAL/MOL
REMARK 924 INTRA-LIGAND FREE ENERGY PREDICTED BY IDOCK:   -0.44 KCAL/MOL
REMARK 927      BINDING AFFINITY PREDICTED BY RF-SCORE:    0.00 PKD
ROOT
HETATM    1  C   UNL     1     -11.222  12.425  66.422  1.00  0.00    -0.319 C  
HETATM    2  S   UNL     1     -10.453  12.674  64.808  1.00  0.00    -0.330 SA 
HETATM    3  C   UNL     1     -10.274  10.909  64.496  1.00  0.00    -0.356 C  
HETATM    4  C   UNL     1      -9.694  10.101  65.644  1.00  0.00    -0.322 C  
HETATM    5  C   UNL     1      -9.718  10.494  66.952  1.00  0.00    -0.180 C  
HETATM    6  O   UNL     1     -10.323  12.193  69.545  1.00  0.00     0.252 OA 
HETATM    7  O   UNL     1      -9.145   9.999  69.293  1.00  0.00    -0.174 OA 
HETATM    8  C   UNL     1      -8.981   9.670  67.999  1.00  0.00    -0.122 C  
HETATM    9  N   UNL     1     -10.323  11.676  67.287  1.00  0.00    -0.200 N  
HETATM   10  C   UNL     1     -10.530  12.443  68.381  1.00  0.00    -0.235 C  
HETATM   11  O   UNL     1      -8.277   8.709  67.723  1.00  0.00    -0.116 OA 
HETATM   12  C   UNL     1     -11.086  13.640  67.448  1.00  0.00    -0.282 C  
ENDROOT
BRANCH   4  13
HETATM   13  C   UNL     1      -9.014   8.826  65.138  1.00  0.00    -0.100 C  
BRANCH  13  14
HETATM   14  O   UNL     1      -7.689   9.121  64.649  1.00  0.00    -0.106 OA 
BRANCH  14  15
HETATM   15  C   UNL     1      -7.366   8.604  63.443  1.00  0.00    -0.102 C  
HETATM   16  O   UNL     1      -8.047   8.616  62.432  1.00  0.00    -0.147 OA 
HETATM   17  N   UNL     1      -6.153   8.015  63.510  1.00  0.00    -0.066 N  
HETATM   18  H2  UNL     1      -5.568   7.967  64.345  1.00  0.00     0.000 HD 
HETATM   19  H1  UNL     1      -5.909   7.624  62.599  1.00  0.00     0.000 HD 
ENDBRANCH  14  15
ENDBRANCH  13  14
ENDBRANCH   4  13
BRANCH  12  20
HETATM   20  N   UNL     1     -10.108  14.691  67.013  1.00  0.00    -0.247 N  
HETATM   21  O   UNL     1      -9.446  15.346  69.105  1.00  0.00    -0.211 OA 
HETATM   22  C   UNL     1      -9.342  15.430  67.885  1.00  0.00    -0.192 C  
HETATM   23  H   UNL     1     -10.004  14.867  66.014  1.00  0.00     0.000 HD 
BRANCH  22  24
HETATM   24  C   UNL     1      -8.387  16.400  67.220  1.00  0.00    -0.200 C  
BRANCH  24  25
HETATM   25  C   UNL     1      -8.964  17.779  67.165  1.00  0.00    -0.246 A  
HETATM   26  C   UNL     1      -9.805  18.318  66.209  1.00  0.00    -0.323 A  
HETATM   27  C   UNL     1     -10.045  19.707  66.419  1.00  0.00    -0.573 A  
HETATM   28  C   UNL     1      -9.409  20.175  67.546  1.00  0.00    -0.382 A  
HETATM   29  S   UNL     1      -8.539  18.943  68.350  1.00  0.00    -0.354 SA 
ENDBRANCH  24  25
ENDBRANCH  22  24
ENDBRANCH  12  20
BRANCH  12  30
HETATM   30  O   UNL     1     -12.357  14.199  67.879  1.00  0.00    -0.233 OA 
HETATM   31  C   UNL     1     -12.491  14.408  69.281  1.00  0.00    -0.028 C  
ENDBRANCH  12  30
TORSDOF 7
ENDMDL
MODEL      134
REMARK 921   NORMALIZED FREE ENERGY PREDICTED BY IDOCK:   -3.99 KCAL/MOL
REMARK 922        TOTAL FREE ENERGY PREDICTED BY IDOCK:   -6.30 KCAL/MOL
REMARK 923 INTER-LIGAND FREE ENERGY PREDICTED BY IDOCK:   -4.87 KCAL/MOL
REMARK 924 INTRA-LIGAND FREE ENERGY PREDICTED BY IDOCK:   -1.43 KCAL/MOL
REMARK 927      BINDING AFFINITY PREDICTED BY RF-SCORE:    0.00 PKD
ROOT
HETATM    1  C   UNL     1      -7.833   7.979  68.314  1.00  0.00    -0.123 C  
HETATM    2  S   UNL     1      -7.279   7.304  69.894  1.00  0.00    -0.083 SA 
HETATM    3  C   UNL     1      -6.755   5.740  69.170  1.00  0.00    -0.060 C  
HETATM    4  C   UNL     1      -7.754   5.094  68.225  1.00  0.00    -0.083 C  
HETATM    5  C   UNL     1      -8.749   5.769  67.575  1.00  0.00    -0.107 C  
HETATM    6  O   UNL     1     -10.568   8.139  66.551  1.00  0.00    -0.190 OA 
HETATM    7  O   UNL     1     -10.653   5.695  66.020  1.00  0.00    -0.060 OA 
HETATM    8  C   UNL     1      -9.778   4.995  66.764  1.00  0.00    -0.174 C  
HETATM    9  N   UNL     1      -8.862   7.123  67.745  1.00  0.00    -0.124 N  
HETATM   10  C   UNL     1      -9.674   8.135  67.365  1.00  0.00    -0.170 C  
HETATM   11  O   UNL     1      -9.825   3.773  66.732  1.00  0.00    -0.182 OA 
HETATM   12  C   UNL     1      -8.936   9.129  68.402  1.00  0.00    -0.133 C  
ENDROOT
BRANCH   4  13
HETATM   13  C   UNL     1      -7.548   3.579  68.151  1.00  0.00    -0.061 C  
BRANCH  13  14
HETATM   14  O   UNL     1      -7.643   2.993  69.467  1.00  0.00    -0.044 OA 
BRANCH  14  15
HETATM   15  C   UNL     1      -8.821   2.411  69.781  1.00  0.00    -0.082 C  
HETATM   16  O   UNL     1      -9.422   2.488  70.839  1.00  0.00    -0.136 OA 
HETATM   17  N   UNL     1      -9.254   1.668  68.738  1.00  0.00    -0.132 N  
HETATM   18  H2  UNL     1      -8.765   1.563  67.848  1.00  0.00     0.000 HD 
HETATM   19  H1  UNL     1     -10.144   1.229  68.974  1.00  0.00     0.000 HD 
ENDBRANCH  14  15
ENDBRANCH  13  14
ENDBRANCH   4  13
BRANCH  12  20
HETATM   20  N   UNL     1      -9.542   9.281  69.766  1.00  0.00    -0.179 N  
HETATM   21  O   UNL     1     -11.613   9.978  69.080  1.00  0.00    -0.104 OA 
HETATM   22  C   UNL     1     -10.848   9.659  69.985  1.00  0.00    -0.264 C  
HETATM   23  H   UNL     1      -8.953   9.095  70.577  1.00  0.00     0.000 HD 
BRANCH  22  24
HETATM   24  C   UNL     1     -11.257   9.700  71.443  1.00  0.00    -0.426 C  
BRANCH  24  25
HETATM   25  C   UNL     1     -11.260   8.330  72.044  1.00  0.00    -0.323 A  
HETATM   26  C   UNL     1     -10.461   7.838  73.059  1.00  0.00    -0.432 A  
HETATM   27  C   UNL     1     -10.660   6.444  73.280  1.00  0.00    -0.291 A  
HETATM   28  C   UNL     1     -11.628   5.925  72.450  1.00  0.00    -0.288 A  
HETATM   29  S   UNL     1     -12.299   7.115  71.423  1.00  0.00    -0.392 SA 
ENDBRANCH  24  25
ENDBRANCH  22  24
ENDBRANCH  12  20
BRANCH  12  30
HETATM   30  O   UNL     1      -8.519  10.398  67.828  1.00  0.00    -0.114 OA 
HETATM   31  C   UNL     1      -7.802  10.311  66.600  1.00  0.00    -0.116 C  
ENDBRANCH  12  30
TORSDOF 7
ENDMDL
MODEL      135
REMARK 921   NORMALIZED FREE ENERGY PREDICTED BY IDOCK:   -3.95 KCAL/MOL
REMARK 922        TOTAL FREE ENERGY PREDICTED BY IDOCK:   -6.24 KCAL/MOL
REMARK 923 INTER-LIGAND FREE ENERGY PREDICTED BY IDOCK:   -5.68 KCAL/MOL
REMARK 924 INTRA-LIGAND FREE ENERGY PREDICTED BY IDOCK:   -0.55 KCAL/MOL
REMARK 927      BINDING AFFINITY PREDICTED BY RF-SCORE:    0.00 PKD
ROOT
HETATM    1  C   UNL     1      -7.940   7.695  67.660  1.00  0.00    -0.121 C  
HETATM    2  S   UNL     1      -6.943   8.734  68.748  1.00  0.00    -0.063 SA 
HETATM    3  C   UNL     1      -6.877   7.497  70.056  1.00  0.00    -0.051 C  
HETATM    4  C   UNL     1      -8.207   6.853  70.410  1.00  0.00    -0.124 C  
HETATM    5  C   UNL     1      -9.288   6.809  69.576  1.00  0.00    -0.146 C  
HETATM    6  O   UNL     1     -11.086   7.160  67.002  1.00  0.00    -0.345 OA 
HETATM    7  O   UNL     1     -11.613   6.097  69.205  1.00  0.00    -0.329 OA 
HETATM    8  C   UNL     1     -10.614   6.264  70.089  1.00  0.00    -0.248 C  
HETATM    9  N   UNL     1      -9.189   7.345  68.319  1.00  0.00    -0.138 N  
HETATM   10  C   UNL     1      -9.969   7.560  67.236  1.00  0.00    -0.210 C  
HETATM   11  O   UNL     1     -10.800   5.942  71.255  1.00  0.00    -0.257 OA 
HETATM   12  C   UNL     1      -8.811   8.470  66.571  1.00  0.00    -0.140 C  
ENDROOT
BRANCH   4  13
HETATM   13  C   UNL     1      -8.205   6.328  71.848  1.00  0.00    -0.110 C  
BRANCH  13  14
HETATM   14  O   UNL     1      -7.492   5.075  71.925  1.00  0.00    -0.084 OA 
BRANCH  14  15
HETATM   15  C   UNL     1      -6.839   4.828  73.082  1.00  0.00    -0.068 C  
HETATM   16  O   UNL     1      -5.970   3.994  73.272  1.00  0.00    -0.010 OA 
HETATM   17  N   UNL     1      -7.316   5.634  74.056  1.00  0.00    -0.089 N  
HETATM   18  H2  UNL     1      -8.057   6.324  73.936  1.00  0.00     0.000 HD 
HETATM   19  H1  UNL     1      -6.823   5.447  74.929  1.00  0.00     0.000 HD 
ENDBRANCH  14  15
ENDBRANCH  13  14
ENDBRANCH   4  13
BRANCH  12  20
HETATM   20  N   UNL     1      -8.881   9.952  66.796  1.00  0.00    -0.134 N  
HETATM   21  O   UNL     1     -10.449  10.410  65.192  1.00  0.00    -0.255 OA 
HETATM   22  C   UNL     1      -9.726  10.791  66.107  1.00  0.00    -0.207 C  
HETATM   23  H   UNL     1      -8.265  10.360  67.500  1.00  0.00     0.000 HD 
BRANCH  22  24
HETATM   24  C   UNL     1      -9.660  12.243  66.535  1.00  0.00    -0.242 C  
BRANCH  24  25
HETATM   25  C   UNL     1     -10.778  13.037  65.936  1.00  0.00    -0.276 A  
HETATM   26  C   UNL     1     -12.139  12.845  66.084  1.00  0.00    -0.458 A  
HETATM   27  C   UNL     1     -12.903  13.720  65.257  1.00  0.00    -0.430 A  
HETATM   28  C   UNL     1     -12.102  14.573  64.532  1.00  0.00    -0.484 A  
HETATM   29  S   UNL     1     -10.443  14.327  64.858  1.00  0.00    -0.381 SA 
ENDBRANCH  24  25
ENDBRANCH  22  24
ENDBRANCH  12  20
BRANCH  12  30
HETATM   30  O   UNL     1      -8.489   8.124  65.196  1.00  0.00    -0.155 OA 
HETATM   31  C   UNL     1      -8.103   6.772  64.977  1.00  0.00    -0.126 C  
ENDBRANCH  12  30
TORSDOF 7
ENDMDL
MODEL      136
REMARK 921   NORMALIZED FREE ENERGY PREDICTED BY IDOCK:   -3.91 KCAL/MOL
REMARK 922        TOTAL FREE ENERGY PREDICTED BY IDOCK:   -6.19 KCAL/MOL
REMARK 923 INTER-LIGAND FREE ENERGY PREDICTED BY IDOCK:   -4.93 KCAL/MOL
REMARK 924 INTRA-LIGAND FREE ENERGY PREDICTED BY IDOCK:   -1.26 KCAL/MOL
REMARK 927      BINDING AFFINITY PREDICTED BY RF-SCORE:    0.00 PKD
ROOT
HETATM    1  C   UNL     1      -9.180   5.679  67.388  1.00  0.00    -0.109 C  
HETATM    2  S   UNL     1     -10.820   6.200  67.934  1.00  0.00    -0.296 SA 
HETATM    3  C   UNL     1     -10.843   7.643  66.855  1.00  0.00    -0.057 C  
HETATM    4  C   UNL     1      -9.584   8.493  66.878  1.00  0.00    -0.257 C  
HETATM    5  C   UNL     1      -8.357   8.042  67.274  1.00  0.00    -0.122 C  
HETATM    6  O   UNL     1      -6.069   6.100  68.260  1.00  0.00    -0.019 OA 
HETATM    7  O   UNL     1      -5.973   8.522  67.639  1.00  0.00    -0.045 OA 
HETATM    8  C   UNL     1      -7.197   9.020  67.391  1.00  0.00    -0.083 C  
HETATM    9  N   UNL     1      -8.213   6.734  67.654  1.00  0.00    -0.119 N  
HETATM   10  C   UNL     1      -7.257   5.910  68.139  1.00  0.00    -0.079 C  
HETATM   11  O   UNL     1      -7.320  10.228  67.238  1.00  0.00    -0.089 OA 
HETATM   12  C   UNL     1      -8.366   4.770  68.416  1.00  0.00    -0.090 C  
ENDROOT
BRANCH   4  13
HETATM   13  C   UNL     1      -9.882   9.939  66.472  1.00  0.00    -0.215 C  
BRANCH  13  14
HETATM   14  O   UNL     1     -10.094  10.028  65.047  1.00  0.00    -0.323 OA 
BRANCH  14  15
HETATM   15  C   UNL     1      -9.789  11.211  64.469  1.00  0.00    -0.280 C  
HETATM   16  O   UNL     1      -9.891  11.502  63.290  1.00  0.00    -0.352 OA 
HETATM   17  N   UNL     1      -9.300  12.060  65.400  1.00  0.00    -0.431 N  
HETATM   18  H2  UNL     1      -9.180  11.841  66.389  1.00  0.00     0.000 HD 
HETATM   19  H1  UNL     1      -9.070  12.953  64.964  1.00  0.00     0.000 HD 
ENDBRANCH  14  15
ENDBRANCH  13  14
ENDBRANCH   4  13
BRANCH  12  20
HETATM   20  N   UNL     1      -8.975   4.714  69.787  1.00  0.00    -0.089 N  
HETATM   21  O   UNL     1      -7.104   4.002  70.899  1.00  0.00    -0.032 OA 
HETATM   22  C   UNL     1      -8.275   4.368  70.920  1.00  0.00    -0.079 C  
HETATM   23  H   UNL     1      -9.963   4.945  69.883  1.00  0.00     0.000 HD 
BRANCH  22  24
HETATM   24  C   UNL     1      -9.081   4.428  72.202  1.00  0.00    -0.152 C  
BRANCH  24  25
HETATM   25  C   UNL     1      -9.630   5.800  72.435  1.00  0.00    -0.149 A  
HETATM   26  C   UNL     1      -8.949   6.940  72.819  1.00  0.00    -0.146 A  
HETATM   27  C   UNL     1      -9.825   8.036  73.070  1.00  0.00    -0.352 A  
HETATM   28  C   UNL     1     -11.141   7.708  72.835  1.00  0.00    -0.393 A  
HETATM   29  S   UNL     1     -11.314   6.093  72.305  1.00  0.00    -0.310 SA 
ENDBRANCH  24  25
ENDBRANCH  22  24
ENDBRANCH  12  20
BRANCH  12  30
HETATM   30  O   UNL     1      -8.020   3.454  67.901  1.00  0.00    -0.078 OA 
HETATM   31  C   UNL     1      -9.107   2.546  67.756  1.00  0.00    -0.187 C  
ENDBRANCH  12  30
TORSDOF 7
ENDMDL
MODEL      137
REMARK 921   NORMALIZED FREE ENERGY PREDICTED BY IDOCK:   -3.89 KCAL/MOL
REMARK 922        TOTAL FREE ENERGY PREDICTED BY IDOCK:   -6.15 KCAL/MOL
REMARK 923 INTER-LIGAND FREE ENERGY PREDICTED BY IDOCK:   -5.75 KCAL/MOL
REMARK 924 INTRA-LIGAND FREE ENERGY PREDICTED BY IDOCK:   -0.41 KCAL/MOL
REMARK 927      BINDING AFFINITY PREDICTED BY RF-SCORE:    0.00 PKD
ROOT
HETATM    1  C   UNL     1      -9.079  15.869  69.264  1.00  0.00    -0.253 C  
HETATM    2  S   UNL     1      -7.373  15.439  68.860  1.00  0.00    -0.162 SA 
HETATM    3  C   UNL     1      -6.773  17.119  69.113  1.00  0.00    -0.238 C  
HETATM    4  C   UNL     1      -7.597  18.211  68.454  1.00  0.00    -0.290 C  
HETATM    5  C   UNL     1      -8.908  18.076  68.093  1.00  0.00    -0.273 C  
HETATM    6  O   UNL     1     -11.786  16.829  67.725  1.00  0.00     0.254 OA 
HETATM    7  O   UNL     1     -10.916  19.090  67.100  1.00  0.00    -0.433 OA 
HETATM    8  C   UNL     1      -9.592  19.188  67.311  1.00  0.00    -0.314 C  
HETATM    9  N   UNL     1      -9.558  16.899  68.354  1.00  0.00    -0.246 N  
HETATM   10  C   UNL     1     -10.767  16.332  68.143  1.00  0.00    -0.322 C  
HETATM   11  O   UNL     1      -9.003  20.178  66.897  1.00  0.00    -0.333 OA 
HETATM   12  C   UNL     1     -10.198  14.908  68.652  1.00  0.00    -0.236 C  
ENDROOT
BRANCH   4  13
HETATM   13  C   UNL     1      -6.750  19.457  68.179  1.00  0.00    -0.259 C  
BRANCH  13  14
HETATM   14  O   UNL     1      -5.552  19.102  67.457  1.00  0.00    -0.176 OA 
BRANCH  14  15
HETATM   15  C   UNL     1      -5.678  18.964  66.119  1.00  0.00    -0.156 C  
HETATM   16  O   UNL     1      -5.208  18.079  65.423  1.00  0.00    -0.169 OA 
HETATM   17  N   UNL     1      -6.395  19.995  65.619  1.00  0.00    -0.211 N  
HETATM   18  H2  UNL     1      -6.782  20.762  66.169  1.00  0.00     0.000 HD 
HETATM   19  H1  UNL     1      -6.490  19.890  64.609  1.00  0.00     0.000 HD 
ENDBRANCH  14  15
ENDBRANCH  13  14
ENDBRANCH   4  13
BRANCH  12  20
HETATM   20  N   UNL     1      -9.677  13.959  67.614  1.00  0.00    -0.221 N  
HETATM   21  O   UNL     1      -9.979  12.032  68.813  1.00  0.00    -0.176 OA 
HETATM   22  C   UNL     1      -9.647  12.592  67.772  1.00  0.00    -0.197 C  
HETATM   23  H   UNL     1      -9.323  14.350  66.740  1.00  0.00     0.000 HD 
BRANCH  22  24
HETATM   24  C   UNL     1      -9.125  11.829  66.573  1.00  0.00    -0.203 C  
BRANCH  24  25
HETATM   25  C   UNL     1      -7.665  11.533  66.712  1.00  0.00    -0.136 A  
HETATM   26  C   UNL     1      -6.718  12.219  67.449  1.00  0.00    -0.150 A  
HETATM   27  C   UNL     1      -5.400  11.721  67.237  1.00  0.00    -0.100 A  
HETATM   28  C   UNL     1      -5.386  10.650  66.373  1.00  0.00    -0.071 A  
HETATM   29  S   UNL     1      -6.956  10.243  65.832  1.00  0.00    -0.132 SA 
ENDBRANCH  24  25
ENDBRANCH  22  24
ENDBRANCH  12  20
BRANCH  12  30
HETATM   30  O   UNL     1     -11.026  14.250  69.650  1.00  0.00    -0.214 OA 
HETATM   31  C   UNL     1     -12.111  15.023  70.154  1.00  0.00    -0.331 C  
ENDBRANCH  12  30
TORSDOF 7
ENDMDL
MODEL      138
REMARK 921   NORMALIZED FREE ENERGY PREDICTED BY IDOCK:   -3.85 KCAL/MOL
REMARK 922        TOTAL FREE ENERGY PREDICTED BY IDOCK:   -6.11 KCAL/MOL
REMARK 923 INTER-LIGAND FREE ENERGY PREDICTED BY IDOCK:   -5.44 KCAL/MOL
REMARK 924 INTRA-LIGAND FREE ENERGY PREDICTED BY IDOCK:   -0.67 KCAL/MOL
REMARK 927      BINDING AFFINITY PREDICTED BY RF-SCORE:    0.00 PKD
ROOT
HETATM    1  C   UNL     1      -7.648   9.776  67.723  1.00  0.00    -0.090 C  
HETATM    2  S   UNL     1      -8.849   9.173  68.928  1.00  0.00    -0.140 SA 
HETATM    3  C   UNL     1      -8.332   7.456  68.752  1.00  0.00    -0.129 C  
HETATM    4  C   UNL     1      -8.180   6.966  67.323  1.00  0.00    -0.118 C  
HETATM    5  C   UNL     1      -7.978   7.781  66.245  1.00  0.00    -0.100 C  
HETATM    6  O   UNL     1      -7.490  10.385  64.526  1.00  0.00    -0.120 OA 
HETATM    7  O   UNL     1      -7.635   7.989  63.818  1.00  0.00    -0.113 OA 
HETATM    8  C   UNL     1      -7.982   7.190  64.842  1.00  0.00    -0.127 C  
HETATM    9  N   UNL     1      -7.873   9.133  66.437  1.00  0.00    -0.099 N  
HETATM   10  C   UNL     1      -7.730  10.260  65.704  1.00  0.00    -0.148 C  
HETATM   11  O   UNL     1      -8.252   6.020  64.609  1.00  0.00    -0.133 OA 
HETATM   12  C   UNL     1      -8.011  11.160  67.016  1.00  0.00    -0.145 C  
ENDROOT
BRANCH   4  13
HETATM   13  C   UNL     1      -8.356   5.448  67.235  1.00  0.00    -0.107 C  
BRANCH  13  14
HETATM   14  O   UNL     1      -9.749   5.093  67.366  1.00  0.00    -0.135 OA 
BRANCH  14  15
HETATM   15  C   UNL     1     -10.336   4.560  66.272  1.00  0.00    -0.191 C  
HETATM   16  O   UNL     1     -10.130   3.460  65.789  1.00  0.00     0.098 OA 
HETATM   17  N   UNL     1     -11.195   5.454  65.735  1.00  0.00    -0.674 N  
HETATM   18  H2  UNL     1     -11.374   6.390  66.099  1.00  0.00     0.000 HD 
HETATM   19  H1  UNL     1     -11.639   5.051  64.909  1.00  0.00     0.000 HD 
ENDBRANCH  14  15
ENDBRANCH  13  14
ENDBRANCH   4  13
BRANCH  12  20
HETATM   20  N   UNL     1      -9.422  11.609  67.258  1.00  0.00    -0.167 N  
HETATM   21  O   UNL     1      -9.681  12.792  65.315  1.00  0.00    -0.150 OA 
HETATM   22  C   UNL     1     -10.150  12.360  66.363  1.00  0.00    -0.236 C  
HETATM   23  H   UNL     1      -9.867  11.343  68.137  1.00  0.00     0.000 HD 
BRANCH  22  24
HETATM   24  C   UNL     1     -11.571  12.656  66.797  1.00  0.00    -0.438 C  
BRANCH  24  25
HETATM   25  C   UNL     1     -11.618  13.801  67.759  1.00  0.00    -0.346 A  
HETATM   26  C   UNL     1     -11.529  15.153  67.486  1.00  0.00    -0.306 A  
HETATM   27  C   UNL     1     -11.482  15.944  68.670  1.00  0.00    -0.391 A  
HETATM   28  C   UNL     1     -11.570  15.174  69.808  1.00  0.00    -0.311 A  
HETATM   29  S   UNL     1     -11.722  13.511  69.446  1.00  0.00    -0.338 SA 
ENDBRANCH  24  25
ENDBRANCH  22  24
ENDBRANCH  12  20
BRANCH  12  30
HETATM   30  O   UNL     1      -7.038  12.217  67.242  1.00  0.00    -0.134 OA 
HETATM   31  C   UNL     1      -7.528  13.367  67.923  1.00  0.00    -0.149 C  
ENDBRANCH  12  30
TORSDOF 7
ENDMDL
MODEL      139
REMARK 921   NORMALIZED FREE ENERGY PREDICTED BY IDOCK:   -3.83 KCAL/MOL
REMARK 922        TOTAL FREE ENERGY PREDICTED BY IDOCK:   -6.07 KCAL/MOL
REMARK 923 INTER-LIGAND FREE ENERGY PREDICTED BY IDOCK:   -5.30 KCAL/MOL
REMARK 924 INTRA-LIGAND FREE ENERGY PREDICTED BY IDOCK:   -0.78 KCAL/MOL
REMARK 927      BINDING AFFINITY PREDICTED BY RF-SCORE:    0.00 PKD
ROOT
HETATM    1  C   UNL     1      -8.442   8.671  67.506  1.00  0.00    -0.124 C  
HETATM    2  S   UNL     1      -7.378   9.055  68.912  1.00  0.00    -0.075 SA 
HETATM    3  C   UNL     1      -6.330   7.611  68.657  1.00  0.00    -0.036 C  
HETATM    4  C   UNL     1      -7.069   6.304  68.428  1.00  0.00    -0.083 C  
HETATM    5  C   UNL     1      -8.358   6.214  67.983  1.00  0.00    -0.117 C  
HETATM    6  O   UNL     1     -11.205   7.053  66.905  1.00  0.00    -0.302 OA 
HETATM    7  O   UNL     1     -10.254   4.781  67.348  1.00  0.00    -0.154 OA 
HETATM    8  C   UNL     1      -9.042   4.855  67.927  1.00  0.00    -0.113 C  
HETATM    9  N   UNL     1      -9.047   7.360  67.687  1.00  0.00    -0.125 N  
HETATM   10  C   UNL     1     -10.284   7.734  67.289  1.00  0.00    -0.273 C  
HETATM   11  O   UNL     1      -8.530   3.829  68.351  1.00  0.00    -0.088 OA 
HETATM   12  C   UNL     1      -9.915   9.282  67.566  1.00  0.00    -0.202 C  
ENDROOT
BRANCH   4  13
HETATM   13  C   UNL     1      -6.210   5.103  68.831  1.00  0.00    -0.030 C  
BRANCH  13  14
HETATM   14  O   UNL     1      -5.749   5.247  70.192  1.00  0.00    -0.014 OA 
BRANCH  14  15
HETATM   15  C   UNL     1      -6.572   4.780  71.156  1.00  0.00    -0.027 C  
HETATM   16  O   UNL     1      -6.953   5.376  72.149  1.00  0.00    -0.074 OA 
HETATM   17  N   UNL     1      -6.907   3.499  70.889  1.00  0.00    -0.032 N  
HETATM   18  H2  UNL     1      -6.587   2.965  70.081  1.00  0.00     0.000 HD 
HETATM   19  H1  UNL     1      -7.529   3.147  71.617  1.00  0.00     0.000 HD 
ENDBRANCH  14  15
ENDBRANCH  13  14
ENDBRANCH   4  13
BRANCH  12  20
HETATM   20  N   UNL     1     -10.278   9.851  68.906  1.00  0.00    -0.186 N  
HETATM   21  O   UNL     1     -12.286  10.766  68.292  1.00  0.00    -0.449 OA 
HETATM   22  C   UNL     1     -11.457  10.515  69.161  1.00  0.00    -0.247 C  
HETATM   23  H   UNL     1      -9.614   9.740  69.672  1.00  0.00     0.000 HD 
BRANCH  22  24
HETATM   24  C   UNL     1     -11.632  10.960  70.599  1.00  0.00    -0.341 C  
BRANCH  24  25
HETATM   25  C   UNL     1     -12.231  12.329  70.674  1.00  0.00    -0.287 A  
HETATM   26  C   UNL     1     -11.928  13.440  69.910  1.00  0.00    -0.408 A  
HETATM   27  C   UNL     1     -12.613  14.608  70.354  1.00  0.00    -0.399 A  
HETATM   28  C   UNL     1     -13.442  14.344  71.420  1.00  0.00    -0.351 A  
HETATM   29  S   UNL     1     -13.402  12.696  71.872  1.00  0.00    -0.273 SA 
ENDBRANCH  24  25
ENDBRANCH  22  24
ENDBRANCH  12  20
BRANCH  12  30
HETATM   30  O   UNL     1     -10.231  10.183  66.469  1.00  0.00    -0.222 OA 
HETATM   31  C   UNL     1      -9.485   9.978  65.273  1.00  0.00    -0.263 C  
ENDBRANCH  12  30
TORSDOF 7
ENDMDL
MODEL      140
REMARK 921   NORMALIZED FREE ENERGY PREDICTED BY IDOCK:   -3.78 KCAL/MOL
REMARK 922        TOTAL FREE ENERGY PREDICTED BY IDOCK:   -6.00 KCAL/MOL
REMARK 923 INTER-LIGAND FREE ENERGY PREDICTED BY IDOCK:   -5.18 KCAL/MOL
REMARK 924 INTRA-LIGAND FREE ENERGY PREDICTED BY IDOCK:   -0.82 KCAL/MOL
REMARK 927      BINDING AFFINITY PREDICTED BY RF-SCORE:    0.00 PKD
ROOT
HETATM    1  C   UNL     1     -10.460   5.131  69.864  1.00  0.00    -0.226 C  
HETATM    2  S   UNL     1     -11.012   6.325  68.628  1.00  0.00    -0.315 SA 
HETATM    3  C   UNL     1     -10.278   5.415  67.257  1.00  0.00    -0.214 C  
HETATM    4  C   UNL     1      -8.847   4.954  67.474  1.00  0.00    -0.105 C  
HETATM    5  C   UNL     1      -8.268   4.790  68.701  1.00  0.00    -0.083 C  
HETATM    6  O   UNL     1      -7.910   4.661  71.836  1.00  0.00    -0.093 OA 
HETATM    7  O   UNL     1      -6.280   4.161  70.005  1.00  0.00    -0.025 OA 
HETATM    8  C   UNL     1      -6.785   4.461  68.795  1.00  0.00    -0.046 C  
HETATM    9  N   UNL     1      -9.009   5.020  69.829  1.00  0.00    -0.104 N  
HETATM   10  C   UNL     1      -8.849   5.032  71.172  1.00  0.00    -0.129 C  
HETATM   11  O   UNL     1      -6.043   4.425  67.823  1.00  0.00    -0.029 OA 
HETATM   12  C   UNL     1     -10.312   5.693  71.350  1.00  0.00    -0.228 C  
ENDROOT
BRANCH   4  13
HETATM   13  C   UNL     1      -8.115   4.770  66.143  1.00  0.00    -0.107 C  
BRANCH  13  14
HETATM   14  O   UNL     1      -8.126   6.000  65.387  1.00  0.00    -0.118 OA 
BRANCH  14  15
HETATM   15  C   UNL     1      -7.213   6.930  65.743  1.00  0.00    -0.073 C  
HETATM   16  O   UNL     1      -7.433   8.057  66.152  1.00  0.00    -0.073 OA 
HETATM   17  N   UNL     1      -5.968   6.445  65.547  1.00  0.00    -0.029 N  
HETATM   18  H2  UNL     1      -5.749   5.516  65.185  1.00  0.00     0.000 HD 
HETATM   19  H1  UNL     1      -5.278   7.147  65.816  1.00  0.00     0.000 HD 
ENDBRANCH  14  15
ENDBRANCH  13  14
ENDBRANCH   4  13
BRANCH  12  20
HETATM   20  N   UNL     1     -10.391   7.188  71.442  1.00  0.00    -0.197 N  
HETATM   21  O   UNL     1     -12.674   7.355  71.406  1.00  0.00    -0.352 OA 
HETATM   22  C   UNL     1     -11.574   7.889  71.499  1.00  0.00    -0.270 C  
HETATM   23  H   UNL     1      -9.518   7.715  71.462  1.00  0.00     0.000 HD 
BRANCH  22  24
HETATM   24  C   UNL     1     -11.411   9.390  71.638  1.00  0.00    -0.463 C  
BRANCH  24  25
HETATM   25  C   UNL     1     -11.111  10.028  70.319  1.00  0.00    -0.318 A  
HETATM   26  C   UNL     1     -11.967  10.734  69.495  1.00  0.00    -0.364 A  
HETATM   27  C   UNL     1     -11.360  11.083  68.254  1.00  0.00    -0.366 A  
HETATM   28  C   UNL     1     -10.051  10.663  68.184  1.00  0.00    -0.158 A  
HETATM   29  S   UNL     1      -9.558   9.865  69.612  1.00  0.00    -0.228 SA 
ENDBRANCH  24  25
ENDBRANCH  22  24
ENDBRANCH  12  20
BRANCH  12  30
HETATM   30  O   UNL     1     -11.160   5.024  72.325  1.00  0.00    -0.160 OA 
HETATM   31  C   UNL     1     -10.792   5.211  73.688  1.00  0.00    -0.305 C  
ENDBRANCH  12  30
TORSDOF 7
ENDMDL
MODEL      141
REMARK 921   NORMALIZED FREE ENERGY PREDICTED BY IDOCK:   -3.77 KCAL/MOL
REMARK 922        TOTAL FREE ENERGY PREDICTED BY IDOCK:   -5.99 KCAL/MOL
REMARK 923 INTER-LIGAND FREE ENERGY PREDICTED BY IDOCK:   -5.32 KCAL/MOL
REMARK 924 INTRA-LIGAND FREE ENERGY PREDICTED BY IDOCK:   -0.67 KCAL/MOL
REMARK 927      BINDING AFFINITY PREDICTED BY RF-SCORE:    0.00 PKD
ROOT
HETATM    1  C   UNL     1      -7.384   7.464  69.689  1.00  0.00    -0.091 C  
HETATM    2  S   UNL     1      -7.602   5.807  70.370  1.00  0.00    -0.092 SA 
HETATM    3  C   UNL     1      -6.840   5.002  68.950  1.00  0.00    -0.051 C  
HETATM    4  C   UNL     1      -7.326   5.479  67.592  1.00  0.00    -0.076 C  
HETATM    5  C   UNL     1      -7.916   6.690  67.367  1.00  0.00    -0.114 C  
HETATM    6  O   UNL     1      -9.046   9.596  67.871  1.00  0.00    -0.126 OA 
HETATM    7  O   UNL     1      -8.932   8.253  65.762  1.00  0.00    -0.173 OA 
HETATM    8  C   UNL     1      -8.492   7.004  65.993  1.00  0.00    -0.139 C  
HETATM    9  N   UNL     1      -8.068   7.567  68.409  1.00  0.00    -0.123 N  
HETATM   10  C   UNL     1      -8.608   8.783  68.650  1.00  0.00    -0.134 C  
HETATM   11  O   UNL     1      -8.542   6.186  65.085  1.00  0.00    -0.132 OA 
HETATM   12  C   UNL     1      -8.390   8.576  70.237  1.00  0.00    -0.125 C  
ENDROOT
BRANCH   4  13
HETATM   13  C   UNL     1      -7.137   4.399  66.524  1.00  0.00    -0.071 C  
BRANCH  13  14
HETATM   14  O   UNL     1      -7.688   3.143  66.974  1.00  0.00    -0.074 OA 
BRANCH  14  15
HETATM   15  C   UNL     1      -8.984   2.913  66.667  1.00  0.00    -0.155 C  
HETATM   16  O   UNL     1      -9.539   3.136  65.605  1.00  0.00    -0.110 OA 
HETATM   17  N   UNL     1      -9.626   2.416  67.747  1.00  0.00    -0.376 N  
HETATM   18  H2  UNL     1      -9.198   2.240  68.656  1.00  0.00     0.000 HD 
HETATM   19  H1  UNL     1     -10.605   2.242  67.516  1.00  0.00     0.000 HD 
ENDBRANCH  14  15
ENDBRANCH  13  14
ENDBRANCH   4  13
BRANCH  12  20
HETATM   20  N   UNL     1      -9.536   8.016  71.026  1.00  0.00    -0.159 N  
HETATM   21  O   UNL     1      -8.749   8.571  73.104  1.00  0.00    -0.345 OA 
HETATM   22  C   UNL     1      -9.632   8.096  72.397  1.00  0.00    -0.265 C  
HETATM   23  H   UNL     1     -10.287   7.548  70.518  1.00  0.00     0.000 HD 
BRANCH  22  24
HETATM   24  C   UNL     1     -10.902   7.505  72.976  1.00  0.00    -0.445 C  
BRANCH  24  25
HETATM   25  C   UNL     1     -12.117   8.087  72.326  1.00  0.00    -0.341 A  
HETATM   26  C   UNL     1     -12.426   9.420  72.125  1.00  0.00    -0.396 A  
HETATM   27  C   UNL     1     -13.734   9.598  71.588  1.00  0.00    -0.328 A  
HETATM   28  C   UNL     1     -14.368   8.397  71.364  1.00  0.00    -0.332 A  
HETATM   29  S   UNL     1     -13.384   7.065  71.788  1.00  0.00    -0.139 SA 
ENDBRANCH  24  25
ENDBRANCH  22  24
ENDBRANCH  12  20
BRANCH  12  30
HETATM   30  O   UNL     1      -7.738   9.690  70.906  1.00  0.00    -0.314 OA 
HETATM   31  C   UNL     1      -6.321   9.740  70.775  1.00  0.00    -0.095 C  
ENDBRANCH  12  30
TORSDOF 7
ENDMDL
MODEL      142
REMARK 921   NORMALIZED FREE ENERGY PREDICTED BY IDOCK:   -3.76 KCAL/MOL
REMARK 922        TOTAL FREE ENERGY PREDICTED BY IDOCK:   -5.98 KCAL/MOL
REMARK 923 INTER-LIGAND FREE ENERGY PREDICTED BY IDOCK:   -4.95 KCAL/MOL
REMARK 924 INTRA-LIGAND FREE ENERGY PREDICTED BY IDOCK:   -1.03 KCAL/MOL
REMARK 927      BINDING AFFINITY PREDICTED BY RF-SCORE:    0.00 PKD
ROOT
HETATM    1  C   UNL     1     -11.033   7.908  69.881  1.00  0.00    -0.178 C  
HETATM    2  S   UNL     1     -10.296   9.397  70.588  1.00  0.00    -0.303 SA 
HETATM    3  C   UNL     1      -9.545   9.900  69.029  1.00  0.00    -0.186 C  
HETATM    4  C   UNL     1      -8.801   8.805  68.282  1.00  0.00    -0.141 C  
HETATM    5  C   UNL     1      -9.022   7.468  68.454  1.00  0.00    -0.128 C  
HETATM    6  O   UNL     1     -10.281   4.762  69.488  1.00  0.00    -0.221 OA 
HETATM    7  O   UNL     1      -8.452   5.159  67.827  1.00  0.00    -0.105 OA 
HETATM    8  C   UNL     1      -8.120   6.460  67.757  1.00  0.00    -0.115 C  
HETATM    9  N   UNL     1      -9.990   7.055  69.330  1.00  0.00    -0.160 N  
HETATM   10  C   UNL     1     -10.492   5.903  69.829  1.00  0.00    -0.272 C  
HETATM   11  O   UNL     1      -7.131   6.780  67.111  1.00  0.00    -0.075 OA 
HETATM   12  C   UNL     1     -11.349   6.735  70.917  1.00  0.00    -0.315 C  
ENDROOT
BRANCH   4  13
HETATM   13  C   UNL     1      -7.723   9.391  67.367  1.00  0.00    -0.095 C  
BRANCH  13  14
HETATM   14  O   UNL     1      -8.302   9.821  66.116  1.00  0.00    -0.118 OA 
BRANCH  14  15
HETATM   15  C   UNL     1      -7.433  10.134  65.131  1.00  0.00    -0.141 C  
HETATM   16  O   UNL     1      -6.220  10.014  65.154  1.00  0.00    -0.092 OA 
HETATM   17  N   UNL     1      -8.105  10.655  64.080  1.00  0.00    -0.352 N  
HETATM   18  H2  UNL     1      -9.115  10.792  64.038  1.00  0.00     0.000 HD 
HETATM   19  H1  UNL     1      -7.449  10.892  63.335  1.00  0.00     0.000 HD 
ENDBRANCH  14  15
ENDBRANCH  13  14
ENDBRANCH   4  13
BRANCH  12  20
HETATM   20  N   UNL     1     -10.735   6.943  72.270  1.00  0.00    -0.217 N  
HETATM   21  O   UNL     1     -11.037   4.810  73.048  1.00  0.00    -0.257 OA 
HETATM   22  C   UNL     1     -10.600   5.945  73.209  1.00  0.00    -0.255 C  
HETATM   23  H   UNL     1     -10.400   7.876  72.508  1.00  0.00     0.000 HD 
BRANCH  22  24
HETATM   24  C   UNL     1      -9.906   6.372  74.486  1.00  0.00    -0.356 C  
BRANCH  24  25
HETATM   25  C   UNL     1      -8.422   6.438  74.302  1.00  0.00    -0.128 A  
HETATM   26  C   UNL     1      -7.626   7.560  74.165  1.00  0.00    -0.163 A  
HETATM   27  C   UNL     1      -6.270   7.231  73.878  1.00  0.00    -0.068 A  
HETATM   28  C   UNL     1      -6.067   5.870  73.839  1.00  0.00    -0.063 A  
HETATM   29  S   UNL     1      -7.503   4.999  74.160  1.00  0.00    -0.087 SA 
ENDBRANCH  24  25
ENDBRANCH  22  24
ENDBRANCH  12  20
BRANCH  12  30
HETATM   30  O   UNL     1     -12.754   6.367  70.987  1.00  0.00     0.012 OA 
HETATM   31  C   UNL     1     -13.627   7.371  71.495  1.00  0.00    -0.370 C  
ENDBRANCH  12  30
TORSDOF 7
ENDMDL
MODEL      143
REMARK 921   NORMALIZED FREE ENERGY PREDICTED BY IDOCK:   -3.75 KCAL/MOL
REMARK 922        TOTAL FREE ENERGY PREDICTED BY IDOCK:   -5.96 KCAL/MOL
REMARK 923 INTER-LIGAND FREE ENERGY PREDICTED BY IDOCK:   -5.34 KCAL/MOL
REMARK 924 INTRA-LIGAND FREE ENERGY PREDICTED BY IDOCK:   -0.62 KCAL/MOL
REMARK 927      BINDING AFFINITY PREDICTED BY RF-SCORE:    0.00 PKD
ROOT
HETATM    1  C   UNL     1      -8.345   8.362  68.464  1.00  0.00    -0.131 C  
HETATM    2  S   UNL     1      -9.347   8.428  69.964  1.00  0.00    -0.160 SA 
HETATM    3  C   UNL     1      -8.999   6.716  70.406  1.00  0.00    -0.152 C  
HETATM    4  C   UNL     1      -9.147   5.710  69.278  1.00  0.00    -0.128 C  
HETATM    5  C   UNL     1      -9.086   6.025  67.950  1.00  0.00    -0.117 C  
HETATM    6  O   UNL     1      -8.729   7.701  65.297  1.00  0.00    -0.077 OA 
HETATM    7  O   UNL     1      -9.178   5.260  65.615  1.00  0.00    -0.158 OA 
HETATM    8  C   UNL     1      -9.390   4.958  66.908  1.00  0.00    -0.132 C  
HETATM    9  N   UNL     1      -8.848   7.322  67.579  1.00  0.00    -0.120 N  
HETATM   10  C   UNL     1      -8.759   8.061  66.450  1.00  0.00    -0.151 C  
HETATM   11  O   UNL     1      -9.784   3.836  67.193  1.00  0.00    -0.209 OA 
HETATM   12  C   UNL     1      -8.728   9.416  67.329  1.00  0.00    -0.128 C  
ENDROOT
BRANCH   4  13
HETATM   13  C   UNL     1      -9.448   4.310  69.819  1.00  0.00    -0.190 C  
BRANCH  13  14
HETATM   14  O   UNL     1     -10.049   4.394  71.130  1.00  0.00    -0.186 OA 
BRANCH  14  15
HETATM   15  C   UNL     1      -9.821   3.354  71.961  1.00  0.00    -0.169 C  
HETATM   16  O   UNL     1     -10.562   2.934  72.834  1.00  0.00    -0.159 OA 
HETATM   17  N   UNL     1      -8.599   2.834  71.717  1.00  0.00    -0.071 N  
HETATM   18  H2  UNL     1      -7.945   3.175  71.011  1.00  0.00     0.000 HD 
HETATM   19  H1  UNL     1      -8.427   2.048  72.344  1.00  0.00     0.000 HD 
ENDBRANCH  14  15
ENDBRANCH  13  14
ENDBRANCH   4  13
BRANCH  12  20
HETATM   20  N   UNL     1     -10.034  10.115  67.570  1.00  0.00    -0.183 N  
HETATM   21  O   UNL     1      -9.184  11.933  68.673  1.00  0.00    -0.160 OA 
HETATM   22  C   UNL     1     -10.143  11.338  68.192  1.00  0.00    -0.182 C  
HETATM   23  H   UNL     1     -10.889   9.657  67.254  1.00  0.00     0.000 HD 
BRANCH  22  24
HETATM   24  C   UNL     1     -11.557  11.875  68.283  1.00  0.00    -0.390 C  
BRANCH  24  25
HETATM   25  C   UNL     1     -12.091  11.766  69.676  1.00  0.00    -0.258 A  
HETATM   26  C   UNL     1     -12.450  10.625  70.368  1.00  0.00    -0.421 A  
HETATM   27  C   UNL     1     -13.042  10.920  71.631  1.00  0.00    -0.538 A  
HETATM   28  C   UNL     1     -13.084  12.274  71.876  1.00  0.00    -0.363 A  
HETATM   29  S   UNL     1     -12.403  13.179  70.596  1.00  0.00    -0.251 SA 
ENDBRANCH  24  25
ENDBRANCH  22  24
ENDBRANCH  12  20
BRANCH  12  30
HETATM   30  O   UNL     1      -7.655  10.334  66.983  1.00  0.00    -0.097 OA 
HETATM   31  C   UNL     1      -6.367   9.990  67.486  1.00  0.00    -0.059 C  
ENDBRANCH  12  30
TORSDOF 7
ENDMDL
MODEL      144
REMARK 921   NORMALIZED FREE ENERGY PREDICTED BY IDOCK:   -3.75 KCAL/MOL
REMARK 922        TOTAL FREE ENERGY PREDICTED BY IDOCK:   -5.96 KCAL/MOL
REMARK 923 INTER-LIGAND FREE ENERGY PREDICTED BY IDOCK:   -5.20 KCAL/MOL
REMARK 924 INTRA-LIGAND FREE ENERGY PREDICTED BY IDOCK:   -0.76 KCAL/MOL
REMARK 927      BINDING AFFINITY PREDICTED BY RF-SCORE:    0.00 PKD
ROOT
HETATM    1  C   UNL     1     -10.191   8.349  69.439  1.00  0.00    -0.208 C  
HETATM    2  S   UNL     1     -10.742   6.695  68.971  1.00  0.00    -0.275 SA 
HETATM    3  C   UNL     1     -11.579   6.408  70.540  1.00  0.00    -0.358 C  
HETATM    4  C   UNL     1     -10.777   6.763  71.780  1.00  0.00    -0.250 C  
HETATM    5  C   UNL     1      -9.728   7.638  71.795  1.00  0.00    -0.161 C  
HETATM    6  O   UNL     1      -7.601   9.760  70.822  1.00  0.00    -0.300 OA 
HETATM    7  O   UNL     1      -7.980   8.782  73.093  1.00  0.00    -0.405 OA 
HETATM    8  C   UNL     1      -8.908   7.810  73.066  1.00  0.00    -0.192 C  
HETATM    9  N   UNL     1      -9.369   8.276  70.637  1.00  0.00    -0.154 N  
HETATM   10  C   UNL     1      -8.422   9.133  70.195  1.00  0.00    -0.176 C  
HETATM   11  O   UNL     1      -9.077   7.130  74.069  1.00  0.00    -0.188 OA 
HETATM   12  C   UNL     1      -8.902   8.891  68.671  1.00  0.00    -0.137 C  
ENDROOT
BRANCH   4  13
HETATM   13  C   UNL     1     -11.248   5.959  72.995  1.00  0.00    -0.221 C  
BRANCH  13  14
HETATM   14  O   UNL     1     -11.109   4.544  72.747  1.00  0.00    -0.168 OA 
BRANCH  14  15
HETATM   15  C   UNL     1     -10.336   3.856  73.616  1.00  0.00    -0.167 C  
HETATM   16  O   UNL     1     -10.713   3.163  74.546  1.00  0.00    -0.163 OA 
HETATM   17  N   UNL     1      -9.032   4.071  73.335  1.00  0.00    -0.103 N  
HETATM   18  H2  UNL     1      -8.684   4.663  72.581  1.00  0.00     0.000 HD 
HETATM   19  H1  UNL     1      -8.449   3.552  73.991  1.00  0.00     0.000 HD 
ENDBRANCH  14  15
ENDBRANCH  13  14
ENDBRANCH   4  13
BRANCH  12  20
HETATM   20  N   UNL     1      -8.184   7.839  67.878  1.00  0.00    -0.122 N  
HETATM   21  O   UNL     1      -9.349   8.111  65.925  1.00  0.00    -0.155 OA 
HETATM   22  C   UNL     1      -8.448   7.566  66.555  1.00  0.00    -0.131 C  
HETATM   23  H   UNL     1      -7.459   7.295  68.346  1.00  0.00     0.000 HD 
BRANCH  22  24
HETATM   24  C   UNL     1      -7.566   6.496  65.943  1.00  0.00    -0.087 C  
BRANCH  24  25
HETATM   25  C   UNL     1      -8.376   5.492  65.187  1.00  0.00    -0.146 A  
HETATM   26  C   UNL     1      -8.333   5.200  63.836  1.00  0.00    -0.131 A  
HETATM   27  C   UNL     1      -9.346   4.274  63.449  1.00  0.00    -0.133 A  
HETATM   28  C   UNL     1     -10.106   3.864  64.521  1.00  0.00    -0.218 A  
HETATM   29  S   UNL     1      -9.591   4.582  65.984  1.00  0.00    -0.209 SA 
ENDBRANCH  24  25
ENDBRANCH  22  24
ENDBRANCH  12  20
BRANCH  12  30
HETATM   30  O   UNL     1      -9.131  10.110  67.911  1.00  0.00    -0.130 OA 
HETATM   31  C   UNL     1      -7.994  10.950  67.741  1.00  0.00    -0.111 C  
ENDBRANCH  12  30
TORSDOF 7
ENDMDL
MODEL      145
REMARK 921   NORMALIZED FREE ENERGY PREDICTED BY IDOCK:   -3.75 KCAL/MOL
REMARK 922        TOTAL FREE ENERGY PREDICTED BY IDOCK:   -5.95 KCAL/MOL
REMARK 923 INTER-LIGAND FREE ENERGY PREDICTED BY IDOCK:   -5.23 KCAL/MOL
REMARK 924 INTRA-LIGAND FREE ENERGY PREDICTED BY IDOCK:   -0.72 KCAL/MOL
REMARK 927      BINDING AFFINITY PREDICTED BY RF-SCORE:    0.00 PKD
ROOT
HETATM    1  C   UNL     1      -9.250   6.672  69.285  1.00  0.00    -0.140 C  
HETATM    2  S   UNL     1      -7.621   7.381  69.607  1.00  0.00    -0.097 SA 
HETATM    3  C   UNL     1      -7.135   6.043  70.712  1.00  0.00    -0.068 C  
HETATM    4  C   UNL     1      -8.164   5.658  71.761  1.00  0.00    -0.119 C  
HETATM    5  C   UNL     1      -9.502   5.914  71.658  1.00  0.00    -0.149 C  
HETATM    6  O   UNL     1     -12.275   6.860  70.479  1.00  0.00    -0.340 OA 
HETATM    7  O   UNL     1     -11.746   5.733  72.650  1.00  0.00    -0.293 OA 
HETATM    8  C   UNL     1     -10.420   5.610  72.834  1.00  0.00    -0.214 C  
HETATM    9  N   UNL     1      -9.984   6.530  70.533  1.00  0.00    -0.183 N  
HETATM   10  C   UNL     1     -11.155   6.998  70.047  1.00  0.00    -0.278 C  
HETATM   11  O   UNL     1     -10.011   5.229  73.922  1.00  0.00    -0.161 OA 
HETATM   12  C   UNL     1     -10.374   7.706  68.823  1.00  0.00    -0.204 C  
ENDROOT
BRANCH   4  13
HETATM   13  C   UNL     1      -7.500   5.016  72.981  1.00  0.00    -0.092 C  
BRANCH  13  14
HETATM   14  O   UNL     1      -7.171   3.636  72.708  1.00  0.00    -0.047 OA 
BRANCH  14  15
HETATM   15  C   UNL     1      -7.777   2.711  73.484  1.00  0.00    -0.051 C  
HETATM   16  O   UNL     1      -7.314   2.159  74.468  1.00  0.00    -0.034 OA 
HETATM   17  N   UNL     1      -9.004   2.436  72.991  1.00  0.00    -0.070 N  
HETATM   18  H2  UNL     1      -9.412   2.862  72.158  1.00  0.00     0.000 HD 
HETATM   19  H1  UNL     1      -9.462   1.737  73.577  1.00  0.00     0.000 HD 
ENDBRANCH  14  15
ENDBRANCH  13  14
ENDBRANCH   4  13
BRANCH  12  20
HETATM   20  N   UNL     1      -9.980   9.144  68.992  1.00  0.00    -0.178 N  
HETATM   21  O   UNL     1      -9.089   9.441  66.903  1.00  0.00    -0.132 OA 
HETATM   22  C   UNL     1      -9.402   9.900  67.998  1.00  0.00    -0.130 C  
HETATM   23  H   UNL     1     -10.149   9.585  69.895  1.00  0.00     0.000 HD 
BRANCH  22  24
HETATM   24  C   UNL     1      -9.133  11.342  68.377  1.00  0.00    -0.179 C  
BRANCH  24  25
HETATM   25  C   UNL     1     -10.011  12.278  67.609  1.00  0.00    -0.198 A  
HETATM   26  C   UNL     1     -11.315  12.083  67.195  1.00  0.00    -0.396 A  
HETATM   27  C   UNL     1     -11.788  13.146  66.372  1.00  0.00    -0.455 A  
HETATM   28  C   UNL     1     -10.842  14.134  66.212  1.00  0.00    -0.300 A  
HETATM   29  S   UNL     1      -9.400  13.784  67.061  1.00  0.00    -0.255 SA 
ENDBRANCH  24  25
ENDBRANCH  22  24
ENDBRANCH  12  20
BRANCH  12  30
HETATM   30  O   UNL     1     -10.935   7.428  67.510  1.00  0.00    -0.204 OA 
HETATM   31  C   UNL     1     -10.958   6.056  67.131  1.00  0.00    -0.268 C  
ENDBRANCH  12  30
TORSDOF 7
ENDMDL
MODEL      146
REMARK 921   NORMALIZED FREE ENERGY PREDICTED BY IDOCK:   -3.74 KCAL/MOL
REMARK 922        TOTAL FREE ENERGY PREDICTED BY IDOCK:   -5.95 KCAL/MOL
REMARK 923 INTER-LIGAND FREE ENERGY PREDICTED BY IDOCK:   -4.51 KCAL/MOL
REMARK 924 INTRA-LIGAND FREE ENERGY PREDICTED BY IDOCK:   -1.44 KCAL/MOL
REMARK 927      BINDING AFFINITY PREDICTED BY RF-SCORE:    0.00 PKD
ROOT
HETATM    1  C   UNL     1      -7.886   7.713  68.108  1.00  0.00    -0.121 C  
HETATM    2  S   UNL     1      -7.045   7.119  69.591  1.00  0.00    -0.076 SA 
HETATM    3  C   UNL     1      -6.468   5.609  68.794  1.00  0.00    -0.042 C  
HETATM    4  C   UNL     1      -7.517   4.851  68.000  1.00  0.00    -0.075 C  
HETATM    5  C   UNL     1      -8.660   5.409  67.501  1.00  0.00    -0.108 C  
HETATM    6  O   UNL     1     -10.845   7.563  66.753  1.00  0.00    -0.292 OA 
HETATM    7  O   UNL     1     -10.747   5.117  66.233  1.00  0.00    -0.310 OA 
HETATM    8  C   UNL     1      -9.707   4.522  66.843  1.00  0.00    -0.205 C  
HETATM    9  N   UNL     1      -8.890   6.747  67.688  1.00  0.00    -0.118 N  
HETATM   10  C   UNL     1      -9.849   7.663  67.431  1.00  0.00    -0.173 C  
HETATM   11  O   UNL     1      -9.629   3.301  66.814  1.00  0.00    -0.149 OA 
HETATM   12  C   UNL     1      -9.080   8.742  68.355  1.00  0.00    -0.141 C  
ENDROOT
BRANCH   4  13
HETATM   13  C   UNL     1      -7.166   3.364  67.894  1.00  0.00    -0.051 C  
BRANCH  13  14
HETATM   14  O   UNL     1      -6.003   3.180  67.059  1.00  0.00    -0.023 OA 
BRANCH  14  15
HETATM   15  C   UNL     1      -6.237   2.922  65.753  1.00  0.00    -0.024 C  
HETATM   16  O   UNL     1      -5.700   3.446  64.792  1.00  0.00    -0.013 OA 
HETATM   17  N   UNL     1      -7.212   1.994  65.640  1.00  0.00    -0.055 N  
HETATM   18  H2  UNL     1      -7.698   1.553  66.422  1.00  0.00     0.000 HD 
HETATM   19  H1  UNL     1      -7.390   1.799  64.654  1.00  0.00     0.000 HD 
ENDBRANCH  14  15
ENDBRANCH  13  14
ENDBRANCH   4  13
BRANCH  12  20
HETATM   20  N   UNL     1      -9.499   8.847  69.792  1.00  0.00    -0.166 N  
HETATM   21  O   UNL     1     -11.577   9.734  69.418  1.00  0.00    -0.048 OA 
HETATM   22  C   UNL     1     -10.733   9.302  70.197  1.00  0.00    -0.235 C  
HETATM   23  H   UNL     1      -8.831   8.565  70.509  1.00  0.00     0.000 HD 
BRANCH  22  24
HETATM   24  C   UNL     1     -10.955   9.275  71.696  1.00  0.00    -0.433 C  
BRANCH  24  25
HETATM   25  C   UNL     1     -10.993   7.872  72.214  1.00  0.00    -0.300 A  
HETATM   26  C   UNL     1     -11.947   6.899  71.980  1.00  0.00    -0.342 A  
HETATM   27  C   UNL     1     -11.718   5.720  72.747  1.00  0.00    -0.216 A  
HETATM   28  C   UNL     1     -10.579   5.818  73.515  1.00  0.00    -0.269 A  
HETATM   29  S   UNL     1      -9.788   7.317  73.300  1.00  0.00    -0.288 SA 
ENDBRANCH  24  25
ENDBRANCH  22  24
ENDBRANCH  12  20
BRANCH  12  30
HETATM   30  O   UNL     1      -8.885  10.041  67.730  1.00  0.00    -0.125 OA 
HETATM   31  C   UNL     1      -7.900  10.086  66.703  1.00  0.00    -0.111 C  
ENDBRANCH  12  30
TORSDOF 7
ENDMDL
MODEL      147
REMARK 921   NORMALIZED FREE ENERGY PREDICTED BY IDOCK:   -3.74 KCAL/MOL
REMARK 922        TOTAL FREE ENERGY PREDICTED BY IDOCK:   -5.94 KCAL/MOL
REMARK 923 INTER-LIGAND FREE ENERGY PREDICTED BY IDOCK:   -5.00 KCAL/MOL
REMARK 924 INTRA-LIGAND FREE ENERGY PREDICTED BY IDOCK:   -0.94 KCAL/MOL
REMARK 927      BINDING AFFINITY PREDICTED BY RF-SCORE:    0.00 PKD
ROOT
HETATM    1  C   UNL     1      -8.300   8.136  69.247  1.00  0.00    -0.130 C  
HETATM    2  S   UNL     1      -7.800   9.560  70.237  1.00  0.00    -0.176 SA 
HETATM    3  C   UNL     1      -8.047   8.700  71.801  1.00  0.00    -0.114 C  
HETATM    4  C   UNL     1      -9.357   7.941  71.927  1.00  0.00    -0.204 C  
HETATM    5  C   UNL     1     -10.106   7.514  70.867  1.00  0.00    -0.191 C  
HETATM    6  O   UNL     1     -11.008   6.929  67.897  1.00  0.00    -0.227 OA 
HETATM    7  O   UNL     1     -12.116   6.347  70.065  1.00  0.00    -0.228 OA 
HETATM    8  C   UNL     1     -11.471   6.889  71.113  1.00  0.00    -0.304 C  
HETATM    9  N   UNL     1      -9.658   7.745  69.593  1.00  0.00    -0.163 N  
HETATM   10  C   UNL     1     -10.066   7.558  68.318  1.00  0.00    -0.183 C  
HETATM   11  O   UNL     1     -11.991   6.828  72.218  1.00  0.00    -0.275 OA 
HETATM   12  C   UNL     1      -8.843   8.468  67.783  1.00  0.00    -0.137 C  
ENDROOT
BRANCH   4  13
HETATM   13  C   UNL     1      -9.768   7.783  73.393  1.00  0.00    -0.290 C  
BRANCH  13  14
HETATM   14  O   UNL     1      -8.825   6.942  74.092  1.00  0.00    -0.150 OA 
BRANCH  14  15
HETATM   15  C   UNL     1      -9.081   5.616  74.081  1.00  0.00    -0.122 C  
HETATM   16  O   UNL     1      -8.290   4.716  73.856  1.00  0.00    -0.103 OA 
HETATM   17  N   UNL     1     -10.392   5.403  74.328  1.00  0.00    -0.271 N  
HETATM   18  H2  UNL     1     -11.084   6.134  74.497  1.00  0.00     0.000 HD 
HETATM   19  H1  UNL     1     -10.586   4.402  74.320  1.00  0.00     0.000 HD 
ENDBRANCH  14  15
ENDBRANCH  13  14
ENDBRANCH   4  13
BRANCH  12  20
HETATM   20  N   UNL     1      -9.112   9.926  67.555  1.00  0.00    -0.134 N  
HETATM   21  O   UNL     1      -9.968   9.729  65.440  1.00  0.00    -0.320 OA 
HETATM   22  C   UNL     1      -9.689  10.427  66.410  1.00  0.00    -0.201 C  
HETATM   23  H   UNL     1      -8.852  10.583  68.290  1.00  0.00     0.000 HD 
BRANCH  22  24
HETATM   24  C   UNL     1      -9.911  11.926  66.420  1.00  0.00    -0.234 C  
BRANCH  24  25
HETATM   25  C   UNL     1      -8.810  12.633  67.145  1.00  0.00    -0.204 A  
HETATM   26  C   UNL     1      -7.447  12.428  67.042  1.00  0.00    -0.037 A  
HETATM   27  C   UNL     1      -6.710  13.201  67.986  1.00  0.00    -0.119 A  
HETATM   28  C   UNL     1      -7.530  13.996  68.754  1.00  0.00    -0.124 A  
HETATM   29  S   UNL     1      -9.176  13.818  68.330  1.00  0.00    -0.191 SA 
ENDBRANCH  24  25
ENDBRANCH  22  24
ENDBRANCH  12  20
BRANCH  12  30
HETATM   30  O   UNL     1      -8.067   7.865  66.710  1.00  0.00    -0.104 OA 
HETATM   31  C   UNL     1      -6.727   7.516  67.042  1.00  0.00    -0.066 C  
ENDBRANCH  12  30
TORSDOF 7
ENDMDL
MODEL      148
REMARK 921   NORMALIZED FREE ENERGY PREDICTED BY IDOCK:   -3.67 KCAL/MOL
REMARK 922        TOTAL FREE ENERGY PREDICTED BY IDOCK:   -5.85 KCAL/MOL
REMARK 923 INTER-LIGAND FREE ENERGY PREDICTED BY IDOCK:   -5.79 KCAL/MOL
REMARK 924 INTRA-LIGAND FREE ENERGY PREDICTED BY IDOCK:   -0.07 KCAL/MOL
REMARK 927      BINDING AFFINITY PREDICTED BY RF-SCORE:    0.00 PKD
ROOT
HETATM    1  C   UNL     1      -8.980  12.412  67.233  1.00  0.00    -0.190 C  
HETATM    2  S   UNL     1      -7.254  12.362  67.761  1.00  0.00    -0.134 SA 
HETATM    3  C   UNL     1      -7.333  13.978  68.554  1.00  0.00    -0.114 C  
HETATM    4  C   UNL     1      -7.981  15.076  67.728  1.00  0.00    -0.155 C  
HETATM    5  C   UNL     1      -8.850  14.855  66.697  1.00  0.00    -0.254 C  
HETATM    6  O   UNL     1     -10.713  13.350  64.639  1.00  0.00    -0.365 OA 
HETATM    7  O   UNL     1     -10.291  15.798  64.941  1.00  0.00    -0.487 OA 
HETATM    8  C   UNL     1      -9.327  16.026  65.850  1.00  0.00    -0.300 C  
HETATM    9  N   UNL     1      -9.202  13.570  66.380  1.00  0.00    -0.178 N  
HETATM   10  C   UNL     1      -9.945  12.912  65.462  1.00  0.00    -0.213 C  
HETATM   11  O   UNL     1      -8.900  17.165  65.980  1.00  0.00    -0.484 OA 
HETATM   12  C   UNL     1      -9.344  11.502  65.974  1.00  0.00    -0.223 C  
ENDROOT
BRANCH   4  13
HETATM   13  C   UNL     1      -7.479  16.459  68.152  1.00  0.00    -0.149 C  
BRANCH  13  14
HETATM   14  O   UNL     1      -8.483  17.142  68.934  1.00  0.00    -0.259 OA 
BRANCH  14  15
HETATM   15  C   UNL     1      -8.563  18.480  68.768  1.00  0.00    -0.238 C  
HETATM   16  O   UNL     1      -9.573  19.163  68.776  1.00  0.00    -0.381 OA 
HETATM   17  N   UNL     1      -7.330  18.987  68.545  1.00  0.00    -0.293 N  
HETATM   18  H2  UNL     1      -6.469  18.441  68.508  1.00  0.00     0.000 HD 
HETATM   19  H1  UNL     1      -7.391  19.997  68.420  1.00  0.00     0.000 HD 
ENDBRANCH  14  15
ENDBRANCH  13  14
ENDBRANCH   4  13
BRANCH  12  20
HETATM   20  N   UNL     1      -8.146  10.957  65.255  1.00  0.00    -0.353 N  
HETATM   21  O   UNL     1      -8.278   8.818  66.060  1.00  0.00    -0.110 OA 
HETATM   22  C   UNL     1      -7.737   9.645  65.333  1.00  0.00    -0.117 C  
HETATM   23  H   UNL     1      -7.602  11.597  64.675  1.00  0.00     0.000 HD 
BRANCH  22  24
HETATM   24  C   UNL     1      -6.529   9.308  64.483  1.00  0.00    -0.077 C  
BRANCH  24  25
HETATM   25  C   UNL     1      -6.214   7.847  64.543  1.00  0.00    -0.052 A  
HETATM   26  C   UNL     1      -5.252   7.209  65.304  1.00  0.00    -0.028 A  
HETATM   27  C   UNL     1      -5.156   5.820  65.001  1.00  0.00    -0.009 A  
HETATM   28  C   UNL     1      -6.068   5.436  64.045  1.00  0.00    -0.022 A  
HETATM   29  S   UNL     1      -7.042   6.742  63.527  1.00  0.00    -0.065 SA 
ENDBRANCH  24  25
ENDBRANCH  22  24
ENDBRANCH  12  20
BRANCH  12  30
HETATM   30  O   UNL     1     -10.347  10.484  66.247  1.00  0.00    -0.234 OA 
HETATM   31  C   UNL     1     -11.039  10.620  67.483  1.00  0.00    -0.300 C  
ENDBRANCH  12  30
TORSDOF 7
ENDMDL
MODEL      149
REMARK 921   NORMALIZED FREE ENERGY PREDICTED BY IDOCK:   -3.66 KCAL/MOL
REMARK 922        TOTAL FREE ENERGY PREDICTED BY IDOCK:   -5.83 KCAL/MOL
REMARK 923 INTER-LIGAND FREE ENERGY PREDICTED BY IDOCK:   -5.51 KCAL/MOL
REMARK 924 INTRA-LIGAND FREE ENERGY PREDICTED BY IDOCK:   -0.32 KCAL/MOL
REMARK 927      BINDING AFFINITY PREDICTED BY RF-SCORE:    0.00 PKD
ROOT
HETATM    1  C   UNL     1     -10.461   9.238  68.777  1.00  0.00    -0.210 C  
HETATM    2  S   UNL     1     -10.481   9.363  66.976  1.00  0.00    -0.201 SA 
HETATM    3  C   UNL     1     -10.145   7.609  66.739  1.00  0.00    -0.255 C  
HETATM    4  C   UNL     1      -9.015   7.043  67.581  1.00  0.00    -0.117 C  
HETATM    5  C   UNL     1      -8.565   7.602  68.743  1.00  0.00    -0.129 C  
HETATM    6  O   UNL     1      -8.331   9.545  71.223  1.00  0.00    -0.265 OA 
HETATM    7  O   UNL     1      -7.004   7.504  70.642  1.00  0.00    -0.050 OA 
HETATM    8  C   UNL     1      -7.333   7.027  69.428  1.00  0.00    -0.091 C  
HETATM    9  N   UNL     1      -9.171   8.733  69.223  1.00  0.00    -0.148 N  
HETATM   10  C   UNL     1      -9.038   9.608  70.245  1.00  0.00    -0.225 C  
HETATM   11  O   UNL     1      -6.652   6.134  68.943  1.00  0.00    -0.047 OA 
HETATM   12  C   UNL     1     -10.125  10.587  69.560  1.00  0.00    -0.178 C  
ENDROOT
BRANCH   4  13
HETATM   13  C   UNL     1      -8.396   5.808  66.921  1.00  0.00    -0.108 C  
BRANCH  13  14
HETATM   14  O   UNL     1      -9.026   5.547  65.649  1.00  0.00    -0.159 OA 
BRANCH  14  15
HETATM   15  C   UNL     1      -9.712   4.388  65.546  1.00  0.00    -0.200 C  
HETATM   16  O   UNL     1      -9.656   3.431  66.300  1.00  0.00    -0.150 OA 
HETATM   17  N   UNL     1     -10.478   4.408  64.433  1.00  0.00    -0.455 N  
HETATM   18  H2  UNL     1     -10.530   5.182  63.770  1.00  0.00     0.000 HD 
HETATM   19  H1  UNL     1     -10.996   3.533  64.356  1.00  0.00     0.000 HD 
ENDBRANCH  14  15
ENDBRANCH  13  14
ENDBRANCH   4  13
BRANCH  12  20
HETATM   20  N   UNL     1      -9.609  11.685  68.678  1.00  0.00    -0.317 N  
HETATM   21  O   UNL     1     -11.641  12.590  68.132  1.00  0.00    -0.297 OA 
HETATM   22  C   UNL     1     -10.416  12.618  68.067  1.00  0.00    -0.224 C  
HETATM   23  H   UNL     1      -8.603  11.744  68.521  1.00  0.00     0.000 HD 
BRANCH  22  24
HETATM   24  C   UNL     1      -9.673  13.665  67.261  1.00  0.00    -0.243 C  
BRANCH  24  25
HETATM   25  C   UNL     1      -8.477  14.173  68.003  1.00  0.00    -0.171 A  
HETATM   26  C   UNL     1      -7.156  13.795  67.858  1.00  0.00    -0.161 A  
HETATM   27  C   UNL     1      -6.308  14.402  68.829  1.00  0.00    -0.086 A  
HETATM   28  C   UNL     1      -7.003  15.250  69.662  1.00  0.00    -0.188 A  
HETATM   29  S   UNL     1      -8.664  15.319  69.264  1.00  0.00    -0.215 SA 
ENDBRANCH  24  25
ENDBRANCH  22  24
ENDBRANCH  12  20
BRANCH  12  30
HETATM   30  O   UNL     1     -11.181  11.034  70.454  1.00  0.00    -0.232 OA 
HETATM   31  C   UNL     1     -11.798  10.014  71.233  1.00  0.00    -0.385 C  
ENDBRANCH  12  30
TORSDOF 7
ENDMDL
MODEL      150
REMARK 921   NORMALIZED FREE ENERGY PREDICTED BY IDOCK:   -3.64 KCAL/MOL
REMARK 922        TOTAL FREE ENERGY PREDICTED BY IDOCK:   -5.81 KCAL/MOL
REMARK 923 INTER-LIGAND FREE ENERGY PREDICTED BY IDOCK:   -4.90 KCAL/MOL
REMARK 924 INTRA-LIGAND FREE ENERGY PREDICTED BY IDOCK:   -0.91 KCAL/MOL
REMARK 927      BINDING AFFINITY PREDICTED BY RF-SCORE:    0.00 PKD
ROOT
HETATM    1  C   UNL     1     -10.513   8.392  69.990  1.00  0.00    -0.224 C  
HETATM    2  S   UNL     1     -11.119   6.737  69.600  1.00  0.00    -0.283 SA 
HETATM    3  C   UNL     1     -11.720   6.441  71.272  1.00  0.00    -0.300 C  
HETATM    4  C   UNL     1     -10.748   6.796  72.385  1.00  0.00    -0.256 C  
HETATM    5  C   UNL     1      -9.711   7.675  72.252  1.00  0.00    -0.174 C  
HETATM    6  O   UNL     1      -7.756   9.811  70.990  1.00  0.00    -0.292 OA 
HETATM    7  O   UNL     1      -7.799   8.822  73.289  1.00  0.00    -0.400 OA 
HETATM    8  C   UNL     1      -8.717   7.846  73.392  1.00  0.00    -0.249 C  
HETATM    9  N   UNL     1      -9.526   8.319  71.057  1.00  0.00    -0.155 N  
HETATM   10  C   UNL     1      -8.657   9.182  70.486  1.00  0.00    -0.219 C  
HETATM   11  O   UNL     1      -8.736   7.162  74.406  1.00  0.00    -0.183 OA 
HETATM   12  C   UNL     1      -9.350   8.943  69.046  1.00  0.00    -0.144 C  
ENDROOT
BRANCH   4  13
HETATM   13  C   UNL     1     -11.035   5.985  73.652  1.00  0.00    -0.036 C  
BRANCH  13  14
HETATM   14  O   UNL     1     -11.553   4.682  73.310  1.00  0.00    -0.314 OA 
BRANCH  14  15
HETATM   15  C   UNL     1     -10.756   3.628  73.588  1.00  0.00    -0.221 C  
HETATM   16  O   UNL     1      -9.569   3.656  73.865  1.00  0.00    -0.095 OA 
HETATM   17  N   UNL     1     -11.463   2.481  73.484  1.00  0.00    -0.203 N  
HETATM   18  H2  UNL     1     -12.450   2.420  73.233  1.00  0.00     0.000 HD 
HETATM   19  H1  UNL     1     -10.861   1.685  73.695  1.00  0.00     0.000 HD 
ENDBRANCH  14  15
ENDBRANCH  13  14
ENDBRANCH   4  13
BRANCH  12  20
HETATM   20  N   UNL     1      -8.750   7.898  68.154  1.00  0.00    -0.126 N  
HETATM   21  O   UNL     1      -6.695   8.878  67.909  1.00  0.00    -0.067 OA 
HETATM   22  C   UNL     1      -7.455   7.939  67.691  1.00  0.00    -0.097 C  
HETATM   23  H   UNL     1      -9.336   7.111  67.874  1.00  0.00     0.000 HD 
BRANCH  22  24
HETATM   24  C   UNL     1      -7.049   6.750  66.843  1.00  0.00    -0.075 C  
BRANCH  24  25
HETATM   25  C   UNL     1      -6.947   7.124  65.398  1.00  0.00    -0.056 A  
HETATM   26  C   UNL     1      -7.971   7.362  64.500  1.00  0.00    -0.122 A  
HETATM   27  C   UNL     1      -7.492   7.566  63.174  1.00  0.00    -0.104 A  
HETATM   28  C   UNL     1      -6.118   7.512  63.107  1.00  0.00    -0.054 A  
HETATM   29  S   UNL     1      -5.413   7.229  64.638  1.00  0.00    -0.033 SA 
ENDBRANCH  24  25
ENDBRANCH  22  24
ENDBRANCH  12  20
BRANCH  12  30
HETATM   30  O   UNL     1      -9.692  10.163  68.333  1.00  0.00    -0.143 OA 
HETATM   31  C   UNL     1     -10.997  10.197  67.764  1.00  0.00    -0.277 C  
ENDBRANCH  12  30
TORSDOF 7
ENDMDL
MODEL      151
REMARK 921   NORMALIZED FREE ENERGY PREDICTED BY IDOCK:   -3.61 KCAL/MOL
REMARK 922        TOTAL FREE ENERGY PREDICTED BY IDOCK:   -5.76 KCAL/MOL
REMARK 923 INTER-LIGAND FREE ENERGY PREDICTED BY IDOCK:   -5.02 KCAL/MOL
REMARK 924 INTRA-LIGAND FREE ENERGY PREDICTED BY IDOCK:   -0.74 KCAL/MOL
REMARK 927      BINDING AFFINITY PREDICTED BY RF-SCORE:    0.00 PKD
ROOT
HETATM    1  C   UNL     1      -8.026   9.642  65.700  1.00  0.00    -0.113 C  
HETATM    2  S   UNL     1      -6.522  10.565  66.078  1.00  0.00    -0.133 SA 
HETATM    3  C   UNL     1      -5.784   9.203  66.999  1.00  0.00    -0.045 C  
HETATM    4  C   UNL     1      -6.697   8.532  68.011  1.00  0.00    -0.065 C  
HETATM    5  C   UNL     1      -8.062   8.574  67.965  1.00  0.00    -0.115 C  
HETATM    6  O   UNL     1     -10.995   9.185  66.964  1.00  0.00    -0.098 OA 
HETATM    7  O   UNL     1     -10.207   7.910  68.967  1.00  0.00    -0.200 OA 
HETATM    8  C   UNL     1      -8.873   7.985  69.111  1.00  0.00    -0.145 C  
HETATM    9  N   UNL     1      -8.679   9.232  66.935  1.00  0.00    -0.126 N  
HETATM   10  C   UNL     1      -9.928   9.556  66.532  1.00  0.00    -0.261 C  
HETATM   11  O   UNL     1      -8.366   7.550  70.136  1.00  0.00    -0.130 OA 
HETATM   12  C   UNL     1      -9.320  10.524  65.390  1.00  0.00    -0.211 C  
ENDROOT
BRANCH   4  13
HETATM   13  C   UNL     1      -5.892   7.866  69.130  1.00  0.00    -0.031 C  
BRANCH  13  14
HETATM   14  O   UNL     1      -5.157   6.734  68.617  1.00  0.00    -0.013 OA 
BRANCH  14  15
HETATM   15  C   UNL     1      -5.792   5.542  68.654  1.00  0.00    -0.016 C  
HETATM   16  O   UNL     1      -6.567   5.095  67.826  1.00  0.00    -0.047 OA 
HETATM   17  N   UNL     1      -5.473   4.892  69.795  1.00  0.00    -0.007 N  
HETATM   18  H2  UNL     1      -4.848   5.247  70.518  1.00  0.00     0.000 HD 
HETATM   19  H1  UNL     1      -5.952   3.991  69.823  1.00  0.00     0.000 HD 
ENDBRANCH  14  15
ENDBRANCH  13  14
ENDBRANCH   4  13
BRANCH  12  20
HETATM   20  N   UNL     1      -9.156  11.976  65.729  1.00  0.00    -0.431 N  
HETATM   21  O   UNL     1     -11.346  12.583  65.447  1.00  0.00    -0.303 OA 
HETATM   22  C   UNL     1     -10.197  12.876  65.764  1.00  0.00    -0.288 C  
HETATM   23  H   UNL     1      -8.219  12.316  65.946  1.00  0.00     0.000 HD 
BRANCH  22  24
HETATM   24  C   UNL     1      -9.804  14.279  66.179  1.00  0.00    -0.335 C  
BRANCH  24  25
HETATM   25  C   UNL     1     -10.274  14.586  67.567  1.00  0.00    -0.232 A  
HETATM   26  C   UNL     1      -9.602  15.261  68.568  1.00  0.00    -0.211 A  
HETATM   27  C   UNL     1     -10.313  15.249  69.802  1.00  0.00    -0.266 A  
HETATM   28  C   UNL     1     -11.520  14.595  69.695  1.00  0.00    -0.289 A  
HETATM   29  S   UNL     1     -11.794  14.012  68.112  1.00  0.00    -0.355 SA 
ENDBRANCH  24  25
ENDBRANCH  22  24
ENDBRANCH  12  20
BRANCH  12  30
HETATM   30  O   UNL     1      -9.878  10.316  64.064  1.00  0.00    -0.311 OA 
HETATM   31  C   UNL     1      -8.929  10.219  63.007  1.00  0.00    -0.247 C  
ENDBRANCH  12  30
TORSDOF 7
ENDMDL
MODEL      152
REMARK 921   NORMALIZED FREE ENERGY PREDICTED BY IDOCK:   -3.57 KCAL/MOL
REMARK 922        TOTAL FREE ENERGY PREDICTED BY IDOCK:   -5.70 KCAL/MOL
REMARK 923 INTER-LIGAND FREE ENERGY PREDICTED BY IDOCK:   -5.32 KCAL/MOL
REMARK 924 INTRA-LIGAND FREE ENERGY PREDICTED BY IDOCK:   -0.38 KCAL/MOL
REMARK 927      BINDING AFFINITY PREDICTED BY RF-SCORE:    0.00 PKD
ROOT
HETATM    1  C   UNL     1      -7.832   7.003  67.943  1.00  0.00    -0.114 C  
HETATM    2  S   UNL     1      -6.823   8.342  68.614  1.00  0.00    -0.064 SA 
HETATM    3  C   UNL     1      -7.001   7.773  70.315  1.00  0.00    -0.050 C  
HETATM    4  C   UNL     1      -8.417   7.424  70.739  1.00  0.00    -0.131 C  
HETATM    5  C   UNL     1      -9.423   7.097  69.874  1.00  0.00    -0.153 C  
HETATM    6  O   UNL     1     -10.951   6.437  67.190  1.00  0.00    -0.354 OA 
HETATM    7  O   UNL     1     -11.772   6.441  69.554  1.00  0.00    -0.366 OA 
HETATM    8  C   UNL     1     -10.837   6.905  70.403  1.00  0.00    -0.261 C  
HETATM    9  N   UNL     1      -9.162   7.044  68.531  1.00  0.00    -0.137 N  
HETATM   10  C   UNL     1      -9.821   6.828  67.371  1.00  0.00    -0.137 C  
HETATM   11  O   UNL     1     -11.154   7.119  71.565  1.00  0.00    -0.235 OA 
HETATM   12  C   UNL     1      -8.521   7.297  66.534  1.00  0.00    -0.125 C  
ENDROOT
BRANCH   4  13
HETATM   13  C   UNL     1      -8.591   7.558  72.254  1.00  0.00    -0.115 C  
BRANCH  13  14
HETATM   14  O   UNL     1      -7.844   8.690  72.749  1.00  0.00    -0.356 OA 
BRANCH  14  15
HETATM   15  C   UNL     1      -7.147   8.495  73.890  1.00  0.00    -0.054 C  
HETATM   16  O   UNL     1      -6.436   9.302  74.464  1.00  0.00    -0.351 OA 
HETATM   17  N   UNL     1      -7.316   7.224  74.316  1.00  0.00    -0.108 N  
HETATM   18  H2  UNL     1      -7.884   6.518  73.848  1.00  0.00     0.000 HD 
HETATM   19  H1  UNL     1      -6.790   7.077  75.178  1.00  0.00     0.000 HD 
ENDBRANCH  14  15
ENDBRANCH  13  14
ENDBRANCH   4  13
BRANCH  12  20
HETATM   20  N   UNL     1      -8.450   8.736  66.115  1.00  0.00    -0.125 N  
HETATM   21  O   UNL     1      -8.297   8.367  63.859  1.00  0.00    -0.147 OA 
HETATM   22  C   UNL     1      -8.381   9.148  64.803  1.00  0.00    -0.169 C  
HETATM   23  H   UNL     1      -8.452   9.449  66.843  1.00  0.00     0.000 HD 
BRANCH  22  24
HETATM   24  C   UNL     1      -8.367  10.651  64.614  1.00  0.00    -0.056 C  
BRANCH  24  25
HETATM   25  C   UNL     1      -9.636  11.272  65.104  1.00  0.00    -0.235 A  
HETATM   26  C   UNL     1     -10.852  11.362  64.454  1.00  0.00    -0.397 A  
HETATM   27  C   UNL     1     -11.800  12.139  65.181  1.00  0.00    -0.356 A  
HETATM   28  C   UNL     1     -11.289  12.587  66.378  1.00  0.00    -0.329 A  
HETATM   29  S   UNL     1      -9.681  12.063  66.625  1.00  0.00    -0.213 SA 
ENDBRANCH  24  25
ENDBRANCH  22  24
ENDBRANCH  12  20
BRANCH  12  30
HETATM   30  O   UNL     1      -8.124   6.383  65.475  1.00  0.00    -0.116 OA 
HETATM   31  C   UNL     1      -7.044   5.510  65.791  1.00  0.00    -0.067 C  
ENDBRANCH  12  30
TORSDOF 7
ENDMDL
MODEL      153
REMARK 921   NORMALIZED FREE ENERGY PREDICTED BY IDOCK:   -3.46 KCAL/MOL
REMARK 922        TOTAL FREE ENERGY PREDICTED BY IDOCK:   -5.55 KCAL/MOL
REMARK 923 INTER-LIGAND FREE ENERGY PREDICTED BY IDOCK:   -4.51 KCAL/MOL
REMARK 924 INTRA-LIGAND FREE ENERGY PREDICTED BY IDOCK:   -1.04 KCAL/MOL
REMARK 927      BINDING AFFINITY PREDICTED BY RF-SCORE:    0.00 PKD
ROOT
HETATM    1  C   UNL     1     -10.677   8.426  69.573  1.00  0.00    -0.175 C  
HETATM    2  S   UNL     1     -11.358   6.954  70.365  1.00  0.00    -0.336 SA 
HETATM    3  C   UNL     1     -10.965   7.531  72.027  1.00  0.00    -0.242 C  
HETATM    4  C   UNL     1      -9.558   8.073  72.211  1.00  0.00    -0.286 C  
HETATM    5  C   UNL     1      -8.774   8.545  71.197  1.00  0.00    -0.174 C  
HETATM    6  O   UNL     1      -7.847   9.433  68.311  1.00  0.00    -0.090 OA 
HETATM    7  O   UNL     1      -6.632   9.528  70.496  1.00  0.00    -0.070 OA 
HETATM    8  C   UNL     1      -7.329   8.932  71.479  1.00  0.00    -0.052 C  
HETATM    9  N   UNL     1      -9.271   8.570  69.920  1.00  0.00    -0.152 N  
HETATM   10  C   UNL     1      -8.863   8.885  68.671  1.00  0.00    -0.137 C  
HETATM   11  O   UNL     1      -6.787   8.756  72.561  1.00  0.00    -0.259 OA 
HETATM   12  C   UNL     1     -10.212   8.243  68.057  1.00  0.00    -0.214 C  
ENDROOT
BRANCH   4  13
HETATM   13  C   UNL     1      -9.104   7.955  73.669  1.00  0.00    -0.273 C  
BRANCH  13  14
HETATM   14  O   UNL     1      -9.298   6.607  74.149  1.00  0.00    -0.173 OA 
BRANCH  14  15
HETATM   15  C   UNL     1      -8.378   5.696  73.764  1.00  0.00    -0.114 C  
HETATM   16  O   UNL     1      -7.166   5.793  73.849  1.00  0.00    -0.085 OA 
HETATM   17  N   UNL     1      -8.997   4.628  73.214  1.00  0.00    -0.113 N  
HETATM   18  H2  UNL     1     -10.006   4.525  73.106  1.00  0.00     0.000 HD 
HETATM   19  H1  UNL     1      -8.303   3.939  72.923  1.00  0.00     0.000 HD 
ENDBRANCH  14  15
ENDBRANCH  13  14
ENDBRANCH   4  13
BRANCH  12  20
HETATM   20  N   UNL     1     -10.157   6.812  67.611  1.00  0.00    -0.149 N  
HETATM   21  O   UNL     1      -8.760   7.125  65.823  1.00  0.00    -0.154 OA 
HETATM   22  C   UNL     1      -9.401   6.370  66.549  1.00  0.00    -0.155 C  
HETATM   23  H   UNL     1     -10.711   6.127  68.125  1.00  0.00     0.000 HD 
BRANCH  22  24
HETATM   24  C   UNL     1      -9.460   4.875  66.310  1.00  0.00    -0.160 C  
BRANCH  24  25
HETATM   25  C   UNL     1      -8.897   4.118  67.472  1.00  0.00    -0.113 A  
HETATM   26  C   UNL     1      -9.547   3.235  68.314  1.00  0.00    -0.141 A  
HETATM   27  C   UNL     1      -8.719   2.804  69.390  1.00  0.00    -0.134 A  
HETATM   28  C   UNL     1      -7.454   3.344  69.316  1.00  0.00    -0.048 A  
HETATM   29  S   UNL     1      -7.267   4.353  67.950  1.00  0.00    -0.065 SA 
ENDBRANCH  24  25
ENDBRANCH  22  24
ENDBRANCH  12  20
BRANCH  12  30
HETATM   30  O   UNL     1     -10.911   9.100  67.113  1.00  0.00    -0.212 OA 
HETATM   31  C   UNL     1     -10.147  10.177  66.579  1.00  0.00    -0.234 C  
ENDBRANCH  12  30
TORSDOF 7
ENDMDL
MODEL      154
REMARK 921   NORMALIZED FREE ENERGY PREDICTED BY IDOCK:   -3.44 KCAL/MOL
REMARK 922        TOTAL FREE ENERGY PREDICTED BY IDOCK:   -5.53 KCAL/MOL
REMARK 923 INTER-LIGAND FREE ENERGY PREDICTED BY IDOCK:   -5.56 KCAL/MOL
REMARK 924 INTRA-LIGAND FREE ENERGY PREDICTED BY IDOCK:    0.03 KCAL/MOL
REMARK 927      BINDING AFFINITY PREDICTED BY RF-SCORE:    0.00 PKD
ROOT
HETATM    1  C   UNL     1      -7.202   9.985  68.058  1.00  0.00    -0.082 C  
HETATM    2  S   UNL     1      -8.480   9.477  69.226  1.00  0.00    -0.150 SA 
HETATM    3  C   UNL     1      -7.900   7.773  69.292  1.00  0.00    -0.116 C  
HETATM    4  C   UNL     1      -7.616   7.129  67.946  1.00  0.00    -0.111 C  
HETATM    5  C   UNL     1      -7.350   7.824  66.800  1.00  0.00    -0.089 C  
HETATM    6  O   UNL     1      -6.799  10.234  64.834  1.00  0.00    -0.132 OA 
HETATM    7  O   UNL     1      -6.815   7.770  64.400  1.00  0.00    -0.057 OA 
HETATM    8  C   UNL     1      -7.221   7.079  65.480  1.00  0.00    -0.070 C  
HETATM    9  N   UNL     1      -7.301   9.193  66.841  1.00  0.00    -0.089 N  
HETATM   10  C   UNL     1      -7.131  10.234  65.997  1.00  0.00    -0.128 C  
HETATM   11  O   UNL     1      -7.437   5.880  65.363  1.00  0.00    -0.077 OA 
HETATM   12  C   UNL     1      -7.546  11.265  67.169  1.00  0.00    -0.137 C  
ENDROOT
BRANCH   4  13
HETATM   13  C   UNL     1      -7.740   5.605  68.022  1.00  0.00    -0.089 C  
BRANCH  13  14
HETATM   14  O   UNL     1      -9.096   5.225  68.340  1.00  0.00    -0.108 OA 
BRANCH  14  15
HETATM   15  C   UNL     1      -9.836   4.736  67.320  1.00  0.00    -0.184 C  
HETATM   16  O   UNL     1      -9.647   3.699  66.706  1.00  0.00    -0.204 OA 
HETATM   17  N   UNL     1     -10.836   5.596  67.029  1.00  0.00    -0.438 N  
HETATM   18  H2  UNL     1     -11.007   6.481  67.507  1.00  0.00     0.000 HD 
HETATM   19  H1  UNL     1     -11.395   5.226  66.260  1.00  0.00     0.000 HD 
ENDBRANCH  14  15
ENDBRANCH  13  14
ENDBRANCH   4  13
BRANCH  12  20
HETATM   20  N   UNL     1      -8.985  11.684  67.246  1.00  0.00    -0.165 N  
HETATM   21  O   UNL     1      -9.746  10.408  65.504  1.00  0.00    -0.212 OA 
HETATM   22  C   UNL     1      -9.971  11.187  66.425  1.00  0.00    -0.217 C  
HETATM   23  H   UNL     1      -9.246  12.378  67.947  1.00  0.00     0.000 HD 
BRANCH  22  24
HETATM   24  C   UNL     1     -11.360  11.717  66.715  1.00  0.00    -0.385 C  
BRANCH  24  25
HETATM   25  C   UNL     1     -11.785  12.718  65.687  1.00  0.00    -0.399 A  
HETATM   26  C   UNL     1     -12.204  12.488  64.390  1.00  0.00    -0.528 A  
HETATM   27  C   UNL     1     -12.405  13.697  63.663  1.00  0.00    -0.328 A  
HETATM   28  C   UNL     1     -12.166  14.810  64.437  1.00  0.00    -0.428 A  
HETATM   29  S   UNL     1     -11.716  14.396  66.033  1.00  0.00    -0.361 SA 
ENDBRANCH  24  25
ENDBRANCH  22  24
ENDBRANCH  12  20
BRANCH  12  30
HETATM   30  O   UNL     1      -6.626  12.377  67.347  1.00  0.00    -0.135 OA 
HETATM   31  C   UNL     1      -7.196  13.565  67.887  1.00  0.00    -0.139 C  
ENDBRANCH  12  30
TORSDOF 7
ENDMDL
MODEL      155
REMARK 921   NORMALIZED FREE ENERGY PREDICTED BY IDOCK:   -3.43 KCAL/MOL
REMARK 922        TOTAL FREE ENERGY PREDICTED BY IDOCK:   -5.51 KCAL/MOL
REMARK 923 INTER-LIGAND FREE ENERGY PREDICTED BY IDOCK:   -4.54 KCAL/MOL
REMARK 924 INTRA-LIGAND FREE ENERGY PREDICTED BY IDOCK:   -0.96 KCAL/MOL
REMARK 927      BINDING AFFINITY PREDICTED BY RF-SCORE:    0.00 PKD
ROOT
HETATM    1  C   UNL     1      -8.409   7.543  67.975  1.00  0.00    -0.124 C  
HETATM    2  S   UNL     1      -7.026   7.017  69.008  1.00  0.00    -0.081 SA 
HETATM    3  C   UNL     1      -6.228   6.109  67.672  1.00  0.00    -0.029 C  
HETATM    4  C   UNL     1      -7.140   5.196  66.871  1.00  0.00    -0.073 C  
HETATM    5  C   UNL     1      -8.497   5.337  66.793  1.00  0.00    -0.107 C  
HETATM    6  O   UNL     1     -11.400   6.516  67.190  1.00  0.00    -0.333 OA 
HETATM    7  O   UNL     1     -10.633   4.521  65.888  1.00  0.00    -0.277 OA 
HETATM    8  C   UNL     1      -9.324   4.280  66.075  1.00  0.00    -0.163 C  
HETATM    9  N   UNL     1      -9.102   6.378  67.446  1.00  0.00    -0.112 N  
HETATM   10  C   UNL     1     -10.346   6.853  67.677  1.00  0.00    -0.205 C  
HETATM   11  O   UNL     1      -8.849   3.242  65.634  1.00  0.00    -0.123 OA 
HETATM   12  C   UNL     1      -9.755   7.903  68.753  1.00  0.00    -0.158 C  
ENDROOT
BRANCH   4  13
HETATM   13  C   UNL     1      -6.353   4.054  66.223  1.00  0.00    -0.033 C  
BRANCH  13  14
HETATM   14  O   UNL     1      -5.433   4.572  65.238  1.00  0.00    -0.013 OA 
BRANCH  14  15
HETATM   15  C   UNL     1      -5.980   5.038  64.093  1.00  0.00    -0.021 C  
HETATM   16  O   UNL     1      -6.707   4.430  63.326  1.00  0.00    -0.036 OA 
HETATM   17  N   UNL     1      -5.574   6.308  63.878  1.00  0.00    -0.021 N  
HETATM   18  H2  UNL     1      -4.948   6.836  64.487  1.00  0.00     0.000 HD 
HETATM   19  H1  UNL     1      -5.987   6.660  63.014  1.00  0.00     0.000 HD 
ENDBRANCH  14  15
ENDBRANCH  13  14
ENDBRANCH   4  13
BRANCH  12  20
HETATM   20  N   UNL     1      -9.750   7.488  70.195  1.00  0.00    -0.172 N  
HETATM   21  O   UNL     1     -11.904   6.716  70.277  1.00  0.00    -0.395 OA 
HETATM   22  C   UNL     1     -10.820   6.893  70.824  1.00  0.00    -0.245 C  
HETATM   23  H   UNL     1      -8.904   7.656  70.740  1.00  0.00     0.000 HD 
BRANCH  22  24
HETATM   24  C   UNL     1     -10.571   6.514  72.269  1.00  0.00    -0.238 C  
BRANCH  24  25
HETATM   25  C   UNL     1     -10.634   5.031  72.460  1.00  0.00    -0.219 A  
HETATM   26  C   UNL     1     -11.401   4.316  73.360  1.00  0.00    -0.324 A  
HETATM   27  C   UNL     1     -11.100   2.923  73.342  1.00  0.00    -0.288 A  
HETATM   28  C   UNL     1     -10.139   2.615  72.405  1.00  0.00    -0.166 A  
HETATM   29  S   UNL     1      -9.614   3.998  71.548  1.00  0.00    -0.176 SA 
ENDBRANCH  24  25
ENDBRANCH  22  24
ENDBRANCH  12  20
BRANCH  12  30
HETATM   30  O   UNL     1     -10.202   9.274  68.565  1.00  0.00    -0.187 OA 
HETATM   31  C   UNL     1      -9.889  10.173  69.625  1.00  0.00    -0.225 C  
ENDBRANCH  12  30
TORSDOF 7
ENDMDL
MODEL      156
REMARK 921   NORMALIZED FREE ENERGY PREDICTED BY IDOCK:   -3.40 KCAL/MOL
REMARK 922        TOTAL FREE ENERGY PREDICTED BY IDOCK:   -5.46 KCAL/MOL
REMARK 923 INTER-LIGAND FREE ENERGY PREDICTED BY IDOCK:   -4.50 KCAL/MOL
REMARK 924 INTRA-LIGAND FREE ENERGY PREDICTED BY IDOCK:   -0.96 KCAL/MOL
REMARK 927      BINDING AFFINITY PREDICTED BY RF-SCORE:    0.00 PKD
ROOT
HETATM    1  C   UNL     1     -10.912   7.363  70.905  1.00  0.00    -0.253 C  
HETATM    2  S   UNL     1     -10.688   8.335  72.409  1.00  0.00    -0.332 SA 
HETATM    3  C   UNL     1     -12.049   9.451  72.024  1.00  0.00    -0.309 C  
HETATM    4  C   UNL     1     -12.063   9.994  70.605  1.00  0.00    -0.381 C  
HETATM    5  C   UNL     1     -11.438   9.399  69.546  1.00  0.00     0.161 C  
HETATM    6  O   UNL     1      -9.794   7.306  67.845  1.00  0.00    -0.137 OA 
HETATM    7  O   UNL     1     -10.909   9.434  67.144  1.00  0.00    -0.219 OA 
HETATM    8  C   UNL     1     -11.401  10.107  68.199  1.00  0.00    -0.099 C  
HETATM    9  N   UNL     1     -10.769   8.219  69.737  1.00  0.00    -0.238 N  
HETATM   10  C   UNL     1     -10.009   7.351  69.034  1.00  0.00    -0.176 C  
HETATM   11  O   UNL     1     -11.825  11.242  68.026  1.00  0.00    -0.578 OA 
HETATM   12  C   UNL     1      -9.623   6.572  70.395  1.00  0.00    -0.162 C  
ENDROOT
BRANCH   4  13
HETATM   13  C   UNL     1     -12.806  11.331  70.529  1.00  0.00    -0.085 C  
BRANCH  13  14
HETATM   14  O   UNL     1     -12.165  12.311  71.373  1.00  0.00    -0.077 OA 
BRANCH  14  15
HETATM   15  C   UNL     1     -12.848  13.457  71.585  1.00  0.00    -0.321 C  
HETATM   16  O   UNL     1     -12.446  14.596  71.415  1.00  0.00    -0.307 OA 
HETATM   17  N   UNL     1     -14.078  13.172  72.066  1.00  0.00    -0.188 N  
HETATM   18  H2  UNL     1     -14.437  12.234  72.242  1.00  0.00     0.000 HD 
HETATM   19  H1  UNL     1     -14.595  14.037  72.226  1.00  0.00     0.000 HD 
ENDBRANCH  14  15
ENDBRANCH  13  14
ENDBRANCH   4  13
BRANCH  12  20
HETATM   20  N   UNL     1      -8.354   6.975  71.088  1.00  0.00    -0.117 N  
HETATM   21  O   UNL     1      -6.902   6.162  69.514  1.00  0.00    -0.060 OA 
HETATM   22  C   UNL     1      -7.098   6.765  70.565  1.00  0.00    -0.068 C  
HETATM   23  H   UNL     1      -8.427   7.429  71.998  1.00  0.00     0.000 HD 
BRANCH  22  24
HETATM   24  C   UNL     1      -5.963   7.299  71.416  1.00  0.00    -0.036 C  
BRANCH  24  25
HETATM   25  C   UNL     1      -5.626   8.709  71.049  1.00  0.00    -0.033 A  
HETATM   26  C   UNL     1      -5.567   9.817  71.873  1.00  0.00     0.027 A  
HETATM   27  C   UNL     1      -5.339  11.022  71.146  1.00  0.00    -0.067 A  
HETATM   28  C   UNL     1      -5.198  10.791  69.796  1.00  0.00    -0.039 A  
HETATM   29  S   UNL     1      -5.328   9.130  69.413  1.00  0.00    -0.035 SA 
ENDBRANCH  24  25
ENDBRANCH  22  24
ENDBRANCH  12  20
BRANCH  12  30
HETATM   30  O   UNL     1      -9.796   5.129  70.334  1.00  0.00    -0.183 OA 
HETATM   31  C   UNL     1      -9.827   4.461  71.591  1.00  0.00    -0.185 C  
ENDBRANCH  12  30
TORSDOF 7
ENDMDL
MODEL      157
REMARK 921   NORMALIZED FREE ENERGY PREDICTED BY IDOCK:   -3.34 KCAL/MOL
REMARK 922        TOTAL FREE ENERGY PREDICTED BY IDOCK:   -5.39 KCAL/MOL
REMARK 923 INTER-LIGAND FREE ENERGY PREDICTED BY IDOCK:   -4.35 KCAL/MOL
REMARK 924 INTRA-LIGAND FREE ENERGY PREDICTED BY IDOCK:   -1.03 KCAL/MOL
REMARK 927      BINDING AFFINITY PREDICTED BY RF-SCORE:    0.00 PKD
ROOT
HETATM    1  C   UNL     1      -7.784   8.987  70.665  1.00  0.00    -0.121 C  
HETATM    2  S   UNL     1      -9.546   9.334  70.845  1.00  0.00    -0.241 SA 
HETATM    3  C   UNL     1     -10.012   7.595  70.764  1.00  0.00    -0.181 C  
HETATM    4  C   UNL     1      -9.370   6.802  69.638  1.00  0.00    -0.144 C  
HETATM    5  C   UNL     1      -8.211   7.158  69.008  1.00  0.00    -0.125 C  
HETATM    6  O   UNL     1      -5.575   8.739  68.284  1.00  0.00    -0.037 OA 
HETATM    7  O   UNL     1      -6.523   6.646  67.294  1.00  0.00    -0.042 OA 
HETATM    8  C   UNL     1      -7.737   6.364  67.799  1.00  0.00    -0.103 C  
HETATM    9  N   UNL     1      -7.544   8.284  69.414  1.00  0.00    -0.094 N  
HETATM   10  C   UNL     1      -6.454   9.005  69.070  1.00  0.00    -0.047 C  
HETATM   11  O   UNL     1      -8.391   5.464  67.290  1.00  0.00    -0.108 OA 
HETATM   12  C   UNL     1      -6.900  10.181  70.083  1.00  0.00    -0.146 C  
ENDROOT
BRANCH   4  13
HETATM   13  C   UNL     1     -10.227   5.594  69.252  1.00  0.00    -0.239 C  
BRANCH  13  14
HETATM   14  O   UNL     1     -10.372   4.699  70.375  1.00  0.00    -0.195 OA 
BRANCH  14  15
HETATM   15  C   UNL     1      -9.403   3.771  70.530  1.00  0.00    -0.158 C  
HETATM   16  O   UNL     1      -8.914   3.066  69.663  1.00  0.00    -0.078 OA 
HETATM   17  N   UNL     1      -9.052   3.692  71.832  1.00  0.00    -0.105 N  
HETATM   18  H2  UNL     1      -9.457   4.249  72.585  1.00  0.00     0.000 HD 
HETATM   19  H1  UNL     1      -8.319   2.991  71.950  1.00  0.00     0.000 HD 
ENDBRANCH  14  15
ENDBRANCH  13  14
ENDBRANCH   4  13
BRANCH  12  20
HETATM   20  N   UNL     1      -7.708  11.312  69.519  1.00  0.00    -0.367 N  
HETATM   21  O   UNL     1      -6.101  12.135  68.111  1.00  0.00    -0.050 OA 
HETATM   22  C   UNL     1      -7.247  12.172  68.549  1.00  0.00    -0.102 C  
HETATM   23  H   UNL     1      -8.654  11.451  69.876  1.00  0.00     0.000 HD 
BRANCH  22  24
HETATM   24  C   UNL     1      -8.254  13.209  68.095  1.00  0.00    -0.160 C  
BRANCH  24  25
HETATM   25  C   UNL     1      -9.642  12.652  68.089  1.00  0.00    -0.219 A  
HETATM   26  C   UNL     1     -10.767  13.148  68.721  1.00  0.00    -0.253 A  
HETATM   27  C   UNL     1     -11.887  12.277  68.596  1.00  0.00    -0.354 A  
HETATM   28  C   UNL     1     -11.593  11.162  67.844  1.00  0.00    -0.251 A  
HETATM   29  S   UNL     1      -9.978  11.175  67.284  1.00  0.00    -0.187 SA 
ENDBRANCH  24  25
ENDBRANCH  22  24
ENDBRANCH  12  20
BRANCH  12  30
HETATM   30  O   UNL     1      -5.848  10.634  70.980  1.00  0.00    -0.254 OA 
HETATM   31  C   UNL     1      -5.492   9.725  72.016  1.00  0.00     0.008 C  
ENDBRANCH  12  30
TORSDOF 7
ENDMDL
MODEL      158
REMARK 921   NORMALIZED FREE ENERGY PREDICTED BY IDOCK:   -3.28 KCAL/MOL
REMARK 922        TOTAL FREE ENERGY PREDICTED BY IDOCK:   -5.31 KCAL/MOL
REMARK 923 INTER-LIGAND FREE ENERGY PREDICTED BY IDOCK:   -4.88 KCAL/MOL
REMARK 924 INTRA-LIGAND FREE ENERGY PREDICTED BY IDOCK:   -0.42 KCAL/MOL
REMARK 927      BINDING AFFINITY PREDICTED BY RF-SCORE:    0.00 PKD
ROOT
HETATM    1  C   UNL     1      -8.462  11.841  67.787  1.00  0.00    -0.147 C  
HETATM    2  S   UNL     1      -9.625  12.537  66.595  1.00  0.00    -0.242 SA 
HETATM    3  C   UNL     1     -10.719  13.185  67.871  1.00  0.00    -0.235 C  
HETATM    4  C   UNL     1     -11.061  12.214  68.989  1.00  0.00    -0.290 C  
HETATM    5  C   UNL     1     -10.307  11.125  69.322  1.00  0.00    -0.120 C  
HETATM    6  O   UNL     1      -7.949   9.024  69.341  1.00  0.00    -0.094 OA 
HETATM    7  O   UNL     1      -9.994   9.167  70.776  1.00  0.00    -0.225 OA 
HETATM    8  C   UNL     1     -10.821  10.144  70.365  1.00  0.00    -0.301 C  
HETATM    9  N   UNL     1      -9.144  10.880  68.640  1.00  0.00    -0.169 N  
HETATM   10  C   UNL     1      -8.164   9.951  68.595  1.00  0.00    -0.108 C  
HETATM   11  O   UNL     1     -11.934  10.222  70.869  1.00  0.00    -0.315 OA 
HETATM   12  C   UNL     1      -7.568  10.631  67.256  1.00  0.00    -0.100 C  
ENDROOT
BRANCH   4  13
HETATM   13  C   UNL     1     -12.398  12.572  69.645  1.00  0.00     0.027 C  
BRANCH  13  14
HETATM   14  O   UNL     1     -12.178  13.289  70.878  1.00  0.00    -0.356 OA 
BRANCH  14  15
HETATM   15  C   UNL     1     -12.000  14.624  70.772  1.00  0.00    -0.317 C  
HETATM   16  O   UNL     1     -11.058  15.276  71.189  1.00  0.00    -0.340 OA 
HETATM   17  N   UNL     1     -13.063  15.177  70.148  1.00  0.00    -0.643 N  
HETATM   18  H2  UNL     1     -13.877  14.664  69.808  1.00  0.00     0.000 HD 
HETATM   19  H1  UNL     1     -12.929  16.185  70.067  1.00  0.00     0.000 HD 
ENDBRANCH  14  15
ENDBRANCH  13  14
ENDBRANCH   4  13
BRANCH  12  20
HETATM   20  N   UNL     1      -8.022  10.078  65.938  1.00  0.00    -0.119 N  
HETATM   21  O   UNL     1      -6.440   8.431  65.760  1.00  0.00    -0.052 OA 
HETATM   22  C   UNL     1      -7.437   8.996  65.320  1.00  0.00    -0.093 C  
HETATM   23  H   UNL     1      -8.810  10.529  65.473  1.00  0.00     0.000 HD 
BRANCH  22  24
HETATM   24  C   UNL     1      -8.093   8.582  64.018  1.00  0.00    -0.156 C  
BRANCH  24  25
HETATM   25  C   UNL     1      -7.723   7.181  63.645  1.00  0.00    -0.119 A  
HETATM   26  C   UNL     1      -7.120   6.735  62.484  1.00  0.00    -0.050 A  
HETATM   27  C   UNL     1      -7.040   5.314  62.426  1.00  0.00    -0.037 A  
HETATM   28  C   UNL     1      -7.552   4.722  63.558  1.00  0.00    -0.060 A  
HETATM   29  S   UNL     1      -8.114   5.876  64.687  1.00  0.00    -0.120 SA 
ENDBRANCH  24  25
ENDBRANCH  22  24
ENDBRANCH  12  20
BRANCH  12  30
HETATM   30  O   UNL     1      -6.137  10.886  67.296  1.00  0.00    -0.056 OA 
HETATM   31  C   UNL     1      -5.682  11.661  68.400  1.00  0.00    -0.045 C  
ENDBRANCH  12  30
TORSDOF 7
ENDMDL
MODEL      159
REMARK 921   NORMALIZED FREE ENERGY PREDICTED BY IDOCK:   -3.20 KCAL/MOL
REMARK 922        TOTAL FREE ENERGY PREDICTED BY IDOCK:   -5.19 KCAL/MOL
REMARK 923 INTER-LIGAND FREE ENERGY PREDICTED BY IDOCK:   -4.90 KCAL/MOL
REMARK 924 INTRA-LIGAND FREE ENERGY PREDICTED BY IDOCK:   -0.29 KCAL/MOL
REMARK 927      BINDING AFFINITY PREDICTED BY RF-SCORE:    0.00 PKD
ROOT
HETATM    1  C   UNL     1      -8.278   8.659  68.898  1.00  0.00    -0.123 C  
HETATM    2  S   UNL     1      -9.782   9.323  69.643  1.00  0.00    -0.194 SA 
HETATM    3  C   UNL     1     -10.075   7.849  70.637  1.00  0.00    -0.194 C  
HETATM    4  C   UNL     1      -9.956   6.530  69.893  1.00  0.00    -0.191 C  
HETATM    5  C   UNL     1      -9.256   6.359  68.733  1.00  0.00    -0.127 C  
HETATM    6  O   UNL     1      -7.404   6.975  66.249  1.00  0.00    -0.073 OA 
HETATM    7  O   UNL     1      -8.510   4.841  66.947  1.00  0.00    -0.107 OA 
HETATM    8  C   UNL     1      -9.323   5.026  68.002  1.00  0.00    -0.125 C  
HETATM    9  N   UNL     1      -8.581   7.422  68.194  1.00  0.00    -0.123 N  
HETATM   10  C   UNL     1      -7.842   7.714  67.100  1.00  0.00    -0.117 C  
HETATM   11  O   UNL     1     -10.055   4.108  68.347  1.00  0.00     0.009 OA 
HETATM   12  C   UNL     1      -7.873   9.282  67.486  1.00  0.00    -0.096 C  
ENDROOT
BRANCH   4  13
HETATM   13  C   UNL     1     -10.783   5.434  70.572  1.00  0.00    -0.196 C  
BRANCH  13  14
HETATM   14  O   UNL     1     -10.001   4.768  71.587  1.00  0.00    -0.175 OA 
BRANCH  14  15
HETATM   15  C   UNL     1     -10.343   5.024  72.869  1.00  0.00    -0.193 C  
HETATM   16  O   UNL     1     -11.450   4.922  73.369  1.00  0.00    -0.336 OA 
HETATM   17  N   UNL     1      -9.261   5.460  73.550  1.00  0.00    -0.131 N  
HETATM   18  H2  UNL     1      -8.327   5.579  73.157  1.00  0.00     0.000 HD 
HETATM   19  H1  UNL     1      -9.519   5.652  74.519  1.00  0.00     0.000 HD 
ENDBRANCH  14  15
ENDBRANCH  13  14
ENDBRANCH   4  13
BRANCH  12  20
HETATM   20  N   UNL     1      -8.948  10.126  66.867  1.00  0.00    -0.132 N  
HETATM   21  O   UNL     1      -8.790   9.278  64.746  1.00  0.00    -0.191 OA 
HETATM   22  C   UNL     1      -9.340  10.023  65.552  1.00  0.00    -0.216 C  
HETATM   23  H   UNL     1      -9.415  10.816  67.455  1.00  0.00     0.000 HD 
BRANCH  22  24
HETATM   24  C   UNL     1     -10.479  10.941  65.158  1.00  0.00    -0.316 C  
BRANCH  24  25
HETATM   25  C   UNL     1     -10.593  12.098  66.100  1.00  0.00    -0.255 A  
HETATM   26  C   UNL     1      -9.913  13.301  66.065  1.00  0.00    -0.297 A  
HETATM   27  C   UNL     1     -10.187  14.113  67.204  1.00  0.00    -0.258 A  
HETATM   28  C   UNL     1     -11.094  13.519  68.053  1.00  0.00    -0.258 A  
HETATM   29  S   UNL     1     -11.617  11.999  67.471  1.00  0.00    -0.304 SA 
ENDBRANCH  24  25
ENDBRANCH  22  24
ENDBRANCH  12  20
BRANCH  12  30
HETATM   30  O   UNL     1      -6.572   9.932  67.474  1.00  0.00    -0.067 OA 
HETATM   31  C   UNL     1      -6.556  11.265  66.975  1.00  0.00    -0.116 C  
ENDBRANCH  12  30
TORSDOF 7
ENDMDL
MODEL      160
REMARK 921   NORMALIZED FREE ENERGY PREDICTED BY IDOCK:   -3.11 KCAL/MOL
REMARK 922        TOTAL FREE ENERGY PREDICTED BY IDOCK:   -5.06 KCAL/MOL
REMARK 923 INTER-LIGAND FREE ENERGY PREDICTED BY IDOCK:   -5.21 KCAL/MOL
REMARK 924 INTRA-LIGAND FREE ENERGY PREDICTED BY IDOCK:    0.14 KCAL/MOL
REMARK 927      BINDING AFFINITY PREDICTED BY RF-SCORE:    0.00 PKD
ROOT
HETATM    1  C   UNL     1      -9.799  11.553  69.261  1.00  0.00     0.236 C  
HETATM    2  S   UNL     1     -11.576  11.481  68.950  1.00  0.00    -0.350 SA 
HETATM    3  C   UNL     1     -11.864  10.247  70.230  1.00  0.00    -0.288 C  
HETATM    4  C   UNL     1     -10.909   9.065  70.221  1.00  0.00    -0.269 C  
HETATM    5  C   UNL     1      -9.666   9.083  69.653  1.00  0.00    -0.172 C  
HETATM    6  O   UNL     1      -7.073  10.130  68.185  1.00  0.00    -0.077 OA 
HETATM    7  O   UNL     1      -7.582   7.878  69.150  1.00  0.00    -0.094 OA 
HETATM    8  C   UNL     1      -8.854   7.798  69.579  1.00  0.00    -0.139 C  
HETATM    9  N   UNL     1      -9.211  10.236  69.070  1.00  0.00    -0.174 N  
HETATM   10  C   UNL     1      -8.133  10.676  68.383  1.00  0.00    -0.123 C  
HETATM   11  O   UNL     1      -9.291   6.708  69.922  1.00  0.00    -0.152 OA 
HETATM   12  C   UNL     1      -8.903  12.054  68.039  1.00  0.00    -0.179 C  
ENDROOT
BRANCH   4  13
HETATM   13  C   UNL     1     -11.546   7.831  70.864  1.00  0.00    -0.274 C  
BRANCH  13  14
HETATM   14  O   UNL     1     -12.954   7.768  70.549  1.00  0.00     0.298 OA 
BRANCH  14  15
HETATM   15  C   UNL     1     -13.803   7.764  71.599  1.00  0.00    -0.383 C  
HETATM   16  O   UNL     1     -14.218   8.732  72.213  1.00  0.00    -0.449 OA 
HETATM   17  N   UNL     1     -14.124   6.492  71.920  1.00  0.00    -0.266 N  
HETATM   18  H2  UNL     1     -13.778   5.660  71.442  1.00  0.00     0.000 HD 
HETATM   19  H1  UNL     1     -14.766   6.488  72.713  1.00  0.00     0.000 HD 
ENDBRANCH  14  15
ENDBRANCH  13  14
ENDBRANCH   4  13
BRANCH  12  20
HETATM   20  N   UNL     1      -9.644  12.126  66.736  1.00  0.00    -0.206 N  
HETATM   21  O   UNL     1      -8.106  10.996  65.471  1.00  0.00    -0.083 OA 
HETATM   22  C   UNL     1      -9.194  11.555  65.567  1.00  0.00    -0.142 C  
HETATM   23  H   UNL     1     -10.532  12.628  66.716  1.00  0.00     0.000 HD 
BRANCH  22  24
HETATM   24  C   UNL     1     -10.131  11.712  64.387  1.00  0.00    -0.322 C  
BRANCH  24  25
HETATM   25  C   UNL     1     -10.721  13.086  64.341  1.00  0.00    -0.394 A  
HETATM   26  C   UNL     1     -10.140  14.281  64.725  1.00  0.00    -0.168 A  
HETATM   27  C   UNL     1     -11.053  15.373  64.660  1.00  0.00    -0.361 A  
HETATM   28  C   UNL     1     -12.290  14.984  64.196  1.00  0.00    -0.142 A  
HETATM   29  S   UNL     1     -12.342  13.315  63.832  1.00  0.00    -0.306 SA 
ENDBRANCH  24  25
ENDBRANCH  22  24
ENDBRANCH  12  20
BRANCH  12  30
HETATM   30  O   UNL     1      -8.137  13.258  68.317  1.00  0.00    -0.145 OA 
HETATM   31  C   UNL     1      -7.045  13.508  67.439  1.00  0.00    -0.083 C  
ENDBRANCH  12  30
TORSDOF 7
ENDMDL
MODEL      161
REMARK 921   NORMALIZED FREE ENERGY PREDICTED BY IDOCK:   -3.08 KCAL/MOL
REMARK 922        TOTAL FREE ENERGY PREDICTED BY IDOCK:   -5.02 KCAL/MOL
REMARK 923 INTER-LIGAND FREE ENERGY PREDICTED BY IDOCK:   -4.54 KCAL/MOL
REMARK 924 INTRA-LIGAND FREE ENERGY PREDICTED BY IDOCK:   -0.48 KCAL/MOL
REMARK 927      BINDING AFFINITY PREDICTED BY RF-SCORE:    0.00 PKD
ROOT
HETATM    1  C   UNL     1     -11.350   8.004  70.542  1.00  0.00    -0.225 C  
HETATM    2  S   UNL     1     -10.417   9.356  71.290  1.00  0.00    -0.258 SA 
HETATM    3  C   UNL     1     -10.982  10.565  70.080  1.00  0.00    -0.270 C  
HETATM    4  C   UNL     1     -10.902  10.121  68.630  1.00  0.00    -0.272 C  
HETATM    5  C   UNL     1     -10.865   8.817  68.223  1.00  0.00     0.032 C  
HETATM    6  O   UNL     1     -10.902   5.661  68.323  1.00  0.00    -0.203 OA 
HETATM    7  O   UNL     1     -10.757   7.211  66.364  1.00  0.00     0.020 OA 
HETATM    8  C   UNL     1     -10.641   8.493  66.753  1.00  0.00    -0.157 C  
HETATM    9  N   UNL     1     -10.933   7.820  69.160  1.00  0.00    -0.038 N  
HETATM   10  C   UNL     1     -10.883   6.471  69.220  1.00  0.00    -0.307 C  
HETATM   11  O   UNL     1     -10.394   9.343  65.909  1.00  0.00    -0.191 OA 
HETATM   12  C   UNL     1     -10.795   6.536  70.832  1.00  0.00    -0.253 C  
ENDROOT
BRANCH   4  13
HETATM   13  C   UNL     1     -10.792  11.322  67.687  1.00  0.00    -0.238 C  
BRANCH  13  14
HETATM   14  O   UNL     1     -10.305  12.480  68.400  1.00  0.00    -0.223 OA 
BRANCH  14  15
HETATM   15  C   UNL     1     -11.099  13.573  68.381  1.00  0.00    -0.271 C  
HETATM   16  O   UNL     1     -11.771  13.977  67.447  1.00  0.00    -0.345 OA 
HETATM   17  N   UNL     1     -11.024  14.211  69.569  1.00  0.00    -0.410 N  
HETATM   18  H2  UNL     1     -10.455  13.913  70.361  1.00  0.00     0.000 HD 
HETATM   19  H1  UNL     1     -11.624  15.036  69.555  1.00  0.00     0.000 HD 
ENDBRANCH  14  15
ENDBRANCH  13  14
ENDBRANCH   4  13
BRANCH  12  20
HETATM   20  N   UNL     1      -9.429   6.519  71.452  1.00  0.00    -0.158 N  
HETATM   21  O   UNL     1      -8.667   4.628  70.409  1.00  0.00    -0.087 OA 
HETATM   22  C   UNL     1      -8.467   5.581  71.156  1.00  0.00    -0.126 C  
HETATM   23  H   UNL     1      -9.201   7.243  72.133  1.00  0.00     0.000 HD 
BRANCH  22  24
HETATM   24  C   UNL     1      -7.144   5.788  71.865  1.00  0.00    -0.082 C  
BRANCH  24  25
HETATM   25  C   UNL     1      -6.843   4.655  72.794  1.00  0.00    -0.065 A  
HETATM   26  C   UNL     1      -5.778   3.775  72.755  1.00  0.00    -0.004 A  
HETATM   27  C   UNL     1      -5.891   2.741  73.729  1.00  0.00     0.000 A  
HETATM   28  C   UNL     1      -7.020   2.885  74.504  1.00  0.00    -0.040 A  
HETATM   29  S   UNL     1      -7.928   4.265  74.063  1.00  0.00    -0.093 SA 
ENDBRANCH  24  25
ENDBRANCH  22  24
ENDBRANCH  12  20
BRANCH  12  30
HETATM   30  O   UNL     1     -11.737   5.670  71.523  1.00  0.00     0.000 OA 
HETATM   31  C   UNL     1     -11.333   5.231  72.816  1.00  0.00    -0.276 C  
ENDBRANCH  12  30
TORSDOF 7
ENDMDL
MODEL      162
REMARK 921   NORMALIZED FREE ENERGY PREDICTED BY IDOCK:   -2.87 KCAL/MOL
REMARK 922        TOTAL FREE ENERGY PREDICTED BY IDOCK:   -4.72 KCAL/MOL
REMARK 923 INTER-LIGAND FREE ENERGY PREDICTED BY IDOCK:   -4.02 KCAL/MOL
REMARK 924 INTRA-LIGAND FREE ENERGY PREDICTED BY IDOCK:   -0.70 KCAL/MOL
REMARK 927      BINDING AFFINITY PREDICTED BY RF-SCORE:    0.00 PKD
ROOT
HETATM    1  C   UNL     1      -7.451   7.540  72.614  1.00  0.00    -0.080 C  
HETATM    2  S   UNL     1      -8.984   8.412  73.001  1.00  0.00    -0.081 SA 
HETATM    3  C   UNL     1      -9.853   6.905  73.471  1.00  0.00    -0.242 C  
HETATM    4  C   UNL     1      -9.707   5.741  72.505  1.00  0.00    -0.175 C  
HETATM    5  C   UNL     1      -8.685   5.606  71.609  1.00  0.00    -0.136 C  
HETATM    6  O   UNL     1      -6.005   6.170  70.036  1.00  0.00    -0.023 OA 
HETATM    7  O   UNL     1      -7.631   4.279  69.827  1.00  0.00    -0.053 OA 
HETATM    8  C   UNL     1      -8.718   4.473  70.594  1.00  0.00    -0.095 C  
HETATM    9  N   UNL     1      -7.694   6.551  71.575  1.00  0.00    -0.098 N  
HETATM   10  C   UNL     1      -6.580   6.837  70.864  1.00  0.00    -0.053 C  
HETATM   11  O   UNL     1      -9.669   3.714  70.468  1.00  0.00    -0.186 OA 
HETATM   12  C   UNL     1      -6.477   8.278  71.587  1.00  0.00    -0.055 C  
ENDROOT
BRANCH   4  13
HETATM   13  C   UNL     1     -10.893   4.779  72.614  1.00  0.00    -0.175 C  
BRANCH  13  14
HETATM   14  O   UNL     1     -12.135   5.513  72.669  1.00  0.00    -0.199 OA 
BRANCH  14  15
HETATM   15  C   UNL     1     -12.415   6.299  71.606  1.00  0.00     0.058 C  
HETATM   16  O   UNL     1     -11.857   6.294  70.522  1.00  0.00    -0.319 OA 
HETATM   17  N   UNL     1     -13.412   7.153  71.921  1.00  0.00    -0.547 N  
HETATM   18  H2  UNL     1     -13.883   7.199  72.825  1.00  0.00     0.000 HD 
HETATM   19  H1  UNL     1     -13.624   7.747  71.119  1.00  0.00     0.000 HD 
ENDBRANCH  14  15
ENDBRANCH  13  14
ENDBRANCH   4  13
BRANCH  12  20
HETATM   20  N   UNL     1      -7.107   9.448  70.891  1.00  0.00    -0.110 N  
HETATM   21  O   UNL     1      -5.810   9.389  69.004  1.00  0.00    -0.039 OA 
HETATM   22  C   UNL     1      -6.740   9.881  69.637  1.00  0.00    -0.061 C  
HETATM   23  H   UNL     1      -7.849   9.953  71.376  1.00  0.00     0.000 HD 
BRANCH  22  24
HETATM   24  C   UNL     1      -7.546  11.051  69.112  1.00  0.00    -0.113 C  
BRANCH  24  25
HETATM   25  C   UNL     1      -8.837  10.594  68.509  1.00  0.00    -0.148 A  
HETATM   26  C   UNL     1      -9.125   9.375  67.924  1.00  0.00    -0.136 A  
HETATM   27  C   UNL     1     -10.426   9.347  67.342  1.00  0.00    -0.343 A  
HETATM   28  C   UNL     1     -11.101  10.531  67.532  1.00  0.00    -0.290 A  
HETATM   29  S   UNL     1     -10.175  11.663  68.416  1.00  0.00    -0.211 SA 
ENDBRANCH  24  25
ENDBRANCH  22  24
ENDBRANCH  12  20
BRANCH  12  30
HETATM   30  O   UNL     1      -5.164   8.587  72.130  1.00  0.00    -0.035 OA 
HETATM   31  C   UNL     1      -5.139   8.947  73.507  1.00  0.00    -0.077 C  
ENDBRANCH  12  30
TORSDOF 7
ENDMDL
MODEL      163
REMARK 921   NORMALIZED FREE ENERGY PREDICTED BY IDOCK:   -2.81 KCAL/MOL
REMARK 922        TOTAL FREE ENERGY PREDICTED BY IDOCK:   -4.63 KCAL/MOL
REMARK 923 INTER-LIGAND FREE ENERGY PREDICTED BY IDOCK:   -4.05 KCAL/MOL
REMARK 924 INTRA-LIGAND FREE ENERGY PREDICTED BY IDOCK:   -0.58 KCAL/MOL
REMARK 927      BINDING AFFINITY PREDICTED BY RF-SCORE:    0.00 PKD
ROOT
HETATM    1  C   UNL     1     -10.853   6.396  71.343  1.00  0.00    -0.253 C  
HETATM    2  S   UNL     1     -10.515   7.811  72.411  1.00  0.00    -0.290 SA 
HETATM    3  C   UNL     1     -11.483   8.947  71.400  1.00  0.00    -0.311 C  
HETATM    4  C   UNL     1     -11.219   8.874  69.906  1.00  0.00    -0.076 C  
HETATM    5  C   UNL     1     -10.682   7.791  69.270  1.00  0.00    -0.147 C  
HETATM    6  O   UNL     1      -9.514   4.898  68.778  1.00  0.00    -0.127 OA 
HETATM    7  O   UNL     1      -9.944   6.760  67.163  1.00  0.00    -0.144 OA 
HETATM    8  C   UNL     1     -10.331   7.883  67.792  1.00  0.00    -0.226 C  
HETATM    9  N   UNL     1     -10.378   6.669  69.995  1.00  0.00    -0.193 N  
HETATM   10  C   UNL     1      -9.818   5.453  69.808  1.00  0.00    -0.201 C  
HETATM   11  O   UNL     1     -10.416   8.919  67.146  1.00  0.00    -0.275 OA 
HETATM   12  C   UNL     1      -9.784   5.213  71.405  1.00  0.00    -0.168 C  
ENDROOT
BRANCH   4  13
HETATM   13  C   UNL     1     -11.563  10.197  69.217  1.00  0.00    -0.055 C  
BRANCH  13  14
HETATM   14  O   UNL     1     -10.805  11.280  69.798  1.00  0.00    -0.169 OA 
BRANCH  14  15
HETATM   15  C   UNL     1     -11.300  12.523  69.614  1.00  0.00    -0.112 C  
HETATM   16  O   UNL     1     -11.023  13.300  68.716  1.00  0.00    -0.249 OA 
HETATM   17  N   UNL     1     -12.154  12.827  70.616  1.00  0.00    -0.509 N  
HETATM   18  H2  UNL     1     -12.390  12.211  71.394  1.00  0.00     0.000 HD 
HETATM   19  H1  UNL     1     -12.528  13.766  70.477  1.00  0.00     0.000 HD 
ENDBRANCH  14  15
ENDBRANCH  13  14
ENDBRANCH   4  13
BRANCH  12  20
HETATM   20  N   UNL     1      -8.523   5.575  72.133  1.00  0.00    -0.125 N  
HETATM   21  O   UNL     1      -7.074   4.426  70.782  1.00  0.00    -0.036 OA 
HETATM   22  C   UNL     1      -7.268   5.177  71.733  1.00  0.00    -0.079 C  
HETATM   23  H   UNL     1      -8.601   6.149  72.973  1.00  0.00     0.000 HD 
BRANCH  22  24
HETATM   24  C   UNL     1      -6.135   5.703  72.592  1.00  0.00    -0.040 C  
BRANCH  24  25
HETATM   25  C   UNL     1      -5.848   7.140  72.293  1.00  0.00    -0.037 A  
HETATM   26  C   UNL     1      -6.062   8.242  73.099  1.00  0.00    -0.084 A  
HETATM   27  C   UNL     1      -5.787   9.468  72.426  1.00  0.00     0.161 A  
HETATM   28  C   UNL     1      -5.338   9.261  71.141  1.00  0.00    -0.043 A  
HETATM   29  S   UNL     1      -5.240   7.599  70.756  1.00  0.00    -0.023 SA 
ENDBRANCH  24  25
ENDBRANCH  22  24
ENDBRANCH  12  20
BRANCH  12  30
HETATM   30  O   UNL     1     -10.333   3.936  71.834  1.00  0.00    -0.121 OA 
HETATM   31  C   UNL     1      -9.550   3.218  72.781  1.00  0.00    -0.118 C  
ENDBRANCH  12  30
TORSDOF 7
ENDMDL
MODEL      164
REMARK 921   NORMALIZED FREE ENERGY PREDICTED BY IDOCK:   -2.72 KCAL/MOL
REMARK 922        TOTAL FREE ENERGY PREDICTED BY IDOCK:   -4.51 KCAL/MOL
REMARK 923 INTER-LIGAND FREE ENERGY PREDICTED BY IDOCK:   -4.90 KCAL/MOL
REMARK 924 INTRA-LIGAND FREE ENERGY PREDICTED BY IDOCK:    0.39 KCAL/MOL
REMARK 927      BINDING AFFINITY PREDICTED BY RF-SCORE:    0.00 PKD
ROOT
HETATM    1  C   UNL     1     -10.807   9.622  68.915  1.00  0.00    -0.174 C  
HETATM    2  S   UNL     1     -11.295  10.017  70.608  1.00  0.00    -0.367 SA 
HETATM    3  C   UNL     1     -12.415  11.333  70.098  1.00  0.00    -0.221 C  
HETATM    4  C   UNL     1     -11.850  12.310  69.082  1.00  0.00    -0.355 C  
HETATM    5  C   UNL     1     -10.804  12.036  68.246  1.00  0.00    -0.229 C  
HETATM    6  O   UNL     1      -8.491  10.460  66.783  1.00  0.00    -0.123 OA 
HETATM    7  O   UNL     1      -9.305  12.804  66.455  1.00  0.00    -0.241 OA 
HETATM    8  C   UNL     1     -10.231  13.140  67.369  1.00  0.00    -0.232 C  
HETATM    9  N   UNL     1     -10.224  10.796  68.283  1.00  0.00    -0.161 N  
HETATM   10  C   UNL     1      -9.194  10.133  67.710  1.00  0.00    -0.137 C  
HETATM   11  O   UNL     1     -10.597  14.306  67.434  1.00  0.00    -0.272 OA 
HETATM   12  C   UNL     1      -9.387   8.914  68.752  1.00  0.00    -0.137 C  
ENDROOT
BRANCH   4  13
HETATM   13  C   UNL     1     -12.554  13.667  69.166  1.00  0.00     0.379 C  
BRANCH  13  14
HETATM   14  O   UNL     1     -12.172  14.359  70.375  1.00  0.00    -0.295 OA 
BRANCH  14  15
HETATM   15  C   UNL     1     -13.160  14.607  71.261  1.00  0.00    -0.359 C  
HETATM   16  O   UNL     1     -14.182  15.243  71.065  1.00  0.00    -0.381 OA 
HETATM   17  N   UNL     1     -12.845  14.065  72.458  1.00  0.00    -0.344 N  
HETATM   18  H2  UNL     1     -11.989  13.548  72.662  1.00  0.00     0.000 HD 
HETATM   19  H1  UNL     1     -13.591  14.252  73.128  1.00  0.00     0.000 HD 
ENDBRANCH  14  15
ENDBRANCH  13  14
ENDBRANCH   4  13
BRANCH  12  20
HETATM   20  N   UNL     1      -8.556   8.932  70.000  1.00  0.00    -0.132 N  
HETATM   21  O   UNL     1      -9.515   7.112  71.007  1.00  0.00    -0.159 OA 
HETATM   22  C   UNL     1      -8.669   8.001  71.008  1.00  0.00    -0.135 C  
HETATM   23  H   UNL     1      -7.868   9.677  70.109  1.00  0.00     0.000 HD 
BRANCH  22  24
HETATM   24  C   UNL     1      -7.693   8.187  72.152  1.00  0.00    -0.149 C  
BRANCH  24  25
HETATM   25  C   UNL     1      -7.260   6.871  72.716  1.00  0.00    -0.074 A  
HETATM   26  C   UNL     1      -8.013   5.952  73.422  1.00  0.00    -0.108 A  
HETATM   27  C   UNL     1      -7.227   4.869  73.913  1.00  0.00    -0.082 A  
HETATM   28  C   UNL     1      -5.907   4.978  73.537  1.00  0.00    -0.022 A  
HETATM   29  S   UNL     1      -5.624   6.372  72.588  1.00  0.00    -0.038 SA 
ENDBRANCH  24  25
ENDBRANCH  22  24
ENDBRANCH  12  20
BRANCH  12  30
HETATM   30  O   UNL     1      -9.446   7.598  68.135  1.00  0.00    -0.144 OA 
HETATM   31  C   UNL     1     -10.650   6.870  68.356  1.00  0.00    -0.210 C  
ENDBRANCH  12  30
TORSDOF 7
ENDMDL
MODEL      165
REMARK 921   NORMALIZED FREE ENERGY PREDICTED BY IDOCK:   -2.68 KCAL/MOL
REMARK 922        TOTAL FREE ENERGY PREDICTED BY IDOCK:   -4.45 KCAL/MOL
REMARK 923 INTER-LIGAND FREE ENERGY PREDICTED BY IDOCK:   -3.95 KCAL/MOL
REMARK 924 INTRA-LIGAND FREE ENERGY PREDICTED BY IDOCK:   -0.50 KCAL/MOL
REMARK 927      BINDING AFFINITY PREDICTED BY RF-SCORE:    0.00 PKD
ROOT
HETATM    1  C   UNL     1      -7.251   7.487  70.462  1.00  0.00    -0.064 C  
HETATM    2  S   UNL     1      -7.008   7.767  68.695  1.00  0.00    -0.069 SA 
HETATM    3  C   UNL     1      -7.375   9.527  68.810  1.00  0.00    -0.074 C  
HETATM    4  C   UNL     1      -8.619   9.882  69.607  1.00  0.00    -0.207 C  
HETATM    5  C   UNL     1      -9.186   9.074  70.551  1.00  0.00    -0.220 C  
HETATM    6  O   UNL     1      -9.650   6.625  72.490  1.00  0.00    -0.155 OA 
HETATM    7  O   UNL     1     -10.968   8.734  72.211  1.00  0.00    -0.359 OA 
HETATM    8  C   UNL     1     -10.512   9.472  71.184  1.00  0.00    -0.288 C  
HETATM    9  N   UNL     1      -8.603   7.869  70.842  1.00  0.00    -0.126 N  
HETATM   10  C   UNL     1      -8.828   6.787  71.620  1.00  0.00    -0.129 C  
HETATM   11  O   UNL     1     -11.160  10.445  70.826  1.00  0.00    -0.304 OA 
HETATM   12  C   UNL     1      -7.631   5.994  70.879  1.00  0.00    -0.096 C  
ENDROOT
BRANCH   4  13
HETATM   13  C   UNL     1      -9.196  11.229  69.163  1.00  0.00     0.114 C  
BRANCH  13  14
HETATM   14  O   UNL     1      -8.350  11.836  68.163  1.00  0.00    -0.141 OA 
BRANCH  14  15
HETATM   15  C   UNL     1      -8.288  13.185  68.170  1.00  0.00    -0.161 C  
HETATM   16  O   UNL     1      -8.524  13.936  67.239  1.00  0.00    -0.190 OA 
HETATM   17  N   UNL     1      -7.880  13.617  69.383  1.00  0.00    -0.216 N  
HETATM   18  H2  UNL     1      -7.652  13.015  70.175  1.00  0.00     0.000 HD 
HETATM   19  H1  UNL     1      -7.834  14.636  69.388  1.00  0.00     0.000 HD 
ENDBRANCH  14  15
ENDBRANCH  13  14
ENDBRANCH   4  13
BRANCH  12  20
HETATM   20  N   UNL     1      -7.997   5.117  69.718  1.00  0.00    -0.077 N  
HETATM   21  O   UNL     1      -9.809   4.105  70.686  1.00  0.00    -0.196 OA 
HETATM   22  C   UNL     1      -9.083   4.271  69.711  1.00  0.00    -0.117 C  
HETATM   23  H   UNL     1      -7.406   5.148  68.887  1.00  0.00     0.000 HD 
BRANCH  22  24
HETATM   24  C   UNL     1      -9.287   3.517  68.412  1.00  0.00    -0.228 C  
BRANCH  24  25
HETATM   25  C   UNL     1      -8.895   4.351  67.233  1.00  0.00    -0.108 A  
HETATM   26  C   UNL     1      -9.571   5.423  66.681  1.00  0.00    -0.161 A  
HETATM   27  C   UNL     1      -8.959   5.890  65.481  1.00  0.00    -0.062 A  
HETATM   28  C   UNL     1      -7.818   5.182  65.176  1.00  0.00    -0.091 A  
HETATM   29  S   UNL     1      -7.484   3.973  66.336  1.00  0.00    -0.085 SA 
ENDBRANCH  24  25
ENDBRANCH  22  24
ENDBRANCH  12  20
BRANCH  12  30
HETATM   30  O   UNL     1      -6.676   5.367  71.779  1.00  0.00    -0.055 OA 
HETATM   31  C   UNL     1      -7.219   4.863  72.995  1.00  0.00    -0.085 C  
ENDBRANCH  12  30
TORSDOF 7
ENDMDL
MODEL      166
REMARK 921   NORMALIZED FREE ENERGY PREDICTED BY IDOCK:   -2.66 KCAL/MOL
REMARK 922        TOTAL FREE ENERGY PREDICTED BY IDOCK:   -4.43 KCAL/MOL
REMARK 923 INTER-LIGAND FREE ENERGY PREDICTED BY IDOCK:   -4.69 KCAL/MOL
REMARK 924 INTRA-LIGAND FREE ENERGY PREDICTED BY IDOCK:    0.26 KCAL/MOL
REMARK 927      BINDING AFFINITY PREDICTED BY RF-SCORE:    0.00 PKD
ROOT
HETATM    1  C   UNL     1      -8.969  12.237  68.274  1.00  0.00    -0.182 C  
HETATM    2  S   UNL     1     -10.295  12.175  67.051  1.00  0.00    -0.213 SA 
HETATM    3  C   UNL     1     -11.547  11.727  68.267  1.00  0.00    -0.308 C  
HETATM    4  C   UNL     1     -11.159  10.608  69.218  1.00  0.00    -0.306 C  
HETATM    5  C   UNL     1      -9.872  10.249  69.502  1.00  0.00    -0.220 C  
HETATM    6  O   UNL     1      -6.714  10.251  69.533  1.00  0.00    -0.054 OA 
HETATM    7  O   UNL     1      -8.338   8.781  70.743  1.00  0.00    -0.126 OA 
HETATM    8  C   UNL     1      -9.604   9.021  70.360  1.00  0.00    -0.208 C  
HETATM    9  N   UNL     1      -8.839  10.943  68.929  1.00  0.00    -0.160 N  
HETATM   10  C   UNL     1      -7.489  10.912  68.883  1.00  0.00    -0.116 C  
HETATM   11  O   UNL     1     -10.487   8.266  70.744  1.00  0.00    -0.193 OA 
HETATM   12  C   UNL     1      -7.493  12.019  67.706  1.00  0.00    -0.121 C  
ENDROOT
BRANCH   4  13
HETATM   13  C   UNL     1     -12.396   9.887  69.760  1.00  0.00     0.378 C  
BRANCH  13  14
HETATM   14  O   UNL     1     -12.343   9.810  71.201  1.00  0.00    -0.317 OA 
BRANCH  14  15
HETATM   15  C   UNL     1     -13.296   9.060  71.796  1.00  0.00    -0.397 C  
HETATM   16  O   UNL     1     -13.813   9.254  72.883  1.00  0.00    -0.338 OA 
HETATM   17  N   UNL     1     -13.594   7.998  71.015  1.00  0.00    -0.555 N  
HETATM   18  H2  UNL     1     -13.164   7.794  70.112  1.00  0.00     0.000 HD 
HETATM   19  H1  UNL     1     -14.314   7.431  71.464  1.00  0.00     0.000 HD 
ENDBRANCH  14  15
ENDBRANCH  13  14
ENDBRANCH   4  13
BRANCH  12  20
HETATM   20  N   UNL     1      -7.458  11.525  66.290  1.00  0.00    -0.372 N  
HETATM   21  O   UNL     1      -5.666  10.119  66.525  1.00  0.00    -0.054 OA 
HETATM   22  C   UNL     1      -6.565  10.585  65.831  1.00  0.00    -0.129 C  
HETATM   23  H   UNL     1      -8.135  11.909  65.631  1.00  0.00     0.000 HD 
BRANCH  22  24
HETATM   24  C   UNL     1      -6.746  10.200  64.376  1.00  0.00    -0.110 C  
BRANCH  24  25
HETATM   25  C   UNL     1      -6.738   8.714  64.202  1.00  0.00    -0.075 A  
HETATM   26  C   UNL     1      -5.834   7.940  63.500  1.00  0.00    -0.058 A  
HETATM   27  C   UNL     1      -6.221   6.569  63.447  1.00  0.00    -0.034 A  
HETATM   28  C   UNL     1      -7.387   6.336  64.139  1.00  0.00    -0.071 A  
HETATM   29  S   UNL     1      -8.003   7.760  64.857  1.00  0.00    -0.136 SA 
ENDBRANCH  24  25
ENDBRANCH  22  24
ENDBRANCH  12  20
BRANCH  12  30
HETATM   30  O   UNL     1      -6.598  13.142  67.933  1.00  0.00    -0.102 OA 
HETATM   31  C   UNL     1      -7.211  14.324  68.436  1.00  0.00    -0.113 C  
ENDBRANCH  12  30
TORSDOF 7
ENDMDL
MODEL      167
REMARK 921   NORMALIZED FREE ENERGY PREDICTED BY IDOCK:   -2.34 KCAL/MOL
REMARK 922        TOTAL FREE ENERGY PREDICTED BY IDOCK:   -3.98 KCAL/MOL
REMARK 923 INTER-LIGAND FREE ENERGY PREDICTED BY IDOCK:   -4.60 KCAL/MOL
REMARK 924 INTRA-LIGAND FREE ENERGY PREDICTED BY IDOCK:    0.62 KCAL/MOL
REMARK 927      BINDING AFFINITY PREDICTED BY RF-SCORE:    0.00 PKD
ROOT
HETATM    1  C   UNL     1      -8.761  11.520  68.904  1.00  0.00     0.039 C  
HETATM    2  S   UNL     1      -9.640  12.943  68.224  1.00  0.00    -0.183 SA 
HETATM    3  C   UNL     1     -10.859  12.965  69.551  1.00  0.00     0.215 C  
HETATM    4  C   UNL     1     -11.472  11.618  69.893  1.00  0.00    -0.308 C  
HETATM    5  C   UNL     1     -10.893  10.413  69.612  1.00  0.00    -0.277 C  
HETATM    6  O   UNL     1      -8.789   8.273  68.629  1.00  0.00    -0.133 OA 
HETATM    7  O   UNL     1     -11.016   7.960  69.726  1.00  0.00    -0.233 OA 
HETATM    8  C   UNL     1     -11.665   9.128  69.874  1.00  0.00     0.248 C  
HETATM    9  N   UNL     1      -9.665  10.384  69.007  1.00  0.00    -0.197 N  
HETATM   10  C   UNL     1      -8.786   9.478  68.523  1.00  0.00    -0.124 C  
HETATM   11  O   UNL     1     -12.831   9.109  70.243  1.00  0.00     0.469 OA 
HETATM   12  C   UNL     1      -7.916  10.664  67.855  1.00  0.00    -0.106 C  
ENDROOT
BRANCH   4  13
HETATM   13  C   UNL     1     -12.856  11.784  70.527  1.00  0.00     0.067 C  
BRANCH  13  14
HETATM   14  O   UNL     1     -12.736  12.283  71.877  1.00  0.00    -0.222 OA 
BRANCH  14  15
HETATM   15  C   UNL     1     -13.331  13.469  72.132  1.00  0.00    -0.500 C  
HETATM   16  O   UNL     1     -14.344  13.909  71.617  1.00  0.00    -0.288 OA 
HETATM   17  N   UNL     1     -12.610  14.152  73.048  1.00  0.00    -0.214 N  
HETATM   18  H2  UNL     1     -11.747  13.823  73.481  1.00  0.00     0.000 HD 
HETATM   19  H1  UNL     1     -13.059  15.047  73.241  1.00  0.00     0.000 HD 
ENDBRANCH  14  15
ENDBRANCH  13  14
ENDBRANCH   4  13
BRANCH  12  20
HETATM   20  N   UNL     1      -8.202  11.010  66.423  1.00  0.00    -0.163 N  
HETATM   21  O   UNL     1      -9.752   9.368  66.038  1.00  0.00    -0.237 OA 
HETATM   22  C   UNL     1      -9.128  10.350  65.647  1.00  0.00    -0.176 C  
HETATM   23  H   UNL     1      -7.679  11.777  66.001  1.00  0.00     0.000 HD 
BRANCH  22  24
HETATM   24  C   UNL     1      -9.284  10.903  64.245  1.00  0.00    -0.221 C  
BRANCH  24  25
HETATM   25  C   UNL     1     -10.330  11.971  64.196  1.00  0.00    -0.347 A  
HETATM   26  C   UNL     1     -11.525  11.968  63.501  1.00  0.00    -0.536 A  
HETATM   27  C   UNL     1     -12.207  13.216  63.590  1.00  0.00    -0.553 A  
HETATM   28  C   UNL     1     -11.530  14.119  64.377  1.00  0.00    -0.332 A  
HETATM   29  S   UNL     1     -10.087  13.459  65.013  1.00  0.00    -0.184 SA 
ENDBRANCH  24  25
ENDBRANCH  22  24
ENDBRANCH  12  20
BRANCH  12  30
HETATM   30  O   UNL     1      -6.493  10.604  68.146  1.00  0.00    -0.061 OA 
HETATM   31  C   UNL     1      -5.851   9.375  67.820  1.00  0.00    -0.045 C  
ENDBRANCH  12  30
TORSDOF 7
ENDMDL
MODEL      168
REMARK 921   NORMALIZED FREE ENERGY PREDICTED BY IDOCK:   -1.79 KCAL/MOL
REMARK 922        TOTAL FREE ENERGY PREDICTED BY IDOCK:   -3.20 KCAL/MOL
REMARK 923 INTER-LIGAND FREE ENERGY PREDICTED BY IDOCK:   -4.23 KCAL/MOL
REMARK 924 INTRA-LIGAND FREE ENERGY PREDICTED BY IDOCK:    1.03 KCAL/MOL
REMARK 927      BINDING AFFINITY PREDICTED BY RF-SCORE:    0.00 PKD
ROOT
HETATM    1  C   UNL     1      -7.447   7.716  69.034  1.00  0.00    -0.095 C  
HETATM    2  S   UNL     1      -7.606   9.467  69.445  1.00  0.00    -0.089 SA 
HETATM    3  C   UNL     1      -8.632   9.149  70.892  1.00  0.00    -0.206 C  
HETATM    4  C   UNL     1      -9.778   8.176  70.675  1.00  0.00    -0.184 C  
HETATM    5  C   UNL     1      -9.822   7.246  69.675  1.00  0.00    -0.163 C  
HETATM    6  O   UNL     1      -8.959   5.492  67.194  1.00  0.00    -0.114 OA 
HETATM    7  O   UNL     1     -11.043   5.415  68.577  1.00  0.00     0.108 OA 
HETATM    8  C   UNL     1     -11.084   6.420  69.469  1.00  0.00    -0.396 C  
HETATM    9  N   UNL     1      -8.764   7.139  68.812  1.00  0.00    -0.125 N  
HETATM   10  C   UNL     1      -8.413   6.440  67.710  1.00  0.00    -0.117 C  
HETATM   11  O   UNL     1     -12.117   6.606  70.098  1.00  0.00    -0.323 OA 
HETATM   12  C   UNL     1      -7.123   7.391  67.506  1.00  0.00    -0.088 C  
ENDROOT
BRANCH   4  13
HETATM   13  C   UNL     1     -10.911   8.421  71.676  1.00  0.00    -0.278 C  
BRANCH  13  14
HETATM   14  O   UNL     1     -12.059   8.988  71.008  1.00  0.00    -0.293 OA 
BRANCH  14  15
HETATM   15  C   UNL     1     -12.784   9.881  71.718  1.00  0.00    -0.428 C  
HETATM   16  O   UNL     1     -12.674  11.095  71.702  1.00  0.00    -0.395 OA 
HETATM   17  N   UNL     1     -13.663   9.227  72.509  1.00  0.00    -0.671 N  
HETATM   18  H2  UNL     1     -13.764   8.214  72.563  1.00  0.00     0.000 HD 
HETATM   19  H1  UNL     1     -14.211   9.901  73.044  1.00  0.00     0.000 HD 
ENDBRANCH  14  15
ENDBRANCH  13  14
ENDBRANCH   4  13
BRANCH  12  20
HETATM   20  N   UNL     1      -7.272   8.573  66.593  1.00  0.00    -0.073 N  
HETATM   21  O   UNL     1      -5.169   9.430  66.893  1.00  0.00    -0.034 OA 
HETATM   22  C   UNL     1      -6.262   9.473  66.337  1.00  0.00    -0.064 C  
HETATM   23  H   UNL     1      -8.172   8.717  66.136  1.00  0.00     0.000 HD 
BRANCH  22  24
HETATM   24  C   UNL     1      -6.623  10.559  65.344  1.00  0.00    -0.074 C  
BRANCH  24  25
HETATM   25  C   UNL     1      -7.987  10.339  64.770  1.00  0.00    -0.141 A  
HETATM   26  C   UNL     1      -8.349  10.234  63.440  1.00  0.00    -0.169 A  
HETATM   27  C   UNL     1      -9.761  10.156  63.267  1.00  0.00    -0.112 A  
HETATM   28  C   UNL     1     -10.429  10.171  64.471  1.00  0.00     0.521 A  
HETATM   29  S   UNL     1      -9.356  10.264  65.798  1.00  0.00    -0.202 SA 
ENDBRANCH  24  25
ENDBRANCH  22  24
ENDBRANCH  12  20
BRANCH  12  30
HETATM   30  O   UNL     1      -5.873   6.677  67.302  1.00  0.00    -0.012 OA 
HETATM   31  C   UNL     1      -5.756   5.987  66.062  1.00  0.00    -0.017 C  
ENDBRANCH  12  30
TORSDOF 7
ENDMDL
MODEL      169
REMARK 921   NORMALIZED FREE ENERGY PREDICTED BY IDOCK:    0.71 KCAL/MOL
REMARK 922        TOTAL FREE ENERGY PREDICTED BY IDOCK:    0.32 KCAL/MOL
REMARK 923 INTER-LIGAND FREE ENERGY PREDICTED BY IDOCK:    0.60 KCAL/MOL
REMARK 924 INTRA-LIGAND FREE ENERGY PREDICTED BY IDOCK:   -0.27 KCAL/MOL
REMARK 927      BINDING AFFINITY PREDICTED BY RF-SCORE:    0.00 PKD
ROOT
HETATM    1  C   UNL     1      -6.695  16.565  66.950  1.00  0.00    -0.198 C  
HETATM    2  S   UNL     1      -6.310  17.015  68.655  1.00  0.00    -0.172 SA 
HETATM    3  C   UNL     1      -5.985  15.313  69.149  1.00  0.00    -0.101 C  
HETATM    4  C   UNL     1      -7.025  14.297  68.708  1.00  0.00    -0.102 C  
HETATM    5  C   UNL     1      -7.885  14.479  67.663  1.00  0.00    -0.180 C  
HETATM    6  O   UNL     1      -9.303  15.784  65.160  1.00  0.00    -0.127 OA 
HETATM    7  O   UNL     1      -9.713  13.585  66.282  1.00  0.00    -0.285 OA 
HETATM    8  C   UNL     1      -8.980  13.454  67.401  1.00  0.00    -0.215 C  
HETATM    9  N   UNL     1      -7.812  15.631  66.926  1.00  0.00    -0.233 N  
HETATM   10  C   UNL     1      -8.454  16.228  65.897  1.00  0.00     0.058 C  
HETATM   11  O   UNL     1      -9.199  12.504  68.140  1.00  0.00    -0.200 OA 
HETATM   12  C   UNL     1      -7.626  17.591  66.158  1.00  0.00    -0.285 C  
ENDROOT
BRANCH   4  13
HETATM   13  C   UNL     1      -7.034  13.076  69.632  1.00  0.00     0.272 C  
BRANCH  13  14
HETATM   14  O   UNL     1      -6.138  12.060  69.133  1.00  0.00    -0.067 OA 
BRANCH  14  15
HETATM   15  C   UNL     1      -5.936  10.993  69.937  1.00  0.00    -0.099 C  
HETATM   16  O   UNL     1      -6.143  10.926  71.136  1.00  0.00    -0.356 OA 
HETATM   17  N   UNL     1      -5.418   9.973  69.218  1.00  0.00    -0.035 N  
HETATM   18  H2  UNL     1      -5.211  10.003  68.219  1.00  0.00     0.000 HD 
HETATM   19  H1  UNL     1      -5.265   9.167  69.825  1.00  0.00     0.000 HD 
ENDBRANCH  14  15
ENDBRANCH  13  14
ENDBRANCH   4  13
BRANCH  12  20
HETATM   20  N   UNL     1      -8.261  18.630  67.033  1.00  0.00    -0.248 N  
HETATM   21  O   UNL     1      -9.691  19.489  65.463  1.00  0.00    -0.262 OA 
HETATM   22  C   UNL     1      -9.270  19.468  66.616  1.00  0.00    -0.354 C  
HETATM   23  H   UNL     1      -7.925  18.721  67.992  1.00  0.00     0.000 HD 
BRANCH  22  24
HETATM   24  C   UNL     1      -9.794  20.406  67.685  1.00  0.00    -0.538 C  
BRANCH  24  25
HETATM   25  C   UNL     1     -10.129  19.665  68.940  1.00  0.00    -0.401 A  
HETATM   26  C   UNL     1     -10.202  20.156  70.230  1.00  0.00     0.797 A  
HETATM   27  C   UNL     1     -10.423  19.126  71.190  1.00  0.00     2.633 A  
HETATM   28  C   UNL     1     -10.546  17.889  70.600  1.00  0.00     1.917 A  
HETATM   29  S   UNL     1     -10.407  17.974  68.898  1.00  0.00    -0.094 SA 
ENDBRANCH  24  25
ENDBRANCH  22  24
ENDBRANCH  12  20
BRANCH  12  30
HETATM   30  O   UNL     1      -7.008  18.157  64.969  1.00  0.00    -0.262 OA 
HETATM   31  C   UNL     1      -6.156  19.276  65.194  1.00  0.00    -0.267 C  
ENDBRANCH  12  30
TORSDOF 7
ENDMDL
MODEL      170
REMARK 921   NORMALIZED FREE ENERGY PREDICTED BY IDOCK:    0.90 KCAL/MOL
REMARK 922        TOTAL FREE ENERGY PREDICTED BY IDOCK:    0.59 KCAL/MOL
REMARK 923 INTER-LIGAND FREE ENERGY PREDICTED BY IDOCK:   -1.76 KCAL/MOL
REMARK 924 INTRA-LIGAND FREE ENERGY PREDICTED BY IDOCK:    2.35 KCAL/MOL
REMARK 927      BINDING AFFINITY PREDICTED BY RF-SCORE:    0.00 PKD
ROOT
HETATM    1  C   UNL     1     -11.117   9.312  68.620  1.00  0.00     0.111 C  
HETATM    2  S   UNL     1     -10.186  10.116  69.941  1.00  0.00    -0.201 SA 
HETATM    3  C   UNL     1     -10.835  11.752  69.556  1.00  0.00     0.008 C  
HETATM    4  C   UNL     1     -10.808  12.133  68.086  1.00  0.00    -0.256 C  
HETATM    5  C   UNL     1     -10.756  11.236  67.057  1.00  0.00    -0.260 C  
HETATM    6  O   UNL     1     -10.709   8.492  65.494  1.00  0.00     2.049 OA 
HETATM    7  O   UNL     1     -10.690  10.841  64.631  1.00  0.00    -0.284 OA 
HETATM    8  C   UNL     1     -10.590  11.735  65.629  1.00  0.00    -0.268 C  
HETATM    9  N   UNL     1     -10.757   9.894  67.336  1.00  0.00    -0.272 N  
HETATM   10  C   UNL     1     -10.671   8.715  66.681  1.00  0.00     0.103 C  
HETATM   11  O   UNL     1     -10.403  12.911  65.348  1.00  0.00    -0.288 OA 
HETATM   12  C   UNL     1     -10.512   7.935  68.087  1.00  0.00    -0.173 C  
ENDROOT
BRANCH   4  13
HETATM   13  C   UNL     1     -10.771  13.653  67.907  1.00  0.00    -0.247 C  
BRANCH  13  14
HETATM   14  O   UNL     1      -9.558  14.052  67.233  1.00  0.00    -0.226 OA 
BRANCH  14  15
HETATM   15  C   UNL     1      -8.412  13.927  67.937  1.00  0.00    -0.177 C  
HETATM   16  O   UNL     1      -8.206  14.301  69.079  1.00  0.00    -0.093 OA 
HETATM   17  N   UNL     1      -7.468  13.340  67.170  1.00  0.00    -0.373 N  
HETATM   18  H2  UNL     1      -7.600  13.037  66.204  1.00  0.00     0.000 HD 
HETATM   19  H1  UNL     1      -6.602  13.245  67.701  1.00  0.00     0.000 HD 
ENDBRANCH  14  15
ENDBRANCH  13  14
ENDBRANCH   4  13
BRANCH  12  20
HETATM   20  N   UNL     1      -9.120   7.658  68.572  1.00  0.00    -0.132 N  
HETATM   21  O   UNL     1      -9.654   7.283  70.768  1.00  0.00    -0.171 OA 
HETATM   22  C   UNL     1      -8.817   7.318  69.871  1.00  0.00    -0.142 C  
HETATM   23  H   UNL     1      -8.355   7.726  67.902  1.00  0.00     0.000 HD 
BRANCH  22  24
HETATM   24  C   UNL     1      -7.350   7.036  70.123  1.00  0.00    -0.081 C  
BRANCH  24  25
HETATM   25  C   UNL     1      -6.730   6.313  68.969  1.00  0.00    -0.057 A  
HETATM   26  C   UNL     1      -7.216   5.213  68.288  1.00  0.00    -0.067 A  
HETATM   27  C   UNL     1      -6.288   4.717  67.326  1.00  0.00    -0.040 A  
HETATM   28  C   UNL     1      -5.140   5.475  67.280  1.00  0.00    -0.004 A  
HETATM   29  S   UNL     1      -5.189   6.781  68.382  1.00  0.00    -0.012 SA 
ENDBRANCH  24  25
ENDBRANCH  22  24
ENDBRANCH  12  20
BRANCH  12  30
HETATM   30  O   UNL     1     -11.400   6.794  68.246  1.00  0.00    -0.116 OA 
HETATM   31  C   UNL     1     -10.765   5.563  68.575  1.00  0.00    -0.091 C  
ENDBRANCH  12  30
TORSDOF 7
ENDMDL
MODEL      171
REMARK 921   NORMALIZED FREE ENERGY PREDICTED BY IDOCK:    0.93 KCAL/MOL
REMARK 922        TOTAL FREE ENERGY PREDICTED BY IDOCK:    0.63 KCAL/MOL
REMARK 923 INTER-LIGAND FREE ENERGY PREDICTED BY IDOCK:   -0.21 KCAL/MOL
REMARK 924 INTRA-LIGAND FREE ENERGY PREDICTED BY IDOCK:    0.84 KCAL/MOL
REMARK 927      BINDING AFFINITY PREDICTED BY RF-SCORE:    0.00 PKD
ROOT
HETATM    1  C   UNL     1      -7.313  12.852  69.316  1.00  0.00     0.246 C  
HETATM    2  S   UNL     1      -8.816  11.920  69.676  1.00  0.00     1.974 SA 
HETATM    3  C   UNL     1      -7.992  10.323  69.542  1.00  0.00    -0.165 C  
HETATM    4  C   UNL     1      -7.105  10.148  68.321  1.00  0.00    -0.075 C  
HETATM    5  C   UNL     1      -6.564  11.180  67.608  1.00  0.00    -0.070 C  
HETATM    6  O   UNL     1      -5.780  14.111  66.732  1.00  0.00     0.838 OA 
HETATM    7  O   UNL     1      -5.164  11.907  65.721  1.00  0.00    -0.025 OA 
HETATM    8  C   UNL     1      -5.808  10.889  66.319  1.00  0.00    -0.139 C  
HETATM    9  N   UNL     1      -6.794  12.469  68.011  1.00  0.00    -0.082 N  
HETATM   10  C   UNL     1      -6.519  13.729  67.608  1.00  0.00    -0.150 C  
HETATM   11  O   UNL     1      -5.733   9.773  65.823  1.00  0.00    -0.048 OA 
HETATM   12  C   UNL     1      -7.533  14.316  68.721  1.00  0.00    -0.129 C  
ENDROOT
BRANCH   4  13
HETATM   13  C   UNL     1      -6.957   8.671  67.950  1.00  0.00    -0.078 C  
BRANCH  13  14
HETATM   14  O   UNL     1      -5.708   8.148  68.450  1.00  0.00    -0.032 OA 
BRANCH  14  15
HETATM   15  C   UNL     1      -5.757   7.520  69.645  1.00  0.00    -0.023 C  
HETATM   16  O   UNL     1      -5.628   8.026  70.747  1.00  0.00    -0.029 OA 
HETATM   17  N   UNL     1      -5.941   6.195  69.458  1.00  0.00    -0.024 N  
HETATM   18  H2  UNL     1      -6.030   5.737  68.550  1.00  0.00     0.000 HD 
HETATM   19  H1  UNL     1      -5.979   5.721  70.360  1.00  0.00     0.000 HD 
ENDBRANCH  14  15
ENDBRANCH  13  14
ENDBRANCH   4  13
BRANCH  12  20
HETATM   20  N   UNL     1      -8.945  14.590  68.296  1.00  0.00    -0.178 N  
HETATM   21  O   UNL     1      -9.002  13.124  66.538  1.00  0.00    -0.177 OA 
HETATM   22  C   UNL     1      -9.571  13.938  67.258  1.00  0.00    -0.243 C  
HETATM   23  H   UNL     1      -9.471  15.299  68.806  1.00  0.00     0.000 HD 
BRANCH  22  24
HETATM   24  C   UNL     1     -11.015  14.341  67.039  1.00  0.00    -0.305 C  
BRANCH  24  25
HETATM   25  C   UNL     1     -11.529  13.831  65.730  1.00  0.00    -0.318 A  
HETATM   26  C   UNL     1     -11.403  14.404  64.479  1.00  0.00    -0.328 A  
HETATM   27  C   UNL     1     -12.135  13.695  63.482  1.00  0.00    -0.341 A  
HETATM   28  C   UNL     1     -12.767  12.586  63.997  1.00  0.00    -0.318 A  
HETATM   29  S   UNL     1     -12.467  12.397  65.670  1.00  0.00     0.385 SA 
ENDBRANCH  24  25
ENDBRANCH  22  24
ENDBRANCH  12  20
BRANCH  12  30
HETATM   30  O   UNL     1      -6.976  15.380  69.541  1.00  0.00    -0.162 OA 
HETATM   31  C   UNL     1      -7.330  16.704  69.152  1.00  0.00    -0.217 C  
ENDBRANCH  12  30
TORSDOF 7
ENDMDL
MODEL      172
REMARK 921   NORMALIZED FREE ENERGY PREDICTED BY IDOCK:    1.55 KCAL/MOL
REMARK 922        TOTAL FREE ENERGY PREDICTED BY IDOCK:    1.50 KCAL/MOL
REMARK 923 INTER-LIGAND FREE ENERGY PREDICTED BY IDOCK:    0.58 KCAL/MOL
REMARK 924 INTRA-LIGAND FREE ENERGY PREDICTED BY IDOCK:    0.92 KCAL/MOL
REMARK 927      BINDING AFFINITY PREDICTED BY RF-SCORE:    0.00 PKD
ROOT
HETATM    1  C   UNL     1      -7.314  12.969  69.238  1.00  0.00     0.241 C  
HETATM    2  S   UNL     1      -8.922  12.181  69.459  1.00  0.00     1.786 SA 
HETATM    3  C   UNL     1      -8.269  10.521  69.203  1.00  0.00    -0.150 C  
HETATM    4  C   UNL     1      -7.355  10.360  68.001  1.00  0.00    -0.085 C  
HETATM    5  C   UNL     1      -6.676  11.385  67.405  1.00  0.00    -0.094 C  
HETATM    6  O   UNL     1      -5.546  14.279  66.835  1.00  0.00     0.464 OA 
HETATM    7  O   UNL     1      -5.127  12.119  65.642  1.00  0.00     0.659 OA 
HETATM    8  C   UNL     1      -5.902  11.130  66.120  1.00  0.00    -0.120 C  
HETATM    9  N   UNL     1      -6.784  12.650  67.921  1.00  0.00    -0.094 N  
HETATM   10  C   UNL     1      -6.359  13.904  67.647  1.00  0.00    -0.126 C  
HETATM   11  O   UNL     1      -5.925  10.061  65.525  1.00  0.00    -0.071 OA 
HETATM   12  C   UNL     1      -7.350  14.497  68.777  1.00  0.00    -0.129 C  
ENDROOT
BRANCH   4  13
HETATM   13  C   UNL     1      -7.351   8.914  67.497  1.00  0.00    -0.081 C  
BRANCH  13  14
HETATM   14  O   UNL     1      -6.178   8.219  67.972  1.00  0.00    -0.049 OA 
BRANCH  14  15
HETATM   15  C   UNL     1      -6.325   7.505  69.110  1.00  0.00    -0.035 C  
HETATM   16  O   UNL     1      -6.176   7.905  70.252  1.00  0.00    -0.032 OA 
HETATM   17  N   UNL     1      -6.639   6.226  68.809  1.00  0.00    -0.053 N  
HETATM   18  H2  UNL     1      -6.749   5.855  67.865  1.00  0.00     0.000 HD 
HETATM   19  H1  UNL     1      -6.750   5.688  69.668  1.00  0.00     0.000 HD 
ENDBRANCH  14  15
ENDBRANCH  13  14
ENDBRANCH   4  13
BRANCH  12  20
HETATM   20  N   UNL     1      -8.705  14.962  68.334  1.00  0.00    -0.165 N  
HETATM   21  O   UNL     1      -8.002  16.771  67.118  1.00  0.00    -0.162 OA 
HETATM   22  C   UNL     1      -8.910  16.044  67.508  1.00  0.00    -0.189 C  
HETATM   23  H   UNL     1      -9.522  14.447  68.664  1.00  0.00     0.000 HD 
BRANCH  22  24
HETATM   24  C   UNL     1     -10.361  16.300  67.152  1.00  0.00    -0.285 C  
BRANCH  24  25
HETATM   25  C   UNL     1     -10.561  17.700  66.663  1.00  0.00    -0.211 A  
HETATM   26  C   UNL     1     -10.579  18.157  65.359  1.00  0.00     0.174 A  
HETATM   27  C   UNL     1     -10.666  19.578  65.284  1.00  0.00     0.139 A  
HETATM   28  C   UNL     1     -10.745  20.156  66.530  1.00  0.00    -0.113 A  
HETATM   29  S   UNL     1     -10.727  18.990  67.780  1.00  0.00    -0.286 SA 
ENDBRANCH  24  25
ENDBRANCH  22  24
ENDBRANCH  12  20
BRANCH  12  30
HETATM   30  O   UNL     1      -6.718  15.415  69.711  1.00  0.00    -0.171 OA 
HETATM   31  C   UNL     1      -6.921  16.798  69.443  1.00  0.00    -0.176 C  
ENDBRANCH  12  30
TORSDOF 7
ENDMDL
MODEL      173
REMARK 921   NORMALIZED FREE ENERGY PREDICTED BY IDOCK:    1.75 KCAL/MOL
REMARK 922        TOTAL FREE ENERGY PREDICTED BY IDOCK:    1.79 KCAL/MOL
REMARK 923 INTER-LIGAND FREE ENERGY PREDICTED BY IDOCK:   -2.60 KCAL/MOL
REMARK 924 INTRA-LIGAND FREE ENERGY PREDICTED BY IDOCK:    4.39 KCAL/MOL
REMARK 927      BINDING AFFINITY PREDICTED BY RF-SCORE:    0.00 PKD
ROOT
HETATM    1  C   UNL     1     -10.419  11.676  67.194  1.00  0.00    -0.220 C  
HETATM    2  S   UNL     1      -9.721  12.286  68.743  1.00  0.00     0.125 SA 
HETATM    3  C   UNL     1     -10.643  13.832  68.680  1.00  0.00    -0.253 C  
HETATM    4  C   UNL     1     -10.613  14.554  67.344  1.00  0.00    -0.271 C  
HETATM    5  C   UNL     1     -10.344  13.951  66.148  1.00  0.00    -0.301 C  
HETATM    6  O   UNL     1      -9.707  11.711  64.014  1.00  0.00    -0.244 OA 
HETATM    7  O   UNL     1     -10.083  14.166  63.712  1.00  0.00     1.060 OA 
HETATM    8  C   UNL     1     -10.201  14.799  64.892  1.00  0.00    -0.275 C  
HETATM    9  N   UNL     1     -10.109  12.602  66.114  1.00  0.00    -0.252 N  
HETATM   10  C   UNL     1      -9.772  11.646  65.220  1.00  0.00    -0.229 C  
HETATM   11  O   UNL     1     -10.223  16.023  64.904  1.00  0.00    -0.483 OA 
HETATM   12  C   UNL     1      -9.542  10.590  66.420  1.00  0.00    -0.177 C  
ENDROOT
BRANCH   4  13
HETATM   13  C   UNL     1     -10.851  16.056  67.519  1.00  0.00    -0.292 C  
BRANCH  13  14
HETATM   14  O   UNL     1      -9.593  16.765  67.552  1.00  0.00    -0.236 OA 
BRANCH  14  15
HETATM   15  C   UNL     1      -9.452  17.690  68.526  1.00  0.00    -0.298 C  
HETATM   16  O   UNL     1      -9.983  17.688  69.624  1.00  0.00     0.055 OA 
HETATM   17  N   UNL     1      -8.639  18.680  68.100  1.00  0.00    -0.298 N  
HETATM   18  H2  UNL     1      -8.198  18.724  67.180  1.00  0.00     0.000 HD 
HETATM   19  H1  UNL     1      -8.532  19.379  68.835  1.00  0.00     0.000 HD 
ENDBRANCH  14  15
ENDBRANCH  13  14
ENDBRANCH   4  13
BRANCH  12  20
HETATM   20  N   UNL     1      -8.149  10.444  66.958  1.00  0.00    -0.115 N  
HETATM   21  O   UNL     1      -8.657  10.795  69.163  1.00  0.00    -0.150 OA 
HETATM   22  C   UNL     1      -7.833  10.524  68.295  1.00  0.00    -0.111 C  
HETATM   23  H   UNL     1      -7.393  10.278  66.294  1.00  0.00     0.000 HD 
BRANCH  22  24
HETATM   24  C   UNL     1      -6.369  10.297  68.612  1.00  0.00    -0.051 C  
BRANCH  24  25
HETATM   25  C   UNL     1      -6.171   9.962  70.057  1.00  0.00    -0.065 A  
HETATM   26  C   UNL     1      -5.310  10.553  70.962  1.00  0.00    -0.093 A  
HETATM   27  C   UNL     1      -5.303   9.883  72.220  1.00  0.00     0.050 A  
HETATM   28  C   UNL     1      -6.183   8.825  72.245  1.00  0.00    -0.061 A  
HETATM   29  S   UNL     1      -7.020   8.652  70.765  1.00  0.00    -0.067 SA 
ENDBRANCH  24  25
ENDBRANCH  22  24
ENDBRANCH  12  20
BRANCH  12  30
HETATM   30  O   UNL     1     -10.209   9.311  66.233  1.00  0.00    -0.273 OA 
HETATM   31  C   UNL     1      -9.776   8.552  65.110  1.00  0.00     0.920 C  
ENDBRANCH  12  30
TORSDOF 7
ENDMDL
MODEL      174
REMARK 921   NORMALIZED FREE ENERGY PREDICTED BY IDOCK:    1.81 KCAL/MOL
REMARK 922        TOTAL FREE ENERGY PREDICTED BY IDOCK:    1.88 KCAL/MOL
REMARK 923 INTER-LIGAND FREE ENERGY PREDICTED BY IDOCK:    2.06 KCAL/MOL
REMARK 924 INTRA-LIGAND FREE ENERGY PREDICTED BY IDOCK:   -0.18 KCAL/MOL
REMARK 927      BINDING AFFINITY PREDICTED BY RF-SCORE:    0.00 PKD
ROOT
HETATM    1  C   UNL     1      -6.463  13.141  69.857  1.00  0.00     0.029 C  
HETATM    2  S   UNL     1      -7.569  12.045  70.770  1.00  0.00     5.554 SA 
HETATM    3  C   UNL     1      -6.460  10.631  70.637  1.00  0.00     0.052 C  
HETATM    4  C   UNL     1      -5.896  10.375  69.250  1.00  0.00    -0.037 C  
HETATM    5  C   UNL     1      -5.806  11.320  68.268  1.00  0.00    -0.045 C  
HETATM    6  O   UNL     1      -5.967  14.103  66.784  1.00  0.00     0.794 OA 
HETATM    7  O   UNL     1      -5.135  11.888  65.971  1.00  0.00    -0.272 OA 
HETATM    8  C   UNL     1      -5.354  10.914  66.872  1.00  0.00    -0.058 C  
HETATM    9  N   UNL     1      -6.217  12.600  68.528  1.00  0.00    -0.063 N  
HETATM   10  C   UNL     1      -6.352  13.780  67.884  1.00  0.00    -0.157 C  
HETATM   11  O   UNL     1      -5.151   9.753  66.544  1.00  0.00    -0.038 OA 
HETATM   12  C   UNL     1      -7.158  14.388  69.145  1.00  0.00    -0.127 C  
ENDROOT
BRANCH   4  13
HETATM   13  C   UNL     1      -5.510   8.904  69.071  1.00  0.00    -0.036 C  
BRANCH  13  14
HETATM   14  O   UNL     1      -6.504   8.214  68.283  1.00  0.00    -0.052 OA 
BRANCH  14  15
HETATM   15  C   UNL     1      -7.217   7.260  68.921  1.00  0.00    -0.090 C  
HETATM   16  O   UNL     1      -8.315   7.383  69.436  1.00  0.00    -0.129 OA 
HETATM   17  N   UNL     1      -6.512   6.107  68.948  1.00  0.00    -0.044 N  
HETATM   18  H2  UNL     1      -5.583   5.977  68.548  1.00  0.00     0.000 HD 
HETATM   19  H1  UNL     1      -7.050   5.386  69.429  1.00  0.00     0.000 HD 
ENDBRANCH  14  15
ENDBRANCH  13  14
ENDBRANCH   4  13
BRANCH  12  20
HETATM   20  N   UNL     1      -8.655  14.309  69.114  1.00  0.00    -0.363 N  
HETATM   21  O   UNL     1      -8.949  15.287  67.064  1.00  0.00    -0.204 OA 
HETATM   22  C   UNL     1      -9.422  14.734  68.052  1.00  0.00    -0.204 C  
HETATM   23  H   UNL     1      -9.133  13.917  69.925  1.00  0.00     0.000 HD 
BRANCH  22  24
HETATM   24  C   UNL     1     -10.911  14.511  68.220  1.00  0.00    -0.258 C  
BRANCH  24  25
HETATM   25  C   UNL     1     -11.379  14.959  69.569  1.00  0.00    -0.281 A  
HETATM   26  C   UNL     1     -11.108  16.149  70.217  1.00  0.00    -0.375 A  
HETATM   27  C   UNL     1     -11.620  16.171  71.547  1.00  0.00    -0.502 A  
HETATM   28  C   UNL     1     -12.294  15.012  71.859  1.00  0.00    -0.342 A  
HETATM   29  S   UNL     1     -12.318  13.912  70.550  1.00  0.00    -0.368 SA 
ENDBRANCH  24  25
ENDBRANCH  22  24
ENDBRANCH  12  20
BRANCH  12  30
HETATM   30  O   UNL     1      -6.673  15.680  69.604  1.00  0.00    -0.173 OA 
HETATM   31  C   UNL     1      -5.442  15.655  70.320  1.00  0.00    -0.150 C  
ENDBRANCH  12  30
TORSDOF 7
ENDMDL
MODEL      175
REMARK 921   NORMALIZED FREE ENERGY PREDICTED BY IDOCK:   11.06 KCAL/MOL
REMARK 922        TOTAL FREE ENERGY PREDICTED BY IDOCK:   14.92 KCAL/MOL
REMARK 923 INTER-LIGAND FREE ENERGY PREDICTED BY IDOCK:   10.37 KCAL/MOL
REMARK 924 INTRA-LIGAND FREE ENERGY PREDICTED BY IDOCK:    4.54 KCAL/MOL
REMARK 927      BINDING AFFINITY PREDICTED BY RF-SCORE:    0.00 PKD
ROOT
HETATM    1  C   UNL     1     -11.208  15.483  69.817  1.00  0.00    -0.304 C  
HETATM    2  S   UNL     1      -9.469  15.411  70.295  1.00  0.00     0.769 SA 
HETATM    3  C   UNL     1      -9.192  17.162  69.971  1.00  0.00     1.630 C  
HETATM    4  C   UNL     1      -9.732  17.672  68.646  1.00  0.00    -0.332 C  
HETATM    5  C   UNL     1     -10.730  17.067  67.936  1.00  0.00    -0.348 C  
HETATM    6  O   UNL     1     -13.028  15.047  67.150  1.00  0.00     1.322 OA 
HETATM    7  O   UNL     1     -12.173  17.067  65.944  1.00  0.00     2.830 OA 
HETATM    8  C   UNL     1     -11.093  17.588  66.553  1.00  0.00     0.456 C  
HETATM    9  N   UNL     1     -11.324  15.940  68.440  1.00  0.00    -0.362 N  
HETATM   10  C   UNL     1     -12.260  15.032  68.083  1.00  0.00     0.110 C  
HETATM   11  O   UNL     1     -10.471  18.476  65.986  1.00  0.00    -0.446 OA 
HETATM   12  C   UNL     1     -11.852  14.103  69.340  1.00  0.00    -0.330 C  
ENDROOT
BRANCH   4  13
HETATM   13  C   UNL     1      -8.964  18.908  68.172  1.00  0.00    -0.311 C  
BRANCH  13  14
HETATM   14  O   UNL     1      -8.197  19.472  69.258  1.00  0.00    -0.248 OA 
BRANCH  14  15
HETATM   15  C   UNL     1      -8.906  19.978  70.292  1.00  0.00     1.390 C  
HETATM   16  O   UNL     1      -8.732  21.050  70.847  1.00  0.00     1.975 OA 
HETATM   17  N   UNL     1      -9.852  19.093  70.673  1.00  0.00     1.218 N  
HETATM   18  H2  UNL     1     -10.008  18.180  70.245  1.00  0.00     0.000 HD 
HETATM   19  H1  UNL     1     -10.387  19.475  71.453  1.00  0.00     0.000 HD 
ENDBRANCH  14  15
ENDBRANCH  13  14
ENDBRANCH   4  13
BRANCH  12  20
HETATM   20  N   UNL     1     -10.844  13.017  69.101  1.00  0.00    -0.431 N  
HETATM   21  O   UNL     1     -10.668  13.287  66.834  1.00  0.00    -0.269 OA 
HETATM   22  C   UNL     1     -10.310  12.728  67.866  1.00  0.00    -0.226 C  
HETATM   23  H   UNL     1     -10.538  12.462  69.899  1.00  0.00     0.000 HD 
BRANCH  22  24
HETATM   24  C   UNL     1      -9.273  11.623  67.869  1.00  0.00    -0.171 C  
BRANCH  24  25
HETATM   25  C   UNL     1      -9.749  10.435  68.643  1.00  0.00    -0.175 A  
HETATM   26  C   UNL     1     -10.088  10.364  69.981  1.00  0.00    -0.078 A  
HETATM   27  C   UNL     1     -10.373   9.031  70.399  1.00  0.00    -0.253 A  
HETATM   28  C   UNL     1     -10.278   8.134  69.359  1.00  0.00    -0.211 A  
HETATM   29  S   UNL     1      -9.858   8.899  67.889  1.00  0.00    -0.178 SA 
ENDBRANCH  24  25
ENDBRANCH  22  24
ENDBRANCH  12  20
BRANCH  12  30
HETATM   30  O   UNL     1     -12.975  13.659  70.150  1.00  0.00    -0.030 OA 
HETATM   31  C   UNL     1     -13.542  12.406  69.780  1.00  0.00     3.374 C  
ENDBRANCH  12  30
TORSDOF 7
ENDMDL
MODEL      176
REMARK 921   NORMALIZED FREE ENERGY PREDICTED BY IDOCK:   12.06 KCAL/MOL
REMARK 922        TOTAL FREE ENERGY PREDICTED BY IDOCK:   16.32 KCAL/MOL
REMARK 923 INTER-LIGAND FREE ENERGY PREDICTED BY IDOCK:   12.76 KCAL/MOL
REMARK 924 INTRA-LIGAND FREE ENERGY PREDICTED BY IDOCK:    3.56 KCAL/MOL
REMARK 927      BINDING AFFINITY PREDICTED BY RF-SCORE:    0.00 PKD
ROOT
HETATM    1  C   UNL     1      -9.724  14.320  66.745  1.00  0.00    -0.275 C  
HETATM    2  S   UNL     1      -8.414  14.007  67.946  1.00  0.00    -0.185 SA 
HETATM    3  C   UNL     1      -9.369  12.762  68.831  1.00  0.00     0.295 C  
HETATM    4  C   UNL     1     -10.802  13.150  69.155  1.00  0.00    -0.139 C  
HETATM    5  C   UNL     1     -11.511  14.107  68.487  1.00  0.00    -0.300 C  
HETATM    6  O   UNL     1     -12.264  16.325  66.368  1.00  0.00     1.614 OA 
HETATM    7  O   UNL     1     -13.620  15.345  68.228  1.00  0.00     3.744 OA 
HETATM    8  C   UNL     1     -12.890  14.511  68.989  1.00  0.00     0.817 C  
HETATM    9  N   UNL     1     -10.930  14.759  67.431  1.00  0.00    -0.304 N  
HETATM   10  C   UNL     1     -11.217  15.753  66.561  1.00  0.00     0.023 C  
HETATM   11  O   UNL     1     -13.375  14.089  70.030  1.00  0.00     0.357 OA 
HETATM   12  C   UNL     1      -9.688  15.751  66.040  1.00  0.00    -0.345 C  
ENDROOT
BRANCH   4  13
HETATM   13  C   UNL     1     -11.323  12.383  70.373  1.00  0.00     0.627 C  
BRANCH  13  14
HETATM   14  O   UNL     1     -11.623  13.294  71.452  1.00  0.00     0.861 OA 
BRANCH  14  15
HETATM   15  C   UNL     1     -10.984  14.484  71.426  1.00  0.00     0.885 C  
HETATM   16  O   UNL     1      -9.862  14.707  71.004  1.00  0.00     1.387 OA 
HETATM   17  N   UNL     1     -11.766  15.433  71.985  1.00  0.00    -0.419 N  
HETATM   18  H2  UNL     1     -12.698  15.276  72.369  1.00  0.00     0.000 HD 
HETATM   19  H1  UNL     1     -11.283  16.332  71.965  1.00  0.00     0.000 HD 
ENDBRANCH  14  15
ENDBRANCH  13  14
ENDBRANCH   4  13
BRANCH  12  20
HETATM   20  N   UNL     1      -8.736  16.717  66.681  1.00  0.00    -0.223 N  
HETATM   21  O   UNL     1      -8.311  17.977  64.817  1.00  0.00     2.736 OA 
HETATM   22  C   UNL     1      -8.157  17.774  66.018  1.00  0.00    -0.101 C  
HETATM   23  H   UNL     1      -8.506  16.582  67.666  1.00  0.00     0.000 HD 
BRANCH  22  24
HETATM   24  C   UNL     1      -7.267  18.648  66.878  1.00  0.00    -0.223 C  
BRANCH  24  25
HETATM   25  C   UNL     1      -6.597  17.850  67.952  1.00  0.00    -0.188 A  
HETATM   26  C   UNL     1      -5.645  16.857  67.814  1.00  0.00    -0.138 A  
HETATM   27  C   UNL     1      -5.333  16.229  69.054  1.00  0.00    -0.110 A  
HETATM   28  C   UNL     1      -6.030  16.784  70.103  1.00  0.00    -0.127 A  
HETATM   29  S   UNL     1      -7.044  18.062  69.594  1.00  0.00     0.401 SA 
ENDBRANCH  24  25
ENDBRANCH  22  24
ENDBRANCH  12  20
BRANCH  12  30
HETATM   30  O   UNL     1      -9.545  15.698  64.593  1.00  0.00     0.282 OA 
HETATM   31  C   UNL     1     -10.702  15.277  63.877  1.00  0.00     1.801 C  
ENDBRANCH  12  30
TORSDOF 7
ENDMDL
MODEL      177
REMARK 921   NORMALIZED FREE ENERGY PREDICTED BY IDOCK:   12.94 KCAL/MOL
REMARK 922        TOTAL FREE ENERGY PREDICTED BY IDOCK:   17.56 KCAL/MOL
REMARK 923 INTER-LIGAND FREE ENERGY PREDICTED BY IDOCK:   10.96 KCAL/MOL
REMARK 924 INTRA-LIGAND FREE ENERGY PREDICTED BY IDOCK:    6.60 KCAL/MOL
REMARK 927      BINDING AFFINITY PREDICTED BY RF-SCORE:    0.00 PKD
ROOT
HETATM    1  C   UNL     1      -9.685  11.088  64.145  1.00  0.00    -0.285 C  
HETATM    2  S   UNL     1      -8.055  11.634  63.592  1.00  0.00     1.784 SA 
HETATM    3  C   UNL     1      -7.694  10.078  62.758  1.00  0.00    -0.134 C  
HETATM    4  C   UNL     1      -7.989   8.824  63.563  1.00  0.00    -0.158 C  
HETATM    5  C   UNL     1      -8.861   8.770  64.613  1.00  0.00    -0.010 C  
HETATM    6  O   UNL     1     -11.025   9.645  66.740  1.00  0.00    -0.059 OA 
HETATM    7  O   UNL     1      -9.939   7.422  66.366  1.00  0.00    -0.155 OA 
HETATM    8  C   UNL     1      -8.970   7.494  65.436  1.00  0.00     0.182 C  
HETATM    9  N   UNL     1      -9.553   9.897  64.970  1.00  0.00    -0.290 N  
HETATM   10  C   UNL     1     -10.430  10.299  65.917  1.00  0.00    -0.097 C  
HETATM   11  O   UNL     1      -8.243   6.524  65.269  1.00  0.00    -0.132 OA 
HETATM   12  C   UNL     1     -10.262  11.832  65.434  1.00  0.00    -0.261 C  
ENDROOT
BRANCH   4  13
HETATM   13  C   UNL     1      -7.128   7.649  63.094  1.00  0.00    -0.071 C  
BRANCH  13  14
HETATM   14  O   UNL     1      -7.620   6.410  63.649  1.00  0.00    -0.078 OA 
BRANCH  14  15
HETATM   15  C   UNL     1      -6.718   5.646  64.304  1.00  0.00    -0.045 C  
HETATM   16  O   UNL     1      -6.884   4.517  64.732  1.00  0.00    -0.044 OA 
HETATM   17  N   UNL     1      -5.567   6.335  64.462  1.00  0.00    -0.021 N  
HETATM   18  H2  UNL     1      -5.403   7.288  64.137  1.00  0.00     0.000 HD 
HETATM   19  H1  UNL     1      -4.886   5.759  64.956  1.00  0.00     0.000 HD 
ENDBRANCH  14  15
ENDBRANCH  13  14
ENDBRANCH   4  13
BRANCH  12  20
HETATM   20  N   UNL     1      -9.249  12.676  66.149  1.00  0.00    -0.423 N  
HETATM   21  O   UNL     1      -9.885  12.139  68.282  1.00  0.00    -0.204 OA 
HETATM   22  C   UNL     1      -9.125  12.727  67.519  1.00  0.00    -0.193 C  
HETATM   23  H   UNL     1      -8.616  13.246  65.587  1.00  0.00     0.000 HD 
BRANCH  22  24
HETATM   24  C   UNL     1      -8.000  13.610  68.018  1.00  0.00    -0.154 C  
BRANCH  24  25
HETATM   25  C   UNL     1      -7.401  13.067  69.277  1.00  0.00     0.241 A  
HETATM   26  C   UNL     1      -6.064  12.944  69.606  1.00  0.00    -0.124 A  
HETATM   27  C   UNL     1      -5.870  12.260  70.841  1.00  0.00     0.095 A  
HETATM   28  C   UNL     1      -7.064  11.913  71.431  1.00  0.00     5.409 A  
HETATM   29  S   UNL     1      -8.408  12.422  70.506  1.00  0.00     6.806 SA 
ENDBRANCH  24  25
ENDBRANCH  22  24
ENDBRANCH  12  20
BRANCH  12  30
HETATM   30  O   UNL     1     -11.516  12.532  65.204  1.00  0.00    -0.306 OA 
HETATM   31  C   UNL     1     -11.441  13.953  65.239  1.00  0.00    -0.315 C  
ENDBRANCH  12  30
TORSDOF 7
ENDMDL
MODEL      178
REMARK 921   NORMALIZED FREE ENERGY PREDICTED BY IDOCK:   19.92 KCAL/MOL
REMARK 922        TOTAL FREE ENERGY PREDICTED BY IDOCK:   27.39 KCAL/MOL
REMARK 923 INTER-LIGAND FREE ENERGY PREDICTED BY IDOCK:   11.04 KCAL/MOL
REMARK 924 INTRA-LIGAND FREE ENERGY PREDICTED BY IDOCK:   16.34 KCAL/MOL
REMARK 927      BINDING AFFINITY PREDICTED BY RF-SCORE:    0.00 PKD
ROOT
HETATM    1  C   UNL     1      -6.302  17.075  68.561  1.00  0.00    -0.154 C  
HETATM    2  S   UNL     1      -7.036  17.851  70.016  1.00  0.00     1.198 SA 
HETATM    3  C   UNL     1      -6.504  16.534  71.125  1.00  0.00     2.103 C  
HETATM    4  C   UNL     1      -6.776  15.121  70.635  1.00  0.00     0.331 C  
HETATM    5  C   UNL     1      -6.963  14.783  69.325  1.00  0.00    -0.149 C  
HETATM    6  O   UNL     1      -7.177  15.026  66.183  1.00  0.00     1.420 OA 
HETATM    7  O   UNL     1      -7.401  13.022  67.664  1.00  0.00    -0.119 OA 
HETATM    8  C   UNL     1      -7.369  13.360  68.965  1.00  0.00     0.023 C  
HETATM    9  N   UNL     1      -6.879  15.753  68.362  1.00  0.00    -0.113 N  
HETATM   10  C   UNL     1      -7.033  15.882  67.025  1.00  0.00    -0.138 C  
HETATM   11  O   UNL     1      -7.632  12.507  69.801  1.00  0.00     0.728 OA 
HETATM   12  C   UNL     1      -6.943  17.489  67.159  1.00  0.00    -0.171 C  
ENDROOT
BRANCH   4  13
HETATM   13  C   UNL     1      -6.886  14.140  71.804  1.00  0.00     2.221 C  
BRANCH  13  14
HETATM   14  O   UNL     1      -6.622  12.792  71.358  1.00  0.00     1.306 OA 
BRANCH  14  15
HETATM   15  C   UNL     1      -5.676  12.651  70.404  1.00  0.00    -0.172 C  
HETATM   16  O   UNL     1      -5.325  13.486  69.588  1.00  0.00    -0.084 OA 
HETATM   17  N   UNL     1      -5.167  11.400  70.448  1.00  0.00    -0.090 N  
HETATM   18  H2  UNL     1      -5.455  10.672  71.102  1.00  0.00     0.000 HD 
HETATM   19  H1  UNL     1      -4.452  11.294  69.728  1.00  0.00     0.000 HD 
ENDBRANCH  14  15
ENDBRANCH  13  14
ENDBRANCH   4  13
BRANCH  12  20
HETATM   20  N   UNL     1      -8.232  18.246  67.285  1.00  0.00    -0.235 N  
HETATM   21  O   UNL     1      -9.260  16.817  68.749  1.00  0.00    -0.250 OA 
HETATM   22  C   UNL     1      -9.269  17.860  68.103  1.00  0.00    -0.278 C  
HETATM   23  H   UNL     1      -8.346  19.096  66.732  1.00  0.00     0.000 HD 
BRANCH  22  24
HETATM   24  C   UNL     1     -10.455  18.804  68.107  1.00  0.00    -0.372 C  
BRANCH  24  25
HETATM   25  C   UNL     1     -10.488  19.640  66.866  1.00  0.00    -0.488 A  
HETATM   26  C   UNL     1     -11.386  19.580  65.818  1.00  0.00     0.567 A  
HETATM   27  C   UNL     1     -11.026  20.446  64.745  1.00  0.00     1.196 A  
HETATM   28  C   UNL     1      -9.885  21.163  65.023  1.00  0.00     2.731 A  
HETATM   29  S   UNL     1      -9.262  20.802  66.573  1.00  0.00     0.348 SA 
ENDBRANCH  24  25
ENDBRANCH  22  24
ENDBRANCH  12  20
BRANCH  12  30
HETATM   30  O   UNL     1      -6.008  18.119  66.241  1.00  0.00    -0.153 OA 
HETATM   31  C   UNL     1      -5.639  19.456  66.562  1.00  0.00    -0.161 C  
ENDBRANCH  12  30
TORSDOF 7
ENDMDL
MODEL      179
REMARK 921   NORMALIZED FREE ENERGY PREDICTED BY IDOCK:   21.11 KCAL/MOL
REMARK 922        TOTAL FREE ENERGY PREDICTED BY IDOCK:   29.07 KCAL/MOL
REMARK 923 INTER-LIGAND FREE ENERGY PREDICTED BY IDOCK:   29.50 KCAL/MOL
REMARK 924 INTRA-LIGAND FREE ENERGY PREDICTED BY IDOCK:   -0.43 KCAL/MOL
REMARK 927      BINDING AFFINITY PREDICTED BY RF-SCORE:    0.00 PKD
ROOT
HETATM    1  C   UNL     1      -5.812   8.167  71.358  1.00  0.00    -0.035 C  
HETATM    2  S   UNL     1      -5.388   8.802  69.723  1.00  0.00    -0.029 SA 
HETATM    3  C   UNL     1      -5.486  10.524  70.243  1.00  0.00    -0.063 C  
HETATM    4  C   UNL     1      -6.721  10.891  71.049  1.00  0.00     1.200 C  
HETATM    5  C   UNL     1      -7.480   9.995  71.746  1.00  0.00     2.164 C  
HETATM    6  O   UNL     1      -8.472   7.279  73.018  1.00  0.00    -0.116 OA 
HETATM    7  O   UNL     1      -9.422   9.587  73.200  1.00  0.00     2.031 OA 
HETATM    8  C   UNL     1      -8.775  10.454  72.401  1.00  0.00     8.395 C  
HETATM    9  N   UNL     1      -7.115   8.675  71.763  1.00  0.00    -0.097 N  
HETATM   10  C   UNL     1      -7.566   7.496  72.247  1.00  0.00    -0.086 C  
HETATM   11  O   UNL     1      -9.235  11.579  72.261  1.00  0.00    14.285 OA 
HETATM   12  C   UNL     1      -6.451   6.705  71.388  1.00  0.00    -0.046 C  
ENDROOT
BRANCH   4  13
HETATM   13  C   UNL     1      -7.046  12.381  70.919  1.00  0.00     3.644 C  
BRANCH  13  14
HETATM   14  O   UNL     1      -6.429  12.931  69.735  1.00  0.00    -0.096 OA 
BRANCH  14  15
HETATM   15  C   UNL     1      -7.231  13.089  68.659  1.00  0.00    -0.101 C  
HETATM   16  O   UNL     1      -7.232  12.423  67.638  1.00  0.00    -0.106 OA 
HETATM   17  N   UNL     1      -8.047  14.149  68.852  1.00  0.00    -0.296 N  
HETATM   18  H2  UNL     1      -8.056  14.740  69.683  1.00  0.00     0.000 HD 
HETATM   19  H1  UNL     1      -8.653  14.268  68.040  1.00  0.00     0.000 HD 
ENDBRANCH  14  15
ENDBRANCH  13  14
ENDBRANCH   4  13
BRANCH  12  20
HETATM   20  N   UNL     1      -6.852   6.194  70.036  1.00  0.00    -0.055 N  
HETATM   21  O   UNL     1      -7.836   4.251  70.747  1.00  0.00    -0.058 OA 
HETATM   22  C   UNL     1      -7.547   5.022  69.836  1.00  0.00    -0.060 C  
HETATM   23  H   UNL     1      -6.596   6.746  69.217  1.00  0.00     0.000 HD 
BRANCH  22  24
HETATM   24  C   UNL     1      -7.888   4.729  68.389  1.00  0.00    -0.081 C  
BRANCH  24  25
HETATM   25  C   UNL     1      -8.499   5.921  67.723  1.00  0.00    -0.107 A  
HETATM   26  C   UNL     1      -9.831   6.286  67.676  1.00  0.00    -0.135 A  
HETATM   27  C   UNL     1     -10.053   7.418  66.838  1.00  0.00    -0.327 A  
HETATM   28  C   UNL     1      -8.881   7.900  66.301  1.00  0.00    -0.159 A  
HETATM   29  S   UNL     1      -7.522   7.000  66.816  1.00  0.00    -0.083 SA 
ENDBRANCH  24  25
ENDBRANCH  22  24
ENDBRANCH  12  20
BRANCH  12  30
HETATM   30  O   UNL     1      -5.680   5.735  72.149  1.00  0.00    -0.025 OA 
HETATM   31  C   UNL     1      -6.230   5.368  73.410  1.00  0.00    -0.056 C  
ENDBRANCH  12  30
TORSDOF 7
ENDMDL
MODEL      180
REMARK 921   NORMALIZED FREE ENERGY PREDICTED BY IDOCK:   21.60 KCAL/MOL
REMARK 922        TOTAL FREE ENERGY PREDICTED BY IDOCK:   29.76 KCAL/MOL
REMARK 923 INTER-LIGAND FREE ENERGY PREDICTED BY IDOCK:   29.73 KCAL/MOL
REMARK 924 INTRA-LIGAND FREE ENERGY PREDICTED BY IDOCK:    0.03 KCAL/MOL
REMARK 927      BINDING AFFINITY PREDICTED BY RF-SCORE:    0.00 PKD
ROOT
HETATM    1  C   UNL     1      -6.640  14.069  70.960  1.00  0.00     0.560 C  
HETATM    2  S   UNL     1      -8.067  13.903  72.053  1.00  0.00     9.759 SA 
HETATM    3  C   UNL     1      -7.326  12.563  73.002  1.00  0.00    12.028 C  
HETATM    4  C   UNL     1      -6.700  11.451  72.178  1.00  0.00     5.113 C  
HETATM    5  C   UNL     1      -6.283  11.591  70.884  1.00  0.00     0.561 C  
HETATM    6  O   UNL     1      -5.612  12.910  68.094  1.00  0.00    -0.071 OA 
HETATM    7  O   UNL     1      -5.262  10.565  68.896  1.00  0.00    -0.042 OA 
HETATM    8  C   UNL     1      -5.802  10.371  70.112  1.00  0.00    -0.074 C  
HETATM    9  N   UNL     1      -6.397  12.810  70.271  1.00  0.00     0.028 N  
HETATM   10  C   UNL     1      -6.175  13.369  69.060  1.00  0.00    -0.092 C  
HETATM   11  O   UNL     1      -5.853   9.233  70.557  1.00  0.00    -0.037 OA 
HETATM   12  C   UNL     1      -6.936  14.714  69.531  1.00  0.00    -0.165 C  
ENDROOT
BRANCH   4  13
HETATM   13  C   UNL     1      -6.665  10.134  72.958  1.00  0.00     2.625 C  
BRANCH  13  14
HETATM   14  O   UNL     1      -7.640   9.209  72.430  1.00  0.00    -0.271 OA 
BRANCH  14  15
HETATM   15  C   UNL     1      -8.478   8.646  73.328  1.00  0.00     0.161 C  
HETATM   16  O   UNL     1      -8.209   7.779  74.142  1.00  0.00    -0.189 OA 
HETATM   17  N   UNL     1      -9.718   9.163  73.180  1.00  0.00     1.580 N  
HETATM   18  H2  UNL     1      -9.981   9.871  72.494  1.00  0.00     0.000 HD 
HETATM   19  H1  UNL     1     -10.351   8.738  73.857  1.00  0.00     0.000 HD 
ENDBRANCH  14  15
ENDBRANCH  13  14
ENDBRANCH   4  13
BRANCH  12  20
HETATM   20  N   UNL     1      -8.397  14.832  69.211  1.00  0.00    -0.345 N  
HETATM   21  O   UNL     1      -8.175  15.047  66.942  1.00  0.00    -0.215 OA 
HETATM   22  C   UNL     1      -8.893  14.951  67.933  1.00  0.00    -0.165 C  
HETATM   23  H   UNL     1      -9.060  14.823  69.986  1.00  0.00     0.000 HD 
BRANCH  22  24
HETATM   24  C   UNL     1     -10.404  15.006  67.845  1.00  0.00    -0.241 C  
BRANCH  24  25
HETATM   25  C   UNL     1     -10.939  13.895  66.998  1.00  0.00    -0.295 A  
HETATM   26  C   UNL     1     -10.233  12.920  66.318  1.00  0.00    -0.285 A  
HETATM   27  C   UNL     1     -11.076  12.105  65.508  1.00  0.00    -0.361 A  
HETATM   28  C   UNL     1     -12.400  12.461  65.621  1.00  0.00    -0.106 A  
HETATM   29  S   UNL     1     -12.624  13.761  66.708  1.00  0.00     0.141 SA 
ENDBRANCH  24  25
ENDBRANCH  22  24
ENDBRANCH  12  20
BRANCH  12  30
HETATM   30  O   UNL     1      -6.203  15.943  69.271  1.00  0.00    -0.129 OA 
HETATM   31  C   UNL     1      -6.702  17.106  69.924  1.00  0.00     0.255 C  
ENDBRANCH  12  30
TORSDOF 7
ENDMDL
MODEL      181
REMARK 921   NORMALIZED FREE ENERGY PREDICTED BY IDOCK:   23.85 KCAL/MOL
REMARK 922        TOTAL FREE ENERGY PREDICTED BY IDOCK:   32.93 KCAL/MOL
REMARK 923 INTER-LIGAND FREE ENERGY PREDICTED BY IDOCK:   26.12 KCAL/MOL
REMARK 924 INTRA-LIGAND FREE ENERGY PREDICTED BY IDOCK:    6.81 KCAL/MOL
REMARK 927      BINDING AFFINITY PREDICTED BY RF-SCORE:    0.00 PKD
ROOT
HETATM    1  C   UNL     1     -11.396  15.196  68.786  1.00  0.00    -0.300 C  
HETATM    2  S   UNL     1     -10.528  15.694  67.284  1.00  0.00    -0.295 SA 
HETATM    3  C   UNL     1     -10.027  14.011  66.881  1.00  0.00    -0.263 C  
HETATM    4  C   UNL     1      -9.434  13.215  68.032  1.00  0.00    -0.220 C  
HETATM    5  C   UNL     1      -9.649  13.492  69.352  1.00  0.00     0.824 C  
HETATM    6  O   UNL     1     -10.776  14.859  71.967  1.00  0.00     0.429 OA 
HETATM    7  O   UNL     1      -9.230  12.908  71.704  1.00  0.00    14.036 OA 
HETATM    8  C   UNL     1      -8.890  12.715  70.418  1.00  0.00     5.874 C  
HETATM    9  N   UNL     1     -10.472  14.533  69.694  1.00  0.00    -0.074 N  
HETATM   10  C   UNL     1     -10.908  15.166  70.806  1.00  0.00    -0.151 C  
HETATM   11  O   UNL     1      -8.012  11.903  70.158  1.00  0.00     1.585 OA 
HETATM   12  C   UNL     1     -11.563  16.330  69.897  1.00  0.00    -0.132 C  
ENDROOT
BRANCH   4  13
HETATM   13  C   UNL     1      -8.506  12.110  67.522  1.00  0.00    -0.169 C  
BRANCH  13  14
HETATM   14  O   UNL     1      -9.220  11.222  66.634  1.00  0.00    -0.171 OA 
BRANCH  14  15
HETATM   15  C   UNL     1     -10.434  10.805  67.054  1.00  0.00    -0.247 C  
HETATM   16  O   UNL     1     -11.105   9.902  66.582  1.00  0.00     0.053 OA 
HETATM   17  N   UNL     1     -10.847  11.570  68.087  1.00  0.00    -0.202 N  
HETATM   18  H2  UNL     1     -10.322  12.347  68.490  1.00  0.00     0.000 HD 
HETATM   19  H1  UNL     1     -11.764  11.255  68.405  1.00  0.00     0.000 HD 
ENDBRANCH  14  15
ENDBRANCH  13  14
ENDBRANCH   4  13
BRANCH  12  20
HETATM   20  N   UNL     1     -10.737  17.555  69.638  1.00  0.00    -0.196 N  
HETATM   21  O   UNL     1     -11.160  17.715  67.393  1.00  0.00    -0.150 OA 
HETATM   22  C   UNL     1     -10.637  18.165  68.408  1.00  0.00    -0.197 C  
HETATM   23  H   UNL     1     -10.219  17.958  70.419  1.00  0.00     0.000 HD 
BRANCH  22  24
HETATM   24  C   UNL     1      -9.785  19.418  68.393  1.00  0.00    -0.488 C  
BRANCH  24  25
HETATM   25  C   UNL     1      -9.595  19.927  66.999  1.00  0.00    -0.388 A  
HETATM   26  C   UNL     1     -10.418  20.769  66.275  1.00  0.00     0.678 A  
HETATM   27  C   UNL     1      -9.977  20.933  64.930  1.00  0.00     1.913 A  
HETATM   28  C   UNL     1      -8.815  20.240  64.680  1.00  0.00     2.640 A  
HETATM   29  S   UNL     1      -8.255  19.408  66.064  1.00  0.00    -0.138 SA 
ENDBRANCH  24  25
ENDBRANCH  22  24
ENDBRANCH  12  20
BRANCH  12  30
HETATM   30  O   UNL     1     -12.946  16.643  70.223  1.00  0.00     1.683 OA 
HETATM   31  C   UNL     1     -13.725  15.552  70.701  1.00  0.00     0.185 C  
ENDBRANCH  12  30
TORSDOF 7
ENDMDL
