MODEL        1
REMARK 921   NORMALIZED FREE ENERGY PREDICTED BY IDOCK:   -7.19 KCAL/MOL
REMARK 922        TOTAL FREE ENERGY PREDICTED BY IDOCK:  -11.71 KCAL/MOL
REMARK 923 INTER-LIGAND FREE ENERGY PREDICTED BY IDOCK:  -10.55 KCAL/MOL
REMARK 924 INTRA-LIGAND FREE ENERGY PREDICTED BY IDOCK:   -1.15 KCAL/MOL
REMARK 927      BINDING AFFINITY PREDICTED BY RF-SCORE:    0.00 PKD
ROOT
HETATM    1  C   UNL     1     -11.686  14.376  68.533  1.00  0.00    -0.335 C  
HETATM    2  S   UNL     1     -11.083  15.607  69.657  1.00  0.00    -0.331 SA 
HETATM    3  C   UNL     1     -10.339  16.853  68.562  1.00  0.00    -0.336 C  
HETATM    4  C   UNL     1     -10.409  16.637  67.077  1.00  0.00    -0.301 C  
HETATM    5  C   UNL     1     -11.385  13.113  66.929  1.00  0.00    -0.318 C  
HETATM    6  CA  UNL     1     -10.886  15.523  66.461  1.00  0.00    -0.284 C  
HETATM    7  N   UNL     1     -11.245  14.432  67.169  1.00  0.00    -0.316 N  
HETATM    8  CA  UNL     1     -11.330  12.832  68.464  1.00  0.00    -0.291 C  
HETATM    9  C   UNL     1     -10.992  15.502  64.969  1.00  0.00    -0.440 C  
HETATM   10  O   UNL     1     -11.247  12.445  65.931  1.00  0.00    -0.306 OA 
HETATM   11  O   UNL     1     -10.769  14.350  64.332  1.00  0.00    -0.296 OA 
HETATM   12  OXT UNL     1     -11.346  16.491  64.338  1.00  0.00    -0.921 OA 
ENDROOT
BRANCH   4  13
HETATM   13  C   UNL     1      -9.723  17.769  66.309  1.00  0.00    -0.267 C  
BRANCH  13  14
HETATM   14  O   UNL     1      -8.365  17.443  65.974  1.00  0.00    -0.498 OA 
BRANCH  14  15
HETATM   15  C   UNL     1      -7.457  18.462  65.979  1.00  0.00    -0.221 C  
HETATM   16  C   UNL     1      -7.456  19.189  67.296  1.00  0.00    -0.246 C  
HETATM   17  O   UNL     1      -6.689  18.727  65.063  1.00  0.00    -0.514 OA 
ENDBRANCH  14  15
ENDBRANCH  13  14
ENDBRANCH   4  13
BRANCH   8  18
HETATM   18  N   UNL     1     -10.083  12.041  68.846  1.00  0.00    -0.411 N  
HETATM   19  C   UNL     1      -9.857  10.754  69.327  1.00  0.00    -0.138 C  
HETATM   20  H   UNL     1      -9.222  12.574  68.720  1.00  0.00     0.000 HD 
HETATM   21  O   UNL     1      -8.716  10.484  69.773  1.00  0.00    -0.056 OA 
BRANCH  19  22
HETATM   22  C   UNL     1     -10.856   9.600  69.250  1.00  0.00    -0.205 C  
BRANCH  22  23
HETATM   23  C   UNL     1     -11.429   8.980  70.461  1.00  0.00    -0.212 A  
HETATM   24  N   UNL     1     -12.326   9.626  71.321  1.00  0.00    -0.337 NA 
HETATM   25  H2  UNL     1     -14.379   8.339  73.487  1.00  0.00     0.000 HD 
HETATM   26  N   UNL     1     -13.911   9.075  72.958  1.00  0.00    -1.141 NA 
HETATM   27  C   UNL     1     -11.417   7.600  70.598  1.00  0.00    -0.258 A  
HETATM   28  S   UNL     1     -12.515   7.111  71.810  1.00  0.00    -0.337 SA 
HETATM   29  H1  UNL     1     -14.172  10.050  73.110  1.00  0.00     0.000 HD 
HETATM   30  C   UNL     1     -12.953   8.752  72.065  1.00  0.00    -0.390 A  
ENDBRANCH  22  23
BRANCH  22  31
HETATM   31  N   UNL     1     -11.112   8.851  68.222  1.00  0.00    -0.446 NA 
HETATM   32  H   UNL     1     -11.529   7.937  68.398  1.00  0.00     0.000 HD 
BRANCH  31  33
HETATM   33  O   UNL     1     -10.863   9.199  66.894  1.00  0.00    -0.147 OA 
HETATM   34  C   UNL     1      -9.742   8.666  66.227  1.00  0.00    -0.251 C  
ENDBRANCH  31  33
ENDBRANCH  22  31
ENDBRANCH  19  22
ENDBRANCH   8  18
TORSDOF 8
ENDMDL
MODEL        2
REMARK 921   NORMALIZED FREE ENERGY PREDICTED BY IDOCK:   -7.13 KCAL/MOL
REMARK 922        TOTAL FREE ENERGY PREDICTED BY IDOCK:  -11.61 KCAL/MOL
REMARK 923 INTER-LIGAND FREE ENERGY PREDICTED BY IDOCK:  -10.28 KCAL/MOL
REMARK 924 INTRA-LIGAND FREE ENERGY PREDICTED BY IDOCK:   -1.34 KCAL/MOL
REMARK 927      BINDING AFFINITY PREDICTED BY RF-SCORE:    0.00 PKD
ROOT
HETATM    1  C   UNL     1     -12.100  13.441  68.463  1.00  0.00    -0.248 C  
HETATM    2  S   UNL     1     -11.660  11.812  67.920  1.00  0.00    -0.285 SA 
HETATM    3  C   UNL     1     -11.907  10.791  69.404  1.00  0.00    -0.298 C  
HETATM    4  C   UNL     1     -12.419  11.451  70.653  1.00  0.00    -0.419 C  
HETATM    5  C   UNL     1     -11.935  14.982  69.826  1.00  0.00    -0.328 C  
HETATM    6  CA  UNL     1     -12.614  12.786  70.819  1.00  0.00    -0.225 C  
HETATM    7  N   UNL     1     -12.241  13.671  69.873  1.00  0.00    -0.322 N  
HETATM    8  CA  UNL     1     -11.225  14.765  68.452  1.00  0.00    -0.284 C  
HETATM    9  C   UNL     1     -13.234  13.280  72.088  1.00  0.00    -0.464 C  
HETATM   10  O   UNL     1     -11.919  15.849  70.670  1.00  0.00    -0.364 OA 
HETATM   11  O   UNL     1     -12.828  14.454  72.579  1.00  0.00    -0.357 OA 
HETATM   12  OXT UNL     1     -14.145  12.671  72.636  1.00  0.00    -0.356 OA 
ENDROOT
BRANCH   4  13
HETATM   13  C   UNL     1     -12.552  10.452  71.804  1.00  0.00    -0.367 C  
BRANCH  13  14
HETATM   14  O   UNL     1     -13.546   9.451  71.534  1.00  0.00    -0.373 OA 
BRANCH  14  15
HETATM   15  C   UNL     1     -13.173   8.146  71.666  1.00  0.00    -0.332 C  
HETATM   16  C   UNL     1     -11.805   8.026  72.281  1.00  0.00    -0.424 C  
HETATM   17  O   UNL     1     -13.871   7.180  71.385  1.00  0.00    -0.364 OA 
ENDBRANCH  14  15
ENDBRANCH  13  14
ENDBRANCH   4  13
BRANCH   8  18
HETATM   18  N   UNL     1      -9.723  15.010  68.551  1.00  0.00    -0.211 N  
HETATM   19  C   UNL     1      -8.799  15.709  67.776  1.00  0.00    -0.171 C  
HETATM   20  H   UNL     1      -9.301  14.564  69.365  1.00  0.00     0.000 HD 
HETATM   21  O   UNL     1      -7.580  15.518  68.001  1.00  0.00    -0.117 OA 
BRANCH  19  22
HETATM   22  C   UNL     1      -9.149  16.783  66.748  1.00  0.00    -0.241 C  
BRANCH  22  23
HETATM   23  C   UNL     1      -9.619  18.125  67.148  1.00  0.00    -0.277 A  
HETATM   24  N   UNL     1     -10.150  18.423  68.409  1.00  0.00    -0.376 NA 
HETATM   25  H2  UNL     1     -10.453  21.308  69.876  1.00  0.00     0.000 HD 
HETATM   26  N   UNL     1     -10.527  20.296  69.769  1.00  0.00    -0.499 NA 
HETATM   27  C   UNL     1      -9.201  19.240  66.438  1.00  0.00    -0.352 A  
HETATM   28  S   UNL     1      -9.483  20.662  67.339  1.00  0.00    -0.291 SA 
HETATM   29  H1  UNL     1     -10.906  19.733  70.530  1.00  0.00     0.000 HD 
HETATM   30  C   UNL     1     -10.122  19.714  68.620  1.00  0.00    -0.447 A  
ENDBRANCH  22  23
BRANCH  22  31
HETATM   31  N   UNL     1      -9.358  16.617  65.478  1.00  0.00    -0.391 NA 
HETATM   32  H   UNL     1      -8.546  16.628  64.862  1.00  0.00     0.000 HD 
BRANCH  31  33
HETATM   33  O   UNL     1     -10.608  16.424  64.890  1.00  0.00    -0.677 OA 
HETATM   34  C   UNL     1     -11.186  15.139  64.874  1.00  0.00    -0.417 C  
ENDBRANCH  31  33
ENDBRANCH  22  31
ENDBRANCH  19  22
ENDBRANCH   8  18
TORSDOF 8
ENDMDL
MODEL        3
REMARK 921   NORMALIZED FREE ENERGY PREDICTED BY IDOCK:   -7.10 KCAL/MOL
REMARK 922        TOTAL FREE ENERGY PREDICTED BY IDOCK:  -11.57 KCAL/MOL
REMARK 923 INTER-LIGAND FREE ENERGY PREDICTED BY IDOCK:  -10.49 KCAL/MOL
REMARK 924 INTRA-LIGAND FREE ENERGY PREDICTED BY IDOCK:   -1.08 KCAL/MOL
REMARK 927      BINDING AFFINITY PREDICTED BY RF-SCORE:    0.00 PKD
ROOT
HETATM    1  C   UNL     1      -9.167  15.517  66.223  1.00  0.00    -0.329 C  
HETATM    2  S   UNL     1      -8.539  15.011  67.801  1.00  0.00    -0.169 SA 
HETATM    3  C   UNL     1      -9.754  13.784  68.368  1.00  0.00    -0.219 C  
HETATM    4  C   UNL     1     -10.907  13.446  67.466  1.00  0.00    -0.276 C  
HETATM    5  C   UNL     1     -10.725  16.183  65.044  1.00  0.00    -0.337 C  
HETATM    6  CA  UNL     1     -11.199  14.063  66.290  1.00  0.00    -0.320 C  
HETATM    7  N   UNL     1     -10.511  15.147  65.879  1.00  0.00    -0.316 N  
HETATM    8  CA  UNL     1      -9.564  16.971  65.728  1.00  0.00    -0.009 C  
HETATM    9  C   UNL     1     -12.321  13.538  65.450  1.00  0.00    -0.478 C  
HETATM   10  O   UNL     1     -11.655  16.478  64.329  1.00  0.00    -0.923 OA 
HETATM   11  O   UNL     1     -13.056  14.411  64.755  1.00  0.00    -0.548 OA 
HETATM   12  OXT UNL     1     -12.526  12.337  65.334  1.00  0.00    -0.596 OA 
ENDROOT
BRANCH   4  13
HETATM   13  C   UNL     1     -11.837  12.412  68.103  1.00  0.00    -0.315 C  
BRANCH  13  14
HETATM   14  O   UNL     1     -11.857  12.519  69.536  1.00  0.00    -0.305 OA 
BRANCH  14  15
HETATM   15  C   UNL     1     -11.978  11.362  70.249  1.00  0.00    -0.373 C  
HETATM   16  C   UNL     1     -10.934  10.357  69.843  1.00  0.00    -0.364 C  
HETATM   17  O   UNL     1     -12.783  11.169  71.150  1.00  0.00    -0.380 OA 
ENDBRANCH  14  15
ENDBRANCH  13  14
ENDBRANCH   4  13
BRANCH   8  18
HETATM   18  N   UNL     1     -10.079  18.206  66.461  1.00  0.00    -0.366 N  
HETATM   19  C   UNL     1      -9.468  19.279  67.107  1.00  0.00    -0.323 C  
HETATM   20  H   UNL     1     -11.097  18.258  66.482  1.00  0.00     0.000 HD 
HETATM   21  O   UNL     1     -10.183  20.018  67.825  1.00  0.00    -0.411 OA 
BRANCH  19  22
HETATM   22  C   UNL     1      -8.012  19.702  66.919  1.00  0.00    -0.283 C  
BRANCH  22  23
HETATM   23  C   UNL     1      -6.996  19.497  67.971  1.00  0.00    -0.263 A  
HETATM   24  N   UNL     1      -6.696  20.438  68.963  1.00  0.00    -0.195 NA 
HETATM   25  H2  UNL     1      -5.222  20.001  71.826  1.00  0.00     0.000 HD 
HETATM   26  N   UNL     1      -5.688  20.515  71.078  1.00  0.00    -0.536 NA 
HETATM   27  C   UNL     1      -6.563  18.213  68.266  1.00  0.00    -0.205 A  
HETATM   28  S   UNL     1      -5.770  18.185  69.778  1.00  0.00    -0.243 SA 
HETATM   29  H1  UNL     1      -5.863  21.514  71.184  1.00  0.00     0.000 HD 
HETATM   30  C   UNL     1      -6.066  19.867  69.956  1.00  0.00    -0.333 A  
ENDBRANCH  22  23
BRANCH  22  31
HETATM   31  N   UNL     1      -7.537  20.504  66.014  1.00  0.00    -0.518 NA 
HETATM   32  H   UNL     1      -8.019  21.391  65.873  1.00  0.00     0.000 HD 
BRANCH  31  33
HETATM   33  O   UNL     1      -6.420  20.245  65.221  1.00  0.00    -0.245 OA 
HETATM   34  C   UNL     1      -6.120  21.090  64.134  1.00  0.00    -0.312 C  
ENDBRANCH  31  33
ENDBRANCH  22  31
ENDBRANCH  19  22
ENDBRANCH   8  18
TORSDOF 8
ENDMDL
MODEL        4
REMARK 921   NORMALIZED FREE ENERGY PREDICTED BY IDOCK:   -7.07 KCAL/MOL
REMARK 922        TOTAL FREE ENERGY PREDICTED BY IDOCK:  -11.54 KCAL/MOL
REMARK 923 INTER-LIGAND FREE ENERGY PREDICTED BY IDOCK:  -10.52 KCAL/MOL
REMARK 924 INTRA-LIGAND FREE ENERGY PREDICTED BY IDOCK:   -1.02 KCAL/MOL
REMARK 927      BINDING AFFINITY PREDICTED BY RF-SCORE:    0.00 PKD
ROOT
HETATM    1  C   UNL     1     -11.709  14.244  68.740  1.00  0.00    -0.343 C  
HETATM    2  S   UNL     1     -11.395  12.632  68.072  1.00  0.00    -0.313 SA 
HETATM    3  C   UNL     1     -11.942  11.512  69.396  1.00  0.00    -0.325 C  
HETATM    4  C   UNL     1     -12.527  12.108  70.645  1.00  0.00    -0.330 C  
HETATM    5  C   UNL     1     -11.538  15.611  70.276  1.00  0.00    -0.356 C  
HETATM    6  CA  UNL     1     -12.585  13.434  70.936  1.00  0.00    -0.327 C  
HETATM    7  N   UNL     1     -11.997  14.351  70.142  1.00  0.00    -0.302 N  
HETATM    8  CA  UNL     1     -10.692  15.439  68.975  1.00  0.00    -0.242 C  
HETATM    9  C   UNL     1     -13.298  13.879  72.175  1.00  0.00    -0.463 C  
HETATM   10  O   UNL     1     -11.528  16.383  71.208  1.00  0.00    -0.396 OA 
HETATM   11  O   UNL     1     -12.823  14.938  72.835  1.00  0.00    -0.385 OA 
HETATM   12  OXT UNL     1     -14.334  13.341  72.545  1.00  0.00    -0.662 OA 
ENDROOT
BRANCH   4  13
HETATM   13  C   UNL     1     -12.917  11.027  71.655  1.00  0.00    -0.456 C  
BRANCH  13  14
HETATM   14  O   UNL     1     -12.073   9.869  71.556  1.00  0.00    -0.377 OA 
BRANCH  14  15
HETATM   15  C   UNL     1     -12.528   8.712  72.117  1.00  0.00    -0.389 C  
HETATM   16  C   UNL     1     -14.032   8.670  72.143  1.00  0.00    -0.496 C  
HETATM   17  O   UNL     1     -11.823   7.788  72.499  1.00  0.00    -0.335 OA 
ENDBRANCH  14  15
ENDBRANCH  13  14
ENDBRANCH   4  13
BRANCH   8  18
HETATM   18  N   UNL     1      -9.196  15.479  69.268  1.00  0.00    -0.254 N  
HETATM   19  C   UNL     1      -8.166  16.361  68.949  1.00  0.00    -0.235 C  
HETATM   20  H   UNL     1      -8.879  14.683  69.821  1.00  0.00     0.000 HD 
HETATM   21  O   UNL     1      -6.986  15.982  69.141  1.00  0.00    -0.163 OA 
BRANCH  19  22
HETATM   22  C   UNL     1      -8.358  17.806  68.491  1.00  0.00    -0.297 C  
BRANCH  22  23
HETATM   23  C   UNL     1      -9.081  18.144  67.248  1.00  0.00    -0.252 A  
HETATM   24  N   UNL     1      -9.506  17.196  66.310  1.00  0.00    -0.365 NA 
HETATM   25  H2  UNL     1     -11.784  17.468  64.008  1.00  0.00     0.000 HD 
HETATM   26  N   UNL     1     -11.057  17.015  64.561  1.00  0.00    -1.062 NA 
HETATM   27  C   UNL     1      -9.717  19.370  67.135  1.00  0.00    -0.333 A  
HETATM   28  S   UNL     1     -10.837  19.344  65.847  1.00  0.00    -0.155 SA 
HETATM   29  H1  UNL     1     -10.812  16.042  64.374  1.00  0.00     0.000 HD 
HETATM   30  C   UNL     1     -10.425  17.706  65.533  1.00  0.00    -0.040 A  
ENDBRANCH  22  23
BRANCH  22  31
HETATM   31  N   UNL     1      -7.724  18.856  68.918  1.00  0.00    -0.315 NA 
HETATM   32  H   UNL     1      -8.232  19.498  69.526  1.00  0.00     0.000 HD 
BRANCH  31  33
HETATM   33  O   UNL     1      -6.403  19.175  68.608  1.00  0.00    -0.234 OA 
HETATM   34  C   UNL     1      -5.801  20.312  69.184  1.00  0.00    -0.316 C  
ENDBRANCH  31  33
ENDBRANCH  22  31
ENDBRANCH  19  22
ENDBRANCH   8  18
TORSDOF 8
ENDMDL
MODEL        5
REMARK 921   NORMALIZED FREE ENERGY PREDICTED BY IDOCK:   -7.04 KCAL/MOL
REMARK 922        TOTAL FREE ENERGY PREDICTED BY IDOCK:  -11.49 KCAL/MOL
REMARK 923 INTER-LIGAND FREE ENERGY PREDICTED BY IDOCK:  -10.42 KCAL/MOL
REMARK 924 INTRA-LIGAND FREE ENERGY PREDICTED BY IDOCK:   -1.07 KCAL/MOL
REMARK 927      BINDING AFFINITY PREDICTED BY RF-SCORE:    0.00 PKD
ROOT
HETATM    1  C   UNL     1     -11.975  14.018  68.728  1.00  0.00    -0.347 C  
HETATM    2  S   UNL     1     -11.519  12.441  68.059  1.00  0.00    -0.343 SA 
HETATM    3  C   UNL     1     -11.901  11.282  69.408  1.00  0.00    -0.355 C  
HETATM    4  C   UNL     1     -12.501  11.827  70.673  1.00  0.00    -0.364 C  
HETATM    5  C   UNL     1     -11.893  15.410  70.250  1.00  0.00    -0.338 C  
HETATM    6  CA  UNL     1     -12.687  13.143  70.958  1.00  0.00    -0.277 C  
HETATM    7  N   UNL     1     -12.224  14.108  70.139  1.00  0.00    -0.333 N  
HETATM    8  CA  UNL     1     -11.080  15.314  68.921  1.00  0.00    -0.266 C  
HETATM    9  C   UNL     1     -13.399  13.522  72.219  1.00  0.00    -0.531 C  
HETATM   10  O   UNL     1     -11.931  16.187  71.176  1.00  0.00    -0.412 OA 
HETATM   11  O   UNL     1     -13.014  14.631  72.856  1.00  0.00    -0.438 OA 
HETATM   12  OXT UNL     1     -14.360  12.884  72.628  1.00  0.00    -0.471 OA 
ENDROOT
BRANCH   4  13
HETATM   13  C   UNL     1     -12.743  10.721  71.703  1.00  0.00    -0.414 C  
BRANCH  13  14
HETATM   14  O   UNL     1     -12.081   9.498  71.342  1.00  0.00    -0.326 OA 
BRANCH  14  15
HETATM   15  C   UNL     1     -12.397   8.380  72.058  1.00  0.00    -0.361 C  
HETATM   16  C   UNL     1     -13.595   7.679  71.479  1.00  0.00    -0.422 C  
HETATM   17  O   UNL     1     -11.762   7.951  73.012  1.00  0.00    -0.305 OA 
ENDBRANCH  14  15
ENDBRANCH  13  14
ENDBRANCH   4  13
BRANCH   8  18
HETATM   18  N   UNL     1      -9.587  15.511  69.161  1.00  0.00    -0.235 N  
HETATM   19  C   UNL     1      -8.472  15.600  68.331  1.00  0.00    -0.164 C  
HETATM   20  H   UNL     1      -9.352  15.598  70.150  1.00  0.00     0.000 HD 
HETATM   21  O   UNL     1      -7.337  15.524  68.860  1.00  0.00    -0.129 OA 
BRANCH  19  22
HETATM   22  C   UNL     1      -8.514  15.901  66.833  1.00  0.00    -0.240 C  
BRANCH  22  23
HETATM   23  C   UNL     1      -8.377  17.274  66.308  1.00  0.00    -0.254 A  
HETATM   24  N   UNL     1      -9.369  18.256  66.419  1.00  0.00    -0.389 NA 
HETATM   25  H2  UNL     1      -9.095  21.485  66.178  1.00  0.00     0.000 HD 
HETATM   26  N   UNL     1      -9.564  20.590  66.315  1.00  0.00    -0.657 NA 
HETATM   27  C   UNL     1      -7.117  17.779  66.025  1.00  0.00    -0.300 A  
HETATM   28  S   UNL     1      -7.175  19.479  65.884  1.00  0.00    -0.295 SA 
HETATM   29  H1  UNL     1     -10.563  20.569  66.518  1.00  0.00     0.000 HD 
HETATM   30  C   UNL     1      -8.857  19.443  66.225  1.00  0.00    -0.351 A  
ENDBRANCH  22  23
BRANCH  22  31
HETATM   31  N   UNL     1      -8.934  15.119  65.886  1.00  0.00    -0.425 NA 
HETATM   32  H   UNL     1      -8.493  14.204  65.801  1.00  0.00     0.000 HD 
BRANCH  31  33
HETATM   33  O   UNL     1      -9.943  15.433  64.976  1.00  0.00    -0.277 OA 
HETATM   34  C   UNL     1     -11.202  14.808  65.079  1.00  0.00    -0.395 C  
ENDBRANCH  31  33
ENDBRANCH  22  31
ENDBRANCH  19  22
ENDBRANCH   8  18
TORSDOF 8
ENDMDL
MODEL        6
REMARK 921   NORMALIZED FREE ENERGY PREDICTED BY IDOCK:   -7.02 KCAL/MOL
REMARK 922        TOTAL FREE ENERGY PREDICTED BY IDOCK:  -11.45 KCAL/MOL
REMARK 923 INTER-LIGAND FREE ENERGY PREDICTED BY IDOCK:  -10.75 KCAL/MOL
REMARK 924 INTRA-LIGAND FREE ENERGY PREDICTED BY IDOCK:   -0.70 KCAL/MOL
REMARK 927      BINDING AFFINITY PREDICTED BY RF-SCORE:    0.00 PKD
ROOT
HETATM    1  C   UNL     1     -12.030  14.392  68.973  1.00  0.00    -0.307 C  
HETATM    2  S   UNL     1     -11.580  12.869  68.185  1.00  0.00    -0.355 SA 
HETATM    3  C   UNL     1     -11.960  11.613  69.443  1.00  0.00    -0.316 C  
HETATM    4  C   UNL     1     -12.554  12.061  70.748  1.00  0.00    -0.312 C  
HETATM    5  C   UNL     1     -11.941  15.665  70.594  1.00  0.00    -0.402 C  
HETATM    6  CA  UNL     1     -12.736  13.352  71.133  1.00  0.00    -0.328 C  
HETATM    7  N   UNL     1     -12.275  14.376  70.387  1.00  0.00    -0.316 N  
HETATM    8  CA  UNL     1     -11.132  15.668  69.259  1.00  0.00    -0.293 C  
HETATM    9  C   UNL     1     -13.443  13.637  72.421  1.00  0.00    -0.584 C  
HETATM   10  O   UNL     1     -11.974  16.370  71.577  1.00  0.00    -0.391 OA 
HETATM   11  O   UNL     1     -13.054  14.694  73.139  1.00  0.00    -0.499 OA 
HETATM   12  OXT UNL     1     -14.404  12.970  72.785  1.00  0.00    -0.477 OA 
ENDROOT
BRANCH   4  13
HETATM   13  C   UNL     1     -12.794  10.881  71.692  1.00  0.00    -0.449 C  
BRANCH  13  14
HETATM   14  O   UNL     1     -12.689   9.620  71.012  1.00  0.00    -0.314 OA 
BRANCH  14  15
HETATM   15  C   UNL     1     -12.307   8.539  71.752  1.00  0.00    -0.338 C  
HETATM   16  C   UNL     1     -11.218   7.762  71.065  1.00  0.00    -0.282 C  
HETATM   17  O   UNL     1     -12.738   8.256  72.862  1.00  0.00    -0.132 OA 
ENDBRANCH  14  15
ENDBRANCH  13  14
ENDBRANCH   4  13
BRANCH   8  18
HETATM   18  N   UNL     1      -9.638  15.845  69.508  1.00  0.00    -0.262 N  
HETATM   19  C   UNL     1      -8.512  15.874  68.688  1.00  0.00    -0.200 C  
HETATM   20  H   UNL     1      -9.412  15.969  70.495  1.00  0.00     0.000 HD 
HETATM   21  O   UNL     1      -7.385  15.797  69.233  1.00  0.00    -0.189 OA 
BRANCH  19  22
HETATM   22  C   UNL     1      -8.532  16.111  67.178  1.00  0.00    -0.191 C  
BRANCH  22  23
HETATM   23  C   UNL     1      -9.622  15.602  66.321  1.00  0.00    -0.308 A  
HETATM   24  N   UNL     1     -10.466  16.421  65.562  1.00  0.00    -0.515 NA 
HETATM   25  H2  UNL     1     -12.311  15.650  63.000  1.00  0.00     0.000 HD 
HETATM   26  N   UNL     1     -11.901  16.249  63.716  1.00  0.00    -1.413 NA 
HETATM   27  C   UNL     1      -9.617  14.275  65.919  1.00  0.00    -0.196 A  
HETATM   28  S   UNL     1     -10.678  14.048  64.601  1.00  0.00    -0.345 SA 
HETATM   29  H1  UNL     1     -12.130  17.243  63.733  1.00  0.00     0.000 HD 
HETATM   30  C   UNL     1     -11.062  15.722  64.631  1.00  0.00    -0.361 A  
ENDBRANCH  22  23
BRANCH  22  31
HETATM   31  N   UNL     1      -7.544  16.500  66.431  1.00  0.00    -0.263 NA 
HETATM   32  H   UNL     1      -7.061  15.789  65.883  1.00  0.00     0.000 HD 
BRANCH  31  33
HETATM   33  O   UNL     1      -7.094  17.815  66.320  1.00  0.00    -0.239 OA 
HETATM   34  C   UNL     1      -5.712  18.088  66.352  1.00  0.00    -0.174 C  
ENDBRANCH  31  33
ENDBRANCH  22  31
ENDBRANCH  19  22
ENDBRANCH   8  18
TORSDOF 8
ENDMDL
MODEL        7
REMARK 921   NORMALIZED FREE ENERGY PREDICTED BY IDOCK:   -7.01 KCAL/MOL
REMARK 922        TOTAL FREE ENERGY PREDICTED BY IDOCK:  -11.44 KCAL/MOL
REMARK 923 INTER-LIGAND FREE ENERGY PREDICTED BY IDOCK:  -10.57 KCAL/MOL
REMARK 924 INTRA-LIGAND FREE ENERGY PREDICTED BY IDOCK:   -0.87 KCAL/MOL
REMARK 927      BINDING AFFINITY PREDICTED BY RF-SCORE:    0.00 PKD
ROOT
HETATM    1  C   UNL     1     -11.862  14.009  68.396  1.00  0.00    -0.362 C  
HETATM    2  S   UNL     1     -10.983  15.070  69.511  1.00  0.00    -0.280 SA 
HETATM    3  C   UNL     1     -10.142  16.244  68.405  1.00  0.00    -0.237 C  
HETATM    4  C   UNL     1     -10.367  16.121  66.925  1.00  0.00    -0.297 C  
HETATM    5  C   UNL     1     -11.897  12.803  66.722  1.00  0.00    -0.382 C  
HETATM    6  CA  UNL     1     -11.063  15.129  66.310  1.00  0.00    -0.309 C  
HETATM    7  N   UNL     1     -11.531  14.070  67.001  1.00  0.00    -0.333 N  
HETATM    8  CA  UNL     1     -11.763  12.434  68.233  1.00  0.00    -0.345 C  
HETATM    9  C   UNL     1     -11.292  15.205  64.832  1.00  0.00    -0.399 C  
HETATM   10  O   UNL     1     -11.949  12.176  65.689  1.00  0.00    -0.503 OA 
HETATM   11  O   UNL     1     -11.306  14.068  64.132  1.00  0.00    -0.300 OA 
HETATM   12  OXT UNL     1     -11.534  16.269  64.277  1.00  0.00    -0.727 OA 
ENDROOT
BRANCH   4  13
HETATM   13  C   UNL     1      -9.575  17.173  66.146  1.00  0.00    -0.218 C  
BRANCH  13  14
HETATM   14  O   UNL     1     -10.183  18.472  66.230  1.00  0.00    -0.385 OA 
BRANCH  14  15
HETATM   15  C   UNL     1      -9.474  19.456  66.855  1.00  0.00    -0.333 C  
HETATM   16  C   UNL     1     -10.089  19.816  68.180  1.00  0.00    -0.574 C  
HETATM   17  O   UNL     1      -8.435  19.950  66.440  1.00  0.00    -0.332 OA 
ENDBRANCH  14  15
ENDBRANCH  13  14
ENDBRANCH   4  13
BRANCH   8  18
HETATM   18  N   UNL     1     -10.629  11.441  68.470  1.00  0.00    -0.189 N  
HETATM   19  C   UNL     1     -10.373  10.472  69.437  1.00  0.00    -0.234 C  
HETATM   20  H   UNL     1      -9.897  11.500  67.763  1.00  0.00     0.000 HD 
HETATM   21  O   UNL     1      -9.220   9.979  69.484  1.00  0.00    -0.200 OA 
BRANCH  19  22
HETATM   22  C   UNL     1     -11.417   9.870  70.375  1.00  0.00    -0.301 C  
BRANCH  22  23
HETATM   23  C   UNL     1     -11.172   8.617  71.118  1.00  0.00    -0.272 A  
HETATM   24  N   UNL     1     -10.655   8.569  72.419  1.00  0.00    -0.331 NA 
HETATM   25  H2  UNL     1     -10.800   6.159  74.594  1.00  0.00     0.000 HD 
HETATM   26  N   UNL     1     -10.557   7.078  74.226  1.00  0.00    -0.531 NA 
HETATM   27  C   UNL     1     -11.801   7.447  70.721  1.00  0.00    -0.258 A  
HETATM   28  S   UNL     1     -11.735   6.282  71.966  1.00  0.00    -0.299 SA 
HETATM   29  H1  UNL     1     -10.059   7.744  74.817  1.00  0.00     0.000 HD 
HETATM   30  C   UNL     1     -10.897   7.403  72.961  1.00  0.00    -0.375 A  
ENDBRANCH  22  23
BRANCH  22  31
HETATM   31  N   UNL     1     -12.680  10.166  70.439  1.00  0.00    -0.544 NA 
HETATM   32  H   UNL     1     -13.245  10.000  69.607  1.00  0.00     0.000 HD 
BRANCH  31  33
HETATM   33  O   UNL     1     -13.323  10.694  71.559  1.00  0.00    -0.347 OA 
HETATM   34  C   UNL     1     -13.151  12.053  71.891  1.00  0.00    -0.370 C  
ENDBRANCH  31  33
ENDBRANCH  22  31
ENDBRANCH  19  22
ENDBRANCH   8  18
TORSDOF 8
ENDMDL
MODEL        8
REMARK 921   NORMALIZED FREE ENERGY PREDICTED BY IDOCK:   -7.00 KCAL/MOL
REMARK 922        TOTAL FREE ENERGY PREDICTED BY IDOCK:  -11.43 KCAL/MOL
REMARK 923 INTER-LIGAND FREE ENERGY PREDICTED BY IDOCK:  -10.01 KCAL/MOL
REMARK 924 INTRA-LIGAND FREE ENERGY PREDICTED BY IDOCK:   -1.42 KCAL/MOL
REMARK 927      BINDING AFFINITY PREDICTED BY RF-SCORE:    0.00 PKD
ROOT
HETATM    1  C   UNL     1     -11.031  10.161  68.614  1.00  0.00    -0.230 C  
HETATM    2  S   UNL     1      -9.892   8.804  68.670  1.00  0.00    -0.173 SA 
HETATM    3  C   UNL     1     -10.190   8.067  70.305  1.00  0.00    -0.200 C  
HETATM    4  C   UNL     1     -11.257   8.665  71.178  1.00  0.00    -0.329 C  
HETATM    5  C   UNL     1     -11.851  11.848  69.474  1.00  0.00    -0.331 C  
HETATM    6  CA  UNL     1     -11.960   9.796  70.906  1.00  0.00    -0.328 C  
HETATM    7  N   UNL     1     -11.663  10.564  69.838  1.00  0.00    -0.280 N  
HETATM    8  CA  UNL     1     -10.732  11.704  68.396  1.00  0.00    -0.217 C  
HETATM    9  C   UNL     1     -13.069  10.204  71.824  1.00  0.00    -0.463 C  
HETATM   10  O   UNL     1     -12.405  12.778  70.015  1.00  0.00    -0.223 OA 
HETATM   11  O   UNL     1     -13.281  11.508  72.023  1.00  0.00    -0.509 OA 
HETATM   12  OXT UNL     1     -13.818   9.378  72.330  1.00  0.00    -0.451 OA 
ENDROOT
BRANCH   4  13
HETATM   13  C   UNL     1     -11.362   7.935  72.519  1.00  0.00    -0.390 C  
BRANCH  13  14
HETATM   14  O   UNL     1     -11.657   6.539  72.347  1.00  0.00    -0.277 OA 
BRANCH  14  15
HETATM   15  C   UNL     1     -11.046   5.662  73.195  1.00  0.00    -0.270 C  
HETATM   16  C   UNL     1     -10.168   6.377  74.185  1.00  0.00    -0.361 C  
HETATM   17  O   UNL     1     -11.225   4.451  73.206  1.00  0.00    -0.270 OA 
ENDBRANCH  14  15
ENDBRANCH  13  14
ENDBRANCH   4  13
BRANCH   8  18
HETATM   18  N   UNL     1      -9.525  12.577  68.719  1.00  0.00    -0.411 N  
HETATM   19  C   UNL     1      -9.232  13.930  68.558  1.00  0.00    -0.154 C  
HETATM   20  H   UNL     1      -8.761  12.055  69.148  1.00  0.00     0.000 HD 
HETATM   21  O   UNL     1      -8.042  14.297  68.711  1.00  0.00    -0.141 OA 
BRANCH  19  22
HETATM   22  C   UNL     1     -10.267  15.030  68.325  1.00  0.00    -0.222 C  
BRANCH  22  23
HETATM   23  C   UNL     1     -10.263  15.861  67.105  1.00  0.00    -0.278 A  
HETATM   24  N   UNL     1     -10.770  15.438  65.870  1.00  0.00    -0.325 NA 
HETATM   25  H2  UNL     1     -11.692  17.219  63.312  1.00  0.00     0.000 HD 
HETATM   26  N   UNL     1     -11.522  16.373  63.855  1.00  0.00    -1.618 NA 
HETATM   27  C   UNL     1     -10.117  17.236  67.210  1.00  0.00    -0.300 A  
HETATM   28  S   UNL     1     -10.599  17.999  65.761  1.00  0.00     0.028 SA 
HETATM   29  H1  UNL     1     -11.754  15.463  63.458  1.00  0.00     0.000 HD 
HETATM   30  C   UNL     1     -10.991  16.466  65.092  1.00  0.00    -0.232 A  
ENDBRANCH  22  23
BRANCH  22  31
HETATM   31  N   UNL     1     -11.057  15.565  69.206  1.00  0.00    -0.264 NA 
HETATM   32  H   UNL     1     -11.954  15.922  68.878  1.00  0.00     0.000 HD 
BRANCH  31  33
HETATM   33  O   UNL     1     -10.775  15.688  70.566  1.00  0.00    -0.320 OA 
HETATM   34  C   UNL     1     -11.815  15.957  71.478  1.00  0.00    -0.468 C  
ENDBRANCH  31  33
ENDBRANCH  22  31
ENDBRANCH  19  22
ENDBRANCH   8  18
TORSDOF 8
ENDMDL
MODEL        9
REMARK 921   NORMALIZED FREE ENERGY PREDICTED BY IDOCK:   -6.90 KCAL/MOL
REMARK 922        TOTAL FREE ENERGY PREDICTED BY IDOCK:  -11.28 KCAL/MOL
REMARK 923 INTER-LIGAND FREE ENERGY PREDICTED BY IDOCK:  -10.23 KCAL/MOL
REMARK 924 INTRA-LIGAND FREE ENERGY PREDICTED BY IDOCK:   -1.04 KCAL/MOL
REMARK 927      BINDING AFFINITY PREDICTED BY RF-SCORE:    0.00 PKD
ROOT
HETATM    1  C   UNL     1     -11.684  14.013  68.635  1.00  0.00    -0.354 C  
HETATM    2  S   UNL     1     -10.911  15.414  69.399  1.00  0.00    -0.300 SA 
HETATM    3  C   UNL     1     -10.433  16.455  67.987  1.00  0.00    -0.303 C  
HETATM    4  C   UNL     1     -10.784  15.991  66.602  1.00  0.00    -0.247 C  
HETATM    5  C   UNL     1     -11.662  12.496  67.236  1.00  0.00    -0.362 C  
HETATM    6  CA  UNL     1     -11.337  14.791  66.286  1.00  0.00    -0.334 C  
HETATM    7  N   UNL     1     -11.519  13.836  67.221  1.00  0.00    -0.324 N  
HETATM    8  CA  UNL     1     -11.302  12.477  68.754  1.00  0.00    -0.293 C  
HETATM    9  C   UNL     1     -11.731  14.520  64.867  1.00  0.00    -0.402 C  
HETATM   10  O   UNL     1     -11.701  11.669  66.354  1.00  0.00    -0.472 OA 
HETATM   11  O   UNL     1     -11.601  13.275  64.399  1.00  0.00    -0.350 OA 
HETATM   12  OXT UNL     1     -12.230  15.389  64.164  1.00  0.00    -0.598 OA 
ENDROOT
BRANCH   4  13
HETATM   13  C   UNL     1     -10.295  16.976  65.537  1.00  0.00    -0.143 C  
BRANCH  13  14
HETATM   14  O   UNL     1      -9.649  18.119  66.121  1.00  0.00    -0.451 OA 
BRANCH  14  15
HETATM   15  C   UNL     1     -10.308  19.312  66.052  1.00  0.00    -0.475 C  
HETATM   16  C   UNL     1      -9.948  20.203  67.210  1.00  0.00    -0.583 C  
HETATM   17  O   UNL     1     -11.050  19.658  65.143  1.00  0.00    -0.355 OA 
ENDBRANCH  14  15
ENDBRANCH  13  14
ENDBRANCH   4  13
BRANCH   8  18
HETATM   18  N   UNL     1      -9.981  11.759  69.009  1.00  0.00    -0.419 N  
HETATM   19  C   UNL     1      -9.630  10.443  69.302  1.00  0.00    -0.209 C  
HETATM   20  H   UNL     1      -9.174  12.380  68.952  1.00  0.00     0.000 HD 
HETATM   21  O   UNL     1      -8.460  10.219  69.694  1.00  0.00    -0.169 OA 
BRANCH  19  22
HETATM   22  C   UNL     1     -10.524   9.224  69.072  1.00  0.00    -0.216 C  
BRANCH  22  23
HETATM   23  C   UNL     1     -10.578   8.102  70.031  1.00  0.00    -0.239 A  
HETATM   24  N   UNL     1     -11.582   7.945  70.994  1.00  0.00    -0.282 NA 
HETATM   25  H2  UNL     1     -12.474   5.270  72.609  1.00  0.00     0.000 HD 
HETATM   26  N   UNL     1     -12.497   6.251  72.332  1.00  0.00    -0.545 NA 
HETATM   27  C   UNL     1      -9.861   6.944  69.774  1.00  0.00    -0.171 A  
HETATM   28  S   UNL     1     -10.432   5.662  70.746  1.00  0.00    -0.267 SA 
HETATM   29  H1  UNL     1     -13.193   6.875  72.739  1.00  0.00     0.000 HD 
HETATM   30  C   UNL     1     -11.605   6.713  71.430  1.00  0.00    -0.313 A  
ENDBRANCH  22  23
BRANCH  22  31
HETATM   31  N   UNL     1     -11.098   8.870  67.963  1.00  0.00    -0.468 NA 
HETATM   32  H   UNL     1     -12.096   9.059  67.869  1.00  0.00     0.000 HD 
BRANCH  31  33
HETATM   33  O   UNL     1     -10.457   8.250  66.891  1.00  0.00    -0.319 OA 
HETATM   34  C   UNL     1      -9.649   9.010  66.022  1.00  0.00    -0.272 C  
ENDBRANCH  31  33
ENDBRANCH  22  31
ENDBRANCH  19  22
ENDBRANCH   8  18
TORSDOF 8
ENDMDL
MODEL       10
REMARK 921   NORMALIZED FREE ENERGY PREDICTED BY IDOCK:   -6.88 KCAL/MOL
REMARK 922        TOTAL FREE ENERGY PREDICTED BY IDOCK:  -11.26 KCAL/MOL
REMARK 923 INTER-LIGAND FREE ENERGY PREDICTED BY IDOCK:  -10.22 KCAL/MOL
REMARK 924 INTRA-LIGAND FREE ENERGY PREDICTED BY IDOCK:   -1.04 KCAL/MOL
REMARK 927      BINDING AFFINITY PREDICTED BY RF-SCORE:    0.00 PKD
ROOT
HETATM    1  C   UNL     1     -11.694  12.231  67.587  1.00  0.00    -0.334 C  
HETATM    2  S   UNL     1     -10.853  10.708  67.245  1.00  0.00    -0.269 SA 
HETATM    3  C   UNL     1     -10.824   9.869  68.858  1.00  0.00    -0.210 C  
HETATM    4  C   UNL     1     -11.483  10.543  70.029  1.00  0.00    -0.393 C  
HETATM    5  C   UNL     1     -11.922  13.935  68.729  1.00  0.00    -0.358 C  
HETATM    6  CA  UNL     1     -12.013  11.794  70.027  1.00  0.00    -0.344 C  
HETATM    7  N   UNL     1     -11.882  12.607  68.959  1.00  0.00    -0.304 N  
HETATM    8  CA  UNL     1     -11.187  13.719  67.370  1.00  0.00    -0.310 C  
HETATM    9  C   UNL     1     -12.734  12.284  71.244  1.00  0.00    -0.251 C  
HETATM   10  O   UNL     1     -12.125  14.883  69.452  1.00  0.00    -0.298 OA 
HETATM   11  O   UNL     1     -12.639  13.578  71.560  1.00  0.00    -0.331 OA 
HETATM   12  OXT UNL     1     -13.455  11.544  71.901  1.00  0.00    -0.362 OA 
ENDROOT
BRANCH   4  13
HETATM   13  C   UNL     1     -11.351   9.709  71.306  1.00  0.00    -0.388 C  
BRANCH  13  14
HETATM   14  O   UNL     1     -12.307   8.637  71.347  1.00  0.00    -0.301 OA 
BRANCH  14  15
HETATM   15  C   UNL     1     -11.958   7.513  72.038  1.00  0.00    -0.294 C  
HETATM   16  C   UNL     1     -10.769   7.763  72.924  1.00  0.00    -0.446 C  
HETATM   17  O   UNL     1     -12.560   6.448  72.003  1.00  0.00    -0.310 OA 
ENDBRANCH  14  15
ENDBRANCH  13  14
ENDBRANCH   4  13
BRANCH   8  18
HETATM   18  N   UNL     1      -9.797  14.347  67.377  1.00  0.00    -0.222 N  
HETATM   19  C   UNL     1      -9.218  15.435  66.726  1.00  0.00    -0.249 C  
HETATM   20  H   UNL     1      -9.147  13.864  67.996  1.00  0.00     0.000 HD 
HETATM   21  O   UNL     1      -7.969  15.548  66.767  1.00  0.00    -0.233 OA 
BRANCH  19  22
HETATM   22  C   UNL     1      -9.991  16.573  66.062  1.00  0.00    -0.337 C  
BRANCH  22  23
HETATM   23  C   UNL     1     -10.236  17.857  66.748  1.00  0.00    -0.360 A  
HETATM   24  N   UNL     1     -10.335  17.994  68.138  1.00  0.00    -0.383 NA 
HETATM   25  H2  UNL     1     -10.005  20.661  69.965  1.00  0.00     0.000 HD 
HETATM   26  N   UNL     1     -10.167  19.675  69.764  1.00  0.00    -0.443 NA 
HETATM   27  C   UNL     1      -9.994  19.050  66.083  1.00  0.00    -0.364 A  
HETATM   28  S   UNL     1      -9.902  20.343  67.193  1.00  0.00    -0.411 SA 
HETATM   29  H1  UNL     1     -10.325  19.022  70.532  1.00  0.00     0.000 HD 
HETATM   30  C   UNL     1     -10.169  19.244  68.485  1.00  0.00    -0.383 A  
ENDBRANCH  22  23
BRANCH  22  31
HETATM   31  N   UNL     1     -10.742  16.501  65.005  1.00  0.00    -0.692 NA 
HETATM   32  H   UNL     1     -11.111  17.374  64.630  1.00  0.00     0.000 HD 
BRANCH  31  33
HETATM   33  O   UNL     1     -11.084  15.321  64.344  1.00  0.00    -0.277 OA 
HETATM   34  C   UNL     1     -12.406  14.838  64.409  1.00  0.00    -0.368 C  
ENDBRANCH  31  33
ENDBRANCH  22  31
ENDBRANCH  19  22
ENDBRANCH   8  18
TORSDOF 8
ENDMDL
MODEL       11
REMARK 921   NORMALIZED FREE ENERGY PREDICTED BY IDOCK:   -6.88 KCAL/MOL
REMARK 922        TOTAL FREE ENERGY PREDICTED BY IDOCK:  -11.25 KCAL/MOL
REMARK 923 INTER-LIGAND FREE ENERGY PREDICTED BY IDOCK:  -10.27 KCAL/MOL
REMARK 924 INTRA-LIGAND FREE ENERGY PREDICTED BY IDOCK:   -0.98 KCAL/MOL
REMARK 927      BINDING AFFINITY PREDICTED BY RF-SCORE:    0.00 PKD
ROOT
HETATM    1  C   UNL     1     -11.677  11.306  68.058  1.00  0.00    -0.233 C  
HETATM    2  S   UNL     1     -10.560   9.959  67.776  1.00  0.00    -0.272 SA 
HETATM    3  C   UNL     1     -10.452   9.151  69.402  1.00  0.00    -0.219 C  
HETATM    4  C   UNL     1     -11.275   9.701  70.532  1.00  0.00    -0.359 C  
HETATM    5  C   UNL     1     -12.263  12.947  69.164  1.00  0.00    -0.037 C  
HETATM    6  CA  UNL     1     -12.022  10.835  70.488  1.00  0.00    -0.361 C  
HETATM    7  N   UNL     1     -11.993  11.650  69.415  1.00  0.00    -0.323 N  
HETATM    8  CA  UNL     1     -11.439  12.859  67.841  1.00  0.00    -0.318 C  
HETATM    9  C   UNL     1     -12.875  11.193  71.665  1.00  0.00    -0.419 C  
HETATM   10  O   UNL     1     -12.668  13.848  69.862  1.00  0.00    -0.212 OA 
HETATM   11  O   UNL     1     -13.032  12.485  71.966  1.00  0.00    -0.351 OA 
HETATM   12  OXT UNL     1     -13.480  10.339  72.301  1.00  0.00    -0.377 OA 
ENDROOT
BRANCH   4  13
HETATM   13  C   UNL     1     -11.052   8.914  71.826  1.00  0.00    -0.363 C  
BRANCH  13  14
HETATM   14  O   UNL     1     -11.720   7.642  71.801  1.00  0.00    -0.265 OA 
BRANCH  14  15
HETATM   15  C   UNL     1     -11.270   6.682  72.660  1.00  0.00    -0.249 C  
HETATM   16  C   UNL     1     -10.202   7.220  73.572  1.00  0.00    -0.404 C  
HETATM   17  O   UNL     1     -11.709   5.542  72.736  1.00  0.00    -0.297 OA 
ENDBRANCH  14  15
ENDBRANCH  13  14
ENDBRANCH   4  13
BRANCH   8  18
HETATM   18  N   UNL     1     -10.189  13.730  67.899  1.00  0.00    -0.240 N  
HETATM   19  C   UNL     1      -9.508  14.517  66.972  1.00  0.00    -0.239 C  
HETATM   20  H   UNL     1      -9.754  13.739  68.821  1.00  0.00     0.000 HD 
HETATM   21  O   UNL     1      -8.361  14.925  67.277  1.00  0.00    -0.182 OA 
BRANCH  19  22
HETATM   22  C   UNL     1     -10.092  15.027  65.656  1.00  0.00    -0.362 C  
BRANCH  22  23
HETATM   23  C   UNL     1     -10.683  14.113  64.657  1.00  0.00    -0.389 A  
HETATM   24  N   UNL     1     -10.026  12.990  64.140  1.00  0.00    -0.238 NA 
HETATM   25  H2  UNL     1     -11.281  10.380  62.664  1.00  0.00     0.000 HD 
HETATM   26  N   UNL     1     -10.554  10.982  63.051  1.00  0.00    -0.805 NA 
HETATM   27  C   UNL     1     -12.057  14.096  64.470  1.00  0.00    -0.468 A  
HETATM   28  S   UNL     1     -12.527  12.682  63.637  1.00  0.00    -0.377 SA 
HETATM   29  H1  UNL     1      -9.580  10.678  63.024  1.00  0.00     0.000 HD 
HETATM   30  C   UNL     1     -10.887  12.172  63.593  1.00  0.00    -0.464 A  
ENDBRANCH  22  23
BRANCH  22  31
HETATM   31  N   UNL     1      -9.914  16.194  65.117  1.00  0.00    -0.413 NA 
HETATM   32  H   UNL     1      -9.073  16.331  64.556  1.00  0.00     0.000 HD 
BRANCH  31  33
HETATM   33  O   UNL     1     -10.784  17.277  65.246  1.00  0.00    -0.637 OA 
HETATM   34  C   UNL     1     -10.440  18.358  66.081  1.00  0.00    -0.395 C  
ENDBRANCH  31  33
ENDBRANCH  22  31
ENDBRANCH  19  22
ENDBRANCH   8  18
TORSDOF 8
ENDMDL
MODEL       12
REMARK 921   NORMALIZED FREE ENERGY PREDICTED BY IDOCK:   -6.88 KCAL/MOL
REMARK 922        TOTAL FREE ENERGY PREDICTED BY IDOCK:  -11.25 KCAL/MOL
REMARK 923 INTER-LIGAND FREE ENERGY PREDICTED BY IDOCK:  -10.43 KCAL/MOL
REMARK 924 INTRA-LIGAND FREE ENERGY PREDICTED BY IDOCK:   -0.82 KCAL/MOL
REMARK 927      BINDING AFFINITY PREDICTED BY RF-SCORE:    0.00 PKD
ROOT
HETATM    1  C   UNL     1     -11.891  14.518  68.824  1.00  0.00    -0.315 C  
HETATM    2  S   UNL     1     -11.468  13.006  68.000  1.00  0.00    -0.332 SA 
HETATM    3  C   UNL     1     -11.879  11.727  69.226  1.00  0.00    -0.326 C  
HETATM    4  C   UNL     1     -12.469  12.155  70.540  1.00  0.00    -0.282 C  
HETATM    5  C   UNL     1     -11.783  15.749  70.477  1.00  0.00    -0.377 C  
HETATM    6  CA  UNL     1     -12.627  13.440  70.955  1.00  0.00    -0.343 C  
HETATM    7  N   UNL     1     -12.141  14.472  70.236  1.00  0.00    -0.302 N  
HETATM    8  CA  UNL     1     -10.968  15.768  69.145  1.00  0.00    -0.265 C  
HETATM    9  C   UNL     1     -13.333  13.707  72.247  1.00  0.00    -0.525 C  
HETATM   10  O   UNL     1     -11.806  16.430  71.476  1.00  0.00    -0.427 OA 
HETATM   11  O   UNL     1     -12.926  14.738  72.992  1.00  0.00    -0.448 OA 
HETATM   12  OXT UNL     1     -14.309  13.052  72.591  1.00  0.00    -0.565 OA 
ENDROOT
BRANCH   4  13
HETATM   13  C   UNL     1     -12.738  10.958  71.454  1.00  0.00    -0.434 C  
BRANCH  13  14
HETATM   14  O   UNL     1     -12.363   9.716  70.835  1.00  0.00    -0.299 OA 
BRANCH  14  15
HETATM   15  C   UNL     1     -12.741   8.565  71.462  1.00  0.00    -0.313 C  
HETATM   16  C   UNL     1     -14.129   8.681  72.030  1.00  0.00    -0.523 C  
HETATM   17  O   UNL     1     -12.077   7.538  71.512  1.00  0.00    -0.290 OA 
ENDBRANCH  14  15
ENDBRANCH  13  14
ENDBRANCH   4  13
BRANCH   8  18
HETATM   18  N   UNL     1      -9.471  15.907  69.404  1.00  0.00    -0.257 N  
HETATM   19  C   UNL     1      -8.457  16.686  68.851  1.00  0.00    -0.233 C  
HETATM   20  H   UNL     1      -9.139  15.294  70.148  1.00  0.00     0.000 HD 
HETATM   21  O   UNL     1      -7.270  16.389  69.128  1.00  0.00    -0.205 OA 
BRANCH  19  22
HETATM   22  C   UNL     1      -8.675  17.952  68.023  1.00  0.00    -0.256 C  
BRANCH  22  23
HETATM   23  C   UNL     1      -7.584  18.575  67.246  1.00  0.00    -0.222 A  
HETATM   24  N   UNL     1      -7.255  18.215  65.934  1.00  0.00    -0.455 NA 
HETATM   25  H2  UNL     1      -5.580  19.888  63.708  1.00  0.00     0.000 HD 
HETATM   26  N   UNL     1      -6.112  19.108  64.092  1.00  0.00    -0.449 NA 
HETATM   27  C   UNL     1      -7.086  19.811  67.631  1.00  0.00    -0.252 A  
HETATM   28  S   UNL     1      -6.194  20.516  66.358  1.00  0.00    -0.222 SA 
HETATM   29  H1  UNL     1      -6.317  18.299  63.505  1.00  0.00     0.000 HD 
HETATM   30  C   UNL     1      -6.540  19.154  65.371  1.00  0.00    -0.268 A  
ENDBRANCH  22  23
BRANCH  22  31
HETATM   31  N   UNL     1      -9.675  18.776  68.096  1.00  0.00    -0.323 NA 
HETATM   32  H   UNL     1      -9.693  19.425  68.882  1.00  0.00     0.000 HD 
BRANCH  31  33
HETATM   33  O   UNL     1     -10.726  18.843  67.183  1.00  0.00    -0.439 OA 
HETATM   34  C   UNL     1     -10.590  19.612  66.010  1.00  0.00    -0.483 C  
ENDBRANCH  31  33
ENDBRANCH  22  31
ENDBRANCH  19  22
ENDBRANCH   8  18
TORSDOF 8
ENDMDL
MODEL       13
REMARK 921   NORMALIZED FREE ENERGY PREDICTED BY IDOCK:   -6.87 KCAL/MOL
REMARK 922        TOTAL FREE ENERGY PREDICTED BY IDOCK:  -11.23 KCAL/MOL
REMARK 923 INTER-LIGAND FREE ENERGY PREDICTED BY IDOCK:  -10.08 KCAL/MOL
REMARK 924 INTRA-LIGAND FREE ENERGY PREDICTED BY IDOCK:   -1.15 KCAL/MOL
REMARK 927      BINDING AFFINITY PREDICTED BY RF-SCORE:    0.00 PKD
ROOT
HETATM    1  C   UNL     1     -11.717  14.243  67.538  1.00  0.00    -0.384 C  
HETATM    2  S   UNL     1     -10.449  14.391  68.768  1.00  0.00    -0.243 SA 
HETATM    3  C   UNL     1      -9.383  15.714  68.121  1.00  0.00    -0.194 C  
HETATM    4  C   UNL     1      -9.768  16.379  66.829  1.00  0.00    -0.263 C  
HETATM    5  C   UNL     1     -12.284  14.042  65.564  1.00  0.00    -0.439 C  
HETATM    6  CA  UNL     1     -10.796  16.004  66.022  1.00  0.00    -0.190 C  
HETATM    7  N   UNL     1     -11.512  14.889  66.273  1.00  0.00    -0.312 N  
HETATM    8  CA  UNL     1     -12.138  12.970  66.689  1.00  0.00    -0.319 C  
HETATM    9  C   UNL     1     -11.121  16.836  64.821  1.00  0.00    -0.016 C  
HETATM   10  O   UNL     1     -12.626  14.024  64.404  1.00  0.00    -0.651 OA 
HETATM   11  O   UNL     1     -11.560  16.218  63.721  1.00  0.00    -0.952 OA 
HETATM   12  OXT UNL     1     -11.063  18.058  64.854  1.00  0.00    -0.738 OA 
ENDROOT
BRANCH   4  13
HETATM   13  C   UNL     1      -8.757  17.454  66.425  1.00  0.00    -0.242 C  
BRANCH  13  14
HETATM   14  O   UNL     1      -8.404  18.300  67.531  1.00  0.00    -0.241 OA 
BRANCH  14  15
HETATM   15  C   UNL     1      -9.321  19.230  67.926  1.00  0.00    -0.316 C  
HETATM   16  C   UNL     1      -9.693  20.148  66.794  1.00  0.00    -0.577 C  
HETATM   17  O   UNL     1      -9.835  19.287  69.035  1.00  0.00    -0.422 OA 
ENDBRANCH  14  15
ENDBRANCH  13  14
ENDBRANCH   4  13
BRANCH   8  18
HETATM   18  N   UNL     1     -11.362  11.750  66.205  1.00  0.00    -0.323 N  
HETATM   19  C   UNL     1     -10.667  10.724  66.842  1.00  0.00    -0.252 C  
HETATM   20  H   UNL     1     -11.349  11.666  65.189  1.00  0.00     0.000 HD 
HETATM   21  O   UNL     1      -9.927   9.992  66.142  1.00  0.00    -0.229 OA 
BRANCH  19  22
HETATM   22  C   UNL     1     -10.822  10.340  68.313  1.00  0.00    -0.255 C  
BRANCH  22  23
HETATM   23  C   UNL     1      -9.725   9.712  69.077  1.00  0.00    -0.169 A  
HETATM   24  N   UNL     1      -8.497  10.334  69.336  1.00  0.00    -0.166 NA 
HETATM   25  H2  UNL     1      -6.291   9.642  71.620  1.00  0.00     0.000 HD 
HETATM   26  N   UNL     1      -6.700  10.140  70.830  1.00  0.00    -0.332 NA 
HETATM   27  C   UNL     1      -9.995   8.634  69.907  1.00  0.00    -0.186 A  
HETATM   28  S   UNL     1      -8.709   8.390  71.002  1.00  0.00    -0.172 SA 
HETATM   29  H1  UNL     1      -6.211  10.939  70.428  1.00  0.00     0.000 HD 
HETATM   30  C   UNL     1      -7.885   9.735  70.325  1.00  0.00    -0.171 A  
ENDBRANCH  22  23
BRANCH  22  31
HETATM   31  N   UNL     1     -11.927  10.237  68.986  1.00  0.00    -0.609 NA 
HETATM   32  H   UNL     1     -12.497   9.406  68.830  1.00  0.00     0.000 HD 
BRANCH  31  33
HETATM   33  O   UNL     1     -12.396  11.174  69.905  1.00  0.00    -0.303 OA 
HETATM   34  C   UNL     1     -12.899  10.746  71.150  1.00  0.00    -0.414 C  
ENDBRANCH  31  33
ENDBRANCH  22  31
ENDBRANCH  19  22
ENDBRANCH   8  18
TORSDOF 8
ENDMDL
MODEL       14
REMARK 921   NORMALIZED FREE ENERGY PREDICTED BY IDOCK:   -6.81 KCAL/MOL
REMARK 922        TOTAL FREE ENERGY PREDICTED BY IDOCK:  -11.14 KCAL/MOL
REMARK 923 INTER-LIGAND FREE ENERGY PREDICTED BY IDOCK:   -9.88 KCAL/MOL
REMARK 924 INTRA-LIGAND FREE ENERGY PREDICTED BY IDOCK:   -1.26 KCAL/MOL
REMARK 927      BINDING AFFINITY PREDICTED BY RF-SCORE:    0.00 PKD
ROOT
HETATM    1  C   UNL     1     -12.510  12.814  69.712  1.00  0.00     0.112 C  
HETATM    2  S   UNL     1     -12.195  14.192  70.781  1.00  0.00    -0.376 SA 
HETATM    3  C   UNL     1     -11.485  15.441  69.666  1.00  0.00    -0.320 C  
HETATM    4  C   UNL     1     -11.356  15.108  68.206  1.00  0.00    -0.338 C  
HETATM    5  C   UNL     1     -11.874  11.486  68.266  1.00  0.00    -0.256 C  
HETATM    6  CA  UNL     1     -11.620  13.899  67.644  1.00  0.00    -0.348 C  
HETATM    7  N   UNL     1     -11.924  12.826  68.402  1.00  0.00    -0.293 N  
HETATM    8  CA  UNL     1     -11.964  11.328  69.816  1.00  0.00    -0.360 C  
HETATM    9  C   UNL     1     -11.548  13.755  66.156  1.00  0.00    -0.352 C  
HETATM   10  O   UNL     1     -11.541  10.770  67.350  1.00  0.00    -0.485 OA 
HETATM   11  O   UNL     1     -11.114  12.598  65.650  1.00  0.00    -0.279 OA 
HETATM   12  OXT UNL     1     -11.943  14.640  65.407  1.00  0.00    -0.341 OA 
ENDROOT
BRANCH   4  13
HETATM   13  C   UNL     1     -10.727  16.260  67.419  1.00  0.00    -0.287 C  
BRANCH  13  14
HETATM   14  O   UNL     1     -10.451  17.394  68.257  1.00  0.00    -0.352 OA 
BRANCH  14  15
HETATM   15  C   UNL     1     -10.476  18.626  67.672  1.00  0.00    -0.423 C  
HETATM   16  C   UNL     1     -10.352  18.524  66.176  1.00  0.00    -0.457 C  
HETATM   17  O   UNL     1     -10.640  19.685  68.263  1.00  0.00    -0.390 OA 
ENDBRANCH  14  15
ENDBRANCH  13  14
ENDBRANCH   4  13
BRANCH   8  18
HETATM   18  N   UNL     1     -10.683  10.737  70.396  1.00  0.00    -0.375 N  
HETATM   19  C   UNL     1     -10.256   9.444  70.693  1.00  0.00    -0.288 C  
HETATM   20  H   UNL     1      -9.983  11.445  70.614  1.00  0.00     0.000 HD 
HETATM   21  O   UNL     1      -9.222   9.312  71.392  1.00  0.00    -0.282 OA 
BRANCH  19  22
HETATM   22  C   UNL     1     -10.879   8.165  70.137  1.00  0.00    -0.241 C  
BRANCH  22  23
HETATM   23  C   UNL     1     -10.364   7.510  68.918  1.00  0.00    -0.211 A  
HETATM   24  N   UNL     1     -11.007   6.448  68.270  1.00  0.00    -0.313 NA 
HETATM   25  H2  UNL     1     -10.649   5.390  65.218  1.00  0.00     0.000 HD 
HETATM   26  N   UNL     1     -11.025   5.414  66.165  1.00  0.00    -0.767 NA 
HETATM   27  C   UNL     1      -9.427   8.163  68.131  1.00  0.00    -0.141 A  
HETATM   28  S   UNL     1      -9.340   7.441  66.586  1.00  0.00    -0.169 SA 
HETATM   29  H1  UNL     1     -11.750   4.751  66.439  1.00  0.00     0.000 HD 
HETATM   30  C   UNL     1     -10.560   6.324  67.047  1.00  0.00    -0.318 A  
ENDBRANCH  22  23
BRANCH  22  31
HETATM   31  N   UNL     1     -12.034   7.656  70.442  1.00  0.00    -0.491 NA 
HETATM   32  H   UNL     1     -12.537   7.159  69.708  1.00  0.00     0.000 HD 
BRANCH  31  33
HETATM   33  O   UNL     1     -12.639   7.737  71.696  1.00  0.00    -0.314 OA 
HETATM   34  C   UNL     1     -13.791   8.529  71.870  1.00  0.00    -0.424 C  
ENDBRANCH  31  33
ENDBRANCH  22  31
ENDBRANCH  19  22
ENDBRANCH   8  18
TORSDOF 8
ENDMDL
MODEL       15
REMARK 921   NORMALIZED FREE ENERGY PREDICTED BY IDOCK:   -6.74 KCAL/MOL
REMARK 922        TOTAL FREE ENERGY PREDICTED BY IDOCK:  -11.05 KCAL/MOL
REMARK 923 INTER-LIGAND FREE ENERGY PREDICTED BY IDOCK:  -10.07 KCAL/MOL
REMARK 924 INTRA-LIGAND FREE ENERGY PREDICTED BY IDOCK:   -0.97 KCAL/MOL
REMARK 927      BINDING AFFINITY PREDICTED BY RF-SCORE:    0.00 PKD
ROOT
HETATM    1  C   UNL     1     -10.967   9.834  68.685  1.00  0.00    -0.147 C  
HETATM    2  S   UNL     1      -9.787   8.517  68.802  1.00  0.00    -0.178 SA 
HETATM    3  C   UNL     1     -10.026   7.882  70.489  1.00  0.00    -0.191 C  
HETATM    4  C   UNL     1     -11.091   8.507  71.346  1.00  0.00    -0.328 C  
HETATM    5  C   UNL     1     -11.818  11.551  69.451  1.00  0.00    -0.350 C  
HETATM    6  CA  UNL     1     -11.833   9.596  71.017  1.00  0.00    -0.347 C  
HETATM    7  N   UNL     1     -11.584  10.300  69.894  1.00  0.00    -0.261 N  
HETATM    8  CA  UNL     1     -10.720  11.367  68.357  1.00  0.00    -0.203 C  
HETATM    9  C   UNL     1     -12.933  10.034  71.933  1.00  0.00    -0.447 C  
HETATM   10  O   UNL     1     -12.387  12.499  69.942  1.00  0.00    -0.178 OA 
HETATM   11  O   UNL     1     -13.180  11.341  72.050  1.00  0.00    -0.506 OA 
HETATM   12  OXT UNL     1     -13.646   9.222  72.510  1.00  0.00    -0.467 OA 
ENDROOT
BRANCH   4  13
HETATM   13  C   UNL     1     -11.144   7.865  72.734  1.00  0.00    -0.400 C  
BRANCH  13  14
HETATM   14  O   UNL     1     -11.553   6.489  72.674  1.00  0.00    -0.240 OA 
BRANCH  14  15
HETATM   15  C   UNL     1     -10.773   5.575  73.320  1.00  0.00    -0.274 C  
HETATM   16  C   UNL     1     -10.281   4.511  72.378  1.00  0.00    -0.253 C  
HETATM   17  O   UNL     1     -10.452   5.630  74.500  1.00  0.00    -0.256 OA 
ENDBRANCH  14  15
ENDBRANCH  13  14
ENDBRANCH   4  13
BRANCH   8  18
HETATM   18  N   UNL     1      -9.532  12.294  68.593  1.00  0.00    -0.391 N  
HETATM   19  C   UNL     1      -9.314  13.659  68.418  1.00  0.00    -0.181 C  
HETATM   20  H   UNL     1      -8.715  11.806  68.960  1.00  0.00     0.000 HD 
HETATM   21  O   UNL     1      -8.134  14.079  68.482  1.00  0.00    -0.139 OA 
BRANCH  19  22
HETATM   22  C   UNL     1     -10.412  14.711  68.270  1.00  0.00    -0.236 C  
BRANCH  22  23
HETATM   23  C   UNL     1     -11.193  14.858  67.025  1.00  0.00    -0.344 A  
HETATM   24  N   UNL     1     -10.999  15.890  66.099  1.00  0.00    -0.198 NA 
HETATM   25  H2  UNL     1     -11.879  16.031  62.973  1.00  0.00     0.000 HD 
HETATM   26  N   UNL     1     -11.464  16.352  63.847  1.00  0.00    -1.618 NA 
HETATM   27  C   UNL     1     -11.886  13.770  66.517  1.00  0.00    -0.407 A  
HETATM   28  S   UNL     1     -12.309  14.042  64.886  1.00  0.00    -0.410 SA 
HETATM   29  H1  UNL     1     -11.003  17.261  63.883  1.00  0.00     0.000 HD 
HETATM   30  C   UNL     1     -11.531  15.572  64.947  1.00  0.00    -0.279 A  
ENDBRANCH  22  23
BRANCH  22  31
HETATM   31  N   UNL     1     -10.618  15.744  69.030  1.00  0.00    -0.219 NA 
HETATM   32  H   UNL     1      -9.806  16.297  69.302  1.00  0.00     0.000 HD 
BRANCH  31  33
HETATM   33  O   UNL     1     -11.864  16.155  69.502  1.00  0.00    -0.272 OA 
HETATM   34  C   UNL     1     -12.205  15.949  70.854  1.00  0.00    -0.355 C  
ENDBRANCH  31  33
ENDBRANCH  22  31
ENDBRANCH  19  22
ENDBRANCH   8  18
TORSDOF 8
ENDMDL
MODEL       16
REMARK 921   NORMALIZED FREE ENERGY PREDICTED BY IDOCK:   -6.74 KCAL/MOL
REMARK 922        TOTAL FREE ENERGY PREDICTED BY IDOCK:  -11.04 KCAL/MOL
REMARK 923 INTER-LIGAND FREE ENERGY PREDICTED BY IDOCK:   -9.82 KCAL/MOL
REMARK 924 INTRA-LIGAND FREE ENERGY PREDICTED BY IDOCK:   -1.22 KCAL/MOL
REMARK 927      BINDING AFFINITY PREDICTED BY RF-SCORE:    0.00 PKD
ROOT
HETATM    1  C   UNL     1     -11.323  12.628  69.825  1.00  0.00    -0.038 C  
HETATM    2  S   UNL     1     -12.785  12.362  70.790  1.00  0.00    -0.036 SA 
HETATM    3  C   UNL     1     -12.676  10.606  71.251  1.00  0.00    -0.433 C  
HETATM    4  C   UNL     1     -11.475   9.821  70.804  1.00  0.00    -0.417 C  
HETATM    5  C   UNL     1     -10.065  12.071  68.286  1.00  0.00    -0.201 C  
HETATM    6  CA  UNL     1     -10.496  10.274  69.977  1.00  0.00    -0.241 C  
HETATM    7  N   UNL     1     -10.588  11.478  69.378  1.00  0.00    -0.086 N  
HETATM    8  CA  UNL     1     -11.196  13.146  68.331  1.00  0.00    -0.271 C  
HETATM    9  C   UNL     1      -9.306   9.406  69.712  1.00  0.00    -0.203 C  
HETATM   10  O   UNL     1      -9.274  11.694  67.452  1.00  0.00    -0.164 OA 
HETATM   11  O   UNL     1      -8.746   9.449  68.499  1.00  0.00    -0.126 OA 
HETATM   12  OXT UNL     1      -8.801   8.724  70.595  1.00  0.00    -0.149 OA 
ENDROOT
BRANCH   4  13
HETATM   13  C   UNL     1     -11.553   8.363  71.263  1.00  0.00    -0.283 C  
BRANCH  13  14
HETATM   14  O   UNL     1     -11.243   8.224  72.659  1.00  0.00    -0.378 OA 
BRANCH  14  15
HETATM   15  C   UNL     1     -10.821   6.999  73.087  1.00  0.00    -0.316 C  
HETATM   16  C   UNL     1     -10.882   5.981  71.981  1.00  0.00    -0.300 C  
HETATM   17  O   UNL     1     -10.387   6.753  74.204  1.00  0.00    -0.368 OA 
ENDBRANCH  14  15
ENDBRANCH  13  14
ENDBRANCH   4  13
BRANCH   8  18
HETATM   18  N   UNL     1     -12.118  13.041  67.120  1.00  0.00    -0.329 N  
HETATM   19  C   UNL     1     -12.052  13.496  65.805  1.00  0.00    -0.433 C  
HETATM   20  H   UNL     1     -12.974  12.523  67.318  1.00  0.00     0.000 HD 
HETATM   21  O   UNL     1     -13.096  13.448  65.112  1.00  0.00    -0.724 OA 
BRANCH  19  22
HETATM   22  C   UNL     1     -10.775  13.943  65.094  1.00  0.00    -0.362 C  
BRANCH  22  23
HETATM   23  C   UNL     1     -10.167  15.267  65.337  1.00  0.00    -0.383 A  
HETATM   24  N   UNL     1     -10.807  16.483  65.064  1.00  0.00    -0.648 NA 
HETATM   25  H2  UNL     1     -10.161  19.446  66.231  1.00  0.00     0.000 HD 
HETATM   26  N   UNL     1     -10.647  18.739  65.680  1.00  0.00    -0.578 NA 
HETATM   27  C   UNL     1      -9.093  15.381  66.207  1.00  0.00    -0.320 A  
HETATM   28  S   UNL     1      -8.874  17.009  66.672  1.00  0.00    -0.271 SA 
HETATM   29  H1  UNL     1     -11.449  19.007  65.109  1.00  0.00     0.000 HD 
HETATM   30  C   UNL     1     -10.224  17.458  65.712  1.00  0.00    -0.191 A  
ENDBRANCH  22  23
BRANCH  22  31
HETATM   31  N   UNL     1     -10.233  13.409  64.043  1.00  0.00    -0.752 NA 
HETATM   32  H   UNL     1      -9.407  13.864  63.657  1.00  0.00     0.000 HD 
BRANCH  31  33
HETATM   33  O   UNL     1     -10.694  12.260  63.400  1.00  0.00    -0.446 OA 
HETATM   34  C   UNL     1      -9.802  11.205  63.123  1.00  0.00    -0.372 C  
ENDBRANCH  31  33
ENDBRANCH  22  31
ENDBRANCH  19  22
ENDBRANCH   8  18
TORSDOF 8
ENDMDL
MODEL       17
REMARK 921   NORMALIZED FREE ENERGY PREDICTED BY IDOCK:   -6.69 KCAL/MOL
REMARK 922        TOTAL FREE ENERGY PREDICTED BY IDOCK:  -10.98 KCAL/MOL
REMARK 923 INTER-LIGAND FREE ENERGY PREDICTED BY IDOCK:   -9.87 KCAL/MOL
REMARK 924 INTRA-LIGAND FREE ENERGY PREDICTED BY IDOCK:   -1.11 KCAL/MOL
REMARK 927      BINDING AFFINITY PREDICTED BY RF-SCORE:    0.00 PKD
ROOT
HETATM    1  C   UNL     1     -11.939  11.758  68.646  1.00  0.00    -0.239 C  
HETATM    2  S   UNL     1     -11.888  13.395  69.325  1.00  0.00    -0.328 SA 
HETATM    3  C   UNL     1     -11.402  14.426  67.908  1.00  0.00    -0.301 C  
HETATM    4  C   UNL     1     -11.199  13.764  66.575  1.00  0.00    -0.319 C  
HETATM    5  C   UNL     1     -11.059  10.242  67.557  1.00  0.00    -0.232 C  
HETATM    6  CA  UNL     1     -11.235  12.425  66.343  1.00  0.00    -0.319 C  
HETATM    7  N   UNL     1     -11.350  11.542  67.355  1.00  0.00    -0.302 N  
HETATM    8  CA  UNL     1     -11.136  10.467  69.100  1.00  0.00    -0.246 C  
HETATM    9  C   UNL     1     -11.122  11.925  64.936  1.00  0.00    -0.307 C  
HETATM   10  O   UNL     1     -10.593   9.387  66.839  1.00  0.00    -0.231 OA 
HETATM   11  O   UNL     1     -10.482  10.773  64.722  1.00  0.00    -0.326 OA 
HETATM   12  OXT UNL     1     -11.661  12.508  64.004  1.00  0.00    -0.355 OA 
ENDROOT
BRANCH   4  13
HETATM   13  C   UNL     1     -10.778  14.772  65.504  1.00  0.00    -0.357 C  
BRANCH  13  14
HETATM   14  O   UNL     1     -10.220  15.964  66.079  1.00  0.00    -0.292 OA 
BRANCH  14  15
HETATM   15  C   UNL     1     -10.556  17.154  65.503  1.00  0.00    -0.150 C  
HETATM   16  C   UNL     1      -9.976  18.315  66.265  1.00  0.00    -0.361 C  
HETATM   17  O   UNL     1     -11.192  17.281  64.465  1.00  0.00    -1.083 OA 
ENDBRANCH  14  15
ENDBRANCH  13  14
ENDBRANCH   4  13
BRANCH   8  18
HETATM   18  N   UNL     1      -9.776  10.277  69.764  1.00  0.00    -0.393 N  
HETATM   19  C   UNL     1      -9.236   9.316  70.617  1.00  0.00    -0.264 C  
HETATM   20  H   UNL     1      -9.115  11.018  69.533  1.00  0.00     0.000 HD 
HETATM   21  O   UNL     1      -8.147   9.577  71.182  1.00  0.00    -0.308 OA 
BRANCH  19  22
HETATM   22  C   UNL     1      -9.804   7.914  70.831  1.00  0.00    -0.178 C  
BRANCH  22  23
HETATM   23  C   UNL     1     -11.129   7.692  71.444  1.00  0.00    -0.238 A  
HETATM   24  N   UNL     1     -11.753   8.601  72.307  1.00  0.00    -0.370 NA 
HETATM   25  H2  UNL     1     -14.894   8.842  73.109  1.00  0.00     0.000 HD 
HETATM   26  N   UNL     1     -13.903   9.082  73.111  1.00  0.00    -1.177 NA 
HETATM   27  C   UNL     1     -11.993   6.757  70.894  1.00  0.00    -0.383 A  
HETATM   28  S   UNL     1     -13.582   7.005  71.466  1.00  0.00    -0.148 SA 
HETATM   29  H1  UNL     1     -13.577   9.878  73.659  1.00  0.00     0.000 HD 
HETATM   30  C   UNL     1     -13.033   8.345  72.388  1.00  0.00    -0.256 A  
ENDBRANCH  22  23
BRANCH  22  31
HETATM   31  N   UNL     1      -9.157   6.789  70.789  1.00  0.00    -0.151 NA 
HETATM   32  H   UNL     1      -8.947   6.334  71.677  1.00  0.00     0.000 HD 
BRANCH  31  33
HETATM   33  O   UNL     1      -8.727   6.155  69.624  1.00  0.00    -0.132 OA 
HETATM   34  C   UNL     1      -9.320   6.480  68.388  1.00  0.00    -0.122 C  
ENDBRANCH  31  33
ENDBRANCH  22  31
ENDBRANCH  19  22
ENDBRANCH   8  18
TORSDOF 8
ENDMDL
MODEL       18
REMARK 921   NORMALIZED FREE ENERGY PREDICTED BY IDOCK:   -6.65 KCAL/MOL
REMARK 922        TOTAL FREE ENERGY PREDICTED BY IDOCK:  -10.92 KCAL/MOL
REMARK 923 INTER-LIGAND FREE ENERGY PREDICTED BY IDOCK:   -9.78 KCAL/MOL
REMARK 924 INTRA-LIGAND FREE ENERGY PREDICTED BY IDOCK:   -1.14 KCAL/MOL
REMARK 927      BINDING AFFINITY PREDICTED BY RF-SCORE:    0.00 PKD
ROOT
HETATM    1  C   UNL     1     -11.405  14.095  67.920  1.00  0.00    -0.294 C  
HETATM    2  S   UNL     1      -9.920  14.312  68.862  1.00  0.00    -0.098 SA 
HETATM    3  C   UNL     1      -8.951  15.483  67.863  1.00  0.00    -0.173 C  
HETATM    4  C   UNL     1      -9.553  16.010  66.592  1.00  0.00    -0.258 C  
HETATM    5  C   UNL     1     -12.348  13.695  66.128  1.00  0.00    -0.426 C  
HETATM    6  CA  UNL     1     -10.730  15.604  66.046  1.00  0.00    -0.317 C  
HETATM    7  N   UNL     1     -11.424  14.572  66.566  1.00  0.00    -0.354 N  
HETATM    8  CA  UNL     1     -12.027  12.758  67.335  1.00  0.00    -0.272 C  
HETATM    9  C   UNL     1     -11.250  16.305  64.830  1.00  0.00    -0.259 C  
HETATM   10  O   UNL     1     -12.907  13.559  65.064  1.00  0.00    -0.684 OA 
HETATM   11  O   UNL     1     -11.914  15.588  63.919  1.00  0.00    -0.498 OA 
HETATM   12  OXT UNL     1     -11.142  17.517  64.694  1.00  0.00    -0.978 OA 
ENDROOT
BRANCH   4  13
HETATM   13  C   UNL     1      -8.600  16.967  65.872  1.00  0.00    -0.013 C  
BRANCH  13  14
HETATM   14  O   UNL     1      -8.182  18.047  66.722  1.00  0.00    -0.234 OA 
BRANCH  14  15
HETATM   15  C   UNL     1      -8.466  19.316  66.307  1.00  0.00    -0.319 C  
HETATM   16  C   UNL     1      -7.278  19.951  65.637  1.00  0.00    -0.331 C  
HETATM   17  O   UNL     1      -9.557  19.862  66.402  1.00  0.00    -0.382 OA 
ENDBRANCH  14  15
ENDBRANCH  13  14
ENDBRANCH   4  13
BRANCH   8  18
HETATM   18  N   UNL     1     -11.404  11.444  66.875  1.00  0.00    -0.275 N  
HETATM   19  C   UNL     1     -10.549  10.515  67.464  1.00  0.00    -0.259 C  
HETATM   20  H   UNL     1     -11.673  11.189  65.925  1.00  0.00     0.000 HD 
HETATM   21  O   UNL     1     -10.025   9.647  66.725  1.00  0.00    -0.198 OA 
BRANCH  19  22
HETATM   22  C   UNL     1     -10.286  10.392  68.964  1.00  0.00    -0.217 C  
BRANCH  22  23
HETATM   23  C   UNL     1     -11.369  10.109  69.927  1.00  0.00    -0.275 A  
HETATM   24  N   UNL     1     -11.388   8.997  70.778  1.00  0.00    -0.269 NA 
HETATM   25  H2  UNL     1     -13.081   8.537  73.514  1.00  0.00     0.000 HD 
HETATM   26  N   UNL     1     -12.428   8.310  72.764  1.00  0.00    -0.605 NA 
HETATM   27  C   UNL     1     -12.225  11.128  70.317  1.00  0.00    -0.352 A  
HETATM   28  S   UNL     1     -13.064  10.691  71.737  1.00  0.00    -0.412 SA 
HETATM   29  H1  UNL     1     -11.932   7.419  72.778  1.00  0.00     0.000 HD 
HETATM   30  C   UNL     1     -12.228   9.191  71.761  1.00  0.00    -0.372 A  
ENDBRANCH  22  23
BRANCH  22  31
HETATM   31  N   UNL     1      -9.226  10.773  69.610  1.00  0.00    -0.376 NA 
HETATM   32  H   UNL     1      -9.322  10.950  70.609  1.00  0.00     0.000 HD 
BRANCH  31  33
HETATM   33  O   UNL     1      -7.965  10.958  69.042  1.00  0.00    -0.136 OA 
HETATM   34  C   UNL     1      -6.810  10.597  69.764  1.00  0.00    -0.143 C  
ENDBRANCH  31  33
ENDBRANCH  22  31
ENDBRANCH  19  22
ENDBRANCH   8  18
TORSDOF 8
ENDMDL
MODEL       19
REMARK 921   NORMALIZED FREE ENERGY PREDICTED BY IDOCK:   -6.64 KCAL/MOL
REMARK 922        TOTAL FREE ENERGY PREDICTED BY IDOCK:  -10.90 KCAL/MOL
REMARK 923 INTER-LIGAND FREE ENERGY PREDICTED BY IDOCK:  -10.06 KCAL/MOL
REMARK 924 INTRA-LIGAND FREE ENERGY PREDICTED BY IDOCK:   -0.84 KCAL/MOL
REMARK 927      BINDING AFFINITY PREDICTED BY RF-SCORE:    0.00 PKD
ROOT
HETATM    1  C   UNL     1     -11.953  14.152  68.400  1.00  0.00    -0.331 C  
HETATM    2  S   UNL     1     -11.049  15.246  69.463  1.00  0.00    -0.304 SA 
HETATM    3  C   UNL     1     -10.193  16.353  68.302  1.00  0.00    -0.255 C  
HETATM    4  C   UNL     1     -10.426  16.167  66.829  1.00  0.00    -0.294 C  
HETATM    5  C   UNL     1     -12.016  12.872  66.782  1.00  0.00    -0.350 C  
HETATM    6  CA  UNL     1     -11.142  15.161  66.262  1.00  0.00    -0.309 C  
HETATM    7  N   UNL     1     -11.627  14.144  67.002  1.00  0.00    -0.362 N  
HETATM    8  CA  UNL     1     -11.882  12.570  68.307  1.00  0.00    -0.309 C  
HETATM    9  C   UNL     1     -11.375  15.175  64.784  1.00  0.00    -0.395 C  
HETATM   10  O   UNL     1     -12.084  12.200  65.778  1.00  0.00    -0.572 OA 
HETATM   11  O   UNL     1     -11.414  14.008  64.136  1.00  0.00    -0.323 OA 
HETATM   12  OXT UNL     1     -11.601  16.217  64.181  1.00  0.00    -0.838 OA 
ENDROOT
BRANCH   4  13
HETATM   13  C   UNL     1      -9.618  17.169  66.001  1.00  0.00    -0.163 C  
BRANCH  13  14
HETATM   14  O   UNL     1      -9.064  18.215  66.815  1.00  0.00    -0.267 OA 
BRANCH  14  15
HETATM   15  C   UNL     1      -8.996  19.463  66.270  1.00  0.00    -0.346 C  
HETATM   16  C   UNL     1     -10.366  20.054  66.081  1.00  0.00    -0.570 C  
HETATM   17  O   UNL     1      -7.962  20.068  66.017  1.00  0.00    -0.328 OA 
ENDBRANCH  14  15
ENDBRANCH  13  14
ENDBRANCH   4  13
BRANCH   8  18
HETATM   18  N   UNL     1     -10.766  11.568  68.585  1.00  0.00    -0.199 N  
HETATM   19  C   UNL     1     -10.558  10.589  69.555  1.00  0.00    -0.246 C  
HETATM   20  H   UNL     1     -10.003  11.628  67.912  1.00  0.00     0.000 HD 
HETATM   21  O   UNL     1      -9.411  10.088  69.648  1.00  0.00    -0.213 OA 
BRANCH  19  22
HETATM   22  C   UNL     1     -11.645   9.986  70.442  1.00  0.00    -0.302 C  
BRANCH  22  23
HETATM   23  C   UNL     1     -11.544   8.615  70.981  1.00  0.00    -0.281 A  
HETATM   24  N   UNL     1     -11.371   7.474  70.188  1.00  0.00    -0.205 NA 
HETATM   25  H2  UNL     1     -10.276   4.534  71.035  1.00  0.00     0.000 HD 
HETATM   26  N   UNL     1     -10.635   5.260  70.415  1.00  0.00    -0.249 NA 
HETATM   27  C   UNL     1     -11.224   8.424  72.317  1.00  0.00    -0.376 A  
HETATM   28  S   UNL     1     -10.720   6.815  72.584  1.00  0.00    -0.255 SA 
HETATM   29  H1  UNL     1     -10.764   5.059  69.424  1.00  0.00     0.000 HD 
HETATM   30  C   UNL     1     -10.937   6.477  70.914  1.00  0.00    -0.274 A  
ENDBRANCH  22  23
BRANCH  22  31
HETATM   31  N   UNL     1     -12.856  10.424  70.608  1.00  0.00    -0.457 NA 
HETATM   32  H   UNL     1     -13.518  10.279  69.846  1.00  0.00     0.000 HD 
BRANCH  31  33
HETATM   33  O   UNL     1     -13.322  11.078  71.748  1.00  0.00    -0.390 OA 
HETATM   34  C   UNL     1     -13.015  12.439  71.953  1.00  0.00    -0.302 C  
ENDBRANCH  31  33
ENDBRANCH  22  31
ENDBRANCH  19  22
ENDBRANCH   8  18
TORSDOF 8
ENDMDL
MODEL       20
REMARK 921   NORMALIZED FREE ENERGY PREDICTED BY IDOCK:   -6.63 KCAL/MOL
REMARK 922        TOTAL FREE ENERGY PREDICTED BY IDOCK:  -10.88 KCAL/MOL
REMARK 923 INTER-LIGAND FREE ENERGY PREDICTED BY IDOCK:  -10.06 KCAL/MOL
REMARK 924 INTRA-LIGAND FREE ENERGY PREDICTED BY IDOCK:   -0.82 KCAL/MOL
REMARK 927      BINDING AFFINITY PREDICTED BY RF-SCORE:    0.00 PKD
ROOT
HETATM    1  C   UNL     1     -11.559  12.344  68.754  1.00  0.00    -0.326 C  
HETATM    2  S   UNL     1     -10.386  11.115  68.249  1.00  0.00    -0.189 SA 
HETATM    3  C   UNL     1     -10.487   9.867  69.567  1.00  0.00    -0.241 C  
HETATM    4  C   UNL     1     -11.468  10.081  70.685  1.00  0.00    -0.425 C  
HETATM    5  C   UNL     1     -12.325  13.604  70.198  1.00  0.00    -0.304 C  
HETATM    6  CA  UNL     1     -12.225  11.194  70.870  1.00  0.00    -0.364 C  
HETATM    7  N   UNL     1     -12.066  12.286  70.095  1.00  0.00    -0.321 N  
HETATM    8  CA  UNL     1     -11.326  13.889  69.033  1.00  0.00    -0.283 C  
HETATM    9  C   UNL     1     -13.239  11.212  71.972  1.00  0.00    -0.323 C  
HETATM   10  O   UNL     1     -12.840  14.271  71.065  1.00  0.00    -0.327 OA 
HETATM   11  O   UNL     1     -13.462  12.363  72.611  1.00  0.00    -0.322 OA 
HETATM   12  OXT UNL     1     -13.907  10.222  72.242  1.00  0.00    -0.153 OA 
ENDROOT
BRANCH   4  13
HETATM   13  C   UNL     1     -11.409   8.947  71.711  1.00  0.00    -0.361 C  
BRANCH  13  14
HETATM   14  O   UNL     1     -12.194   7.814  71.304  1.00  0.00    -0.307 OA 
BRANCH  14  15
HETATM   15  C   UNL     1     -11.532   6.642  71.079  1.00  0.00    -0.330 C  
HETATM   16  C   UNL     1     -11.415   6.354  69.607  1.00  0.00    -0.446 C  
HETATM   17  O   UNL     1     -11.036   5.935  71.945  1.00  0.00    -0.257 OA 
ENDBRANCH  14  15
ENDBRANCH  13  14
ENDBRANCH   4  13
BRANCH   8  18
HETATM   18  N   UNL     1     -10.113  14.679  69.513  1.00  0.00    -0.418 N  
HETATM   19  C   UNL     1      -8.914  15.075  68.923  1.00  0.00    -0.202 C  
HETATM   20  H   UNL     1     -10.198  14.987  70.481  1.00  0.00     0.000 HD 
HETATM   21  O   UNL     1      -8.009  15.518  69.670  1.00  0.00    -0.217 OA 
BRANCH  19  22
HETATM   22  C   UNL     1      -8.650  15.124  67.419  1.00  0.00    -0.184 C  
BRANCH  22  23
HETATM   23  C   UNL     1      -9.734  14.962  66.429  1.00  0.00    -0.285 A  
HETATM   24  N   UNL     1     -10.388  16.031  65.804  1.00  0.00    -0.358 NA 
HETATM   25  H2  UNL     1     -12.125  16.049  63.057  1.00  0.00     0.000 HD 
HETATM   26  N   UNL     1     -11.687  16.433  63.894  1.00  0.00    -1.527 NA 
HETATM   27  C   UNL     1      -9.894  13.748  65.778  1.00  0.00    -0.221 A  
HETATM   28  S   UNL     1     -10.873  13.940  64.392  1.00  0.00    -0.183 SA 
HETATM   29  H1  UNL     1     -11.767  17.430  64.094  1.00  0.00     0.000 HD 
HETATM   30  C   UNL     1     -11.007  15.619  64.729  1.00  0.00    -0.400 A  
ENDBRANCH  22  23
BRANCH  22  31
HETATM   31  N   UNL     1      -7.503  15.026  66.819  1.00  0.00    -0.278 NA 
HETATM   32  H   UNL     1      -7.262  14.124  66.409  1.00  0.00     0.000 HD 
BRANCH  31  33
HETATM   33  O   UNL     1      -6.575  16.059  66.692  1.00  0.00    -0.224 OA 
HETATM   34  C   UNL     1      -7.016  17.372  66.432  1.00  0.00    -0.279 C  
ENDBRANCH  31  33
ENDBRANCH  22  31
ENDBRANCH  19  22
ENDBRANCH   8  18
TORSDOF 8
ENDMDL
MODEL       21
REMARK 921   NORMALIZED FREE ENERGY PREDICTED BY IDOCK:   -6.61 KCAL/MOL
REMARK 922        TOTAL FREE ENERGY PREDICTED BY IDOCK:  -10.86 KCAL/MOL
REMARK 923 INTER-LIGAND FREE ENERGY PREDICTED BY IDOCK:   -9.68 KCAL/MOL
REMARK 924 INTRA-LIGAND FREE ENERGY PREDICTED BY IDOCK:   -1.18 KCAL/MOL
REMARK 927      BINDING AFFINITY PREDICTED BY RF-SCORE:    0.00 PKD
ROOT
HETATM    1  C   UNL     1     -11.913  13.647  68.901  1.00  0.00    -0.356 C  
HETATM    2  S   UNL     1     -11.228  15.053  69.736  1.00  0.00    -0.292 SA 
HETATM    3  C   UNL     1     -10.627  16.101  68.377  1.00  0.00    -0.286 C  
HETATM    4  C   UNL     1     -10.842  15.637  66.964  1.00  0.00    -0.294 C  
HETATM    5  C   UNL     1     -11.747  12.134  67.508  1.00  0.00    -0.315 C  
HETATM    6  CA  UNL     1     -11.353  14.433  66.596  1.00  0.00    -0.353 C  
HETATM    7  N   UNL     1     -11.614  13.475  67.508  1.00  0.00    -0.329 N  
HETATM    8  CA  UNL     1     -11.531  12.115  69.054  1.00  0.00    -0.297 C  
HETATM    9  C   UNL     1     -11.608  14.161  65.147  1.00  0.00    -0.344 C  
HETATM   10  O   UNL     1     -11.695  11.307  66.626  1.00  0.00    -0.368 OA 
HETATM   11  O   UNL     1     -11.424  12.919  64.691  1.00  0.00    -0.305 OA 
HETATM   12  OXT UNL     1     -12.046  15.027  64.400  1.00  0.00    -0.467 OA 
ENDROOT
BRANCH   4  13
HETATM   13  C   UNL     1     -10.262  16.628  65.952  1.00  0.00    -0.340 C  
BRANCH  13  14
HETATM   14  O   UNL     1     -10.694  17.973  66.211  1.00  0.00    -0.288 OA 
BRANCH  14  15
HETATM   15  C   UNL     1      -9.727  18.913  66.415  1.00  0.00    -0.363 C  
HETATM   16  C   UNL     1     -10.160  19.933  67.433  1.00  0.00    -0.567 C  
HETATM   17  O   UNL     1      -8.620  18.911  65.894  1.00  0.00    -0.471 OA 
ENDBRANCH  14  15
ENDBRANCH  13  14
ENDBRANCH   4  13
BRANCH   8  18
HETATM   18  N   UNL     1     -10.234  11.407  69.432  1.00  0.00    -0.433 N  
HETATM   19  C   UNL     1      -9.926  10.141  69.926  1.00  0.00    -0.203 C  
HETATM   20  H   UNL     1      -9.409  11.989  69.290  1.00  0.00     0.000 HD 
HETATM   21  O   UNL     1      -8.765   9.947  70.362  1.00  0.00    -0.138 OA 
BRANCH  19  22
HETATM   22  C   UNL     1     -10.853   8.928  69.874  1.00  0.00    -0.211 C  
BRANCH  22  23
HETATM   23  C   UNL     1     -10.770   7.926  68.792  1.00  0.00    -0.051 A  
HETATM   24  N   UNL     1     -10.205   8.178  67.535  1.00  0.00    -0.222 NA 
HETATM   25  H2  UNL     1      -9.103   6.068  65.322  1.00  0.00     0.000 HD 
HETATM   26  N   UNL     1      -9.322   6.980  65.724  1.00  0.00    -0.381 NA 
HETATM   27  C   UNL     1     -10.891   6.578  69.092  1.00  0.00    -0.302 A  
HETATM   28  S   UNL     1     -10.312   5.625  67.800  1.00  0.00    -0.199 SA 
HETATM   29  H1  UNL     1      -9.088   7.828  65.208  1.00  0.00     0.000 HD 
HETATM   30  C   UNL     1      -9.918   7.054  66.932  1.00  0.00    -0.217 A  
ENDBRANCH  22  23
BRANCH  22  31
HETATM   31  N   UNL     1     -11.954   8.751  70.538  1.00  0.00    -0.473 NA 
HETATM   32  H   UNL     1     -12.654   8.132  70.132  1.00  0.00     0.000 HD 
BRANCH  31  33
HETATM   33  O   UNL     1     -12.253   9.343  71.765  1.00  0.00    -0.353 OA 
HETATM   34  C   UNL     1     -13.125  10.449  71.817  1.00  0.00    -0.462 C  
ENDBRANCH  31  33
ENDBRANCH  22  31
ENDBRANCH  19  22
ENDBRANCH   8  18
TORSDOF 8
ENDMDL
MODEL       22
REMARK 921   NORMALIZED FREE ENERGY PREDICTED BY IDOCK:   -6.59 KCAL/MOL
REMARK 922        TOTAL FREE ENERGY PREDICTED BY IDOCK:  -10.83 KCAL/MOL
REMARK 923 INTER-LIGAND FREE ENERGY PREDICTED BY IDOCK:   -9.34 KCAL/MOL
REMARK 924 INTRA-LIGAND FREE ENERGY PREDICTED BY IDOCK:   -1.49 KCAL/MOL
REMARK 927      BINDING AFFINITY PREDICTED BY RF-SCORE:    0.00 PKD
ROOT
HETATM    1  C   UNL     1     -11.022  11.808  69.555  1.00  0.00    -0.064 C  
HETATM    2  S   UNL     1     -12.401  11.253  70.520  1.00  0.00    -0.344 SA 
HETATM    3  C   UNL     1     -12.090   9.472  70.718  1.00  0.00    -0.232 C  
HETATM    4  C   UNL     1     -10.838   8.892  70.121  1.00  0.00    -0.251 C  
HETATM    5  C   UNL     1      -9.791  11.613  67.910  1.00  0.00    -0.184 C  
HETATM    6  CA  UNL     1      -9.953   9.560  69.336  1.00  0.00    -0.191 C  
HETATM    7  N   UNL     1     -10.197  10.820  68.922  1.00  0.00    -0.195 N  
HETATM    8  CA  UNL     1     -11.022  12.542  68.148  1.00  0.00    -0.228 C  
HETATM    9  C   UNL     1      -8.694   8.873  68.908  1.00  0.00    -0.136 C  
HETATM   10  O   UNL     1      -9.007  11.445  67.004  1.00  0.00    -0.158 OA 
HETATM   11  O   UNL     1      -8.202   9.146  67.697  1.00  0.00    -0.108 OA 
HETATM   12  OXT UNL     1      -8.079   8.132  69.665  1.00  0.00    -0.113 OA 
ENDROOT
BRANCH   4  13
HETATM   13  C   UNL     1     -10.744   7.385  70.367  1.00  0.00    -0.237 C  
BRANCH  13  14
HETATM   14  O   UNL     1     -11.537   6.638  69.430  1.00  0.00    -0.274 OA 
BRANCH  14  15
HETATM   15  C   UNL     1     -10.905   6.153  68.322  1.00  0.00    -0.306 C  
HETATM   16  C   UNL     1      -9.899   5.095  68.683  1.00  0.00    -0.225 C  
HETATM   17  O   UNL     1     -11.155   6.479  67.169  1.00  0.00    -0.390 OA 
ENDBRANCH  14  15
ENDBRANCH  13  14
ENDBRANCH   4  13
BRANCH   8  18
HETATM   18  N   UNL     1     -11.987  12.509  66.967  1.00  0.00    -0.312 N  
HETATM   19  C   UNL     1     -11.985  13.076  65.694  1.00  0.00    -0.429 C  
HETATM   20  H   UNL     1     -12.818  11.947  67.150  1.00  0.00     0.000 HD 
HETATM   21  O   UNL     1     -13.054  13.051  65.038  1.00  0.00    -0.761 OA 
BRANCH  19  22
HETATM   22  C   UNL     1     -10.752  13.624  64.979  1.00  0.00    -0.367 C  
BRANCH  22  23
HETATM   23  C   UNL     1     -10.167  14.936  65.323  1.00  0.00    -0.373 A  
HETATM   24  N   UNL     1     -10.761  16.163  65.006  1.00  0.00    -0.626 NA 
HETATM   25  H2  UNL     1     -10.235  19.093  66.312  1.00  0.00     0.000 HD 
HETATM   26  N   UNL     1     -10.658  18.404  65.691  1.00  0.00    -0.596 NA 
HETATM   27  C   UNL     1      -9.200  15.019  66.314  1.00  0.00    -0.289 A  
HETATM   28  S   UNL     1      -9.025  16.633  66.841  1.00  0.00    -0.237 SA 
HETATM   29  H1  UNL     1     -11.386  18.692  65.038  1.00  0.00     0.000 HD 
HETATM   30  C   UNL     1     -10.251  17.118  65.741  1.00  0.00    -0.219 A  
ENDBRANCH  22  23
BRANCH  22  31
HETATM   31  N   UNL     1     -10.242  13.207  63.860  1.00  0.00    -0.744 NA 
HETATM   32  H   UNL     1      -9.593  13.828  63.378  1.00  0.00     0.000 HD 
BRANCH  31  33
HETATM   33  O   UNL     1     -10.513  11.974  63.266  1.00  0.00    -0.431 OA 
HETATM   34  C   UNL     1      -9.637  10.889  63.469  1.00  0.00    -0.319 C  
ENDBRANCH  31  33
ENDBRANCH  22  31
ENDBRANCH  19  22
ENDBRANCH   8  18
TORSDOF 8
ENDMDL
MODEL       23
REMARK 921   NORMALIZED FREE ENERGY PREDICTED BY IDOCK:   -6.57 KCAL/MOL
REMARK 922        TOTAL FREE ENERGY PREDICTED BY IDOCK:  -10.80 KCAL/MOL
REMARK 923 INTER-LIGAND FREE ENERGY PREDICTED BY IDOCK:   -9.72 KCAL/MOL
REMARK 924 INTRA-LIGAND FREE ENERGY PREDICTED BY IDOCK:   -1.09 KCAL/MOL
REMARK 927      BINDING AFFINITY PREDICTED BY RF-SCORE:    0.00 PKD
ROOT
HETATM    1  C   UNL     1     -11.856  14.315  67.707  1.00  0.00    -0.379 C  
HETATM    2  S   UNL     1     -11.540  12.744  66.949  1.00  0.00    -0.383 SA 
HETATM    3  C   UNL     1     -11.657  11.574  68.336  1.00  0.00    -0.308 C  
HETATM    4  C   UNL     1     -12.001  12.108  69.698  1.00  0.00    -0.351 C  
HETATM    5  C   UNL     1     -11.482  15.695  69.195  1.00  0.00    -0.359 C  
HETATM    6  CA  UNL     1     -12.126  13.421  70.025  1.00  0.00    -0.334 C  
HETATM    7  N   UNL     1     -11.830  14.394  69.140  1.00  0.00    -0.308 N  
HETATM    8  CA  UNL     1     -10.940  15.610  67.734  1.00  0.00    -0.316 C  
HETATM    9  C   UNL     1     -12.582  13.790  71.402  1.00  0.00    -0.348 C  
HETATM   10  O   UNL     1     -11.340  16.464  70.118  1.00  0.00    -0.329 OA 
HETATM   11  O   UNL     1     -12.080  14.894  71.962  1.00  0.00    -0.349 OA 
HETATM   12  OXT UNL     1     -13.447  13.147  71.983  1.00  0.00    -0.469 OA 
ENDROOT
BRANCH   4  13
HETATM   13  C   UNL     1     -12.041  10.993  70.746  1.00  0.00    -0.366 C  
BRANCH  13  14
HETATM   14  O   UNL     1     -11.406   9.793  70.277  1.00  0.00    -0.249 OA 
BRANCH  14  15
HETATM   15  C   UNL     1     -10.377   9.296  71.023  1.00  0.00    -0.318 C  
HETATM   16  C   UNL     1      -9.083   9.320  70.256  1.00  0.00    -0.271 C  
HETATM   17  O   UNL     1     -10.462   8.931  72.187  1.00  0.00    -0.336 OA 
ENDBRANCH  14  15
ENDBRANCH  13  14
ENDBRANCH   4  13
BRANCH   8  18
HETATM   18  N   UNL     1      -9.428  15.806  67.684  1.00  0.00    -0.217 N  
HETATM   19  C   UNL     1      -8.595  16.917  67.567  1.00  0.00    -0.203 C  
HETATM   20  H   UNL     1      -8.912  14.929  67.752  1.00  0.00     0.000 HD 
HETATM   21  O   UNL     1      -7.382  16.719  67.314  1.00  0.00    -0.151 OA 
BRANCH  19  22
HETATM   22  C   UNL     1      -9.014  18.361  67.838  1.00  0.00    -0.283 C  
BRANCH  22  23
HETATM   23  C   UNL     1      -8.028  19.417  68.144  1.00  0.00    -0.317 A  
HETATM   24  N   UNL     1      -7.223  19.427  69.290  1.00  0.00    -0.335 NA 
HETATM   25  H2  UNL     1      -4.453  21.038  69.836  1.00  0.00     0.000 HD 
HETATM   26  N   UNL     1      -5.233  20.413  70.042  1.00  0.00    -0.250 NA 
HETATM   27  C   UNL     1      -7.570  20.244  67.129  1.00  0.00    -0.315 A  
HETATM   28  S   UNL     1      -6.141  21.044  67.612  1.00  0.00    -0.365 SA 
HETATM   29  H1  UNL     1      -5.271  19.931  70.940  1.00  0.00     0.000 HD 
HETATM   30  C   UNL     1      -6.206  20.232  69.124  1.00  0.00    -0.327 A  
ENDBRANCH  22  23
BRANCH  22  31
HETATM   31  N   UNL     1     -10.206  18.795  68.113  1.00  0.00    -0.374 NA 
HETATM   32  H   UNL     1     -10.574  18.601  69.044  1.00  0.00     0.000 HD 
BRANCH  31  33
HETATM   33  O   UNL     1     -11.023  19.506  67.235  1.00  0.00    -0.499 OA 
HETATM   34  C   UNL     1     -10.802  19.419  65.845  1.00  0.00    -0.306 C  
ENDBRANCH  31  33
ENDBRANCH  22  31
ENDBRANCH  19  22
ENDBRANCH   8  18
TORSDOF 8
ENDMDL
MODEL       24
REMARK 921   NORMALIZED FREE ENERGY PREDICTED BY IDOCK:   -6.52 KCAL/MOL
REMARK 922        TOTAL FREE ENERGY PREDICTED BY IDOCK:  -10.73 KCAL/MOL
REMARK 923 INTER-LIGAND FREE ENERGY PREDICTED BY IDOCK:   -9.67 KCAL/MOL
REMARK 924 INTRA-LIGAND FREE ENERGY PREDICTED BY IDOCK:   -1.06 KCAL/MOL
REMARK 927      BINDING AFFINITY PREDICTED BY RF-SCORE:    0.00 PKD
ROOT
HETATM    1  C   UNL     1     -11.660  11.436  68.321  1.00  0.00    -0.306 C  
HETATM    2  S   UNL     1     -10.555  10.104  67.939  1.00  0.00    -0.268 SA 
HETATM    3  C   UNL     1     -10.574   9.091  69.449  1.00  0.00    -0.221 C  
HETATM    4  C   UNL     1     -11.459   9.516  70.587  1.00  0.00    -0.362 C  
HETATM    5  C   UNL     1     -12.285  12.938  69.590  1.00  0.00    -0.141 C  
HETATM    6  CA  UNL     1     -12.178  10.668  70.642  1.00  0.00    -0.365 C  
HETATM    7  N   UNL     1     -12.060  11.613  69.688  1.00  0.00    -0.299 N  
HETATM    8  CA  UNL     1     -11.376  12.997  68.322  1.00  0.00    -0.288 C  
HETATM    9  C   UNL     1     -13.101  10.898  71.798  1.00  0.00    -0.459 C  
HETATM   10  O   UNL     1     -12.717  13.754  70.372  1.00  0.00    -0.276 OA 
HETATM   11  O   UNL     1     -13.250  12.145  72.253  1.00  0.00    -0.460 OA 
HETATM   12  OXT UNL     1     -13.765   9.987  72.278  1.00  0.00    -0.326 OA 
ENDROOT
BRANCH   4  13
HETATM   13  C   UNL     1     -11.341   8.563  71.779  1.00  0.00    -0.307 C  
BRANCH  13  14
HETATM   14  O   UNL     1     -11.980   7.302  71.523  1.00  0.00    -0.283 OA 
BRANCH  14  15
HETATM   15  C   UNL     1     -11.318   6.175  71.912  1.00  0.00    -0.296 C  
HETATM   16  C   UNL     1     -10.520   5.589  70.779  1.00  0.00    -0.330 C  
HETATM   17  O   UNL     1     -11.311   5.717  73.047  1.00  0.00    -0.268 OA 
ENDBRANCH  14  15
ENDBRANCH  13  14
ENDBRANCH   4  13
BRANCH   8  18
HETATM   18  N   UNL     1     -10.114  13.816  68.573  1.00  0.00    -0.233 N  
HETATM   19  C   UNL     1      -9.495  14.875  67.913  1.00  0.00    -0.200 C  
HETATM   20  H   UNL     1      -9.612  13.523  69.411  1.00  0.00     0.000 HD 
HETATM   21  O   UNL     1      -8.324  15.174  68.249  1.00  0.00    -0.142 OA 
BRANCH  19  22
HETATM   22  C   UNL     1     -10.169  15.784  66.887  1.00  0.00    -0.280 C  
BRANCH  22  23
HETATM   23  C   UNL     1     -10.431  17.212  67.161  1.00  0.00    -0.291 A  
HETATM   24  N   UNL     1     -10.416  17.778  68.441  1.00  0.00    -0.368 NA 
HETATM   25  H2  UNL     1     -10.090  20.895  69.301  1.00  0.00     0.000 HD 
HETATM   26  N   UNL     1     -10.208  19.891  69.436  1.00  0.00    -0.576 NA 
HETATM   27  C   UNL     1     -10.320  18.139  66.136  1.00  0.00    -0.385 A  
HETATM   28  S   UNL     1     -10.211  19.720  66.771  1.00  0.00    -0.497 SA 
HETATM   29  H1  UNL     1     -10.259  19.510  70.380  1.00  0.00     0.000 HD 
HETATM   30  C   UNL     1     -10.297  19.078  68.362  1.00  0.00    -0.308 A  
ENDBRANCH  22  23
BRANCH  22  31
HETATM   31  N   UNL     1     -10.829  15.422  65.829  1.00  0.00    -0.339 NA 
HETATM   32  H   UNL     1     -11.804  15.711  65.761  1.00  0.00     0.000 HD 
BRANCH  31  33
HETATM   33  O   UNL     1     -10.306  14.669  64.778  1.00  0.00    -0.396 OA 
HETATM   34  C   UNL     1     -10.688  13.321  64.623  1.00  0.00    -0.400 C  
ENDBRANCH  31  33
ENDBRANCH  22  31
ENDBRANCH  19  22
ENDBRANCH   8  18
TORSDOF 8
ENDMDL
MODEL       25
REMARK 921   NORMALIZED FREE ENERGY PREDICTED BY IDOCK:   -6.44 KCAL/MOL
REMARK 922        TOTAL FREE ENERGY PREDICTED BY IDOCK:  -10.61 KCAL/MOL
REMARK 923 INTER-LIGAND FREE ENERGY PREDICTED BY IDOCK:   -9.37 KCAL/MOL
REMARK 924 INTRA-LIGAND FREE ENERGY PREDICTED BY IDOCK:   -1.24 KCAL/MOL
REMARK 927      BINDING AFFINITY PREDICTED BY RF-SCORE:    0.00 PKD
ROOT
HETATM    1  C   UNL     1     -10.185  12.578  67.931  1.00  0.00    -0.219 C  
HETATM    2  S   UNL     1     -11.835  12.233  68.479  1.00  0.00    -0.245 SA 
HETATM    3  C   UNL     1     -12.262  13.691  69.479  1.00  0.00    -0.264 C  
HETATM    4  C   UNL     1     -11.255  14.799  69.599  1.00  0.00    -0.305 C  
HETATM    5  C   UNL     1      -8.244  13.147  68.338  1.00  0.00    -0.130 C  
HETATM    6  CA  UNL     1      -9.986  14.771  69.114  1.00  0.00    -0.181 C  
HETATM    7  N   UNL     1      -9.473  13.653  68.562  1.00  0.00    -0.183 N  
HETATM    8  CA  UNL     1      -8.864  11.727  68.151  1.00  0.00    -0.169 C  
HETATM    9  C   UNL     1      -9.138  15.999  69.217  1.00  0.00    -0.235 C  
HETATM   10  O   UNL     1      -7.133  13.574  68.553  1.00  0.00    -0.093 OA 
HETATM   11  O   UNL     1      -7.826  15.850  69.422  1.00  0.00    -0.229 OA 
HETATM   12  OXT UNL     1      -9.607  17.118  69.047  1.00  0.00    -0.257 OA 
ENDROOT
BRANCH   4  13
HETATM   13  C   UNL     1     -11.770  15.935  70.486  1.00  0.00    -0.373 C  
BRANCH  13  14
HETATM   14  O   UNL     1     -13.051  15.628  71.060  1.00  0.00    -0.500 OA 
BRANCH  14  15
HETATM   15  C   UNL     1     -13.115  15.503  72.417  1.00  0.00    -0.437 C  
HETATM   16  C   UNL     1     -12.174  16.458  73.100  1.00  0.00    -0.558 C  
HETATM   17  O   UNL     1     -13.877  14.761  73.022  1.00  0.00    -0.508 OA 
ENDBRANCH  14  15
ENDBRANCH  13  14
ENDBRANCH   4  13
BRANCH   8  18
HETATM   18  N   UNL     1      -8.424  10.772  69.256  1.00  0.00    -0.340 N  
HETATM   19  C   UNL     1      -9.070   9.798  70.014  1.00  0.00    -0.223 C  
HETATM   20  H   UNL     1      -7.437  10.868  69.492  1.00  0.00     0.000 HD 
HETATM   21  O   UNL     1      -8.475   9.345  71.021  1.00  0.00    -0.285 OA 
BRANCH  19  22
HETATM   22  C   UNL     1     -10.403   9.145  69.651  1.00  0.00    -0.219 C  
BRANCH  22  23
HETATM   23  C   UNL     1     -11.321   8.616  70.680  1.00  0.00    -0.247 A  
HETATM   24  N   UNL     1     -12.120   9.420  71.502  1.00  0.00    -0.354 NA 
HETATM   25  H2  UNL     1     -14.782   8.621  73.187  1.00  0.00     0.000 HD 
HETATM   26  N   UNL     1     -14.042   9.226  72.831  1.00  0.00    -1.031 NA 
HETATM   27  C   UNL     1     -11.729   7.292  70.622  1.00  0.00    -0.275 A  
HETATM   28  S   UNL     1     -13.103   7.048  71.605  1.00  0.00    -0.252 SA 
HETATM   29  H1  UNL     1     -14.032  10.214  73.083  1.00  0.00     0.000 HD 
HETATM   30  C   UNL     1     -13.085   8.712  72.030  1.00  0.00    -0.381 A  
ENDBRANCH  22  23
BRANCH  22  31
HETATM   31  N   UNL     1     -10.777   8.718  68.483  1.00  0.00    -0.416 NA 
HETATM   32  H   UNL     1     -11.474   7.975  68.455  1.00  0.00     0.000 HD 
BRANCH  31  33
HETATM   33  O   UNL     1     -10.300   9.199  67.264  1.00  0.00    -0.236 OA 
HETATM   34  C   UNL     1      -9.654   8.323  66.369  1.00  0.00    -0.230 C  
ENDBRANCH  31  33
ENDBRANCH  22  31
ENDBRANCH  19  22
ENDBRANCH   8  18
TORSDOF 8
ENDMDL
MODEL       26
REMARK 921   NORMALIZED FREE ENERGY PREDICTED BY IDOCK:   -6.43 KCAL/MOL
REMARK 922        TOTAL FREE ENERGY PREDICTED BY IDOCK:  -10.59 KCAL/MOL
REMARK 923 INTER-LIGAND FREE ENERGY PREDICTED BY IDOCK:   -9.25 KCAL/MOL
REMARK 924 INTRA-LIGAND FREE ENERGY PREDICTED BY IDOCK:   -1.34 KCAL/MOL
REMARK 927      BINDING AFFINITY PREDICTED BY RF-SCORE:    0.00 PKD
ROOT
HETATM    1  C   UNL     1     -11.180  11.403  68.177  1.00  0.00    -0.278 C  
HETATM    2  S   UNL     1      -9.957  10.220  67.679  1.00  0.00    -0.188 SA 
HETATM    3  C   UNL     1     -10.033   8.957  68.985  1.00  0.00    -0.190 C  
HETATM    4  C   UNL     1     -11.037   9.127  70.090  1.00  0.00    -0.248 C  
HETATM    5  C   UNL     1     -12.010  12.623  69.620  1.00  0.00    -0.286 C  
HETATM    6  CA  UNL     1     -11.836  10.212  70.274  1.00  0.00    -0.261 C  
HETATM    7  N   UNL     1     -11.703  11.315  69.511  1.00  0.00    -0.313 N  
HETATM    8  CA  UNL     1     -11.004  12.952  68.473  1.00  0.00    -0.259 C  
HETATM    9  C   UNL     1     -12.865  10.184  71.360  1.00  0.00    -0.428 C  
HETATM   10  O   UNL     1     -12.561  13.264  70.486  1.00  0.00    -0.274 OA 
HETATM   11  O   UNL     1     -13.137  11.322  72.006  1.00  0.00    -0.495 OA 
HETATM   12  OXT UNL     1     -13.503   9.170  71.612  1.00  0.00    -0.362 OA 
ENDROOT
BRANCH   4  13
HETATM   13  C   UNL     1     -10.954   7.987  71.107  1.00  0.00    -0.243 C  
BRANCH  13  14
HETATM   14  O   UNL     1      -9.775   8.080  71.922  1.00  0.00    -0.166 OA 
BRANCH  14  15
HETATM   15  C   UNL     1      -9.891   7.730  73.235  1.00  0.00    -0.299 C  
HETATM   16  C   UNL     1      -8.597   7.935  73.974  1.00  0.00    -0.322 C  
HETATM   17  O   UNL     1     -10.923   7.355  73.777  1.00  0.00    -0.276 OA 
ENDBRANCH  14  15
ENDBRANCH  13  14
ENDBRANCH   4  13
BRANCH   8  18
HETATM   18  N   UNL     1      -9.827  13.780  68.978  1.00  0.00    -0.425 N  
HETATM   19  C   UNL     1      -9.601  15.144  69.153  1.00  0.00    -0.232 C  
HETATM   20  H   UNL     1      -9.027  13.208  69.247  1.00  0.00     0.000 HD 
HETATM   21  O   UNL     1      -8.424  15.522  69.368  1.00  0.00    -0.247 OA 
BRANCH  19  22
HETATM   22  C   UNL     1     -10.691  16.212  69.224  1.00  0.00    -0.295 C  
BRANCH  22  23
HETATM   23  C   UNL     1     -10.696  17.385  68.327  1.00  0.00    -0.327 A  
HETATM   24  N   UNL     1     -10.242  18.656  68.699  1.00  0.00    -0.363 NA 
HETATM   25  H2  UNL     1      -9.323  21.138  66.813  1.00  0.00     0.000 HD 
HETATM   26  N   UNL     1      -9.511  20.638  67.681  1.00  0.00    -0.321 NA 
HETATM   27  C   UNL     1     -10.786  17.200  66.955  1.00  0.00    -0.149 A  
HETATM   28  S   UNL     1     -10.315  18.618  66.131  1.00  0.00    -0.396 SA 
HETATM   29  H1  UNL     1      -9.325  21.091  68.576  1.00  0.00     0.000 HD 
HETATM   30  C   UNL     1     -10.003  19.382  67.637  1.00  0.00    -0.371 A  
ENDBRANCH  22  23
BRANCH  22  31
HETATM   31  N   UNL     1     -11.542  16.404  70.186  1.00  0.00    -0.387 NA 
HETATM   32  H   UNL     1     -12.457  16.776  69.937  1.00  0.00     0.000 HD 
BRANCH  31  33
HETATM   33  O   UNL     1     -11.300  16.140  71.534  1.00  0.00    -0.358 OA 
HETATM   34  C   UNL     1     -12.377  16.067  72.440  1.00  0.00    -0.497 C  
ENDBRANCH  31  33
ENDBRANCH  22  31
ENDBRANCH  19  22
ENDBRANCH   8  18
TORSDOF 8
ENDMDL
MODEL       27
REMARK 921   NORMALIZED FREE ENERGY PREDICTED BY IDOCK:   -6.41 KCAL/MOL
REMARK 922        TOTAL FREE ENERGY PREDICTED BY IDOCK:  -10.56 KCAL/MOL
REMARK 923 INTER-LIGAND FREE ENERGY PREDICTED BY IDOCK:   -8.59 KCAL/MOL
REMARK 924 INTRA-LIGAND FREE ENERGY PREDICTED BY IDOCK:   -1.97 KCAL/MOL
REMARK 927      BINDING AFFINITY PREDICTED BY RF-SCORE:    0.00 PKD
ROOT
HETATM    1  C   UNL     1     -11.777  14.227  68.766  1.00  0.00    -0.343 C  
HETATM    2  S   UNL     1     -10.922  15.614  69.465  1.00  0.00    -0.311 SA 
HETATM    3  C   UNL     1     -10.372  16.551  68.007  1.00  0.00    -0.294 C  
HETATM    4  C   UNL     1     -10.745  16.042  66.643  1.00  0.00    -0.247 C  
HETATM    5  C   UNL     1     -11.843  12.644  67.444  1.00  0.00    -0.328 C  
HETATM    6  CA  UNL     1     -11.371  14.863  66.383  1.00  0.00    -0.308 C  
HETATM    7  N   UNL     1     -11.616  13.970  67.363  1.00  0.00    -0.347 N  
HETATM    8  CA  UNL     1     -11.492  12.679  68.964  1.00  0.00    -0.303 C  
HETATM    9  C   UNL     1     -11.773  14.546  64.977  1.00  0.00    -0.392 C  
HETATM   10  O   UNL     1     -11.929  11.777  66.605  1.00  0.00    -0.561 OA 
HETATM   11  O   UNL     1     -11.719  13.274  64.573  1.00  0.00    -0.346 OA 
HETATM   12  OXT UNL     1     -12.213  15.408  64.227  1.00  0.00    -0.524 OA 
ENDROOT
BRANCH   4  13
HETATM   13  C   UNL     1     -10.190  16.939  65.535  1.00  0.00    -0.126 C  
BRANCH  13  14
HETATM   14  O   UNL     1      -9.441  18.044  66.065  1.00  0.00    -0.504 OA 
BRANCH  14  15
HETATM   15  C   UNL     1     -10.041  19.269  66.057  1.00  0.00    -0.387 C  
HETATM   16  C   UNL     1      -9.336  20.231  66.973  1.00  0.00    -0.526 C  
HETATM   17  O   UNL     1     -10.993  19.584  65.355  1.00  0.00    -0.447 OA 
ENDBRANCH  14  15
ENDBRANCH  13  14
ENDBRANCH   4  13
BRANCH   8  18
HETATM   18  N   UNL     1     -10.220  11.894  69.265  1.00  0.00    -0.411 N  
HETATM   19  C   UNL     1      -9.008  11.715  68.602  1.00  0.00    -0.084 C  
HETATM   20  H   UNL     1     -10.267  11.387  70.149  1.00  0.00     0.000 HD 
HETATM   21  O   UNL     1      -8.245  10.804  69.005  1.00  0.00    -0.142 OA 
BRANCH  19  22
HETATM   22  C   UNL     1      -8.474  12.617  67.490  1.00  0.00    -0.176 C  
BRANCH  22  23
HETATM   23  C   UNL     1      -7.642  13.802  67.778  1.00  0.00    -0.169 A  
HETATM   24  N   UNL     1      -7.446  14.857  66.877  1.00  0.00     0.004 NA 
HETATM   25  H2  UNL     1      -6.449  17.894  67.463  1.00  0.00     0.000 HD 
HETATM   26  N   UNL     1      -6.768  17.101  66.907  1.00  0.00    -0.181 NA 
HETATM   27  C   UNL     1      -7.328  14.120  69.091  1.00  0.00    -0.067 A  
HETATM   28  S   UNL     1      -6.777  15.732  69.198  1.00  0.00    -0.166 SA 
HETATM   29  H1  UNL     1      -6.903  17.211  65.902  1.00  0.00     0.000 HD 
HETATM   30  C   UNL     1      -7.005  15.915  67.506  1.00  0.00    -0.180 A  
ENDBRANCH  22  23
BRANCH  22  31
HETATM   31  N   UNL     1      -8.870  12.660  66.255  1.00  0.00    -0.428 NA 
HETATM   32  H   UNL     1      -9.066  13.577  65.855  1.00  0.00     0.000 HD 
BRANCH  31  33
HETATM   33  O   UNL     1      -9.048  11.549  65.431  1.00  0.00    -0.167 OA 
HETATM   34  C   UNL     1      -8.034  10.576  65.335  1.00  0.00    -0.129 C  
ENDBRANCH  31  33
ENDBRANCH  22  31
ENDBRANCH  19  22
ENDBRANCH   8  18
TORSDOF 8
ENDMDL
MODEL       28
REMARK 921   NORMALIZED FREE ENERGY PREDICTED BY IDOCK:   -6.40 KCAL/MOL
REMARK 922        TOTAL FREE ENERGY PREDICTED BY IDOCK:  -10.54 KCAL/MOL
REMARK 923 INTER-LIGAND FREE ENERGY PREDICTED BY IDOCK:   -9.52 KCAL/MOL
REMARK 924 INTRA-LIGAND FREE ENERGY PREDICTED BY IDOCK:   -1.02 KCAL/MOL
REMARK 927      BINDING AFFINITY PREDICTED BY RF-SCORE:    0.00 PKD
ROOT
HETATM    1  C   UNL     1     -10.324  16.397  67.732  1.00  0.00    -0.287 C  
HETATM    2  S   UNL     1      -9.249  15.474  68.797  1.00  0.00    -0.226 SA 
HETATM    3  C   UNL     1      -7.776  16.532  68.933  1.00  0.00    -0.236 C  
HETATM    4  C   UNL     1      -7.777  17.857  68.223  1.00  0.00    -0.279 C  
HETATM    5  C   UNL     1     -10.645  17.452  65.988  1.00  0.00    -0.210 C  
HETATM    6  CA  UNL     1      -8.746  18.303  67.381  1.00  0.00    -0.256 C  
HETATM    7  N   UNL     1      -9.772  17.510  67.013  1.00  0.00    -0.274 N  
HETATM    8  CA  UNL     1     -10.962  15.966  66.345  1.00  0.00    -0.115 C  
HETATM    9  C   UNL     1      -8.655  19.694  66.836  1.00  0.00    -0.315 C  
HETATM   10  O   UNL     1     -10.813  18.154  65.017  1.00  0.00    -0.707 OA 
HETATM   11  O   UNL     1      -9.092  19.919  65.594  1.00  0.00    -0.298 OA 
HETATM   12  OXT UNL     1      -8.262  20.627  67.525  1.00  0.00    -0.296 OA 
ENDROOT
BRANCH   4  13
HETATM   13  C   UNL     1      -6.459  18.607  68.430  1.00  0.00    -0.226 C  
BRANCH  13  14
HETATM   14  O   UNL     1      -6.149  18.772  69.823  1.00  0.00    -0.259 OA 
BRANCH  14  15
HETATM   15  C   UNL     1      -5.925  20.041  70.269  1.00  0.00    -0.340 C  
HETATM   16  C   UNL     1      -5.192  20.861  69.243  1.00  0.00    -0.394 C  
HETATM   17  O   UNL     1      -6.318  20.494  71.336  1.00  0.00    -0.621 OA 
ENDBRANCH  14  15
ENDBRANCH  13  14
ENDBRANCH   4  13
BRANCH   8  18
HETATM   18  N   UNL     1     -10.499  15.013  65.248  1.00  0.00    -0.376 N  
HETATM   19  C   UNL     1     -10.453  13.626  65.120  1.00  0.00    -0.374 C  
HETATM   20  H   UNL     1     -10.145  15.499  64.424  1.00  0.00     0.000 HD 
HETATM   21  O   UNL     1      -9.786  13.145  64.172  1.00  0.00    -0.217 OA 
BRANCH  19  22
HETATM   22  C   UNL     1     -11.247  12.639  65.974  1.00  0.00    -0.306 C  
BRANCH  22  23
HETATM   23  C   UNL     1     -10.630  11.905  67.097  1.00  0.00    -0.231 A  
HETATM   24  N   UNL     1     -11.138  11.904  68.402  1.00  0.00    -0.225 NA 
HETATM   25  H2  UNL     1     -10.582   9.800  70.816  1.00  0.00     0.000 HD 
HETATM   26  N   UNL     1     -10.986  10.615  70.355  1.00  0.00    -0.448 NA 
HETATM   27  C   UNL     1      -9.746  10.869  66.838  1.00  0.00    -0.181 A  
HETATM   28  S   UNL     1      -9.538   9.901  68.229  1.00  0.00    -0.141 SA 
HETATM   29  H1  UNL     1     -11.644  11.208  70.861  1.00  0.00     0.000 HD 
HETATM   30  C   UNL     1     -10.645  10.900  69.081  1.00  0.00    -0.220 A  
ENDBRANCH  22  23
BRANCH  22  31
HETATM   31  N   UNL     1     -12.399  12.109  65.696  1.00  0.00    -0.469 NA 
HETATM   32  H   UNL     1     -12.768  11.417  66.347  1.00  0.00     0.000 HD 
BRANCH  31  33
HETATM   33  O   UNL     1     -13.171  12.414  64.575  1.00  0.00    -0.834 OA 
HETATM   34  C   UNL     1     -12.803  11.911  63.311  1.00  0.00    -0.161 C  
ENDBRANCH  31  33
ENDBRANCH  22  31
ENDBRANCH  19  22
ENDBRANCH   8  18
TORSDOF 8
ENDMDL
MODEL       29
REMARK 921   NORMALIZED FREE ENERGY PREDICTED BY IDOCK:   -6.36 KCAL/MOL
REMARK 922        TOTAL FREE ENERGY PREDICTED BY IDOCK:  -10.49 KCAL/MOL
REMARK 923 INTER-LIGAND FREE ENERGY PREDICTED BY IDOCK:   -9.32 KCAL/MOL
REMARK 924 INTRA-LIGAND FREE ENERGY PREDICTED BY IDOCK:   -1.16 KCAL/MOL
REMARK 927      BINDING AFFINITY PREDICTED BY RF-SCORE:    0.00 PKD
ROOT
HETATM    1  C   UNL     1     -10.447   9.218  68.534  1.00  0.00    -0.206 C  
HETATM    2  S   UNL     1      -9.060   8.120  68.639  1.00  0.00    -0.143 SA 
HETATM    3  C   UNL     1      -9.185   7.438  70.320  1.00  0.00    -0.154 C  
HETATM    4  C   UNL     1     -10.340   7.864  71.182  1.00  0.00    -0.225 C  
HETATM    5  C   UNL     1     -11.577  10.758  69.316  1.00  0.00    -0.305 C  
HETATM    6  CA  UNL     1     -11.257   8.815  70.863  1.00  0.00    -0.270 C  
HETATM    7  N   UNL     1     -11.132   9.561  69.747  1.00  0.00    -0.221 N  
HETATM    8  CA  UNL     1     -10.464  10.774  68.221  1.00  0.00    -0.181 C  
HETATM    9  C   UNL     1     -12.414   9.050  71.783  1.00  0.00    -0.368 C  
HETATM   10  O   UNL     1     -12.298  11.591  69.816  1.00  0.00    -0.240 OA 
HETATM   11  O   UNL     1     -12.880  10.295  71.913  1.00  0.00    -0.425 OA 
HETATM   12  OXT UNL     1     -12.978   8.123  72.352  1.00  0.00    -0.244 OA 
ENDROOT
BRANCH   4  13
HETATM   13  C   UNL     1     -10.281   7.209  72.564  1.00  0.00    -0.194 C  
BRANCH  13  14
HETATM   14  O   UNL     1      -9.729   8.093  73.553  1.00  0.00    -0.202 OA 
BRANCH  14  15
HETATM   15  C   UNL     1      -8.416   7.921  73.882  1.00  0.00    -0.259 C  
HETATM   16  C   UNL     1      -8.041   6.464  73.898  1.00  0.00    -0.109 C  
HETATM   17  O   UNL     1      -7.614   8.824  74.080  1.00  0.00    -0.419 OA 
ENDBRANCH  14  15
ENDBRANCH  13  14
ENDBRANCH   4  13
BRANCH   8  18
HETATM   18  N   UNL     1      -9.451  11.887  68.466  1.00  0.00    -0.312 N  
HETATM   19  C   UNL     1      -9.463  13.269  68.288  1.00  0.00    -0.209 C  
HETATM   20  H   UNL     1      -8.568  11.544  68.844  1.00  0.00     0.000 HD 
HETATM   21  O   UNL     1      -8.370  13.881  68.364  1.00  0.00    -0.153 OA 
BRANCH  19  22
HETATM   22  C   UNL     1     -10.719  14.122  68.124  1.00  0.00    -0.245 C  
BRANCH  22  23
HETATM   23  C   UNL     1     -11.331  14.367  66.802  1.00  0.00    -0.352 A  
HETATM   24  N   UNL     1     -11.211  15.570  66.095  1.00  0.00    -0.181 NA 
HETATM   25  H2  UNL     1     -11.655  16.139  62.927  1.00  0.00     0.000 HD 
HETATM   26  N   UNL     1     -11.436  16.357  63.898  1.00  0.00    -1.618 NA 
HETATM   27  C   UNL     1     -11.727  13.293  66.019  1.00  0.00    -0.368 A  
HETATM   28  S   UNL     1     -11.962  13.789  64.403  1.00  0.00    -0.448 SA 
HETATM   29  H1  UNL     1     -11.165  17.307  64.154  1.00  0.00     0.000 HD 
HETATM   30  C   UNL     1     -11.506  15.387  64.834  1.00  0.00    -0.311 A  
ENDBRANCH  22  23
BRANCH  22  31
HETATM   31  N   UNL     1     -11.234  14.938  68.992  1.00  0.00    -0.250 NA 
HETATM   32  H   UNL     1     -10.717  15.792  69.200  1.00  0.00     0.000 HD 
BRANCH  31  33
HETATM   33  O   UNL     1     -12.440  14.738  69.664  1.00  0.00    -0.247 OA 
HETATM   34  C   UNL     1     -12.713  15.455  70.845  1.00  0.00    -0.461 C  
ENDBRANCH  31  33
ENDBRANCH  22  31
ENDBRANCH  19  22
ENDBRANCH   8  18
TORSDOF 8
ENDMDL
MODEL       30
REMARK 921   NORMALIZED FREE ENERGY PREDICTED BY IDOCK:   -6.35 KCAL/MOL
REMARK 922        TOTAL FREE ENERGY PREDICTED BY IDOCK:  -10.47 KCAL/MOL
REMARK 923 INTER-LIGAND FREE ENERGY PREDICTED BY IDOCK:   -9.57 KCAL/MOL
REMARK 924 INTRA-LIGAND FREE ENERGY PREDICTED BY IDOCK:   -0.90 KCAL/MOL
REMARK 927      BINDING AFFINITY PREDICTED BY RF-SCORE:    0.00 PKD
ROOT
HETATM    1  C   UNL     1     -11.274  11.642  68.269  1.00  0.00    -0.260 C  
HETATM    2  S   UNL     1     -10.130  10.309  68.036  1.00  0.00    -0.170 SA 
HETATM    3  C   UNL     1     -10.287   9.343  69.569  1.00  0.00    -0.214 C  
HETATM    4  C   UNL     1     -11.278   9.795  70.604  1.00  0.00    -0.402 C  
HETATM    5  C   UNL     1     -12.025  13.178  69.425  1.00  0.00    -0.291 C  
HETATM    6  CA  UNL     1     -12.006  10.942  70.554  1.00  0.00    -0.371 C  
HETATM    7  N   UNL     1     -11.803  11.858  69.586  1.00  0.00    -0.328 N  
HETATM    8  CA  UNL     1     -11.000  13.205  68.248  1.00  0.00    -0.253 C  
HETATM    9  C   UNL     1     -13.035  11.199  71.610  1.00  0.00    -0.443 C  
HETATM   10  O   UNL     1     -12.535  14.013  70.136  1.00  0.00    -0.344 OA 
HETATM   11  O   UNL     1     -13.235  12.458  72.009  1.00  0.00    -0.481 OA 
HETATM   12  OXT UNL     1     -13.737  10.298  72.053  1.00  0.00    -0.263 OA 
ENDROOT
BRANCH   4  13
HETATM   13  C   UNL     1     -11.268   8.881  71.831  1.00  0.00    -0.377 C  
BRANCH  13  14
HETATM   14  O   UNL     1     -11.170   7.495  71.466  1.00  0.00    -0.239 OA 
BRANCH  14  15
HETATM   15  C   UNL     1     -12.233   6.692  71.763  1.00  0.00    -0.353 C  
HETATM   16  C   UNL     1     -11.802   5.477  72.538  1.00  0.00    -0.158 C  
HETATM   17  O   UNL     1     -13.401   6.942  71.498  1.00  0.00    -0.329 OA 
ENDBRANCH  14  15
ENDBRANCH  13  14
ENDBRANCH   4  13
BRANCH   8  18
HETATM   18  N   UNL     1      -9.773  14.042  68.592  1.00  0.00    -0.315 N  
HETATM   19  C   UNL     1      -9.141  15.131  67.995  1.00  0.00    -0.180 C  
HETATM   20  H   UNL     1      -9.312  13.737  69.449  1.00  0.00     0.000 HD 
HETATM   21  O   UNL     1      -7.997  15.445  68.405  1.00  0.00    -0.125 OA 
BRANCH  19  22
HETATM   22  C   UNL     1      -9.777  16.055  66.957  1.00  0.00    -0.229 C  
BRANCH  22  23
HETATM   23  C   UNL     1      -9.573  17.517  66.982  1.00  0.00    -0.268 A  
HETATM   24  N   UNL     1      -8.453  18.159  66.438  1.00  0.00    -0.369 NA 
HETATM   25  H2  UNL     1      -8.097  21.269  65.564  1.00  0.00     0.000 HD 
HETATM   26  N   UNL     1      -7.827  20.296  65.702  1.00  0.00    -0.510 NA 
HETATM   27  C   UNL     1     -10.654  18.359  67.195  1.00  0.00    -0.383 A  
HETATM   28  S   UNL     1     -10.268  19.955  66.728  1.00  0.00    -0.487 SA 
HETATM   29  H1  UNL     1      -6.897  19.984  65.421  1.00  0.00     0.000 HD 
HETATM   30  C   UNL     1      -8.703  19.430  66.255  1.00  0.00    -0.346 A  
ENDBRANCH  22  23
BRANCH  22  31
HETATM   31  N   UNL     1     -10.747  15.771  66.142  1.00  0.00    -0.312 NA 
HETATM   32  H   UNL     1     -11.671  16.141  66.364  1.00  0.00     0.000 HD 
BRANCH  31  33
HETATM   33  O   UNL     1     -10.623  14.999  64.988  1.00  0.00    -0.384 OA 
HETATM   34  C   UNL     1     -11.607  14.040  64.675  1.00  0.00    -0.392 C  
ENDBRANCH  31  33
ENDBRANCH  22  31
ENDBRANCH  19  22
ENDBRANCH   8  18
TORSDOF 8
ENDMDL
MODEL       31
REMARK 921   NORMALIZED FREE ENERGY PREDICTED BY IDOCK:   -6.31 KCAL/MOL
REMARK 922        TOTAL FREE ENERGY PREDICTED BY IDOCK:  -10.42 KCAL/MOL
REMARK 923 INTER-LIGAND FREE ENERGY PREDICTED BY IDOCK:   -9.68 KCAL/MOL
REMARK 924 INTRA-LIGAND FREE ENERGY PREDICTED BY IDOCK:   -0.74 KCAL/MOL
REMARK 927      BINDING AFFINITY PREDICTED BY RF-SCORE:    0.00 PKD
ROOT
HETATM    1  C   UNL     1     -10.735  13.629  66.890  1.00  0.00    -0.275 C  
HETATM    2  S   UNL     1      -9.213  13.617  67.798  1.00  0.00    -0.226 SA 
HETATM    3  C   UNL     1      -8.405  15.165  67.289  1.00  0.00    -0.201 C  
HETATM    4  C   UNL     1      -9.127  16.071  66.332  1.00  0.00    -0.354 C  
HETATM    5  C   UNL     1     -11.759  13.842  65.111  1.00  0.00    -0.343 C  
HETATM    6  CA  UNL     1     -10.302  15.789  65.710  1.00  0.00    -0.369 C  
HETATM    7  N   UNL     1     -10.879  14.575  65.820  1.00  0.00    -0.304 N  
HETATM    8  CA  UNL     1     -11.289  12.556  65.860  1.00  0.00    -0.340 C  
HETATM    9  C   UNL     1     -10.953  16.841  64.868  1.00  0.00    -0.087 C  
HETATM   10  O   UNL     1     -12.374  14.063  64.093  1.00  0.00    -0.620 OA 
HETATM   11  O   UNL     1     -11.617  16.458  63.774  1.00  0.00    -1.055 OA 
HETATM   12  OXT UNL     1     -10.948  18.020  65.199  1.00  0.00    -0.645 OA 
ENDROOT
BRANCH   4  13
HETATM   13  C   UNL     1      -8.300  17.315  66.001  1.00  0.00    -0.119 C  
BRANCH  13  14
HETATM   14  O   UNL     1      -7.868  18.003  67.186  1.00  0.00    -0.210 OA 
BRANCH  14  15
HETATM   15  C   UNL     1      -8.757  18.854  67.774  1.00  0.00    -0.292 C  
HETATM   16  C   UNL     1      -8.818  20.171  67.049  1.00  0.00    -0.439 C  
HETATM   17  O   UNL     1      -9.469  18.580  68.731  1.00  0.00    -0.332 OA 
ENDBRANCH  14  15
ENDBRANCH  13  14
ENDBRANCH   4  13
BRANCH   8  18
HETATM   18  N   UNL     1     -10.597  11.577  64.917  1.00  0.00    -0.290 N  
HETATM   19  C   UNL     1     -10.021  10.319  65.073  1.00  0.00    -0.323 C  
HETATM   20  H   UNL     1     -10.544  11.921  63.958  1.00  0.00     0.000 HD 
HETATM   21  O   UNL     1      -9.314   9.875  64.136  1.00  0.00    -0.266 OA 
BRANCH  19  22
HETATM   22  C   UNL     1     -10.275   9.376  66.249  1.00  0.00    -0.214 C  
BRANCH  22  23
HETATM   23  C   UNL     1     -10.390   9.870  67.636  1.00  0.00    -0.225 A  
HETATM   24  N   UNL     1     -11.509  10.549  68.134  1.00  0.00    -0.386 NA 
HETATM   25  H2  UNL     1     -12.439  10.985  71.218  1.00  0.00     0.000 HD 
HETATM   26  N   UNL     1     -12.488  11.061  70.202  1.00  0.00    -0.294 NA 
HETATM   27  C   UNL     1      -9.566   9.348  68.622  1.00  0.00    -0.147 A  
HETATM   28  S   UNL     1     -10.182   9.717  70.170  1.00  0.00    -0.281 SA 
HETATM   29  H1  UNL     1     -13.277  11.542  69.769  1.00  0.00     0.000 HD 
HETATM   30  C   UNL     1     -11.510  10.526  69.441  1.00  0.00    -0.262 A  
ENDBRANCH  22  23
BRANCH  22  31
HETATM   31  N   UNL     1     -10.147   8.085  66.262  1.00  0.00    -0.481 NA 
HETATM   32  H   UNL     1     -10.970   7.533  66.505  1.00  0.00     0.000 HD 
BRANCH  31  33
HETATM   33  O   UNL     1      -8.972   7.393  65.970  1.00  0.00    -0.166 OA 
HETATM   34  C   UNL     1      -8.789   6.083  66.457  1.00  0.00    -0.131 C  
ENDBRANCH  31  33
ENDBRANCH  22  31
ENDBRANCH  19  22
ENDBRANCH   8  18
TORSDOF 8
ENDMDL
MODEL       32
REMARK 921   NORMALIZED FREE ENERGY PREDICTED BY IDOCK:   -6.26 KCAL/MOL
REMARK 922        TOTAL FREE ENERGY PREDICTED BY IDOCK:  -10.34 KCAL/MOL
REMARK 923 INTER-LIGAND FREE ENERGY PREDICTED BY IDOCK:   -9.05 KCAL/MOL
REMARK 924 INTRA-LIGAND FREE ENERGY PREDICTED BY IDOCK:   -1.29 KCAL/MOL
REMARK 927      BINDING AFFINITY PREDICTED BY RF-SCORE:    0.00 PKD
ROOT
HETATM    1  C   UNL     1      -9.233  10.411  68.686  1.00  0.00    -0.164 C  
HETATM    2  S   UNL     1      -8.842  10.498  66.959  1.00  0.00    -0.136 SA 
HETATM    3  C   UNL     1      -9.956  11.794  66.337  1.00  0.00    -0.211 C  
HETATM    4  C   UNL     1     -10.863  12.489  67.313  1.00  0.00    -0.277 C  
HETATM    5  C   UNL     1     -10.623  10.258  70.203  1.00  0.00    -0.246 C  
HETATM    6  CA  UNL     1     -11.016  12.161  68.623  1.00  0.00    -0.245 C  
HETATM    7  N   UNL     1     -10.424  11.068  69.144  1.00  0.00    -0.222 N  
HETATM    8  CA  UNL     1      -9.732   9.166  69.533  1.00  0.00    -0.173 C  
HETATM    9  C   UNL     1     -11.877  13.021  69.494  1.00  0.00    -0.323 C  
HETATM   10  O   UNL     1     -11.437  10.269  71.098  1.00  0.00    -0.341 OA 
HETATM   11  O   UNL     1     -12.586  12.434  70.463  1.00  0.00    -0.206 OA 
HETATM   12  OXT UNL     1     -11.886  14.240  69.382  1.00  0.00    -0.286 OA 
ENDROOT
BRANCH   4  13
HETATM   13  C   UNL     1     -11.739  13.535  66.620  1.00  0.00    -0.387 C  
BRANCH  13  14
HETATM   14  O   UNL     1     -12.651  12.936  65.685  1.00  0.00    -0.555 OA 
BRANCH  14  15
HETATM   15  C   UNL     1     -12.512  13.274  64.371  1.00  0.00    -0.290 C  
HETATM   16  C   UNL     1     -12.406  12.053  63.499  1.00  0.00    -0.661 C  
HETATM   17  O   UNL     1     -12.533  14.416  63.930  1.00  0.00    -0.798 OA 
ENDBRANCH  14  15
ENDBRANCH  13  14
ENDBRANCH   4  13
BRANCH   8  18
HETATM   18  N   UNL     1     -10.542   7.927  69.167  1.00  0.00    -0.311 N  
HETATM   19  C   UNL     1     -11.108   6.884  69.898  1.00  0.00    -0.288 C  
HETATM   20  H   UNL     1     -10.707   7.843  68.164  1.00  0.00     0.000 HD 
HETATM   21  O   UNL     1     -11.516   5.878  69.268  1.00  0.00    -0.238 OA 
BRANCH  19  22
HETATM   22  C   UNL     1     -11.384   6.914  71.400  1.00  0.00    -0.270 C  
BRANCH  22  23
HETATM   23  C   UNL     1     -10.305   6.753  72.396  1.00  0.00    -0.195 A  
HETATM   24  N   UNL     1      -9.253   5.838  72.268  1.00  0.00    -0.145 NA 
HETATM   25  H2  UNL     1      -6.361   5.817  73.751  1.00  0.00     0.000 HD 
HETATM   26  N   UNL     1      -7.099   5.492  73.126  1.00  0.00    -0.080 NA 
HETATM   27  C   UNL     1     -10.062   7.763  73.315  1.00  0.00    -0.310 A  
HETATM   28  S   UNL     1      -8.524   7.562  74.028  1.00  0.00    -0.236 SA 
HETATM   29  H1  UNL     1      -6.946   4.662  72.554  1.00  0.00     0.000 HD 
HETATM   30  C   UNL     1      -8.268   6.164  73.064  1.00  0.00    -0.115 A  
ENDBRANCH  22  23
BRANCH  22  31
HETATM   31  N   UNL     1     -12.534   6.797  71.991  1.00  0.00    -0.500 NA 
HETATM   32  H   UNL     1     -12.541   6.416  72.936  1.00  0.00     0.000 HD 
BRANCH  31  33
HETATM   33  O   UNL     1     -13.761   7.153  71.432  1.00  0.00    -0.367 OA 
HETATM   34  C   UNL     1     -14.358   8.383  71.774  1.00  0.00    -0.472 C  
ENDBRANCH  31  33
ENDBRANCH  22  31
ENDBRANCH  19  22
ENDBRANCH   8  18
TORSDOF 8
ENDMDL
MODEL       33
REMARK 921   NORMALIZED FREE ENERGY PREDICTED BY IDOCK:   -6.25 KCAL/MOL
REMARK 922        TOTAL FREE ENERGY PREDICTED BY IDOCK:  -10.33 KCAL/MOL
REMARK 923 INTER-LIGAND FREE ENERGY PREDICTED BY IDOCK:   -9.05 KCAL/MOL
REMARK 924 INTRA-LIGAND FREE ENERGY PREDICTED BY IDOCK:   -1.28 KCAL/MOL
REMARK 927      BINDING AFFINITY PREDICTED BY RF-SCORE:    0.00 PKD
ROOT
HETATM    1  C   UNL     1      -9.401   9.909  65.986  1.00  0.00    -0.188 C  
HETATM    2  S   UNL     1      -9.508  10.193  64.240  1.00  0.00    -0.284 SA 
HETATM    3  C   UNL     1     -10.790  11.475  64.098  1.00  0.00    -0.372 C  
HETATM    4  C   UNL     1     -11.411  12.012  65.356  1.00  0.00    -0.375 C  
HETATM    5  C   UNL     1     -10.311   9.519  67.797  1.00  0.00    -0.239 C  
HETATM    6  CA  UNL     1     -11.184  11.544  66.612  1.00  0.00    -0.271 C  
HETATM    7  N   UNL     1     -10.438  10.442  66.824  1.00  0.00    -0.237 N  
HETATM    8  CA  UNL     1      -9.608   8.556  66.790  1.00  0.00    -0.210 C  
HETATM    9  C   UNL     1     -11.796  12.257  67.777  1.00  0.00    -0.273 C  
HETATM   10  O   UNL     1     -10.844   9.389  68.876  1.00  0.00    -0.204 OA 
HETATM   11  O   UNL     1     -12.190  11.534  68.829  1.00  0.00    -0.457 OA 
HETATM   12  OXT UNL     1     -11.872  13.479  67.812  1.00  0.00    -0.340 OA 
ENDROOT
BRANCH   4  13
HETATM   13  C   UNL     1     -12.477  13.067  65.052  1.00  0.00    -0.477 C  
BRANCH  13  14
HETATM   14  O   UNL     1     -12.100  13.908  63.950  1.00  0.00    -0.481 OA 
BRANCH  14  15
HETATM   15  C   UNL     1     -11.776  15.203  64.232  1.00  0.00    -0.224 C  
HETATM   16  C   UNL     1     -10.538  15.285  65.082  1.00  0.00    -0.453 C  
HETATM   17  O   UNL     1     -12.367  16.186  63.805  1.00  0.00    -0.864 OA 
ENDBRANCH  14  15
ENDBRANCH  13  14
ENDBRANCH   4  13
BRANCH   8  18
HETATM   18  N   UNL     1     -10.450   7.313  66.519  1.00  0.00    -0.503 N  
HETATM   19  C   UNL     1     -10.452   6.013  67.019  1.00  0.00    -0.270 C  
HETATM   20  H   UNL     1     -11.172   7.469  65.817  1.00  0.00     0.000 HD 
HETATM   21  O   UNL     1     -11.129   5.150  66.410  1.00  0.00    -0.104 OA 
BRANCH  19  22
HETATM   22  C   UNL     1      -9.789   5.572  68.323  1.00  0.00    -0.144 C  
BRANCH  22  23
HETATM   23  C   UNL     1     -10.195   6.122  69.632  1.00  0.00    -0.201 A  
HETATM   24  N   UNL     1     -11.525   6.355  70.003  1.00  0.00    -0.430 NA 
HETATM   25  H2  UNL     1     -12.793   6.709  72.975  1.00  0.00     0.000 HD 
HETATM   26  N   UNL     1     -12.787   6.654  71.956  1.00  0.00    -0.531 NA 
HETATM   27  C   UNL     1      -9.315   6.071  70.702  1.00  0.00    -0.160 A  
HETATM   28  S   UNL     1     -10.146   6.327  72.171  1.00  0.00    -0.183 SA 
HETATM   29  H1  UNL     1     -13.663   6.739  71.441  1.00  0.00     0.000 HD 
HETATM   30  C   UNL     1     -11.621   6.470  71.302  1.00  0.00    -0.327 A  
ENDBRANCH  22  23
BRANCH  22  31
HETATM   31  N   UNL     1      -8.669   4.930  68.457  1.00  0.00    -0.097 NA 
HETATM   32  H   UNL     1      -8.516   4.427  69.330  1.00  0.00     0.000 HD 
BRANCH  31  33
HETATM   33  O   UNL     1      -7.658   4.874  67.498  1.00  0.00    -0.084 OA 
HETATM   34  C   UNL     1      -6.869   6.013  67.242  1.00  0.00    -0.063 C  
ENDBRANCH  31  33
ENDBRANCH  22  31
ENDBRANCH  19  22
ENDBRANCH   8  18
TORSDOF 8
ENDMDL
MODEL       34
REMARK 921   NORMALIZED FREE ENERGY PREDICTED BY IDOCK:   -6.20 KCAL/MOL
REMARK 922        TOTAL FREE ENERGY PREDICTED BY IDOCK:  -10.25 KCAL/MOL
REMARK 923 INTER-LIGAND FREE ENERGY PREDICTED BY IDOCK:   -9.14 KCAL/MOL
REMARK 924 INTRA-LIGAND FREE ENERGY PREDICTED BY IDOCK:   -1.11 KCAL/MOL
REMARK 927      BINDING AFFINITY PREDICTED BY RF-SCORE:    0.00 PKD
ROOT
HETATM    1  C   UNL     1     -11.545  11.975  63.849  1.00  0.00    -0.449 C  
HETATM    2  S   UNL     1      -9.979  11.569  63.125  1.00  0.00    -0.333 SA 
HETATM    3  C   UNL     1      -8.963  11.087  64.554  1.00  0.00    -0.055 C  
HETATM    4  C   UNL     1      -9.596  11.090  65.917  1.00  0.00    -0.255 C  
HETATM    5  C   UNL     1     -12.657  12.984  65.264  1.00  0.00    -0.457 C  
HETATM    6  CA  UNL     1     -10.847  11.533  66.208  1.00  0.00    -0.282 C  
HETATM    7  N   UNL     1     -11.611  12.135  65.274  1.00  0.00    -0.342 N  
HETATM    8  CA  UNL     1     -12.354  13.338  63.775  1.00  0.00    -0.367 C  
HETATM    9  C   UNL     1     -11.375  11.367  67.598  1.00  0.00    -0.290 C  
HETATM   10  O   UNL     1     -13.305  13.493  66.150  1.00  0.00     0.137 OA 
HETATM   11  O   UNL     1     -12.181  12.313  68.089  1.00  0.00    -0.349 OA 
HETATM   12  OXT UNL     1     -11.144  10.360  68.255  1.00  0.00    -0.262 OA 
ENDROOT
BRANCH   4  13
HETATM   13  C   UNL     1      -8.599  10.675  67.001  1.00  0.00    -0.128 C  
BRANCH  13  14
HETATM   14  O   UNL     1      -8.158   9.318  66.834  1.00  0.00    -0.107 OA 
BRANCH  14  15
HETATM   15  C   UNL     1      -8.106   8.535  67.950  1.00  0.00    -0.115 C  
HETATM   16  C   UNL     1      -7.644   7.142  67.620  1.00  0.00    -0.110 C  
HETATM   17  O   UNL     1      -8.341   8.913  69.090  1.00  0.00    -0.119 OA 
ENDBRANCH  14  15
ENDBRANCH  13  14
ENDBRANCH   4  13
BRANCH   8  18
HETATM   18  N   UNL     1     -11.916  14.791  63.621  1.00  0.00    -0.718 N  
HETATM   19  C   UNL     1     -11.303  15.716  64.463  1.00  0.00    -0.320 C  
HETATM   20  H   UNL     1     -12.116  15.169  62.695  1.00  0.00     0.000 HD 
HETATM   21  O   UNL     1     -11.292  16.919  64.107  1.00  0.00    -1.208 OA 
BRANCH  19  22
HETATM   22  C   UNL     1     -10.533  15.369  65.736  1.00  0.00    -0.355 C  
BRANCH  22  23
HETATM   23  C   UNL     1     -10.750  16.096  67.004  1.00  0.00    -0.254 A  
HETATM   24  N   UNL     1     -11.158  15.484  68.195  1.00  0.00    -0.311 NA 
HETATM   25  H2  UNL     1     -10.898  16.566  71.249  1.00  0.00     0.000 HD 
HETATM   26  N   UNL     1     -11.146  15.921  70.499  1.00  0.00    -0.354 NA 
HETATM   27  C   UNL     1     -10.187  17.350  67.181  1.00  0.00    -0.323 A  
HETATM   28  S   UNL     1     -10.180  17.772  68.835  1.00  0.00    -0.264 SA 
HETATM   29  H1  UNL     1     -11.576  15.024  70.725  1.00  0.00     0.000 HD 
HETATM   30  C   UNL     1     -10.903  16.262  69.216  1.00  0.00    -0.318 A  
ENDBRANCH  22  23
BRANCH  22  31
HETATM   31  N   UNL     1      -9.456  14.651  65.833  1.00  0.00    -0.491 NA 
HETATM   32  H   UNL     1      -9.463  13.731  65.393  1.00  0.00     0.000 HD 
BRANCH  31  33
HETATM   33  O   UNL     1      -8.290  15.040  66.490  1.00  0.00    -0.172 OA 
HETATM   34  C   UNL     1      -7.694  14.178  67.432  1.00  0.00    -0.169 C  
ENDBRANCH  31  33
ENDBRANCH  22  31
ENDBRANCH  19  22
ENDBRANCH   8  18
TORSDOF 8
ENDMDL
MODEL       35
REMARK 921   NORMALIZED FREE ENERGY PREDICTED BY IDOCK:   -6.18 KCAL/MOL
REMARK 922        TOTAL FREE ENERGY PREDICTED BY IDOCK:  -10.23 KCAL/MOL
REMARK 923 INTER-LIGAND FREE ENERGY PREDICTED BY IDOCK:   -8.67 KCAL/MOL
REMARK 924 INTRA-LIGAND FREE ENERGY PREDICTED BY IDOCK:   -1.56 KCAL/MOL
REMARK 927      BINDING AFFINITY PREDICTED BY RF-SCORE:    0.00 PKD
ROOT
HETATM    1  C   UNL     1     -11.359  10.694  70.610  1.00  0.00    -0.198 C  
HETATM    2  S   UNL     1     -12.857   9.950  71.196  1.00  0.00    -0.364 SA 
HETATM    3  C   UNL     1     -12.414   8.196  71.384  1.00  0.00    -0.292 C  
HETATM    4  C   UNL     1     -11.005   7.776  71.076  1.00  0.00    -0.260 C  
HETATM    5  C   UNL     1      -9.767  10.724  69.297  1.00  0.00    -0.120 C  
HETATM    6  CA  UNL     1     -10.037   8.574  70.553  1.00  0.00    -0.192 C  
HETATM    7  N   UNL     1     -10.310   9.831  70.148  1.00  0.00    -0.265 N  
HETATM    8  CA  UNL     1     -11.111  11.517  69.277  1.00  0.00    -0.246 C  
HETATM    9  C   UNL     1      -8.648   8.036  70.406  1.00  0.00    -0.131 C  
HETATM   10  O   UNL     1      -8.782  10.691  68.596  1.00  0.00    -0.133 OA 
HETATM   11  O   UNL     1      -7.921   8.434  69.358  1.00  0.00    -0.107 OA 
HETATM   12  OXT UNL     1      -8.151   7.306  71.254  1.00  0.00    -0.100 OA 
ENDROOT
BRANCH   4  13
HETATM   13  C   UNL     1     -10.811   6.270  71.271  1.00  0.00    -0.265 C  
BRANCH  13  14
HETATM   14  O   UNL     1     -11.150   5.529  70.088  1.00  0.00    -0.248 OA 
BRANCH  14  15
HETATM   15  C   UNL     1     -10.127   4.945  69.400  1.00  0.00    -0.200 C  
HETATM   16  C   UNL     1      -9.538   3.792  70.167  1.00  0.00    -0.258 C  
HETATM   17  O   UNL     1      -9.761   5.262  68.276  1.00  0.00    -0.127 OA 
ENDBRANCH  14  15
ENDBRANCH  13  14
ENDBRANCH   4  13
BRANCH   8  18
HETATM   18  N   UNL     1     -11.768  11.475  67.901  1.00  0.00    -0.281 N  
HETATM   19  C   UNL     1     -11.511  12.100  66.682  1.00  0.00    -0.365 C  
HETATM   20  H   UNL     1     -12.573  10.851  67.865  1.00  0.00     0.000 HD 
HETATM   21  O   UNL     1     -12.392  12.034  65.791  1.00  0.00    -0.469 OA 
BRANCH  19  22
HETATM   22  C   UNL     1     -10.190  12.762  66.295  1.00  0.00    -0.253 C  
BRANCH  22  23
HETATM   23  C   UNL     1     -10.098  14.203  65.987  1.00  0.00    -0.316 A  
HETATM   24  N   UNL     1     -10.722  14.809  64.890  1.00  0.00    -0.421 NA 
HETATM   25  H2  UNL     1     -11.437  17.944  64.411  1.00  0.00     0.000 HD 
HETATM   26  N   UNL     1     -11.390  16.948  64.197  1.00  0.00    -1.277 NA 
HETATM   27  C   UNL     1      -9.716  15.095  66.979  1.00  0.00    -0.231 A  
HETATM   28  S   UNL     1     -10.124  16.691  66.534  1.00  0.00    -0.317 SA 
HETATM   29  H1  UNL     1     -11.791  16.598  63.326  1.00  0.00     0.000 HD 
HETATM   30  C   UNL     1     -10.798  16.103  65.068  1.00  0.00    -0.363 A  
ENDBRANCH  22  23
BRANCH  22  31
HETATM   31  N   UNL     1      -9.096  12.172  65.919  1.00  0.00    -0.429 NA 
HETATM   32  H   UNL     1      -8.220  12.674  66.059  1.00  0.00     0.000 HD 
BRANCH  31  33
HETATM   33  O   UNL     1      -9.027  10.906  65.339  1.00  0.00    -0.193 OA 
HETATM   34  C   UNL     1      -9.379  10.734  63.985  1.00  0.00    -0.252 C  
ENDBRANCH  31  33
ENDBRANCH  22  31
ENDBRANCH  19  22
ENDBRANCH   8  18
TORSDOF 8
ENDMDL
MODEL       36
REMARK 921   NORMALIZED FREE ENERGY PREDICTED BY IDOCK:   -6.13 KCAL/MOL
REMARK 922        TOTAL FREE ENERGY PREDICTED BY IDOCK:  -10.16 KCAL/MOL
REMARK 923 INTER-LIGAND FREE ENERGY PREDICTED BY IDOCK:   -9.11 KCAL/MOL
REMARK 924 INTRA-LIGAND FREE ENERGY PREDICTED BY IDOCK:   -1.04 KCAL/MOL
REMARK 927      BINDING AFFINITY PREDICTED BY RF-SCORE:    0.00 PKD
ROOT
HETATM    1  C   UNL     1     -10.686  14.780  69.472  1.00  0.00    -0.215 C  
HETATM    2  S   UNL     1     -12.149  14.131  68.710  1.00  0.00    -0.218 SA 
HETATM    3  C   UNL     1     -11.511  13.238  67.260  1.00  0.00    -0.338 C  
HETATM    4  C   UNL     1     -10.025  13.198  67.039  1.00  0.00    -0.244 C  
HETATM    5  C   UNL     1      -8.904  15.813  69.339  1.00  0.00    -0.237 C  
HETATM    6  CA  UNL     1      -9.098  13.871  67.769  1.00  0.00    -0.191 C  
HETATM    7  N   UNL     1      -9.463  14.754  68.721  1.00  0.00    -0.205 N  
HETATM    8  CA  UNL     1     -10.318  16.289  69.797  1.00  0.00    -0.219 C  
HETATM    9  C   UNL     1      -7.645  13.641  67.494  1.00  0.00    -0.170 C  
HETATM   10  O   UNL     1      -7.814  16.330  69.250  1.00  0.00    -0.238 OA 
HETATM   11  O   UNL     1      -6.803  14.670  67.626  1.00  0.00    -0.165 OA 
HETATM   12  OXT UNL     1      -7.212  12.528  67.225  1.00  0.00    -0.147 OA 
ENDROOT
BRANCH   4  13
HETATM   13  C   UNL     1      -9.666  12.422  65.769  1.00  0.00    -0.200 C  
BRANCH  13  14
HETATM   14  O   UNL     1     -10.816  11.794  65.181  1.00  0.00    -0.286 OA 
BRANCH  14  15
HETATM   15  C   UNL     1     -10.965  11.899  63.829  1.00  0.00    -0.425 C  
HETATM   16  C   UNL     1     -12.402  12.134  63.453  1.00  0.00    -0.648 C  
HETATM   17  O   UNL     1     -10.052  11.871  63.015  1.00  0.00    -0.379 OA 
ENDBRANCH  14  15
ENDBRANCH  13  14
ENDBRANCH   4  13
BRANCH   8  18
HETATM   18  N   UNL     1     -10.706  17.610  69.141  1.00  0.00    -0.321 N  
HETATM   19  C   UNL     1     -10.335  18.257  67.964  1.00  0.00    -0.391 C  
HETATM   20  H   UNL     1     -11.388  18.138  69.685  1.00  0.00     0.000 HD 
HETATM   21  O   UNL     1     -10.662  19.461  67.827  1.00  0.00    -0.428 OA 
BRANCH  19  22
HETATM   22  C   UNL     1      -9.662  17.586  66.768  1.00  0.00    -0.295 C  
BRANCH  22  23
HETATM   23  C   UNL     1      -8.469  18.163  66.117  1.00  0.00    -0.111 A  
HETATM   24  N   UNL     1      -8.297  19.530  65.870  1.00  0.00    -0.435 NA 
HETATM   25  H2  UNL     1      -5.559  21.181  65.288  1.00  0.00     0.000 HD 
HETATM   26  N   UNL     1      -6.560  21.041  65.427  1.00  0.00    -0.494 NA 
HETATM   27  C   UNL     1      -7.291  17.432  66.069  1.00  0.00    -0.229 A  
HETATM   28  S   UNL     1      -5.972  18.451  65.703  1.00  0.00    -0.244 SA 
HETATM   29  H1  UNL     1      -7.192  21.841  65.395  1.00  0.00     0.000 HD 
HETATM   30  C   UNL     1      -7.036  19.798  65.650  1.00  0.00    -0.309 A  
ENDBRANCH  22  23
BRANCH  22  31
HETATM   31  N   UNL     1     -10.153  16.651  66.013  1.00  0.00    -0.368 NA 
HETATM   32  H   UNL     1     -10.054  15.688  66.333  1.00  0.00     0.000 HD 
BRANCH  31  33
HETATM   33  O   UNL     1     -10.805  16.861  64.799  1.00  0.00    -0.787 OA 
HETATM   34  C   UNL     1     -11.653  15.864  64.275  1.00  0.00    -0.178 C  
ENDBRANCH  31  33
ENDBRANCH  22  31
ENDBRANCH  19  22
ENDBRANCH   8  18
TORSDOF 8
ENDMDL
MODEL       37
REMARK 921   NORMALIZED FREE ENERGY PREDICTED BY IDOCK:   -6.08 KCAL/MOL
REMARK 922        TOTAL FREE ENERGY PREDICTED BY IDOCK:  -10.07 KCAL/MOL
REMARK 923 INTER-LIGAND FREE ENERGY PREDICTED BY IDOCK:   -9.06 KCAL/MOL
REMARK 924 INTRA-LIGAND FREE ENERGY PREDICTED BY IDOCK:   -1.02 KCAL/MOL
REMARK 927      BINDING AFFINITY PREDICTED BY RF-SCORE:    0.00 PKD
ROOT
HETATM    1  C   UNL     1     -11.378  12.855  67.206  1.00  0.00    -0.310 C  
HETATM    2  S   UNL     1     -10.274  13.817  68.205  1.00  0.00    -0.248 SA 
HETATM    3  C   UNL     1     -10.025  15.329  67.227  1.00  0.00    -0.226 C  
HETATM    4  C   UNL     1     -10.757  15.468  65.922  1.00  0.00    -0.346 C  
HETATM    5  C   UNL     1     -11.887  12.029  65.384  1.00  0.00    -0.192 C  
HETATM    6  CA  UNL     1     -11.516  14.506  65.334  1.00  0.00    -0.348 C  
HETATM    7  N   UNL     1     -11.584  13.260  65.844  1.00  0.00    -0.333 N  
HETATM    8  CA  UNL     1     -11.174  11.395  66.619  1.00  0.00    -0.231 C  
HETATM    9  C   UNL     1     -12.273  14.835  64.085  1.00  0.00    -0.295 C  
HETATM   10  O   UNL     1     -12.241  11.627  64.300  1.00  0.00    -0.165 OA 
HETATM   11  O   UNL     1     -12.417  13.882  63.161  1.00  0.00    -0.766 OA 
HETATM   12  OXT UNL     1     -12.814  15.923  63.933  1.00  0.00    -0.516 OA 
ENDROOT
BRANCH   4  13
HETATM   13  C   UNL     1     -10.420  16.788  65.225  1.00  0.00    -0.131 C  
BRANCH  13  14
HETATM   14  O   UNL     1      -9.790  17.720  66.118  1.00  0.00    -0.428 OA 
BRANCH  14  15
HETATM   15  C   UNL     1     -10.350  18.960  66.227  1.00  0.00    -0.453 C  
HETATM   16  C   UNL     1     -10.341  19.441  67.653  1.00  0.00    -0.550 C  
HETATM   17  O   UNL     1     -10.755  19.636  65.291  1.00  0.00    -0.390 OA 
ENDBRANCH  14  15
ENDBRANCH  13  14
ENDBRANCH   4  13
BRANCH   8  18
HETATM   18  N   UNL     1      -9.931  10.611  66.210  1.00  0.00    -0.214 N  
HETATM   19  C   UNL     1      -9.142   9.646  66.831  1.00  0.00    -0.138 C  
HETATM   20  H   UNL     1      -9.606  10.845  65.272  1.00  0.00     0.000 HD 
HETATM   21  O   UNL     1      -8.035   9.367  66.311  1.00  0.00    -0.109 OA 
BRANCH  19  22
HETATM   22  C   UNL     1      -9.566   8.807  68.036  1.00  0.00    -0.142 C  
BRANCH  22  23
HETATM   23  C   UNL     1     -10.057   7.422  67.892  1.00  0.00    -0.178 A  
HETATM   24  N   UNL     1     -10.705   6.938  66.749  1.00  0.00    -0.280 NA 
HETATM   25  H2  UNL     1     -11.116   3.866  65.771  1.00  0.00     0.000 HD 
HETATM   26  N   UNL     1     -11.191   4.882  65.731  1.00  0.00    -0.893 NA 
HETATM   27  C   UNL     1      -9.557   6.426  68.717  1.00  0.00    -0.125 A  
HETATM   28  S   UNL     1      -9.909   4.885  68.073  1.00  0.00    -0.115 SA 
HETATM   29  H1  UNL     1     -11.650   5.324  64.935  1.00  0.00     0.000 HD 
HETATM   30  C   UNL     1     -10.682   5.630  66.733  1.00  0.00    -0.284 A  
ENDBRANCH  22  23
BRANCH  22  31
HETATM   31  N   UNL     1      -9.824   9.231  69.236  1.00  0.00    -0.167 NA 
HETATM   32  H   UNL     1      -9.039   9.330  69.879  1.00  0.00     0.000 HD 
BRANCH  31  33
HETATM   33  O   UNL     1     -11.092   9.561  69.714  1.00  0.00    -0.234 OA 
HETATM   34  C   UNL     1     -11.646   8.840  70.791  1.00  0.00    -0.251 C  
ENDBRANCH  31  33
ENDBRANCH  22  31
ENDBRANCH  19  22
ENDBRANCH   8  18
TORSDOF 8
ENDMDL
MODEL       38
REMARK 921   NORMALIZED FREE ENERGY PREDICTED BY IDOCK:   -6.07 KCAL/MOL
REMARK 922        TOTAL FREE ENERGY PREDICTED BY IDOCK:  -10.06 KCAL/MOL
REMARK 923 INTER-LIGAND FREE ENERGY PREDICTED BY IDOCK:   -7.67 KCAL/MOL
REMARK 924 INTRA-LIGAND FREE ENERGY PREDICTED BY IDOCK:   -2.39 KCAL/MOL
REMARK 927      BINDING AFFINITY PREDICTED BY RF-SCORE:    0.00 PKD
ROOT
HETATM    1  C   UNL     1      -8.266  11.457  68.997  1.00  0.00     0.020 C  
HETATM    2  S   UNL     1      -6.818  11.951  68.102  1.00  0.00    -0.078 SA 
HETATM    3  C   UNL     1      -7.323  13.506  67.305  1.00  0.00    -0.012 C  
HETATM    4  C   UNL     1      -8.707  14.030  67.566  1.00  0.00    -0.201 C  
HETATM    5  C   UNL     1     -10.296  11.092  69.060  1.00  0.00    -0.209 C  
HETATM    6  CA  UNL     1      -9.678  13.385  68.266  1.00  0.00    -0.226 C  
HETATM    7  N   UNL     1      -9.504  12.122  68.703  1.00  0.00    -0.108 N  
HETATM    8  CA  UNL     1      -9.096  10.109  68.882  1.00  0.00    -0.165 C  
HETATM    9  C   UNL     1     -10.973  14.087  68.534  1.00  0.00    -0.256 C  
HETATM   10  O   UNL     1     -11.498  10.971  69.131  1.00  0.00    -0.248 OA 
HETATM   11  O   UNL     1     -12.095  13.364  68.552  1.00  0.00    -0.352 OA 
HETATM   12  OXT UNL     1     -11.009  15.281  68.804  1.00  0.00    -0.239 OA 
ENDROOT
BRANCH   4  13
HETATM   13  C   UNL     1      -8.969  15.332  66.808  1.00  0.00    -0.262 C  
BRANCH  13  14
HETATM   14  O   UNL     1      -9.758  15.116  65.627  1.00  0.00    -0.336 OA 
BRANCH  14  15
HETATM   15  C   UNL     1     -10.562  16.139  65.215  1.00  0.00    -0.369 C  
HETATM   16  C   UNL     1     -10.378  17.360  66.074  1.00  0.00    -0.309 C  
HETATM   17  O   UNL     1     -11.298  16.108  64.238  1.00  0.00    -0.628 OA 
ENDBRANCH  14  15
ENDBRANCH  13  14
ENDBRANCH   4  13
BRANCH   8  18
HETATM   18  N   UNL     1      -9.332   9.137  67.731  1.00  0.00    -0.136 N  
HETATM   19  C   UNL     1      -9.678   9.284  66.389  1.00  0.00    -0.258 C  
HETATM   20  H   UNL     1      -9.209   8.162  68.004  1.00  0.00     0.000 HD 
HETATM   21  O   UNL     1     -10.032   8.260  65.757  1.00  0.00     0.128 OA 
BRANCH  19  22
HETATM   22  C   UNL     1      -9.549  10.578  65.586  1.00  0.00    -0.226 C  
BRANCH  22  23
HETATM   23  C   UNL     1     -10.728  11.279  65.039  1.00  0.00    -0.256 A  
HETATM   24  N   UNL     1     -11.591  12.073  65.805  1.00  0.00    -0.367 NA 
HETATM   25  H2  UNL     1     -13.672  14.370  64.829  1.00  0.00     0.000 HD 
HETATM   26  N   UNL     1     -13.177  13.770  65.488  1.00  0.00    -0.592 NA 
HETATM   27  C   UNL     1     -10.820  11.506  63.674  1.00  0.00    -0.415 A  
HETATM   28  S   UNL     1     -11.994  12.702  63.347  1.00  0.00    -0.466 SA 
HETATM   29  H1  UNL     1     -13.355  13.864  66.488  1.00  0.00     0.000 HD 
HETATM   30  C   UNL     1     -12.293  12.859  65.031  1.00  0.00    -0.485 A  
ENDBRANCH  22  23
BRANCH  22  31
HETATM   31  N   UNL     1      -8.473  11.065  65.050  1.00  0.00    -0.379 NA 
HETATM   32  H   UNL     1      -8.528  12.004  64.654  1.00  0.00     0.000 HD 
BRANCH  31  33
HETATM   33  O   UNL     1      -7.246  10.406  64.972  1.00  0.00    -0.129 OA 
HETATM   34  C   UNL     1      -6.690  10.103  63.714  1.00  0.00    -0.113 C  
ENDBRANCH  31  33
ENDBRANCH  22  31
ENDBRANCH  19  22
ENDBRANCH   8  18
TORSDOF 8
ENDMDL
MODEL       39
REMARK 921   NORMALIZED FREE ENERGY PREDICTED BY IDOCK:   -6.07 KCAL/MOL
REMARK 922        TOTAL FREE ENERGY PREDICTED BY IDOCK:  -10.06 KCAL/MOL
REMARK 923 INTER-LIGAND FREE ENERGY PREDICTED BY IDOCK:   -9.07 KCAL/MOL
REMARK 924 INTRA-LIGAND FREE ENERGY PREDICTED BY IDOCK:   -0.99 KCAL/MOL
REMARK 927      BINDING AFFINITY PREDICTED BY RF-SCORE:    0.00 PKD
ROOT
HETATM    1  C   UNL     1     -11.056  13.932  67.287  1.00  0.00    -0.299 C  
HETATM    2  S   UNL     1      -9.535  13.929  68.197  1.00  0.00    -0.210 SA 
HETATM    3  C   UNL     1      -8.623  15.341  67.504  1.00  0.00    -0.177 C  
HETATM    4  C   UNL     1      -9.284  16.168  66.438  1.00  0.00    -0.334 C  
HETATM    5  C   UNL     1     -12.068  13.992  65.490  1.00  0.00    -0.410 C  
HETATM    6  CA  UNL     1     -10.477  15.892  65.849  1.00  0.00    -0.359 C  
HETATM    7  N   UNL     1     -11.136  14.745  66.107  1.00  0.00    -0.336 N  
HETATM    8  CA  UNL     1     -11.685  12.780  66.396  1.00  0.00    -0.403 C  
HETATM    9  C   UNL     1     -11.056  16.874  64.879  1.00  0.00     0.036 C  
HETATM   10  O   UNL     1     -12.669  14.126  64.449  1.00  0.00    -0.667 OA 
HETATM   11  O   UNL     1     -11.749  16.405  63.838  1.00  0.00    -1.085 OA 
HETATM   12  OXT UNL     1     -10.969  18.082  65.061  1.00  0.00    -0.748 OA 
ENDROOT
BRANCH   4  13
HETATM   13  C   UNL     1      -8.374  17.301  65.959  1.00  0.00    -0.119 C  
BRANCH  13  14
HETATM   14  O   UNL     1      -7.837  18.058  67.055  1.00  0.00    -0.208 OA 
BRANCH  14  15
HETATM   15  C   UNL     1      -7.596  19.384  66.843  1.00  0.00    -0.243 C  
HETATM   16  C   UNL     1      -7.455  20.130  68.141  1.00  0.00    -0.264 C  
HETATM   17  O   UNL     1      -7.447  19.907  65.746  1.00  0.00    -0.323 OA 
ENDBRANCH  14  15
ENDBRANCH  13  14
ENDBRANCH   4  13
BRANCH   8  18
HETATM   18  N   UNL     1     -11.066  11.646  65.586  1.00  0.00    -0.282 N  
HETATM   19  C   UNL     1     -10.246  10.563  65.898  1.00  0.00    -0.245 C  
HETATM   20  H   UNL     1     -11.305  11.690  64.596  1.00  0.00     0.000 HD 
HETATM   21  O   UNL     1      -9.710   9.939  64.950  1.00  0.00    -0.302 OA 
BRANCH  19  22
HETATM   22  C   UNL     1     -10.038   9.995  67.301  1.00  0.00    -0.209 C  
BRANCH  22  23
HETATM   23  C   UNL     1      -8.734  10.072  67.990  1.00  0.00    -0.125 A  
HETATM   24  N   UNL     1      -8.590  10.233  69.374  1.00  0.00    -0.166 NA 
HETATM   25  H2  UNL     1      -6.020   9.591  71.256  1.00  0.00     0.000 HD 
HETATM   26  N   UNL     1      -6.966   9.896  71.031  1.00  0.00    -0.333 NA 
HETATM   27  C   UNL     1      -7.594   9.600  67.358  1.00  0.00    -0.095 A  
HETATM   28  S   UNL     1      -6.337   9.370  68.491  1.00  0.00    -0.052 SA 
HETATM   29  H1  UNL     1      -7.589  10.205  71.778  1.00  0.00     0.000 HD 
HETATM   30  C   UNL     1      -7.385   9.890  69.748  1.00  0.00    -0.129 A  
ENDBRANCH  22  23
BRANCH  22  31
HETATM   31  N   UNL     1     -10.811   9.168  67.936  1.00  0.00    -0.477 NA 
HETATM   32  H   UNL     1     -11.742   9.497  68.193  1.00  0.00     0.000 HD 
BRANCH  31  33
HETATM   33  O   UNL     1     -10.468   7.865  68.294  1.00  0.00    -0.202 OA 
HETATM   34  C   UNL     1     -10.589   6.823  67.353  1.00  0.00    -0.302 C  
ENDBRANCH  31  33
ENDBRANCH  22  31
ENDBRANCH  19  22
ENDBRANCH   8  18
TORSDOF 8
ENDMDL
MODEL       40
REMARK 921   NORMALIZED FREE ENERGY PREDICTED BY IDOCK:   -6.06 KCAL/MOL
REMARK 922        TOTAL FREE ENERGY PREDICTED BY IDOCK:  -10.04 KCAL/MOL
REMARK 923 INTER-LIGAND FREE ENERGY PREDICTED BY IDOCK:   -8.96 KCAL/MOL
REMARK 924 INTRA-LIGAND FREE ENERGY PREDICTED BY IDOCK:   -1.09 KCAL/MOL
REMARK 927      BINDING AFFINITY PREDICTED BY RF-SCORE:    0.00 PKD
ROOT
HETATM    1  C   UNL     1     -12.316  12.547  65.267  1.00  0.00    -0.403 C  
HETATM    2  S   UNL     1     -12.041  12.795  63.533  1.00  0.00    -0.532 SA 
HETATM    3  C   UNL     1     -10.682  11.650  63.151  1.00  0.00    -0.240 C  
HETATM    4  C   UNL     1     -10.144  10.782  64.254  1.00  0.00    -0.427 C  
HETATM    5  C   UNL     1     -11.592  12.408  67.194  1.00  0.00    -0.365 C  
HETATM    6  CA  UNL     1     -10.505  10.850  65.562  1.00  0.00    -0.219 C  
HETATM    7  N   UNL     1     -11.328  11.819  66.011  1.00  0.00    -0.313 N  
HETATM    8  CA  UNL     1     -12.257  13.606  66.446  1.00  0.00    -0.423 C  
HETATM    9  C   UNL     1      -9.958   9.842  66.523  1.00  0.00    -0.239 C  
HETATM   10  O   UNL     1     -11.163  12.228  68.311  1.00  0.00    -0.228 OA 
HETATM   11  O   UNL     1      -9.699  10.232  67.774  1.00  0.00    -0.153 OA 
HETATM   12  OXT UNL     1      -9.816   8.667  66.207  1.00  0.00    -0.267 OA 
ENDROOT
BRANCH   4  13
HETATM   13  C   UNL     1      -8.998   9.895  63.763  1.00  0.00    -0.250 C  
BRANCH  13  14
HETATM   14  O   UNL     1      -7.723  10.546  63.890  1.00  0.00    -0.078 OA 
BRANCH  14  15
HETATM   15  C   UNL     1      -6.695   9.814  64.408  1.00  0.00    -0.119 C  
HETATM   16  C   UNL     1      -5.699   9.440  63.344  1.00  0.00    -0.087 C  
HETATM   17  O   UNL     1      -6.550   9.540  65.592  1.00  0.00    -0.068 OA 
ENDBRANCH  14  15
ENDBRANCH  13  14
ENDBRANCH   4  13
BRANCH   8  18
HETATM   18  N   UNL     1     -11.466  14.896  66.636  1.00  0.00    -0.332 N  
HETATM   19  C   UNL     1     -10.961  15.573  67.745  1.00  0.00    -0.317 C  
HETATM   20  H   UNL     1     -11.261  15.369  65.756  1.00  0.00     0.000 HD 
HETATM   21  O   UNL     1     -10.555  16.748  67.582  1.00  0.00    -0.324 OA 
BRANCH  19  22
HETATM   22  C   UNL     1     -10.750  14.958  69.127  1.00  0.00    -0.252 C  
BRANCH  22  23
HETATM   23  C   UNL     1     -11.730  15.131  70.218  1.00  0.00    -0.300 A  
HETATM   24  N   UNL     1     -12.651  14.150  70.605  1.00  0.00    -0.342 NA 
HETATM   25  H2  UNL     1     -14.285  13.857  73.399  1.00  0.00     0.000 HD 
HETATM   26  N   UNL     1     -13.985  13.610  72.456  1.00  0.00    -0.753 NA 
HETATM   27  C   UNL     1     -11.532  16.120  71.170  1.00  0.00    -0.382 A  
HETATM   28  S   UNL     1     -12.506  15.831  72.542  1.00  0.00    -0.494 SA 
HETATM   29  H1  UNL     1     -14.347  12.764  72.016  1.00  0.00     0.000 HD 
HETATM   30  C   UNL     1     -13.114  14.406  71.801  1.00  0.00    -0.354 A  
ENDBRANCH  22  23
BRANCH  22  31
HETATM   31  N   UNL     1      -9.645  14.481  69.615  1.00  0.00    -0.337 NA 
HETATM   32  H   UNL     1      -9.695  14.004  70.514  1.00  0.00     0.000 HD 
BRANCH  31  33
HETATM   33  O   UNL     1      -8.395  14.572  69.004  1.00  0.00    -0.140 OA 
HETATM   34  C   UNL     1      -7.524  15.627  69.340  1.00  0.00    -0.221 C  
ENDBRANCH  31  33
ENDBRANCH  22  31
ENDBRANCH  19  22
ENDBRANCH   8  18
TORSDOF 8
ENDMDL
MODEL       41
REMARK 921   NORMALIZED FREE ENERGY PREDICTED BY IDOCK:   -6.05 KCAL/MOL
REMARK 922        TOTAL FREE ENERGY PREDICTED BY IDOCK:  -10.03 KCAL/MOL
REMARK 923 INTER-LIGAND FREE ENERGY PREDICTED BY IDOCK:   -8.77 KCAL/MOL
REMARK 924 INTRA-LIGAND FREE ENERGY PREDICTED BY IDOCK:   -1.26 KCAL/MOL
REMARK 927      BINDING AFFINITY PREDICTED BY RF-SCORE:    0.00 PKD
ROOT
HETATM    1  C   UNL     1     -12.126  12.140  69.421  1.00  0.00    -0.190 C  
HETATM    2  S   UNL     1     -11.954  13.621  70.379  1.00  0.00    -0.261 SA 
HETATM    3  C   UNL     1     -11.208  14.798  69.211  1.00  0.00    -0.283 C  
HETATM    4  C   UNL     1     -10.949  14.343  67.802  1.00  0.00    -0.283 C  
HETATM    5  C   UNL     1     -11.322  10.721  68.156  1.00  0.00    -0.308 C  
HETATM    6  CA  UNL     1     -11.117  13.078  67.335  1.00  0.00    -0.272 C  
HETATM    7  N   UNL     1     -11.437  12.063  68.164  1.00  0.00    -0.297 N  
HETATM    8  CA  UNL     1     -11.530  10.696  69.703  1.00  0.00    -0.291 C  
HETATM    9  C   UNL     1     -10.921  12.806  65.877  1.00  0.00    -0.274 C  
HETATM   10  O   UNL     1     -10.888   9.942  67.338  1.00  0.00    -0.280 OA 
HETATM   11  O   UNL     1     -10.401  11.630  65.514  1.00  0.00    -0.244 OA 
HETATM   12  OXT UNL     1     -11.290  13.601  65.022  1.00  0.00    -0.313 OA 
ENDROOT
BRANCH   4  13
HETATM   13  C   UNL     1     -10.307  15.450  66.963  1.00  0.00    -0.280 C  
BRANCH  13  14
HETATM   14  O   UNL     1     -11.195  16.562  66.771  1.00  0.00     0.084 OA 
BRANCH  14  15
HETATM   15  C   UNL     1     -11.006  17.331  65.660  1.00  0.00     0.108 C  
HETATM   16  C   UNL     1     -10.511  18.704  66.022  1.00  0.00    -0.456 C  
HETATM   17  O   UNL     1     -11.153  16.951  64.506  1.00  0.00    -1.054 OA 
ENDBRANCH  14  15
ENDBRANCH  13  14
ENDBRANCH   4  13
BRANCH   8  18
HETATM   18  N   UNL     1     -10.277  10.221  70.431  1.00  0.00    -0.399 N  
HETATM   19  C   UNL     1      -9.988   9.146  71.268  1.00  0.00    -0.303 C  
HETATM   20  H   UNL     1      -9.471  10.825  70.268  1.00  0.00     0.000 HD 
HETATM   21  O   UNL     1      -8.905   9.169  71.902  1.00  0.00    -0.340 OA 
BRANCH  19  22
HETATM   22  C   UNL     1     -10.829   7.877  71.390  1.00  0.00    -0.226 C  
BRANCH  22  23
HETATM   23  C   UNL     1     -10.746   6.785  70.399  1.00  0.00    -0.241 A  
HETATM   24  N   UNL     1     -11.226   6.881  69.087  1.00  0.00    -0.156 NA 
HETATM   25  H2  UNL     1     -10.463   5.087  66.487  1.00  0.00     0.000 HD 
HETATM   26  N   UNL     1     -10.933   5.820  67.017  1.00  0.00    -0.498 NA 
HETATM   27  C   UNL     1      -9.842   5.750  70.591  1.00  0.00    -0.187 A  
HETATM   28  S   UNL     1      -9.604   4.890  69.136  1.00  0.00    -0.177 SA 
HETATM   29  H1  UNL     1     -11.581   6.450  66.542  1.00  0.00     0.000 HD 
HETATM   30  C   UNL     1     -10.694   5.950  68.339  1.00  0.00    -0.250 A  
ENDBRANCH  22  23
BRANCH  22  31
HETATM   31  N   UNL     1     -11.871   7.694  72.142  1.00  0.00    -0.299 NA 
HETATM   32  H   UNL     1     -12.184   6.735  72.288  1.00  0.00     0.000 HD 
BRANCH  31  33
HETATM   33  O   UNL     1     -12.596   8.708  72.767  1.00  0.00    -0.319 OA 
HETATM   34  C   UNL     1     -13.906   9.002  72.337  1.00  0.00    -0.475 C  
ENDBRANCH  31  33
ENDBRANCH  22  31
ENDBRANCH  19  22
ENDBRANCH   8  18
TORSDOF 8
ENDMDL
MODEL       42
REMARK 921   NORMALIZED FREE ENERGY PREDICTED BY IDOCK:   -6.04 KCAL/MOL
REMARK 922        TOTAL FREE ENERGY PREDICTED BY IDOCK:  -10.02 KCAL/MOL
REMARK 923 INTER-LIGAND FREE ENERGY PREDICTED BY IDOCK:   -8.90 KCAL/MOL
REMARK 924 INTRA-LIGAND FREE ENERGY PREDICTED BY IDOCK:   -1.12 KCAL/MOL
REMARK 927      BINDING AFFINITY PREDICTED BY RF-SCORE:    0.00 PKD
ROOT
HETATM    1  C   UNL     1     -10.395  13.472  65.430  1.00  0.00    -0.319 C  
HETATM    2  S   UNL     1     -11.742  14.252  64.582  1.00  0.00    -0.436 SA 
HETATM    3  C   UNL     1     -11.478  16.022  64.905  1.00  0.00    -0.125 C  
HETATM    4  C   UNL     1     -10.276  16.433  65.708  1.00  0.00    -0.370 C  
HETATM    5  C   UNL     1      -9.253  13.221  67.130  1.00  0.00    -0.235 C  
HETATM    6  CA  UNL     1      -9.409  15.587  66.324  1.00  0.00    -0.320 C  
HETATM    7  N   UNL     1      -9.633  14.258  66.358  1.00  0.00    -0.293 N  
HETATM    8  CA  UNL     1     -10.441  12.375  66.575  1.00  0.00    -0.230 C  
HETATM    9  C   UNL     1      -8.195  16.149  66.995  1.00  0.00    -0.216 C  
HETATM   10  O   UNL     1      -8.519  13.142  68.089  1.00  0.00    -0.160 OA 
HETATM   11  O   UNL     1      -7.754  15.556  68.109  1.00  0.00    -0.119 OA 
HETATM   12  OXT UNL     1      -7.568  17.081  66.509  1.00  0.00    -0.231 OA 
ENDROOT
BRANCH   4  13
HETATM   13  C   UNL     1     -10.218  17.950  65.896  1.00  0.00    -0.224 C  
BRANCH  13  14
HETATM   14  O   UNL     1     -10.836  18.362  67.126  1.00  0.00    -0.373 OA 
BRANCH  14  15
HETATM   15  C   UNL     1     -10.222  19.353  67.834  1.00  0.00    -0.420 C  
HETATM   16  C   UNL     1      -9.578  20.361  66.922  1.00  0.00    -0.546 C  
HETATM   17  O   UNL     1     -10.236  19.462  69.053  1.00  0.00    -0.390 OA 
ENDBRANCH  14  15
ENDBRANCH  13  14
ENDBRANCH   4  13
BRANCH   8  18
HETATM   18  N   UNL     1     -11.463  12.060  67.663  1.00  0.00    -0.306 N  
HETATM   19  C   UNL     1     -11.550  11.096  68.665  1.00  0.00    -0.315 C  
HETATM   20  H   UNL     1     -12.258  12.698  67.656  1.00  0.00     0.000 HD 
HETATM   21  O   UNL     1     -12.650  10.959  69.255  1.00  0.00    -0.356 OA 
BRANCH  19  22
HETATM   22  C   UNL     1     -10.380  10.267  69.191  1.00  0.00    -0.223 C  
BRANCH  22  23
HETATM   23  C   UNL     1     -10.583   9.080  70.046  1.00  0.00    -0.228 A  
HETATM   24  N   UNL     1     -11.042   9.138  71.367  1.00  0.00    -0.317 NA 
HETATM   25  H2  UNL     1     -12.387   6.796  73.175  1.00  0.00     0.000 HD 
HETATM   26  N   UNL     1     -12.035   7.728  72.956  1.00  0.00    -0.629 NA 
HETATM   27  C   UNL     1     -10.704   7.827  69.464  1.00  0.00    -0.198 A  
HETATM   28  S   UNL     1     -11.379   6.718  70.573  1.00  0.00    -0.365 SA 
HETATM   29  H1  UNL     1     -12.100   8.470  73.652  1.00  0.00     0.000 HD 
HETATM   30  C   UNL     1     -11.488   7.968  71.745  1.00  0.00    -0.277 A  
ENDBRANCH  22  23
BRANCH  22  31
HETATM   31  N   UNL     1      -9.127  10.607  69.220  1.00  0.00    -0.355 NA 
HETATM   32  H   UNL     1      -8.830  11.363  68.603  1.00  0.00     0.000 HD 
BRANCH  31  33
HETATM   33  O   UNL     1      -8.155  10.017  70.028  1.00  0.00    -0.180 OA 
HETATM   34  C   UNL     1      -6.861  10.572  70.088  1.00  0.00    -0.141 C  
ENDBRANCH  31  33
ENDBRANCH  22  31
ENDBRANCH  19  22
ENDBRANCH   8  18
TORSDOF 8
ENDMDL
MODEL       43
REMARK 921   NORMALIZED FREE ENERGY PREDICTED BY IDOCK:   -6.03 KCAL/MOL
REMARK 922        TOTAL FREE ENERGY PREDICTED BY IDOCK:  -10.00 KCAL/MOL
REMARK 923 INTER-LIGAND FREE ENERGY PREDICTED BY IDOCK:   -8.81 KCAL/MOL
REMARK 924 INTRA-LIGAND FREE ENERGY PREDICTED BY IDOCK:   -1.20 KCAL/MOL
REMARK 927      BINDING AFFINITY PREDICTED BY RF-SCORE:    0.00 PKD
ROOT
HETATM    1  C   UNL     1     -10.831  10.202  69.277  1.00  0.00    -0.235 C  
HETATM    2  S   UNL     1      -9.075  10.222  69.035  1.00  0.00    -0.191 SA 
HETATM    3  C   UNL     1      -8.436   9.349  70.496  1.00  0.00    -0.212 C  
HETATM    4  C   UNL     1      -9.419   8.805  71.494  1.00  0.00    -0.341 C  
HETATM    5  C   UNL     1     -12.479  10.533  70.474  1.00  0.00    -0.347 C  
HETATM    6  CA  UNL     1     -10.764   9.003  71.468  1.00  0.00    -0.351 C  
HETATM    7  N   UNL     1     -11.332   9.831  70.570  1.00  0.00    -0.291 N  
HETATM    8  CA  UNL     1     -11.839  11.424  69.364  1.00  0.00    -0.351 C  
HETATM    9  C   UNL     1     -11.623   8.302  72.474  1.00  0.00    -0.385 C  
HETATM   10  O   UNL     1     -13.441  10.630  71.201  1.00  0.00    -0.186 OA 
HETATM   11  O   UNL     1     -12.706   8.934  72.934  1.00  0.00    -0.301 OA 
HETATM   12  OXT UNL     1     -11.394   7.150  72.820  1.00  0.00    -0.284 OA 
ENDROOT
BRANCH   4  13
HETATM   13  C   UNL     1      -8.712   8.117  72.663  1.00  0.00    -0.213 C  
BRANCH  13  14
HETATM   14  O   UNL     1      -7.575   7.354  72.229  1.00  0.00    -0.084 OA 
BRANCH  14  15
HETATM   15  C   UNL     1      -7.724   6.001  72.142  1.00  0.00    -0.101 C  
HETATM   16  C   UNL     1      -7.681   5.357  73.501  1.00  0.00    -0.096 C  
HETATM   17  O   UNL     1      -7.931   5.378  71.109  1.00  0.00    -0.104 OA 
ENDBRANCH  14  15
ENDBRANCH  13  14
ENDBRANCH   4  13
BRANCH   8  18
HETATM   18  N   UNL     1     -11.673  12.867  69.829  1.00  0.00    -0.440 N  
HETATM   19  C   UNL     1     -10.908  13.947  69.394  1.00  0.00    -0.070 C  
HETATM   20  H   UNL     1     -12.251  13.092  70.639  1.00  0.00     0.000 HD 
HETATM   21  O   UNL     1     -10.819  14.947  70.147  1.00  0.00    -0.214 OA 
BRANCH  19  22
HETATM   22  C   UNL     1     -10.261  14.066  68.015  1.00  0.00    -0.238 C  
BRANCH  22  23
HETATM   23  C   UNL     1     -11.060  14.289  66.793  1.00  0.00    -0.314 A  
HETATM   24  N   UNL     1     -11.034  15.475  66.049  1.00  0.00    -0.292 NA 
HETATM   25  H2  UNL     1     -11.938  15.983  62.968  1.00  0.00     0.000 HD 
HETATM   26  N   UNL     1     -11.575  16.219  63.892  1.00  0.00    -1.573 NA 
HETATM   27  C   UNL     1     -11.576  13.204  66.101  1.00  0.00    -0.355 A  
HETATM   28  S   UNL     1     -12.043  13.668  64.526  1.00  0.00    -0.419 SA 
HETATM   29  H1  UNL     1     -11.261  17.170  64.084  1.00  0.00     0.000 HD 
HETATM   30  C   UNL     1     -11.514  15.270  64.850  1.00  0.00    -0.343 A  
ENDBRANCH  22  23
BRANCH  22  31
HETATM   31  N   UNL     1      -9.054  13.725  67.682  1.00  0.00    -0.186 NA 
HETATM   32  H   UNL     1      -8.948  12.975  66.999  1.00  0.00     0.000 HD 
BRANCH  31  33
HETATM   33  O   UNL     1      -7.890  14.304  68.186  1.00  0.00    -0.118 OA 
HETATM   34  C   UNL     1      -6.631  13.812  67.787  1.00  0.00    -0.172 C  
ENDBRANCH  31  33
ENDBRANCH  22  31
ENDBRANCH  19  22
ENDBRANCH   8  18
TORSDOF 8
ENDMDL
MODEL       44
REMARK 921   NORMALIZED FREE ENERGY PREDICTED BY IDOCK:   -6.00 KCAL/MOL
REMARK 922        TOTAL FREE ENERGY PREDICTED BY IDOCK:   -9.95 KCAL/MOL
REMARK 923 INTER-LIGAND FREE ENERGY PREDICTED BY IDOCK:   -8.57 KCAL/MOL
REMARK 924 INTRA-LIGAND FREE ENERGY PREDICTED BY IDOCK:   -1.39 KCAL/MOL
REMARK 927      BINDING AFFINITY PREDICTED BY RF-SCORE:    0.00 PKD
ROOT
HETATM    1  C   UNL     1     -10.311  13.432  65.452  1.00  0.00    -0.312 C  
HETATM    2  S   UNL     1     -11.578  14.502  64.826  1.00  0.00    -0.416 SA 
HETATM    3  C   UNL     1     -11.012  16.160  65.314  1.00  0.00    -0.270 C  
HETATM    4  C   UNL     1      -9.703  16.286  66.039  1.00  0.00    -0.370 C  
HETATM    5  C   UNL     1      -9.096  12.808  66.999  1.00  0.00    -0.220 C  
HETATM    6  CA  UNL     1      -8.936  15.252  66.474  1.00  0.00    -0.305 C  
HETATM    7  N   UNL     1      -9.365  13.977  66.384  1.00  0.00    -0.256 N  
HETATM    8  CA  UNL     1     -10.443  12.222  66.470  1.00  0.00    -0.227 C  
HETATM    9  C   UNL     1      -7.601  15.540  67.086  1.00  0.00    -0.218 C  
HETATM   10  O   UNL     1      -8.313  12.503  67.869  1.00  0.00    -0.145 OA 
HETATM   11  O   UNL     1      -7.175  14.756  68.080  1.00  0.00    -0.103 OA 
HETATM   12  OXT UNL     1      -6.872  16.421  66.647  1.00  0.00    -0.199 OA 
ENDROOT
BRANCH   4  13
HETATM   13  C   UNL     1      -9.389  17.743  66.386  1.00  0.00    -0.249 C  
BRANCH  13  14
HETATM   14  O   UNL     1     -10.136  18.195  67.527  1.00  0.00    -0.318 OA 
BRANCH  14  15
HETATM   15  C   UNL     1      -9.629  19.249  68.230  1.00  0.00    -0.371 C  
HETATM   16  C   UNL     1      -8.131  19.313  68.117  1.00  0.00    -0.349 C  
HETATM   17  O   UNL     1     -10.295  20.083  68.829  1.00  0.00    -0.433 OA 
ENDBRANCH  14  15
ENDBRANCH  13  14
ENDBRANCH   4  13
BRANCH   8  18
HETATM   18  N   UNL     1     -11.415  11.932  67.609  1.00  0.00    -0.308 N  
HETATM   19  C   UNL     1     -11.500  10.943  68.586  1.00  0.00    -0.311 C  
HETATM   20  H   UNL     1     -12.170  12.614  67.668  1.00  0.00     0.000 HD 
HETATM   21  O   UNL     1     -12.569  10.850  69.237  1.00  0.00    -0.356 OA 
BRANCH  19  22
HETATM   22  C   UNL     1     -10.352  10.031  69.015  1.00  0.00    -0.206 C  
BRANCH  22  23
HETATM   23  C   UNL     1     -10.000   8.809  68.263  1.00  0.00    -0.176 A  
HETATM   24  N   UNL     1     -10.905   7.780  67.977  1.00  0.00    -0.054 NA 
HETATM   25  H2  UNL     1     -10.727   5.466  65.701  1.00  0.00     0.000 HD 
HETATM   26  N   UNL     1     -11.129   5.990  66.479  1.00  0.00    -0.761 NA 
HETATM   27  C   UNL     1      -8.865   8.795  67.467  1.00  0.00    -0.134 A  
HETATM   28  S   UNL     1      -8.921   7.488  66.371  1.00  0.00    -0.168 SA 
HETATM   29  H1  UNL     1     -12.038   5.720  66.854  1.00  0.00     0.000 HD 
HETATM   30  C   UNL     1     -10.452   7.034  67.003  1.00  0.00    -0.316 A  
ENDBRANCH  22  23
BRANCH  22  31
HETATM   31  N   UNL     1      -9.747  10.017  70.164  1.00  0.00    -0.394 NA 
HETATM   32  H   UNL     1      -9.130  10.799  70.380  1.00  0.00     0.000 HD 
BRANCH  31  33
HETATM   33  O   UNL     1      -9.876   9.015  71.125  1.00  0.00    -0.248 OA 
HETATM   34  C   UNL     1     -11.068   8.905  71.869  1.00  0.00    -0.372 C  
ENDBRANCH  31  33
ENDBRANCH  22  31
ENDBRANCH  19  22
ENDBRANCH   8  18
TORSDOF 8
ENDMDL
MODEL       45
REMARK 921   NORMALIZED FREE ENERGY PREDICTED BY IDOCK:   -5.98 KCAL/MOL
REMARK 922        TOTAL FREE ENERGY PREDICTED BY IDOCK:   -9.93 KCAL/MOL
REMARK 923 INTER-LIGAND FREE ENERGY PREDICTED BY IDOCK:   -8.12 KCAL/MOL
REMARK 924 INTRA-LIGAND FREE ENERGY PREDICTED BY IDOCK:   -1.81 KCAL/MOL
REMARK 927      BINDING AFFINITY PREDICTED BY RF-SCORE:    0.00 PKD
ROOT
HETATM    1  C   UNL     1     -11.003  17.861  67.486  1.00  0.00    -0.089 C  
HETATM    2  S   UNL     1     -10.668  18.300  65.801  1.00  0.00     0.129 SA 
HETATM    3  C   UNL     1     -10.540  16.692  64.962  1.00  0.00    -0.091 C  
HETATM    4  C   UNL     1     -10.760  15.443  65.767  1.00  0.00    -0.360 C  
HETATM    5  C   UNL     1     -10.556  16.761  69.174  1.00  0.00    -0.343 C  
HETATM    6  CA  UNL     1     -10.939  15.390  67.113  1.00  0.00    -0.317 C  
HETATM    7  N   UNL     1     -10.816  16.493  67.879  1.00  0.00    -0.344 N  
HETATM    8  CA  UNL     1     -10.183  18.228  68.793  1.00  0.00    -0.318 C  
HETATM    9  C   UNL     1     -11.257  14.077  67.756  1.00  0.00    -0.281 C  
HETATM   10  O   UNL     1     -10.363  16.050  70.133  1.00  0.00    -0.253 OA 
HETATM   11  O   UNL     1     -10.772  13.834  68.977  1.00  0.00    -0.240 OA 
HETATM   12  OXT UNL     1     -12.001  13.265  67.221  1.00  0.00    -0.367 OA 
ENDROOT
BRANCH   4  13
HETATM   13  C   UNL     1     -10.601  14.185  64.910  1.00  0.00    -0.430 C  
BRANCH  13  14
HETATM   14  O   UNL     1     -11.793  13.888  64.166  1.00  0.00    -0.416 OA 
BRANCH  14  15
HETATM   15  C   UNL     1     -11.929  12.620  63.681  1.00  0.00    -0.535 C  
HETATM   16  C   UNL     1     -10.595  11.937  63.553  1.00  0.00    -0.507 C  
HETATM   17  O   UNL     1     -12.994  12.069  63.435  1.00  0.00    -0.772 OA 
ENDBRANCH  14  15
ENDBRANCH  13  14
ENDBRANCH   4  13
BRANCH   8  18
HETATM   18  N   UNL     1      -8.704  18.513  69.038  1.00  0.00    -0.128 N  
HETATM   19  C   UNL     1      -7.522  17.840  68.738  1.00  0.00    -0.263 C  
HETATM   20  H   UNL     1      -8.546  19.392  69.530  1.00  0.00     0.000 HD 
HETATM   21  O   UNL     1      -6.467  18.229  69.294  1.00  0.00    -0.252 OA 
BRANCH  19  22
HETATM   22  C   UNL     1      -7.382  16.735  67.693  1.00  0.00    -0.146 C  
BRANCH  22  23
HETATM   23  C   UNL     1      -7.000  15.356  68.059  1.00  0.00    -0.133 A  
HETATM   24  N   UNL     1      -6.457  14.998  69.299  1.00  0.00    -0.115 NA 
HETATM   25  H2  UNL     1      -6.324  12.075  70.713  1.00  0.00     0.000 HD 
HETATM   26  N   UNL     1      -6.180  13.080  70.618  1.00  0.00    -0.486 NA 
HETATM   27  C   UNL     1      -7.519  14.287  67.344  1.00  0.00    -0.149 A  
HETATM   28  S   UNL     1      -7.315  12.833  68.215  1.00  0.00    -0.128 SA 
HETATM   29  H1  UNL     1      -5.739  13.600  71.376  1.00  0.00     0.000 HD 
HETATM   30  C   UNL     1      -6.573  13.710  69.491  1.00  0.00    -0.069 A  
ENDBRANCH  22  23
BRANCH  22  31
HETATM   31  N   UNL     1      -7.291  16.878  66.406  1.00  0.00    -0.278 NA 
HETATM   32  H   UNL     1      -8.051  16.507  65.836  1.00  0.00     0.000 HD 
BRANCH  31  33
HETATM   33  O   UNL     1      -6.234  17.500  65.741  1.00  0.00    -0.154 OA 
HETATM   34  C   UNL     1      -6.337  18.856  65.373  1.00  0.00    -0.283 C  
ENDBRANCH  31  33
ENDBRANCH  22  31
ENDBRANCH  19  22
ENDBRANCH   8  18
TORSDOF 8
ENDMDL
MODEL       46
REMARK 921   NORMALIZED FREE ENERGY PREDICTED BY IDOCK:   -5.97 KCAL/MOL
REMARK 922        TOTAL FREE ENERGY PREDICTED BY IDOCK:   -9.92 KCAL/MOL
REMARK 923 INTER-LIGAND FREE ENERGY PREDICTED BY IDOCK:   -8.61 KCAL/MOL
REMARK 924 INTRA-LIGAND FREE ENERGY PREDICTED BY IDOCK:   -1.31 KCAL/MOL
REMARK 927      BINDING AFFINITY PREDICTED BY RF-SCORE:    0.00 PKD
ROOT
HETATM    1  C   UNL     1     -12.517  11.401  70.184  1.00  0.00    -0.196 C  
HETATM    2  S   UNL     1     -12.693  12.460  71.594  1.00  0.00    -0.103 SA 
HETATM    3  C   UNL     1     -12.270  14.105  70.944  1.00  0.00    -0.363 C  
HETATM    4  C   UNL     1     -11.931  14.234  69.486  1.00  0.00    -0.384 C  
HETATM    5  C   UNL     1     -11.415  10.728  68.574  1.00  0.00    -0.292 C  
HETATM    6  CA  UNL     1     -11.796  13.203  68.610  1.00  0.00    -0.328 C  
HETATM    7  N   UNL     1     -11.850  11.921  69.025  1.00  0.00    -0.310 N  
HETATM    8  CA  UNL     1     -11.588  10.128  70.005  1.00  0.00    -0.253 C  
HETATM    9  C   UNL     1     -11.562  13.501  67.162  1.00  0.00    -0.357 C  
HETATM   10  O   UNL     1     -10.819  10.400  67.574  1.00  0.00    -0.270 OA 
HETATM   11  O   UNL     1     -10.780  12.675  66.462  1.00  0.00    -0.246 OA 
HETATM   12  OXT UNL     1     -12.125  14.433  66.601  1.00  0.00    -0.419 OA 
ENDROOT
BRANCH   4  13
HETATM   13  C   UNL     1     -11.586  15.678  69.114  1.00  0.00    -0.383 C  
BRANCH  13  14
HETATM   14  O   UNL     1     -10.386  16.127  69.763  1.00  0.00    -0.269 OA 
BRANCH  14  15
HETATM   15  C   UNL     1      -9.197  15.789  69.186  1.00  0.00    -0.256 C  
HETATM   16  C   UNL     1      -9.105  16.309  67.777  1.00  0.00    -0.195 C  
HETATM   17  O   UNL     1      -8.285  15.195  69.745  1.00  0.00    -0.171 OA 
ENDBRANCH  14  15
ENDBRANCH  13  14
ENDBRANCH   4  13
BRANCH   8  18
HETATM   18  N   UNL     1     -10.246   9.735  70.614  1.00  0.00    -0.328 N  
HETATM   19  C   UNL     1      -9.862   8.920  71.677  1.00  0.00    -0.317 C  
HETATM   20  H   UNL     1      -9.453  10.165  70.138  1.00  0.00     0.000 HD 
HETATM   21  O   UNL     1      -8.675   8.994  72.077  1.00  0.00    -0.367 OA 
BRANCH  19  22
HETATM   22  C   UNL     1     -10.740   7.851  72.325  1.00  0.00    -0.283 C  
BRANCH  22  23
HETATM   23  C   UNL     1     -10.610   6.420  71.984  1.00  0.00    -0.213 A  
HETATM   24  N   UNL     1     -10.510   5.934  70.675  1.00  0.00    -0.237 NA 
HETATM   25  H2  UNL     1      -9.378   3.072  69.630  1.00  0.00     0.000 HD 
HETATM   26  N   UNL     1      -9.778   4.007  69.557  1.00  0.00    -0.199 NA 
HETATM   27  C   UNL     1     -10.189   5.519  72.951  1.00  0.00    -0.186 A  
HETATM   28  S   UNL     1      -9.681   4.060  72.224  1.00  0.00    -0.163 SA 
HETATM   29  H1  UNL     1      -9.986   4.397  68.637  1.00  0.00     0.000 HD 
HETATM   30  C   UNL     1     -10.030   4.718  70.677  1.00  0.00    -0.230 A  
ENDBRANCH  22  23
BRANCH  22  31
HETATM   31  N   UNL     1     -11.839   8.034  72.993  1.00  0.00    -0.607 NA 
HETATM   32  H   UNL     1     -12.005   7.433  73.799  1.00  0.00     0.000 HD 
BRANCH  31  33
HETATM   33  O   UNL     1     -12.808   8.991  72.693  1.00  0.00    -0.381 OA 
HETATM   34  C   UNL     1     -14.141   8.593  72.467  1.00  0.00    -0.306 C  
ENDBRANCH  31  33
ENDBRANCH  22  31
ENDBRANCH  19  22
ENDBRANCH   8  18
TORSDOF 8
ENDMDL
MODEL       47
REMARK 921   NORMALIZED FREE ENERGY PREDICTED BY IDOCK:   -5.95 KCAL/MOL
REMARK 922        TOTAL FREE ENERGY PREDICTED BY IDOCK:   -9.89 KCAL/MOL
REMARK 923 INTER-LIGAND FREE ENERGY PREDICTED BY IDOCK:   -9.13 KCAL/MOL
REMARK 924 INTRA-LIGAND FREE ENERGY PREDICTED BY IDOCK:   -0.76 KCAL/MOL
REMARK 927      BINDING AFFINITY PREDICTED BY RF-SCORE:    0.00 PKD
ROOT
HETATM    1  C   UNL     1     -10.658  13.858  67.305  1.00  0.00    -0.276 C  
HETATM    2  S   UNL     1      -9.076  13.753  68.099  1.00  0.00    -0.197 SA 
HETATM    3  C   UNL     1      -8.153  15.151  67.392  1.00  0.00    -0.186 C  
HETATM    4  C   UNL     1      -8.851  16.047  66.408  1.00  0.00    -0.363 C  
HETATM    5  C   UNL     1     -11.794  14.032  65.591  1.00  0.00    -0.377 C  
HETATM    6  CA  UNL     1     -10.096  15.846  65.899  1.00  0.00    -0.352 C  
HETATM    7  N   UNL     1     -10.786  14.719  66.164  1.00  0.00    -0.314 N  
HETATM    8  CA  UNL     1     -11.403  12.770  66.422  1.00  0.00    -0.323 C  
HETATM    9  C   UNL     1     -10.697  16.890  65.011  1.00  0.00    -0.040 C  
HETATM   10  O   UNL     1     -12.462  14.233  64.603  1.00  0.00    -0.571 OA 
HETATM   11  O   UNL     1     -11.485  16.492  64.008  1.00  0.00    -1.137 OA 
HETATM   12  OXT UNL     1     -10.541  18.084  65.229  1.00  0.00    -0.615 OA 
ENDROOT
BRANCH   4  13
HETATM   13  C   UNL     1      -7.927  17.157  65.903  1.00  0.00     0.016 C  
BRANCH  13  14
HETATM   14  O   UNL     1      -7.782  18.213  66.867  1.00  0.00    -0.210 OA 
BRANCH  14  15
HETATM   15  C   UNL     1      -6.721  19.058  66.715  1.00  0.00    -0.191 C  
HETATM   16  C   UNL     1      -7.111  20.483  67.000  1.00  0.00    -0.351 C  
HETATM   17  O   UNL     1      -5.578  18.714  66.444  1.00  0.00    -0.147 OA 
ENDBRANCH  14  15
ENDBRANCH  13  14
ENDBRANCH   4  13
BRANCH   8  18
HETATM   18  N   UNL     1     -10.896  11.643  65.528  1.00  0.00    -0.287 N  
HETATM   19  C   UNL     1     -10.384  10.369  65.765  1.00  0.00    -0.187 C  
HETATM   20  H   UNL     1     -10.943  11.873  64.536  1.00  0.00     0.000 HD 
HETATM   21  O   UNL     1      -9.829   9.771  64.812  1.00  0.00    -0.258 OA 
BRANCH  19  22
HETATM   22  C   UNL     1     -10.548   9.585  67.066  1.00  0.00    -0.201 C  
BRANCH  22  23
HETATM   23  C   UNL     1     -10.255   8.140  67.151  1.00  0.00    -0.296 A  
HETATM   24  N   UNL     1     -11.153   7.137  66.770  1.00  0.00    -0.078 NA 
HETATM   25  H2  UNL     1     -10.561   4.030  66.022  1.00  0.00     0.000 HD 
HETATM   26  N   UNL     1     -11.119   4.870  66.171  1.00  0.00    -0.646 NA 
HETATM   27  C   UNL     1      -8.939   7.711  67.243  1.00  0.00    -0.127 A  
HETATM   28  S   UNL     1      -8.828   6.049  66.867  1.00  0.00    -0.118 SA 
HETATM   29  H1  UNL     1     -12.125   4.844  66.004  1.00  0.00     0.000 HD 
HETATM   30  C   UNL     1     -10.521   6.007  66.587  1.00  0.00    -0.228 A  
ENDBRANCH  22  23
BRANCH  22  31
HETATM   31  N   UNL     1     -11.192   9.956  68.131  1.00  0.00    -0.523 NA 
HETATM   32  H   UNL     1     -12.206  10.038  68.063  1.00  0.00     0.000 HD 
BRANCH  31  33
HETATM   33  O   UNL     1     -10.605  10.250  69.361  1.00  0.00    -0.206 OA 
HETATM   34  C   UNL     1     -11.417  10.475  70.491  1.00  0.00    -0.345 C  
ENDBRANCH  31  33
ENDBRANCH  22  31
ENDBRANCH  19  22
ENDBRANCH   8  18
TORSDOF 8
ENDMDL
MODEL       48
REMARK 921   NORMALIZED FREE ENERGY PREDICTED BY IDOCK:   -5.92 KCAL/MOL
REMARK 922        TOTAL FREE ENERGY PREDICTED BY IDOCK:   -9.85 KCAL/MOL
REMARK 923 INTER-LIGAND FREE ENERGY PREDICTED BY IDOCK:   -8.75 KCAL/MOL
REMARK 924 INTRA-LIGAND FREE ENERGY PREDICTED BY IDOCK:   -1.10 KCAL/MOL
REMARK 927      BINDING AFFINITY PREDICTED BY RF-SCORE:    0.00 PKD
ROOT
HETATM    1  C   UNL     1      -8.396   8.915  68.280  1.00  0.00    -0.125 C  
HETATM    2  S   UNL     1      -7.455  10.027  69.290  1.00  0.00    -0.117 SA 
HETATM    3  C   UNL     1      -7.435   9.210  70.915  1.00  0.00    -0.118 C  
HETATM    4  C   UNL     1      -8.113   7.877  71.056  1.00  0.00    -0.098 C  
HETATM    5  C   UNL     1     -10.080   7.763  67.973  1.00  0.00    -0.186 C  
HETATM    6  CA  UNL     1      -8.852   7.260  70.096  1.00  0.00    -0.145 C  
HETATM    7  N   UNL     1      -9.139   7.874  68.931  1.00  0.00    -0.141 N  
HETATM    8  CA  UNL     1      -9.726   9.195  67.463  1.00  0.00    -0.160 C  
HETATM    9  C   UNL     1      -9.373   5.880  70.352  1.00  0.00    -0.159 C  
HETATM   10  O   UNL     1     -11.016   7.010  67.829  1.00  0.00    -0.218 OA 
HETATM   11  O   UNL     1     -10.565   5.548  69.847  1.00  0.00    -0.296 OA 
HETATM   12  OXT UNL     1      -8.705   5.043  70.944  1.00  0.00    -0.117 OA 
ENDROOT
BRANCH   4  13
HETATM   13  C   UNL     1      -8.014   7.344  72.487  1.00  0.00    -0.100 C  
BRANCH  13  14
HETATM   14  O   UNL     1      -9.002   7.932  73.348  1.00  0.00    -0.224 OA 
BRANCH  14  15
HETATM   15  C   UNL     1     -10.199   7.289  73.460  1.00  0.00    -0.358 C  
HETATM   16  C   UNL     1     -10.039   5.945  74.117  1.00  0.00    -0.272 C  
HETATM   17  O   UNL     1     -11.283   7.753  73.132  1.00  0.00    -0.402 OA 
ENDBRANCH  14  15
ENDBRANCH  13  14
ENDBRANCH   4  13
BRANCH   8  18
HETATM   18  N   UNL     1     -10.882  10.168  67.674  1.00  0.00    -0.284 N  
HETATM   19  C   UNL     1     -11.256  11.375  67.086  1.00  0.00    -0.296 C  
HETATM   20  H   UNL     1     -11.523   9.869  68.407  1.00  0.00     0.000 HD 
HETATM   21  O   UNL     1     -12.142  12.056  67.656  1.00  0.00    -0.547 OA 
BRANCH  19  22
HETATM   22  C   UNL     1     -10.758  11.886  65.735  1.00  0.00    -0.284 C  
BRANCH  22  23
HETATM   23  C   UNL     1     -10.457  13.313  65.502  1.00  0.00    -0.288 A  
HETATM   24  N   UNL     1     -11.096  14.098  64.535  1.00  0.00    -0.362 NA 
HETATM   25  H2  UNL     1     -11.312  17.335  64.338  1.00  0.00     0.000 HD 
HETATM   26  N   UNL     1     -11.464  16.365  64.062  1.00  0.00    -1.573 NA 
HETATM   27  C   UNL     1      -9.808  14.048  66.482  1.00  0.00    -0.290 A  
HETATM   28  S   UNL     1      -9.985  15.720  66.189  1.00  0.00    -0.338 SA 
HETATM   29  H1  UNL     1     -12.023  16.157  63.234  1.00  0.00     0.000 HD 
HETATM   30  C   UNL     1     -10.925  15.368  64.795  1.00  0.00    -0.393 A  
ENDBRANCH  22  23
BRANCH  22  31
HETATM   31  N   UNL     1     -10.798  11.264  64.597  1.00  0.00    -0.299 NA 
HETATM   32  H   UNL     1     -11.706  11.174  64.142  1.00  0.00     0.000 HD 
BRANCH  31  33
HETATM   33  O   UNL     1      -9.695  10.709  63.947  1.00  0.00    -0.270 OA 
HETATM   34  C   UNL     1      -9.442  11.027  62.598  1.00  0.00    -0.289 C  
ENDBRANCH  31  33
ENDBRANCH  22  31
ENDBRANCH  19  22
ENDBRANCH   8  18
TORSDOF 8
ENDMDL
MODEL       49
REMARK 921   NORMALIZED FREE ENERGY PREDICTED BY IDOCK:   -5.90 KCAL/MOL
REMARK 922        TOTAL FREE ENERGY PREDICTED BY IDOCK:   -9.81 KCAL/MOL
REMARK 923 INTER-LIGAND FREE ENERGY PREDICTED BY IDOCK:   -8.81 KCAL/MOL
REMARK 924 INTRA-LIGAND FREE ENERGY PREDICTED BY IDOCK:   -1.00 KCAL/MOL
REMARK 927      BINDING AFFINITY PREDICTED BY RF-SCORE:    0.00 PKD
ROOT
HETATM    1  C   UNL     1     -11.591  13.399  67.571  1.00  0.00    -0.344 C  
HETATM    2  S   UNL     1     -10.312  14.100  68.578  1.00  0.00    -0.251 SA 
HETATM    3  C   UNL     1      -9.647  15.441  67.545  1.00  0.00    -0.206 C  
HETATM    4  C   UNL     1     -10.273  15.689  66.202  1.00  0.00    -0.327 C  
HETATM    5  C   UNL     1     -12.232  12.630  65.766  1.00  0.00    -0.361 C  
HETATM    6  CA  UNL     1     -11.234  14.923  65.623  1.00  0.00    -0.347 C  
HETATM    7  N   UNL     1     -11.639  13.766  66.185  1.00  0.00    -0.339 N  
HETATM    8  CA  UNL     1     -11.751  11.905  67.062  1.00  0.00    -0.227 C  
HETATM    9  C   UNL     1     -11.836  15.364  64.325  1.00  0.00    -0.199 C  
HETATM   10  O   UNL     1     -12.641  12.272  64.686  1.00  0.00    -0.464 OA 
HETATM   11  O   UNL     1     -12.189  14.429  63.439  1.00  0.00    -0.479 OA 
HETATM   12  OXT UNL     1     -12.073  16.544  64.098  1.00  0.00    -0.774 OA 
ENDROOT
BRANCH   4  13
HETATM   13  C   UNL     1      -9.583  16.839  65.464  1.00  0.00     0.255 C  
BRANCH  13  14
HETATM   14  O   UNL     1     -10.163  18.111  65.791  1.00  0.00    -0.580 OA 
BRANCH  14  15
HETATM   15  C   UNL     1      -9.338  19.057  66.325  1.00  0.00    -0.298 C  
HETATM   16  C   UNL     1     -10.122  20.174  66.958  1.00  0.00    -0.599 C  
HETATM   17  O   UNL     1      -8.116  18.994  66.352  1.00  0.00    -0.280 OA 
ENDBRANCH  14  15
ENDBRANCH  13  14
ENDBRANCH   4  13
BRANCH   8  18
HETATM   18  N   UNL     1     -10.740  10.807  66.748  1.00  0.00    -0.251 N  
HETATM   19  C   UNL     1      -9.594  10.331  67.382  1.00  0.00    -0.158 C  
HETATM   20  H   UNL     1     -10.949  10.311  65.882  1.00  0.00     0.000 HD 
HETATM   21  O   UNL     1      -8.840   9.564  66.736  1.00  0.00    -0.129 OA 
BRANCH  19  22
HETATM   22  C   UNL     1      -9.237  10.573  68.847  1.00  0.00    -0.183 C  
BRANCH  22  23
HETATM   23  C   UNL     1     -10.029   9.994  69.951  1.00  0.00    -0.237 A  
HETATM   24  N   UNL     1     -11.240  10.527  70.407  1.00  0.00    -0.313 NA 
HETATM   25  H2  UNL     1     -13.590   9.095  72.137  1.00  0.00     0.000 HD 
HETATM   26  N   UNL     1     -13.122   9.846  71.629  1.00  0.00    -0.405 NA 
HETATM   27  C   UNL     1      -9.816   8.678  70.333  1.00  0.00    -0.183 A  
HETATM   28  S   UNL     1     -11.124   8.111  71.273  1.00  0.00    -0.256 SA 
HETATM   29  H1  UNL     1     -13.582  10.750  71.527  1.00  0.00     0.000 HD 
HETATM   30  C   UNL     1     -11.898   9.634  71.100  1.00  0.00    -0.367 A  
ENDBRANCH  22  23
BRANCH  22  31
HETATM   31  N   UNL     1      -8.437  11.479  69.322  1.00  0.00    -0.344 NA 
HETATM   32  H   UNL     1      -8.858  12.261  69.823  1.00  0.00     0.000 HD 
BRANCH  31  33
HETATM   33  O   UNL     1      -7.048  11.465  69.200  1.00  0.00    -0.110 OA 
HETATM   34  C   UNL     1      -6.426  12.201  68.172  1.00  0.00    -0.056 C  
ENDBRANCH  31  33
ENDBRANCH  22  31
ENDBRANCH  19  22
ENDBRANCH   8  18
TORSDOF 8
ENDMDL
MODEL       50
REMARK 921   NORMALIZED FREE ENERGY PREDICTED BY IDOCK:   -5.89 KCAL/MOL
REMARK 922        TOTAL FREE ENERGY PREDICTED BY IDOCK:   -9.81 KCAL/MOL
REMARK 923 INTER-LIGAND FREE ENERGY PREDICTED BY IDOCK:   -8.72 KCAL/MOL
REMARK 924 INTRA-LIGAND FREE ENERGY PREDICTED BY IDOCK:   -1.09 KCAL/MOL
REMARK 927      BINDING AFFINITY PREDICTED BY RF-SCORE:    0.00 PKD
ROOT
HETATM    1  C   UNL     1     -11.252  10.789  69.426  1.00  0.00    -0.276 C  
HETATM    2  S   UNL     1      -9.551  10.777  68.928  1.00  0.00    -0.176 SA 
HETATM    3  C   UNL     1      -8.773   9.632  70.108  1.00  0.00    -0.231 C  
HETATM    4  C   UNL     1      -9.640   8.963  71.137  1.00  0.00    -0.342 C  
HETATM    5  C   UNL     1     -12.688  10.974  70.897  1.00  0.00    -0.358 C  
HETATM    6  CA  UNL     1     -10.957   9.220  71.349  1.00  0.00    -0.359 C  
HETATM    7  N   UNL     1     -11.589  10.218  70.699  1.00  0.00    -0.323 N  
HETATM    8  CA  UNL     1     -12.151  12.019  69.869  1.00  0.00    -0.263 C  
HETATM    9  C   UNL     1     -11.712   8.391  72.340  1.00  0.00    -0.382 C  
HETATM   10  O   UNL     1     -13.528  10.982  71.767  1.00  0.00    -0.313 OA 
HETATM   11  O   UNL     1     -12.674   8.978  73.058  1.00  0.00    -0.209 OA 
HETATM   12  OXT UNL     1     -11.515   7.187  72.449  1.00  0.00    -0.262 OA 
ENDROOT
BRANCH   4  13
HETATM   13  C   UNL     1      -8.823   8.050  72.054  1.00  0.00    -0.156 C  
BRANCH  13  14
HETATM   14  O   UNL     1      -8.125   7.035  71.315  1.00  0.00    -0.106 OA 
BRANCH  14  15
HETATM   15  C   UNL     1      -8.780   5.858  71.096  1.00  0.00    -0.132 C  
HETATM   16  C   UNL     1      -8.668   4.940  72.283  1.00  0.00    -0.128 C  
HETATM   17  O   UNL     1      -9.432   5.589  70.097  1.00  0.00    -0.153 OA 
ENDBRANCH  14  15
ENDBRANCH  13  14
ENDBRANCH   4  13
BRANCH   8  18
HETATM   18  N   UNL     1     -11.823  13.349  70.540  1.00  0.00    -0.536 N  
HETATM   19  C   UNL     1     -11.335  14.572  70.086  1.00  0.00    -0.197 C  
HETATM   20  H   UNL     1     -12.000  13.341  71.544  1.00  0.00     0.000 HD 
HETATM   21  O   UNL     1     -10.945  15.404  70.941  1.00  0.00    -0.331 OA 
BRANCH  19  22
HETATM   22  C   UNL     1     -11.344  15.036  68.630  1.00  0.00    -0.296 C  
BRANCH  22  23
HETATM   23  C   UNL     1     -10.516  16.165  68.164  1.00  0.00    -0.279 A  
HETATM   24  N   UNL     1     -10.954  17.495  68.129  1.00  0.00    -0.238 NA 
HETATM   25  H2  UNL     1      -9.202  20.229  68.006  1.00  0.00     0.000 HD 
HETATM   26  N   UNL     1     -10.043  19.654  68.044  1.00  0.00    -0.412 NA 
HETATM   27  C   UNL     1      -9.137  16.028  68.104  1.00  0.00    -0.187 A  
HETATM   28  S   UNL     1      -8.389  17.558  67.992  1.00  0.00    -0.248 SA 
HETATM   29  H1  UNL     1     -10.960  20.099  68.078  1.00  0.00     0.000 HD 
HETATM   30  C   UNL     1      -9.933  18.308  68.049  1.00  0.00    -0.347 A  
ENDBRANCH  22  23
BRANCH  22  31
HETATM   31  N   UNL     1     -12.217  14.738  67.717  1.00  0.00    -0.562 NA 
HETATM   32  H   UNL     1     -13.093  15.260  67.715  1.00  0.00     0.000 HD 
BRANCH  31  33
HETATM   33  O   UNL     1     -12.050  13.760  66.737  1.00  0.00    -0.411 OA 
HETATM   34  C   UNL     1     -12.562  13.970  65.441  1.00  0.00    -0.505 C  
ENDBRANCH  31  33
ENDBRANCH  22  31
ENDBRANCH  19  22
ENDBRANCH   8  18
TORSDOF 8
ENDMDL
MODEL       51
REMARK 921   NORMALIZED FREE ENERGY PREDICTED BY IDOCK:   -5.87 KCAL/MOL
REMARK 922        TOTAL FREE ENERGY PREDICTED BY IDOCK:   -9.77 KCAL/MOL
REMARK 923 INTER-LIGAND FREE ENERGY PREDICTED BY IDOCK:   -7.99 KCAL/MOL
REMARK 924 INTRA-LIGAND FREE ENERGY PREDICTED BY IDOCK:   -1.77 KCAL/MOL
REMARK 927      BINDING AFFINITY PREDICTED BY RF-SCORE:    0.00 PKD
ROOT
HETATM    1  C   UNL     1     -10.762  10.214  66.708  1.00  0.00    -0.121 C  
HETATM    2  S   UNL     1     -10.822  10.183  68.479  1.00  0.00    -0.231 SA 
HETATM    3  C   UNL     1     -11.436  11.839  68.911  1.00  0.00    -0.297 C  
HETATM    4  C   UNL     1     -11.773  12.792  67.800  1.00  0.00    -0.412 C  
HETATM    5  C   UNL     1     -10.188  11.132  64.951  1.00  0.00    -0.303 C  
HETATM    6  CA  UNL     1     -11.554  12.573  66.476  1.00  0.00    -0.388 C  
HETATM    7  N   UNL     1     -10.886  11.483  66.049  1.00  0.00    -0.286 N  
HETATM    8  CA  UNL     1      -9.521   9.968  65.749  1.00  0.00    -0.214 C  
HETATM    9  C   UNL     1     -12.046  13.576  65.480  1.00  0.00    -0.419 C  
HETATM   10  O   UNL     1      -9.943  11.712  63.918  1.00  0.00    -0.283 OA 
HETATM   11  O   UNL     1     -11.319  13.787  64.379  1.00  0.00    -0.373 OA 
HETATM   12  OXT UNL     1     -13.123  14.142  65.620  1.00  0.00    -0.617 OA 
ENDROOT
BRANCH   4  13
HETATM   13  C   UNL     1     -12.258  14.139  68.340  1.00  0.00    -0.164 C  
BRANCH  13  14
HETATM   14  O   UNL     1     -12.551  14.079  69.745  1.00  0.00    -0.276 OA 
BRANCH  14  15
HETATM   15  C   UNL     1     -12.489  15.246  70.449  1.00  0.00    -0.381 C  
HETATM   16  C   UNL     1     -11.158  15.923  70.268  1.00  0.00    -0.381 C  
HETATM   17  O   UNL     1     -13.407  15.729  71.098  1.00  0.00    -0.564 OA 
ENDBRANCH  14  15
ENDBRANCH  13  14
ENDBRANCH   4  13
BRANCH   8  18
HETATM   18  N   UNL     1      -8.023  10.192  65.922  1.00  0.00    -0.128 N  
HETATM   19  C   UNL     1      -7.252  11.118  66.622  1.00  0.00    -0.144 C  
HETATM   20  H   UNL     1      -7.459   9.512  65.413  1.00  0.00     0.000 HD 
HETATM   21  O   UNL     1      -6.026  11.177  66.365  1.00  0.00    -0.128 OA 
BRANCH  19  22
HETATM   22  C   UNL     1      -7.758  11.994  67.767  1.00  0.00    -0.139 C  
BRANCH  22  23
HETATM   23  C   UNL     1      -7.872  13.461  67.638  1.00  0.00    -0.173 A  
HETATM   24  N   UNL     1      -8.718  14.102  66.724  1.00  0.00    -0.174 NA 
HETATM   25  H2  UNL     1      -9.836  17.153  66.757  1.00  0.00     0.000 HD 
HETATM   26  N   UNL     1      -9.714  16.201  66.412  1.00  0.00    -0.266 NA 
HETATM   27  C   UNL     1      -7.443  14.277  68.673  1.00  0.00    -0.127 A  
HETATM   28  S   UNL     1      -8.086  15.849  68.498  1.00  0.00    -0.167 SA 
HETATM   29  H1  UNL     1     -10.201  15.904  65.567  1.00  0.00     0.000 HD 
HETATM   30  C   UNL     1      -8.907  15.347  67.076  1.00  0.00    -0.228 A  
ENDBRANCH  22  23
BRANCH  22  31
HETATM   31  N   UNL     1      -7.875  11.663  69.017  1.00  0.00    -0.330 NA 
HETATM   32  H   UNL     1      -8.636  12.086  69.546  1.00  0.00     0.000 HD 
BRANCH  31  33
HETATM   33  O   UNL     1      -7.040  10.773  69.691  1.00  0.00    -0.129 OA 
HETATM   34  C   UNL     1      -7.597   9.723  70.448  1.00  0.00    -0.148 C  
ENDBRANCH  31  33
ENDBRANCH  22  31
ENDBRANCH  19  22
ENDBRANCH   8  18
TORSDOF 8
ENDMDL
MODEL       52
REMARK 921   NORMALIZED FREE ENERGY PREDICTED BY IDOCK:   -5.86 KCAL/MOL
REMARK 922        TOTAL FREE ENERGY PREDICTED BY IDOCK:   -9.76 KCAL/MOL
REMARK 923 INTER-LIGAND FREE ENERGY PREDICTED BY IDOCK:   -8.57 KCAL/MOL
REMARK 924 INTRA-LIGAND FREE ENERGY PREDICTED BY IDOCK:   -1.19 KCAL/MOL
REMARK 927      BINDING AFFINITY PREDICTED BY RF-SCORE:    0.00 PKD
ROOT
HETATM    1  C   UNL     1     -12.055  13.287  68.668  1.00  0.00    -0.222 C  
HETATM    2  S   UNL     1     -11.970  14.623  69.829  1.00  0.00    -0.339 SA 
HETATM    3  C   UNL     1     -11.248  15.981  68.859  1.00  0.00    -0.353 C  
HETATM    4  C   UNL     1     -10.936  15.741  67.409  1.00  0.00    -0.279 C  
HETATM    5  C   UNL     1     -11.162  12.093  67.240  1.00  0.00    -0.306 C  
HETATM    6  CA  UNL     1     -11.039  14.549  66.765  1.00  0.00    -0.325 C  
HETATM    7  N   UNL     1     -11.335  13.416  67.433  1.00  0.00    -0.295 N  
HETATM    8  CA  UNL     1     -11.404  11.842  68.762  1.00  0.00    -0.274 C  
HETATM    9  C   UNL     1     -10.797  14.494  65.289  1.00  0.00    -0.367 C  
HETATM   10  O   UNL     1     -10.676  11.456  66.334  1.00  0.00    -0.258 OA 
HETATM   11  O   UNL     1     -10.219  13.403  64.780  1.00  0.00    -0.360 OA 
HETATM   12  OXT UNL     1     -11.180  15.387  64.544  1.00  0.00    -0.373 OA 
ENDROOT
BRANCH   4  13
HETATM   13  C   UNL     1     -10.323  16.980  66.753  1.00  0.00    -0.302 C  
BRANCH  13  14
HETATM   14  O   UNL     1     -10.683  18.187  67.443  1.00  0.00    -0.403 OA 
BRANCH  14  15
HETATM   15  C   UNL     1      -9.672  19.031  67.799  1.00  0.00    -0.325 C  
HETATM   16  C   UNL     1      -9.750  20.328  67.041  1.00  0.00    -0.598 C  
HETATM   17  O   UNL     1      -8.838  18.806  68.665  1.00  0.00    -0.335 OA 
ENDBRANCH  14  15
ENDBRANCH  13  14
ENDBRANCH   4  13
BRANCH   8  18
HETATM   18  N   UNL     1     -10.149  11.318  69.452  1.00  0.00    -0.434 N  
HETATM   19  C   UNL     1      -9.509  10.082  69.498  1.00  0.00    -0.226 C  
HETATM   20  H   UNL     1      -9.672  12.032  70.002  1.00  0.00     0.000 HD 
HETATM   21  O   UNL     1      -8.613   9.915  70.360  1.00  0.00    -0.139 OA 
BRANCH  19  22
HETATM   22  C   UNL     1      -9.727   8.943  68.502  1.00  0.00    -0.161 C  
BRANCH  22  23
HETATM   23  C   UNL     1      -8.884   8.783  67.301  1.00  0.00    -0.132 A  
HETATM   24  N   UNL     1      -9.370   8.375  66.053  1.00  0.00    -0.202 NA 
HETATM   25  H2  UNL     1      -8.038   8.743  63.112  1.00  0.00     0.000 HD 
HETATM   26  N   UNL     1      -8.735   8.453  63.797  1.00  0.00    -0.398 NA 
HETATM   27  C   UNL     1      -7.643   9.401  67.244  1.00  0.00    -0.091 A  
HETATM   28  S   UNL     1      -7.079   9.459  65.634  1.00  0.00    -0.093 SA 
HETATM   29  H1  UNL     1      -9.589   7.992  63.485  1.00  0.00     0.000 HD 
HETATM   30  C   UNL     1      -8.518   8.683  65.110  1.00  0.00    -0.179 A  
ENDBRANCH  22  23
BRANCH  22  31
HETATM   31  N   UNL     1     -10.772   8.180  68.398  1.00  0.00    -0.415 NA 
HETATM   32  H   UNL     1     -11.318   8.244  67.540  1.00  0.00     0.000 HD 
BRANCH  31  33
HETATM   33  O   UNL     1     -11.205   7.277  69.369  1.00  0.00    -0.125 OA 
HETATM   34  C   UNL     1     -10.489   6.084  69.588  1.00  0.00    -0.261 C  
ENDBRANCH  31  33
ENDBRANCH  22  31
ENDBRANCH  19  22
ENDBRANCH   8  18
TORSDOF 8
ENDMDL
MODEL       53
REMARK 921   NORMALIZED FREE ENERGY PREDICTED BY IDOCK:   -5.86 KCAL/MOL
REMARK 922        TOTAL FREE ENERGY PREDICTED BY IDOCK:   -9.75 KCAL/MOL
REMARK 923 INTER-LIGAND FREE ENERGY PREDICTED BY IDOCK:   -8.52 KCAL/MOL
REMARK 924 INTRA-LIGAND FREE ENERGY PREDICTED BY IDOCK:   -1.23 KCAL/MOL
REMARK 927      BINDING AFFINITY PREDICTED BY RF-SCORE:    0.00 PKD
ROOT
HETATM    1  C   UNL     1     -11.414  10.776  68.291  1.00  0.00    -0.280 C  
HETATM    2  S   UNL     1     -10.012  10.300  67.316  1.00  0.00    -0.199 SA 
HETATM    3  C   UNL     1      -9.313   8.897  68.238  1.00  0.00    -0.143 C  
HETATM    4  C   UNL     1     -10.010   8.442  69.489  1.00  0.00    -0.190 C  
HETATM    5  C   UNL     1     -12.245  11.270  70.114  1.00  0.00    -0.330 C  
HETATM    6  CA  UNL     1     -11.071   9.058  70.073  1.00  0.00    -0.182 C  
HETATM    7  N   UNL     1     -11.530  10.241  69.617  1.00  0.00    -0.249 N  
HETATM    8  CA  UNL     1     -11.735  12.182  68.954  1.00  0.00    -0.327 C  
HETATM    9  C   UNL     1     -11.724   8.419  71.258  1.00  0.00    -0.285 C  
HETATM   10  O   UNL     1     -12.758  11.463  71.192  1.00  0.00    -0.392 OA 
HETATM   11  O   UNL     1     -12.217   9.210  72.215  1.00  0.00    -0.344 OA 
HETATM   12  OXT UNL     1     -11.877   7.206  71.328  1.00  0.00    -0.285 OA 
ENDROOT
BRANCH   4  13
HETATM   13  C   UNL     1      -9.280   7.266  70.143  1.00  0.00    -0.152 C  
BRANCH  13  14
HETATM   14  O   UNL     1      -9.057   6.191  69.217  1.00  0.00    -0.129 OA 
BRANCH  14  15
HETATM   15  C   UNL     1     -10.062   5.282  69.058  1.00  0.00    -0.202 C  
HETATM   16  C   UNL     1      -9.924   4.138  70.026  1.00  0.00    -0.137 C  
HETATM   17  O   UNL     1     -10.999   5.395  68.279  1.00  0.00    -0.006 OA 
ENDBRANCH  14  15
ENDBRANCH  13  14
ENDBRANCH   4  13
BRANCH   8  18
HETATM   18  N   UNL     1     -10.844  13.306  69.473  1.00  0.00    -0.447 N  
HETATM   19  C   UNL     1     -10.386  14.508  68.939  1.00  0.00    -0.237 C  
HETATM   20  H   UNL     1     -10.509  13.140  70.422  1.00  0.00     0.000 HD 
HETATM   21  O   UNL     1      -9.461  15.105  69.542  1.00  0.00    -0.212 OA 
BRANCH  19  22
HETATM   22  C   UNL     1     -11.000  15.226  67.738  1.00  0.00    -0.312 C  
BRANCH  22  23
HETATM   23  C   UNL     1     -11.193  14.551  66.439  1.00  0.00    -0.341 A  
HETATM   24  N   UNL     1     -10.147  14.044  65.658  1.00  0.00    -0.324 NA 
HETATM   25  H2  UNL     1     -10.249  11.824  63.287  1.00  0.00     0.000 HD 
HETATM   26  N   UNL     1      -9.827  12.498  63.924  1.00  0.00    -0.636 NA 
HETATM   27  C   UNL     1     -12.439  14.038  66.110  1.00  0.00    -0.430 A  
HETATM   28  S   UNL     1     -12.305  12.932  64.817  1.00  0.00    -0.455 SA 
HETATM   29  H1  UNL     1      -8.818  12.648  63.905  1.00  0.00     0.000 HD 
HETATM   30  C   UNL     1     -10.607  13.185  64.785  1.00  0.00    -0.372 A  
ENDBRANCH  22  23
BRANCH  22  31
HETATM   31  N   UNL     1     -11.161  16.505  67.585  1.00  0.00    -0.199 NA 
HETATM   32  H   UNL     1     -12.076  16.894  67.810  1.00  0.00     0.000 HD 
BRANCH  31  33
HETATM   33  O   UNL     1     -10.179  17.388  67.138  1.00  0.00    -0.305 OA 
HETATM   34  C   UNL     1     -10.383  18.778  67.247  1.00  0.00    -0.416 C  
ENDBRANCH  31  33
ENDBRANCH  22  31
ENDBRANCH  19  22
ENDBRANCH   8  18
TORSDOF 8
ENDMDL
MODEL       54
REMARK 921   NORMALIZED FREE ENERGY PREDICTED BY IDOCK:   -5.86 KCAL/MOL
REMARK 922        TOTAL FREE ENERGY PREDICTED BY IDOCK:   -9.75 KCAL/MOL
REMARK 923 INTER-LIGAND FREE ENERGY PREDICTED BY IDOCK:   -8.76 KCAL/MOL
REMARK 924 INTRA-LIGAND FREE ENERGY PREDICTED BY IDOCK:   -0.99 KCAL/MOL
REMARK 927      BINDING AFFINITY PREDICTED BY RF-SCORE:    0.00 PKD
ROOT
HETATM    1  C   UNL     1     -10.831  15.819  66.429  1.00  0.00    -0.226 C  
HETATM    2  S   UNL     1     -11.309  15.980  64.730  1.00  0.00    -0.166 SA 
HETATM    3  C   UNL     1     -11.675  14.271  64.229  1.00  0.00    -0.329 C  
HETATM    4  C   UNL     1     -11.552  13.180  65.256  1.00  0.00    -0.350 C  
HETATM    5  C   UNL     1      -9.697  14.909  67.893  1.00  0.00    -0.206 C  
HETATM    6  CA  UNL     1     -11.076  13.334  66.519  1.00  0.00    -0.294 C  
HETATM    7  N   UNL     1     -10.550  14.504  66.932  1.00  0.00    -0.276 N  
HETATM    8  CA  UNL     1      -9.473  16.250  67.127  1.00  0.00    -0.224 C  
HETATM    9  C   UNL     1     -11.119  12.171  67.461  1.00  0.00    -0.275 C  
HETATM   10  O   UNL     1      -9.109  14.314  68.768  1.00  0.00    -0.179 OA 
HETATM   11  O   UNL     1     -10.128  12.034  68.346  1.00  0.00    -0.204 OA 
HETATM   12  OXT UNL     1     -12.068  11.398  67.481  1.00  0.00    -0.592 OA 
ENDROOT
BRANCH   4  13
HETATM   13  C   UNL     1     -11.880  11.809  64.662  1.00  0.00    -0.124 C  
BRANCH  13  14
HETATM   14  O   UNL     1     -11.202  11.588  63.415  1.00  0.00    -0.387 OA 
BRANCH  14  15
HETATM   15  C   UNL     1     -10.037  10.879  63.452  1.00  0.00    -0.340 C  
HETATM   16  C   UNL     1      -9.762  10.350  64.833  1.00  0.00    -0.372 C  
HETATM   17  O   UNL     1      -9.326  10.639  62.486  1.00  0.00    -0.278 OA 
ENDBRANCH  14  15
ENDBRANCH  13  14
ENDBRANCH   4  13
BRANCH   8  18
HETATM   18  N   UNL     1      -8.042  16.372  66.613  1.00  0.00    -0.255 N  
HETATM   19  C   UNL     1      -7.121  17.415  66.540  1.00  0.00    -0.265 C  
HETATM   20  H   UNL     1      -7.679  15.495  66.241  1.00  0.00     0.000 HD 
HETATM   21  O   UNL     1      -6.096  17.246  65.836  1.00  0.00    -0.166 OA 
BRANCH  19  22
HETATM   22  C   UNL     1      -7.196  18.711  67.346  1.00  0.00    -0.206 C  
BRANCH  22  23
HETATM   23  C   UNL     1      -6.401  18.916  68.573  1.00  0.00    -0.228 A  
HETATM   24  N   UNL     1      -6.530  20.032  69.410  1.00  0.00    -0.334 NA 
HETATM   25  H2  UNL     1      -5.625  20.383  72.512  1.00  0.00     0.000 HD 
HETATM   26  N   UNL     1      -6.026  20.654  71.614  1.00  0.00    -0.673 NA 
HETATM   27  C   UNL     1      -5.769  17.837  69.171  1.00  0.00    -0.201 A  
HETATM   28  S   UNL     1      -5.321  18.220  70.773  1.00  0.00    -0.220 SA 
HETATM   29  H1  UNL     1      -6.435  21.581  71.502  1.00  0.00     0.000 HD 
HETATM   30  C   UNL     1      -6.010  19.781  70.584  1.00  0.00    -0.247 A  
ENDBRANCH  22  23
BRANCH  22  31
HETATM   31  N   UNL     1      -8.102  19.637  67.261  1.00  0.00    -0.273 NA 
HETATM   32  H   UNL     1      -8.265  20.212  68.087  1.00  0.00     0.000 HD 
BRANCH  31  33
HETATM   33  O   UNL     1      -8.871  19.905  66.129  1.00  0.00    -0.365 OA 
HETATM   34  C   UNL     1     -10.277  19.845  66.204  1.00  0.00    -0.503 C  
ENDBRANCH  31  33
ENDBRANCH  22  31
ENDBRANCH  19  22
ENDBRANCH   8  18
TORSDOF 8
ENDMDL
MODEL       55
REMARK 921   NORMALIZED FREE ENERGY PREDICTED BY IDOCK:   -5.83 KCAL/MOL
REMARK 922        TOTAL FREE ENERGY PREDICTED BY IDOCK:   -9.72 KCAL/MOL
REMARK 923 INTER-LIGAND FREE ENERGY PREDICTED BY IDOCK:   -8.52 KCAL/MOL
REMARK 924 INTRA-LIGAND FREE ENERGY PREDICTED BY IDOCK:   -1.20 KCAL/MOL
REMARK 927      BINDING AFFINITY PREDICTED BY RF-SCORE:    0.00 PKD
ROOT
HETATM    1  C   UNL     1      -9.115  10.501  68.824  1.00  0.00    -0.166 C  
HETATM    2  S   UNL     1      -8.216  10.018  67.374  1.00  0.00    -0.118 SA 
HETATM    3  C   UNL     1      -8.821  11.165  66.099  1.00  0.00    -0.190 C  
HETATM    4  C   UNL     1      -9.827  12.209  66.492  1.00  0.00    -0.232 C  
HETATM    5  C   UNL     1     -10.898  10.955  69.758  1.00  0.00    -0.187 C  
HETATM    6  CA  UNL     1     -10.425  12.313  67.708  1.00  0.00    -0.209 C  
HETATM    7  N   UNL     1     -10.238  11.379  68.662  1.00  0.00    -0.204 N  
HETATM    8  CA  UNL     1     -10.075   9.629  69.737  1.00  0.00    -0.233 C  
HETATM    9  C   UNL     1     -11.326  13.477  67.980  1.00  0.00    -0.285 C  
HETATM   10  O   UNL     1     -11.924  11.317  70.286  1.00  0.00    -0.325 OA 
HETATM   11  O   UNL     1     -12.391  13.286  68.763  1.00  0.00    -0.175 OA 
HETATM   12  OXT UNL     1     -11.066  14.599  67.564  1.00  0.00    -0.292 OA 
ENDROOT
BRANCH   4  13
HETATM   13  C   UNL     1     -10.237  13.074  65.298  1.00  0.00    -0.279 C  
BRANCH  13  14
HETATM   14  O   UNL     1     -11.000  12.330  64.335  1.00  0.00    -0.293 OA 
BRANCH  14  15
HETATM   15  C   UNL     1     -12.210  12.841  63.966  1.00  0.00    -0.441 C  
HETATM   16  C   UNL     1     -12.233  14.340  64.091  1.00  0.00    -0.410 C  
HETATM   17  O   UNL     1     -13.148  12.188  63.527  1.00  0.00    -0.785 OA 
ENDBRANCH  14  15
ENDBRANCH  13  14
ENDBRANCH   4  13
BRANCH   8  18
HETATM   18  N   UNL     1     -10.961   8.422  69.445  1.00  0.00    -0.431 N  
HETATM   19  C   UNL     1     -11.294   7.268  70.151  1.00  0.00    -0.207 C  
HETATM   20  H   UNL     1     -11.409   8.471  68.531  1.00  0.00     0.000 HD 
HETATM   21  O   UNL     1     -11.870   6.343  69.528  1.00  0.00    -0.274 OA 
BRANCH  19  22
HETATM   22  C   UNL     1     -11.122   7.078  71.657  1.00  0.00    -0.235 C  
BRANCH  22  23
HETATM   23  C   UNL     1     -10.558   5.840  72.230  1.00  0.00    -0.218 A  
HETATM   24  N   UNL     1     -11.198   5.069  73.209  1.00  0.00    -0.332 NA 
HETATM   25  H2  UNL     1     -10.695   1.965  74.028  1.00  0.00     0.000 HD 
HETATM   26  N   UNL     1     -11.126   2.888  74.066  1.00  0.00    -0.153 NA 
HETATM   27  C   UNL     1      -9.553   5.165  71.554  1.00  0.00    -0.156 A  
HETATM   28  S   UNL     1      -9.398   3.573  72.150  1.00  0.00    -0.127 SA 
HETATM   29  H1  UNL     1     -11.889   3.063  74.720  1.00  0.00     0.000 HD 
HETATM   30  C   UNL     1     -10.682   3.868  73.250  1.00  0.00    -0.199 A  
ENDBRANCH  22  23
BRANCH  22  31
HETATM   31  N   UNL     1     -11.664   7.782  72.604  1.00  0.00    -0.538 NA 
HETATM   32  H   UNL     1     -11.654   7.390  73.545  1.00  0.00     0.000 HD 
BRANCH  31  33
HETATM   33  O   UNL     1     -12.258   9.032  72.435  1.00  0.00    -0.337 OA 
HETATM   34  C   UNL     1     -13.652   9.127  72.252  1.00  0.00    -0.489 C  
ENDBRANCH  31  33
ENDBRANCH  22  31
ENDBRANCH  19  22
ENDBRANCH   8  18
TORSDOF 8
ENDMDL
MODEL       56
REMARK 921   NORMALIZED FREE ENERGY PREDICTED BY IDOCK:   -5.83 KCAL/MOL
REMARK 922        TOTAL FREE ENERGY PREDICTED BY IDOCK:   -9.71 KCAL/MOL
REMARK 923 INTER-LIGAND FREE ENERGY PREDICTED BY IDOCK:   -8.96 KCAL/MOL
REMARK 924 INTRA-LIGAND FREE ENERGY PREDICTED BY IDOCK:   -0.75 KCAL/MOL
REMARK 927      BINDING AFFINITY PREDICTED BY RF-SCORE:    0.00 PKD
ROOT
HETATM    1  C   UNL     1     -10.186  15.466  67.559  1.00  0.00    -0.244 C  
HETATM    2  S   UNL     1     -10.681  17.124  67.945  1.00  0.00    -0.306 SA 
HETATM    3  C   UNL     1      -9.139  17.906  68.510  1.00  0.00    -0.285 C  
HETATM    4  C   UNL     1      -7.877  17.091  68.502  1.00  0.00    -0.251 C  
HETATM    5  C   UNL     1      -9.225  13.716  68.079  1.00  0.00    -0.197 C  
HETATM    6  CA  UNL     1      -7.792  15.766  68.213  1.00  0.00    -0.129 C  
HETATM    7  N   UNL     1      -8.898  15.022  68.011  1.00  0.00    -0.162 N  
HETATM    8  CA  UNL     1     -10.736  14.100  68.147  1.00  0.00    -0.245 C  
HETATM    9  C   UNL     1      -6.444  15.119  68.140  1.00  0.00    -0.128 C  
HETATM   10  O   UNL     1      -8.581  12.724  68.337  1.00  0.00    -0.177 OA 
HETATM   11  O   UNL     1      -6.324  13.853  68.549  1.00  0.00    -0.080 OA 
HETATM   12  OXT UNL     1      -5.482  15.699  67.651  1.00  0.00    -0.185 OA 
ENDROOT
BRANCH   4  13
HETATM   13  C   UNL     1      -6.684  17.896  69.022  1.00  0.00    -0.248 C  
BRANCH  13  14
HETATM   14  O   UNL     1      -6.883  19.310  68.867  1.00  0.00    -0.300 OA 
BRANCH  14  15
HETATM   15  C   UNL     1      -6.184  20.136  69.699  1.00  0.00    -0.342 C  
HETATM   16  C   UNL     1      -5.174  20.952  68.939  1.00  0.00    -0.374 C  
HETATM   17  O   UNL     1      -6.381  20.258  70.900  1.00  0.00    -0.495 OA 
ENDBRANCH  14  15
ENDBRANCH  13  14
ENDBRANCH   4  13
BRANCH   8  18
HETATM   18  N   UNL     1     -11.350  13.728  69.493  1.00  0.00    -0.376 N  
HETATM   19  C   UNL     1     -11.963  12.584  70.000  1.00  0.00    -0.299 C  
HETATM   20  H   UNL     1     -11.301  14.486  70.174  1.00  0.00     0.000 HD 
HETATM   21  O   UNL     1     -12.582  12.681  71.087  1.00  0.00    -0.366 OA 
BRANCH  19  22
HETATM   22  C   UNL     1     -11.844  11.185  69.399  1.00  0.00    -0.345 C  
BRANCH  22  23
HETATM   23  C   UNL     1     -11.229  10.065  70.139  1.00  0.00    -0.304 A  
HETATM   24  N   UNL     1      -9.850   9.915  70.327  1.00  0.00    -0.234 NA 
HETATM   25  H2  UNL     1      -8.262   8.145  72.543  1.00  0.00     0.000 HD 
HETATM   26  N   UNL     1      -8.374   8.780  71.752  1.00  0.00    -0.319 NA 
HETATM   27  C   UNL     1     -11.999   9.318  71.018  1.00  0.00    -0.300 A  
HETATM   28  S   UNL     1     -11.000   8.417  72.069  1.00  0.00    -0.348 SA 
HETATM   29  H1  UNL     1      -7.549   9.177  71.302  1.00  0.00     0.000 HD 
HETATM   30  C   UNL     1      -9.612   9.087  71.310  1.00  0.00    -0.291 A  
ENDBRANCH  22  23
BRANCH  22  31
HETATM   31  N   UNL     1     -11.977  10.852  68.151  1.00  0.00    -0.796 NA 
HETATM   32  H   UNL     1     -12.015   9.858  67.931  1.00  0.00     0.000 HD 
BRANCH  31  33
HETATM   33  O   UNL     1     -12.072  11.750  67.088  1.00  0.00    -0.592 OA 
HETATM   34  C   UNL     1     -11.224  11.608  65.971  1.00  0.00    -0.240 C  
ENDBRANCH  31  33
ENDBRANCH  22  31
ENDBRANCH  19  22
ENDBRANCH   8  18
TORSDOF 8
ENDMDL
MODEL       57
REMARK 921   NORMALIZED FREE ENERGY PREDICTED BY IDOCK:   -5.81 KCAL/MOL
REMARK 922        TOTAL FREE ENERGY PREDICTED BY IDOCK:   -9.68 KCAL/MOL
REMARK 923 INTER-LIGAND FREE ENERGY PREDICTED BY IDOCK:   -8.37 KCAL/MOL
REMARK 924 INTRA-LIGAND FREE ENERGY PREDICTED BY IDOCK:   -1.32 KCAL/MOL
REMARK 927      BINDING AFFINITY PREDICTED BY RF-SCORE:    0.00 PKD
ROOT
HETATM    1  C   UNL     1     -10.603  16.653  69.613  1.00  0.00    -0.274 C  
HETATM    2  S   UNL     1     -11.910  15.483  69.359  1.00  0.00    -0.356 SA 
HETATM    3  C   UNL     1     -11.039  13.989  68.796  1.00  0.00    -0.264 C  
HETATM    4  C   UNL     1      -9.540  14.025  68.704  1.00  0.00    -0.159 C  
HETATM    5  C   UNL     1      -8.910  17.621  68.939  1.00  0.00    -0.124 C  
HETATM    6  CA  UNL     1      -8.761  15.122  68.898  1.00  0.00    -0.205 C  
HETATM    7  N   UNL     1      -9.305  16.341  69.086  1.00  0.00    -0.251 N  
HETATM    8  CA  UNL     1     -10.402  18.080  68.950  1.00  0.00    -0.234 C  
HETATM    9  C   UNL     1      -7.272  14.972  68.879  1.00  0.00    -0.127 C  
HETATM   10  O   UNL     1      -7.863  18.119  68.592  1.00  0.00    -0.299 OA 
HETATM   11  O   UNL     1      -6.539  15.971  68.380  1.00  0.00    -0.115 OA 
HETATM   12  OXT UNL     1      -6.721  13.996  69.373  1.00  0.00    -0.115 OA 
ENDROOT
BRANCH   4  13
HETATM   13  C   UNL     1      -8.975  12.695  68.200  1.00  0.00    -0.199 C  
BRANCH  13  14
HETATM   14  O   UNL     1      -9.733  11.574  68.682  1.00  0.00    -0.197 OA 
BRANCH  14  15
HETATM   15  C   UNL     1     -10.482  10.886  67.772  1.00  0.00    -0.203 C  
HETATM   16  C   UNL     1      -9.619  10.273  66.704  1.00  0.00    -0.220 C  
HETATM   17  O   UNL     1     -11.693  10.725  67.833  1.00  0.00    -0.543 OA 
ENDBRANCH  14  15
ENDBRANCH  13  14
ENDBRANCH   4  13
BRANCH   8  18
HETATM   18  N   UNL     1     -10.820  18.662  67.604  1.00  0.00    -0.376 N  
HETATM   19  C   UNL     1     -10.416  18.454  66.287  1.00  0.00    -0.393 C  
HETATM   20  H   UNL     1     -11.561  19.358  67.686  1.00  0.00     0.000 HD 
HETATM   21  O   UNL     1     -10.799  19.274  65.418  1.00  0.00    -0.491 OA 
BRANCH  19  22
HETATM   22  C   UNL     1      -9.639  17.237  65.789  1.00  0.00     0.066 C  
BRANCH  22  23
HETATM   23  C   UNL     1     -10.303  15.951  65.495  1.00  0.00    -0.400 A  
HETATM   24  N   UNL     1     -11.542  15.840  64.852  1.00  0.00    -0.168 NA 
HETATM   25  H2  UNL     1     -12.836  13.282  63.321  1.00  0.00     0.000 HD 
HETATM   26  N   UNL     1     -12.785  14.236  63.678  1.00  0.00    -0.804 NA 
HETATM   27  C   UNL     1      -9.560  14.780  65.488  1.00  0.00    -0.124 A  
HETATM   28  S   UNL     1     -10.415  13.537  64.690  1.00  0.00    -0.383 SA 
HETATM   29  H1  UNL     1     -13.551  14.884  63.497  1.00  0.00     0.000 HD 
HETATM   30  C   UNL     1     -11.705  14.629  64.386  1.00  0.00    -0.346 A  
ENDBRANCH  22  23
BRANCH  22  31
HETATM   31  N   UNL     1      -8.353  17.058  65.824  1.00  0.00    -0.435 NA 
HETATM   32  H   UNL     1      -8.014  16.129  66.073  1.00  0.00     0.000 HD 
BRANCH  31  33
HETATM   33  O   UNL     1      -7.400  18.037  65.547  1.00  0.00    -0.539 OA 
HETATM   34  C   UNL     1      -6.029  17.718  65.602  1.00  0.00    -0.089 C  
ENDBRANCH  31  33
ENDBRANCH  22  31
ENDBRANCH  19  22
ENDBRANCH   8  18
TORSDOF 8
ENDMDL
MODEL       58
REMARK 921   NORMALIZED FREE ENERGY PREDICTED BY IDOCK:   -5.81 KCAL/MOL
REMARK 922        TOTAL FREE ENERGY PREDICTED BY IDOCK:   -9.68 KCAL/MOL
REMARK 923 INTER-LIGAND FREE ENERGY PREDICTED BY IDOCK:   -8.47 KCAL/MOL
REMARK 924 INTRA-LIGAND FREE ENERGY PREDICTED BY IDOCK:   -1.21 KCAL/MOL
REMARK 927      BINDING AFFINITY PREDICTED BY RF-SCORE:    0.00 PKD
ROOT
HETATM    1  C   UNL     1     -10.503  10.691  69.699  1.00  0.00    -0.179 C  
HETATM    2  S   UNL     1     -12.043  10.720  70.576  1.00  0.00    -0.395 SA 
HETATM    3  C   UNL     1     -12.406   8.960  70.853  1.00  0.00    -0.090 C  
HETATM    4  C   UNL     1     -11.414   7.939  70.371  1.00  0.00    -0.154 C  
HETATM    5  C   UNL     1      -9.331   9.976  68.158  1.00  0.00    -0.131 C  
HETATM    6  CA  UNL     1     -10.303   8.201  69.634  1.00  0.00    -0.221 C  
HETATM    7  N   UNL     1     -10.053   9.439  69.162  1.00  0.00    -0.188 N  
HETATM    8  CA  UNL     1     -10.157  11.295  68.273  1.00  0.00    -0.188 C  
HETATM    9  C   UNL     1      -9.354   7.086  69.324  1.00  0.00    -0.145 C  
HETATM   10  O   UNL     1      -8.608   9.488  67.320  1.00  0.00    -0.127 OA 
HETATM   11  O   UNL     1      -8.726   7.097  68.144  1.00  0.00    -0.128 OA 
HETATM   12  OXT UNL     1      -9.092   6.220  70.148  1.00  0.00    -0.150 OA 
ENDROOT
BRANCH   4  13
HETATM   13  C   UNL     1     -11.883   6.514  70.672  1.00  0.00    -0.335 C  
BRANCH  13  14
HETATM   14  O   UNL     1     -12.117   6.310  72.075  1.00  0.00    -0.337 OA 
BRANCH  14  15
HETATM   15  C   UNL     1     -11.032   6.042  72.858  1.00  0.00    -0.269 C  
HETATM   16  C   UNL     1     -10.627   4.597  72.756  1.00  0.00    -0.273 C  
HETATM   17  O   UNL     1     -10.415   6.869  73.516  1.00  0.00    -0.289 OA 
ENDBRANCH  14  15
ENDBRANCH  13  14
ENDBRANCH   4  13
BRANCH   8  18
HETATM   18  N   UNL     1     -10.998  11.542  67.025  1.00  0.00    -0.279 N  
HETATM   19  C   UNL     1     -11.755  12.614  66.559  1.00  0.00    -0.400 C  
HETATM   20  H   UNL     1     -11.008  10.744  66.390  1.00  0.00     0.000 HD 
HETATM   21  O   UNL     1     -12.530  12.412  65.593  1.00  0.00    -0.640 OA 
BRANCH  19  22
HETATM   22  C   UNL     1     -11.632  14.055  67.052  1.00  0.00    -0.371 C  
BRANCH  22  23
HETATM   23  C   UNL     1     -10.513  14.929  66.645  1.00  0.00    -0.292 A  
HETATM   24  N   UNL     1     -10.658  16.280  66.309  1.00  0.00    -0.288 NA 
HETATM   25  H2  UNL     1      -8.409  18.625  66.225  1.00  0.00     0.000 HD 
HETATM   26  N   UNL     1      -9.336  18.209  66.138  1.00  0.00    -0.505 NA 
HETATM   27  C   UNL     1      -9.210  14.563  66.949  1.00  0.00    -0.250 A  
HETATM   28  S   UNL     1      -8.165  15.904  66.802  1.00  0.00    -0.282 SA 
HETATM   29  H1  UNL     1     -10.130  18.795  65.878  1.00  0.00     0.000 HD 
HETATM   30  C   UNL     1      -9.502  16.889  66.366  1.00  0.00    -0.283 A  
ENDBRANCH  22  23
BRANCH  22  31
HETATM   31  N   UNL     1     -12.263  14.602  68.046  1.00  0.00    -0.601 NA 
HETATM   32  H   UNL     1     -12.902  15.367  67.833  1.00  0.00     0.000 HD 
BRANCH  31  33
HETATM   33  O   UNL     1     -12.136  14.223  69.382  1.00  0.00    -0.316 OA 
HETATM   34  C   UNL     1     -12.490  15.125  70.405  1.00  0.00    -0.368 C  
ENDBRANCH  31  33
ENDBRANCH  22  31
ENDBRANCH  19  22
ENDBRANCH   8  18
TORSDOF 8
ENDMDL
MODEL       59
REMARK 921   NORMALIZED FREE ENERGY PREDICTED BY IDOCK:   -5.80 KCAL/MOL
REMARK 922        TOTAL FREE ENERGY PREDICTED BY IDOCK:   -9.67 KCAL/MOL
REMARK 923 INTER-LIGAND FREE ENERGY PREDICTED BY IDOCK:   -8.62 KCAL/MOL
REMARK 924 INTRA-LIGAND FREE ENERGY PREDICTED BY IDOCK:   -1.05 KCAL/MOL
REMARK 927      BINDING AFFINITY PREDICTED BY RF-SCORE:    0.00 PKD
ROOT
HETATM    1  C   UNL     1     -12.534  11.965  70.107  1.00  0.00    -0.077 C  
HETATM    2  S   UNL     1     -12.431  13.275  71.298  1.00  0.00    -0.159 SA 
HETATM    3  C   UNL     1     -12.010  14.730  70.292  1.00  0.00    -0.310 C  
HETATM    4  C   UNL     1     -11.884  14.561  68.804  1.00  0.00    -0.350 C  
HETATM    5  C   UNL     1     -11.727  10.917  68.523  1.00  0.00    -0.237 C  
HETATM    6  CA  UNL     1     -11.945  13.381  68.133  1.00  0.00    -0.321 C  
HETATM    7  N   UNL     1     -12.016  12.206  68.790  1.00  0.00    -0.288 N  
HETATM    8  CA  UNL     1     -11.721  10.603  70.052  1.00  0.00    -0.324 C  
HETATM    9  C   UNL     1     -11.911  13.389  66.637  1.00  0.00    -0.399 C  
HETATM   10  O   UNL     1     -11.308  10.361  67.534  1.00  0.00    -0.374 OA 
HETATM   11  O   UNL     1     -11.295  12.384  66.010  1.00  0.00    -0.317 OA 
HETATM   12  OXT UNL     1     -12.493  14.250  65.988  1.00  0.00    -0.442 OA 
ENDROOT
BRANCH   4  13
HETATM   13  C   UNL     1     -11.510  15.877  68.118  1.00  0.00    -0.281 C  
BRANCH  13  14
HETATM   14  O   UNL     1     -10.101  15.963  67.853  1.00  0.00    -0.230 OA 
BRANCH  14  15
HETATM   15  C   UNL     1      -9.394  16.917  68.525  1.00  0.00    -0.259 C  
HETATM   16  C   UNL     1     -10.215  18.160  68.736  1.00  0.00    -0.353 C  
HETATM   17  O   UNL     1      -8.260  16.778  68.963  1.00  0.00    -0.238 OA 
ENDBRANCH  14  15
ENDBRANCH  13  14
ENDBRANCH   4  13
BRANCH   8  18
HETATM   18  N   UNL     1     -10.331  10.211  70.540  1.00  0.00    -0.407 N  
HETATM   19  C   UNL     1      -9.768   9.033  71.026  1.00  0.00    -0.278 C  
HETATM   20  H   UNL     1      -9.665  10.982  70.502  1.00  0.00     0.000 HD 
HETATM   21  O   UNL     1      -8.641   9.101  71.573  1.00  0.00    -0.339 OA 
BRANCH  19  22
HETATM   22  C   UNL     1     -10.359   7.636  70.842  1.00  0.00    -0.201 C  
BRANCH  22  23
HETATM   23  C   UNL     1     -10.076   6.818  69.646  1.00  0.00    -0.183 A  
HETATM   24  N   UNL     1     -11.055   6.392  68.741  1.00  0.00    -0.334 NA 
HETATM   25  H2  UNL     1     -10.709   5.376  65.673  1.00  0.00     0.000 HD 
HETATM   26  N   UNL     1     -11.202   5.618  66.532  1.00  0.00    -0.665 NA 
HETATM   27  C   UNL     1      -8.784   6.757  69.145  1.00  0.00    -0.131 A  
HETATM   28  S   UNL     1      -8.792   6.156  67.548  1.00  0.00    -0.104 SA 
HETATM   29  H1  UNL     1     -12.218   5.544  66.569  1.00  0.00     0.000 HD 
HETATM   30  C   UNL     1     -10.504   6.031  67.611  1.00  0.00    -0.235 A  
ENDBRANCH  22  23
BRANCH  22  31
HETATM   31  N   UNL     1     -11.347   7.109  71.498  1.00  0.00    -0.248 NA 
HETATM   32  H   UNL     1     -12.264   7.114  71.052  1.00  0.00     0.000 HD 
BRANCH  31  33
HETATM   33  O   UNL     1     -11.253   6.536  72.766  1.00  0.00    -0.257 OA 
HETATM   34  C   UNL     1     -11.334   5.137  72.912  1.00  0.00    -0.282 C  
ENDBRANCH  31  33
ENDBRANCH  22  31
ENDBRANCH  19  22
ENDBRANCH   8  18
TORSDOF 8
ENDMDL
MODEL       60
REMARK 921   NORMALIZED FREE ENERGY PREDICTED BY IDOCK:   -5.77 KCAL/MOL
REMARK 922        TOTAL FREE ENERGY PREDICTED BY IDOCK:   -9.62 KCAL/MOL
REMARK 923 INTER-LIGAND FREE ENERGY PREDICTED BY IDOCK:   -8.94 KCAL/MOL
REMARK 924 INTRA-LIGAND FREE ENERGY PREDICTED BY IDOCK:   -0.68 KCAL/MOL
REMARK 927      BINDING AFFINITY PREDICTED BY RF-SCORE:    0.00 PKD
ROOT
HETATM    1  C   UNL     1      -9.715  13.788  66.558  1.00  0.00    -0.293 C  
HETATM    2  S   UNL     1     -10.870  14.860  65.746  1.00  0.00    -0.355 SA 
HETATM    3  C   UNL     1     -10.008  16.461  65.709  1.00  0.00    -0.302 C  
HETATM    4  C   UNL     1      -8.620  16.542  66.277  1.00  0.00    -0.367 C  
HETATM    5  C   UNL     1      -8.437  13.391  68.129  1.00  0.00    -0.172 C  
HETATM    6  CA  UNL     1      -7.973  15.541  66.931  1.00  0.00    -0.229 C  
HETATM    7  N   UNL     1      -8.597  14.384  67.232  1.00  0.00    -0.204 N  
HETATM    8  CA  UNL     1      -9.909  12.933  67.881  1.00  0.00    -0.227 C  
HETATM    9  C   UNL     1      -6.548  15.740  67.343  1.00  0.00    -0.180 C  
HETATM   10  O   UNL     1      -7.614  13.195  68.994  1.00  0.00    -0.014 OA 
HETATM   11  O   UNL     1      -6.133  15.186  68.485  1.00  0.00    -0.088 OA 
HETATM   12  OXT UNL     1      -5.751  16.331  66.625  1.00  0.00    -0.288 OA 
ENDROOT
BRANCH   4  13
HETATM   13  C   UNL     1      -8.053  17.960  66.179  1.00  0.00    -0.173 C  
BRANCH  13  14
HETATM   14  O   UNL     1      -8.358  18.741  67.346  1.00  0.00    -0.261 OA 
BRANCH  14  15
HETATM   15  C   UNL     1      -8.600  20.071  67.163  1.00  0.00    -0.335 C  
HETATM   16  C   UNL     1     -10.048  20.324  66.840  1.00  0.00    -0.565 C  
HETATM   17  O   UNL     1      -7.775  20.964  67.301  1.00  0.00    -0.344 OA 
ENDBRANCH  14  15
ENDBRANCH  13  14
ENDBRANCH   4  13
BRANCH   8  18
HETATM   18  N   UNL     1     -10.776  13.132  69.120  1.00  0.00    -0.436 N  
HETATM   19  C   UNL     1     -11.687  12.333  69.806  1.00  0.00    -0.298 C  
HETATM   20  H   UNL     1     -10.663  14.054  69.539  1.00  0.00     0.000 HD 
HETATM   21  O   UNL     1     -12.421  12.881  70.664  1.00  0.00    -0.323 OA 
BRANCH  19  22
HETATM   22  C   UNL     1     -11.788  10.813  69.686  1.00  0.00    -0.320 C  
BRANCH  22  23
HETATM   23  C   UNL     1     -12.144   9.959  70.837  1.00  0.00    -0.341 A  
HETATM   24  N   UNL     1     -13.394   9.351  71.002  1.00  0.00    -0.201 NA 
HETATM   25  H2  UNL     1     -14.211   6.815  72.864  1.00  0.00     0.000 HD 
HETATM   26  N   UNL     1     -14.350   7.576  72.199  1.00  0.00    -0.623 NA 
HETATM   27  C   UNL     1     -11.140   9.399  71.613  1.00  0.00    -0.339 A  
HETATM   28  S   UNL     1     -11.762   8.121  72.558  1.00  0.00    -0.348 SA 
HETATM   29  H1  UNL     1     -15.272   7.726  71.790  1.00  0.00     0.000 HD 
HETATM   30  C   UNL     1     -13.314   8.375  71.869  1.00  0.00    -0.357 A  
ENDBRANCH  22  23
BRANCH  22  31
HETATM   31  N   UNL     1     -11.332  10.069  68.724  1.00  0.00    -0.479 NA 
HETATM   32  H   UNL     1     -10.876   9.195  68.982  1.00  0.00     0.000 HD 
BRANCH  31  33
HETATM   33  O   UNL     1     -11.418  10.374  67.366  1.00  0.00    -0.354 OA 
HETATM   34  C   UNL     1     -10.526   9.775  66.455  1.00  0.00    -0.120 C  
ENDBRANCH  31  33
ENDBRANCH  22  31
ENDBRANCH  19  22
ENDBRANCH   8  18
TORSDOF 8
ENDMDL
MODEL       61
REMARK 921   NORMALIZED FREE ENERGY PREDICTED BY IDOCK:   -5.76 KCAL/MOL
REMARK 922        TOTAL FREE ENERGY PREDICTED BY IDOCK:   -9.61 KCAL/MOL
REMARK 923 INTER-LIGAND FREE ENERGY PREDICTED BY IDOCK:   -8.58 KCAL/MOL
REMARK 924 INTRA-LIGAND FREE ENERGY PREDICTED BY IDOCK:   -1.03 KCAL/MOL
REMARK 927      BINDING AFFINITY PREDICTED BY RF-SCORE:    0.00 PKD
ROOT
HETATM    1  C   UNL     1      -9.155  10.856  67.979  1.00  0.00    -0.152 C  
HETATM    2  S   UNL     1      -8.795  11.297  66.300  1.00  0.00    -0.188 SA 
HETATM    3  C   UNL     1      -9.863  12.739  66.003  1.00  0.00    -0.255 C  
HETATM    4  C   UNL     1     -10.719  13.242  67.131  1.00  0.00    -0.264 C  
HETATM    5  C   UNL     1     -10.520  10.434  69.468  1.00  0.00    -0.247 C  
HETATM    6  CA  UNL     1     -10.860  12.646  68.344  1.00  0.00    -0.245 C  
HETATM    7  N   UNL     1     -10.306  11.444  68.602  1.00  0.00    -0.198 N  
HETATM    8  CA  UNL     1      -9.691   9.478  68.553  1.00  0.00    -0.151 C  
HETATM    9  C   UNL     1     -11.665  13.330  69.404  1.00  0.00    -0.325 C  
HETATM   10  O   UNL     1     -11.314  10.282  70.367  1.00  0.00    -0.287 OA 
HETATM   11  O   UNL     1     -12.379  12.577  70.245  1.00  0.00    -0.277 OA 
HETATM   12  OXT UNL     1     -11.622  14.545  69.557  1.00  0.00    -0.272 OA 
ENDROOT
BRANCH   4  13
HETATM   13  C   UNL     1     -11.562  14.446  66.704  1.00  0.00    -0.384 C  
BRANCH  13  14
HETATM   14  O   UNL     1     -10.830  15.337  65.847  1.00  0.00    -0.328 OA 
BRANCH  14  15
HETATM   15  C   UNL     1     -11.438  15.736  64.693  1.00  0.00    -0.282 C  
HETATM   16  C   UNL     1     -12.305  14.646  64.126  1.00  0.00    -0.294 C  
HETATM   17  O   UNL     1     -11.352  16.853  64.200  1.00  0.00    -1.208 OA 
ENDBRANCH  14  15
ENDBRANCH  13  14
ENDBRANCH   4  13
BRANCH   8  18
HETATM   18  N   UNL     1     -10.563   8.379  67.953  1.00  0.00    -0.415 N  
HETATM   19  C   UNL     1     -10.585   6.990  68.058  1.00  0.00    -0.207 C  
HETATM   20  H   UNL     1     -11.292   8.742  67.339  1.00  0.00     0.000 HD 
HETATM   21  O   UNL     1     -11.289   6.350  67.240  1.00  0.00    -0.295 OA 
BRANCH  19  22
HETATM   22  C   UNL     1      -9.913   6.182  69.167  1.00  0.00    -0.154 C  
BRANCH  22  23
HETATM   23  C   UNL     1     -10.303   6.324  70.584  1.00  0.00    -0.203 A  
HETATM   24  N   UNL     1     -10.976   7.438  71.102  1.00  0.00    -0.243 NA 
HETATM   25  H2  UNL     1     -12.694   7.701  73.848  1.00  0.00     0.000 HD 
HETATM   26  N   UNL     1     -12.275   8.005  72.969  1.00  0.00    -0.645 NA 
HETATM   27  C   UNL     1     -10.372   5.200  71.394  1.00  0.00    -0.203 A  
HETATM   28  S   UNL     1     -11.266   5.539  72.808  1.00  0.00    -0.295 SA 
HETATM   29  H1  UNL     1     -12.428   8.958  72.640  1.00  0.00     0.000 HD 
HETATM   30  C   UNL     1     -11.523   7.143  72.253  1.00  0.00    -0.271 A  
ENDBRANCH  22  23
BRANCH  22  31
HETATM   31  N   UNL     1      -8.796   5.524  69.093  1.00  0.00    -0.102 NA 
HETATM   32  H   UNL     1      -8.000   5.888  69.616  1.00  0.00     0.000 HD 
BRANCH  31  33
HETATM   33  O   UNL     1      -8.601   4.358  68.354  1.00  0.00    -0.092 OA 
HETATM   34  C   UNL     1      -8.031   4.430  67.067  1.00  0.00    -0.101 C  
ENDBRANCH  31  33
ENDBRANCH  22  31
ENDBRANCH  19  22
ENDBRANCH   8  18
TORSDOF 8
ENDMDL
MODEL       62
REMARK 921   NORMALIZED FREE ENERGY PREDICTED BY IDOCK:   -5.73 KCAL/MOL
REMARK 922        TOTAL FREE ENERGY PREDICTED BY IDOCK:   -9.57 KCAL/MOL
REMARK 923 INTER-LIGAND FREE ENERGY PREDICTED BY IDOCK:   -8.45 KCAL/MOL
REMARK 924 INTRA-LIGAND FREE ENERGY PREDICTED BY IDOCK:   -1.12 KCAL/MOL
REMARK 927      BINDING AFFINITY PREDICTED BY RF-SCORE:    0.00 PKD
ROOT
HETATM    1  C   UNL     1     -10.806  15.624  67.163  1.00  0.00    -0.297 C  
HETATM    2  S   UNL     1      -9.691  14.823  68.284  1.00  0.00    -0.224 SA 
HETATM    3  C   UNL     1      -8.363  16.045  68.505  1.00  0.00    -0.191 C  
HETATM    4  C   UNL     1      -8.480  17.367  67.801  1.00  0.00    -0.223 C  
HETATM    5  C   UNL     1     -11.152  16.650  65.406  1.00  0.00     0.015 C  
HETATM    6  CA  UNL     1      -9.446  17.705  66.907  1.00  0.00    -0.276 C  
HETATM    7  N   UNL     1     -10.351  16.800  66.480  1.00  0.00    -0.310 N  
HETATM    8  CA  UNL     1     -11.311  15.134  65.741  1.00  0.00    -0.238 C  
HETATM    9  C   UNL     1      -9.490  19.102  66.373  1.00  0.00    -0.354 C  
HETATM   10  O   UNL     1     -11.347  17.337  64.430  1.00  0.00    -1.052 OA 
HETATM   11  O   UNL     1      -9.881  19.286  65.108  1.00  0.00     0.351 OA 
HETATM   12  OXT UNL     1      -9.249  20.068  67.085  1.00  0.00    -0.332 OA 
ENDROOT
BRANCH   4  13
HETATM   13  C   UNL     1      -7.273  18.265  68.084  1.00  0.00    -0.249 C  
BRANCH  13  14
HETATM   14  O   UNL     1      -7.380  18.921  69.358  1.00  0.00    -0.195 OA 
BRANCH  14  15
HETATM   15  C   UNL     1      -6.509  19.939  69.613  1.00  0.00    -0.353 C  
HETATM   16  C   UNL     1      -5.948  20.512  68.339  1.00  0.00    -0.345 C  
HETATM   17  O   UNL     1      -6.251  20.387  70.722  1.00  0.00    -0.533 OA 
ENDBRANCH  14  15
ENDBRANCH  13  14
ENDBRANCH   4  13
BRANCH   8  18
HETATM   18  N   UNL     1     -10.679  14.253  64.668  1.00  0.00    -0.568 N  
HETATM   19  C   UNL     1     -10.178  12.953  64.649  1.00  0.00    -0.298 C  
HETATM   20  H   UNL     1     -10.608  14.718  63.764  1.00  0.00     0.000 HD 
HETATM   21  O   UNL     1      -9.500  12.599  63.655  1.00  0.00     0.026 OA 
BRANCH  19  22
HETATM   22  C   UNL     1     -10.486  11.877  65.690  1.00  0.00    -0.262 C  
BRANCH  22  23
HETATM   23  C   UNL     1      -9.612  10.703  65.883  1.00  0.00    -0.205 A  
HETATM   24  N   UNL     1      -9.798   9.475  65.235  1.00  0.00    -0.222 NA 
HETATM   25  H2  UNL     1      -7.671   7.065  64.760  1.00  0.00     0.000 HD 
HETATM   26  N   UNL     1      -8.564   7.553  64.705  1.00  0.00    -0.367 NA 
HETATM   27  C   UNL     1      -8.342  10.871  66.412  1.00  0.00    -0.162 A  
HETATM   28  S   UNL     1      -7.383   9.491  66.112  1.00  0.00    -0.095 SA 
HETATM   29  H1  UNL     1      -9.347   7.122  64.213  1.00  0.00     0.000 HD 
HETATM   30  C   UNL     1      -8.701   8.765  65.284  1.00  0.00    -0.182 A  
ENDBRANCH  22  23
BRANCH  22  31
HETATM   31  N   UNL     1     -11.611  11.682  66.308  1.00  0.00    -0.414 NA 
HETATM   32  H   UNL     1     -12.453  12.071  65.886  1.00  0.00     0.000 HD 
BRANCH  31  33
HETATM   33  O   UNL     1     -11.756  10.981  67.505  1.00  0.00    -0.565 OA 
HETATM   34  C   UNL     1     -11.753  11.676  68.731  1.00  0.00    -0.330 C  
ENDBRANCH  31  33
ENDBRANCH  22  31
ENDBRANCH  19  22
ENDBRANCH   8  18
TORSDOF 8
ENDMDL
MODEL       63
REMARK 921   NORMALIZED FREE ENERGY PREDICTED BY IDOCK:   -5.73 KCAL/MOL
REMARK 922        TOTAL FREE ENERGY PREDICTED BY IDOCK:   -9.57 KCAL/MOL
REMARK 923 INTER-LIGAND FREE ENERGY PREDICTED BY IDOCK:   -8.15 KCAL/MOL
REMARK 924 INTRA-LIGAND FREE ENERGY PREDICTED BY IDOCK:   -1.42 KCAL/MOL
REMARK 927      BINDING AFFINITY PREDICTED BY RF-SCORE:    0.00 PKD
ROOT
HETATM    1  C   UNL     1     -10.442  12.412  65.483  1.00  0.00    -0.275 C  
HETATM    2  S   UNL     1     -12.153  12.849  65.638  1.00  0.00    -0.456 SA 
HETATM    3  C   UNL     1     -12.213  13.775  67.202  1.00  0.00    -0.313 C  
HETATM    4  C   UNL     1     -10.932  13.998  67.954  1.00  0.00    -0.261 C  
HETATM    5  C   UNL     1      -8.718  11.610  66.284  1.00  0.00    -0.136 C  
HETATM    6  CA  UNL     1      -9.723  13.468  67.631  1.00  0.00    -0.229 C  
HETATM    7  N   UNL     1      -9.596  12.572  66.631  1.00  0.00    -0.234 N  
HETATM    8  CA  UNL     1      -9.791  10.971  65.348  1.00  0.00    -0.251 C  
HETATM    9  C   UNL     1      -8.515  13.872  68.417  1.00  0.00    -0.159 C  
HETATM   10  O   UNL     1      -7.681  11.233  66.780  1.00  0.00    -0.145 OA 
HETATM   11  O   UNL     1      -7.560  12.962  68.627  1.00  0.00    -0.126 OA 
HETATM   12  OXT UNL     1      -8.358  15.024  68.802  1.00  0.00    -0.155 OA 
ENDROOT
BRANCH   4  13
HETATM   13  C   UNL     1     -11.167  14.777  69.249  1.00  0.00    -0.283 C  
BRANCH  13  14
HETATM   14  O   UNL     1     -12.525  14.662  69.705  1.00  0.00    -0.291 OA 
BRANCH  14  15
HETATM   15  C   UNL     1     -12.879  15.386  70.807  1.00  0.00    -0.466 C  
HETATM   16  C   UNL     1     -11.675  16.001  71.468  1.00  0.00    -0.554 C  
HETATM   17  O   UNL     1     -14.026  15.574  71.188  1.00  0.00    -0.547 OA 
ENDBRANCH  14  15
ENDBRANCH  13  14
ENDBRANCH   4  13
BRANCH   8  18
HETATM   18  N   UNL     1     -10.220   9.594  65.843  1.00  0.00    -0.221 N  
HETATM   19  C   UNL     1     -10.442   9.039  67.101  1.00  0.00    -0.263 C  
HETATM   20  H   UNL     1     -10.381   8.932  65.084  1.00  0.00     0.000 HD 
HETATM   21  O   UNL     1     -10.560   7.792  67.182  1.00  0.00    -0.321 OA 
BRANCH  19  22
HETATM   22  C   UNL     1     -10.674   9.836  68.384  1.00  0.00    -0.221 C  
BRANCH  22  23
HETATM   23  C   UNL     1      -9.877   9.601  69.605  1.00  0.00    -0.215 A  
HETATM   24  N   UNL     1     -10.344   8.892  70.719  1.00  0.00    -0.210 NA 
HETATM   25  H2  UNL     1      -8.653   7.484  73.111  1.00  0.00     0.000 HD 
HETATM   26  N   UNL     1      -9.480   7.769  72.588  1.00  0.00    -0.173 NA 
HETATM   27  C   UNL     1      -8.497   9.730  69.561  1.00  0.00    -0.170 A  
HETATM   28  S   UNL     1      -7.784   8.978  70.918  1.00  0.00    -0.120 SA 
HETATM   29  H1  UNL     1     -10.406   7.491  72.915  1.00  0.00     0.000 HD 
HETATM   30  C   UNL     1      -9.342   8.511  71.468  1.00  0.00    -0.222 A  
ENDBRANCH  22  23
BRANCH  22  31
HETATM   31  N   UNL     1     -11.703  10.570  68.678  1.00  0.00    -0.637 NA 
HETATM   32  H   UNL     1     -12.510  10.518  68.057  1.00  0.00     0.000 HD 
BRANCH  31  33
HETATM   33  O   UNL     1     -11.791  11.423  69.778  1.00  0.00    -0.302 OA 
HETATM   34  C   UNL     1     -12.812  11.237  70.731  1.00  0.00    -0.191 C  
ENDBRANCH  31  33
ENDBRANCH  22  31
ENDBRANCH  19  22
ENDBRANCH   8  18
TORSDOF 8
ENDMDL
MODEL       64
REMARK 921   NORMALIZED FREE ENERGY PREDICTED BY IDOCK:   -5.72 KCAL/MOL
REMARK 922        TOTAL FREE ENERGY PREDICTED BY IDOCK:   -9.55 KCAL/MOL
REMARK 923 INTER-LIGAND FREE ENERGY PREDICTED BY IDOCK:   -8.18 KCAL/MOL
REMARK 924 INTRA-LIGAND FREE ENERGY PREDICTED BY IDOCK:   -1.37 KCAL/MOL
REMARK 927      BINDING AFFINITY PREDICTED BY RF-SCORE:    0.00 PKD
ROOT
HETATM    1  C   UNL     1      -8.299  11.921  68.135  1.00  0.00    -0.161 C  
HETATM    2  S   UNL     1      -7.689  13.582  68.252  1.00  0.00    -0.146 SA 
HETATM    3  C   UNL     1      -9.087  14.497  68.969  1.00  0.00    -0.053 C  
HETATM    4  C   UNL     1     -10.336  13.740  69.321  1.00  0.00     0.105 C  
HETATM    5  C   UNL     1      -9.763  10.587  67.555  1.00  0.00    -0.166 C  
HETATM    6  CA  UNL     1     -10.570  12.429  69.047  1.00  0.00    -0.049 C  
HETATM    7  N   UNL     1      -9.708  11.704  68.307  1.00  0.00    -0.192 N  
HETATM    8  CA  UNL     1      -8.430  10.996  66.853  1.00  0.00    -0.139 C  
HETATM    9  C   UNL     1     -11.822  11.789  69.560  1.00  0.00    -0.337 C  
HETATM   10  O   UNL     1     -10.658   9.811  67.308  1.00  0.00    -0.258 OA 
HETATM   11  O   UNL     1     -12.410  10.853  68.810  1.00  0.00    -0.495 OA 
HETATM   12  OXT UNL     1     -12.267  12.053  70.670  1.00  0.00    -0.374 OA 
ENDROOT
BRANCH   4  13
HETATM   13  C   UNL     1     -11.412  14.664  69.896  1.00  0.00    -0.274 C  
BRANCH  13  14
HETATM   14  O   UNL     1     -11.022  15.218  71.163  1.00  0.00    -0.325 OA 
BRANCH  14  15
HETATM   15  C   UNL     1     -11.992  15.353  72.113  1.00  0.00    -0.429 C  
HETATM   16  C   UNL     1     -13.365  15.194  71.519  1.00  0.00    -0.533 C  
HETATM   17  O   UNL     1     -11.790  15.520  73.308  1.00  0.00    -0.450 OA 
ENDBRANCH  14  15
ENDBRANCH  13  14
ENDBRANCH   4  13
BRANCH   8  18
HETATM   18  N   UNL     1      -8.646  11.305  65.375  1.00  0.00    -0.386 N  
HETATM   19  C   UNL     1      -9.676  11.895  64.645  1.00  0.00    -0.115 C  
HETATM   20  H   UNL     1      -7.862  11.016  64.791  1.00  0.00     0.000 HD 
HETATM   21  O   UNL     1      -9.650  11.785  63.396  1.00  0.00    -0.315 OA 
BRANCH  19  22
HETATM   22  C   UNL     1     -10.781  12.770  65.236  1.00  0.00    -0.294 C  
BRANCH  22  23
HETATM   23  C   UNL     1     -10.501  14.103  65.806  1.00  0.00    -0.311 A  
HETATM   24  N   UNL     1      -9.295  14.792  65.630  1.00  0.00    -0.093 NA 
HETATM   25  H2  UNL     1      -8.673  17.963  65.977  1.00  0.00     0.000 HD 
HETATM   26  N   UNL     1      -8.474  16.983  65.775  1.00  0.00    -0.457 NA 
HETATM   27  C   UNL     1     -11.552  14.910  66.216  1.00  0.00    -0.233 A  
HETATM   28  S   UNL     1     -11.030  16.525  66.394  1.00  0.00     0.199 SA 
HETATM   29  H1  UNL     1      -7.537  16.708  65.481  1.00  0.00     0.000 HD 
HETATM   30  C   UNL     1      -9.452  16.062  65.899  1.00  0.00    -0.316 A  
ENDBRANCH  22  23
BRANCH  22  31
HETATM   31  N   UNL     1     -11.979  12.402  65.573  1.00  0.00    -0.490 NA 
HETATM   32  H   UNL     1     -12.131  12.124  66.542  1.00  0.00     0.000 HD 
BRANCH  31  33
HETATM   33  O   UNL     1     -13.076  12.359  64.712  1.00  0.00    -0.806 OA 
HETATM   34  C   UNL     1     -12.895  11.996  63.362  1.00  0.00    -0.291 C  
ENDBRANCH  31  33
ENDBRANCH  22  31
ENDBRANCH  19  22
ENDBRANCH   8  18
TORSDOF 8
ENDMDL
MODEL       65
REMARK 921   NORMALIZED FREE ENERGY PREDICTED BY IDOCK:   -5.72 KCAL/MOL
REMARK 922        TOTAL FREE ENERGY PREDICTED BY IDOCK:   -9.55 KCAL/MOL
REMARK 923 INTER-LIGAND FREE ENERGY PREDICTED BY IDOCK:   -7.53 KCAL/MOL
REMARK 924 INTRA-LIGAND FREE ENERGY PREDICTED BY IDOCK:   -2.01 KCAL/MOL
REMARK 927      BINDING AFFINITY PREDICTED BY RF-SCORE:    0.00 PKD
ROOT
HETATM    1  C   UNL     1      -7.732  12.322  67.785  1.00  0.00    -0.139 C  
HETATM    2  S   UNL     1      -9.196  13.216  67.338  1.00  0.00    -0.223 SA 
HETATM    3  C   UNL     1     -10.529  12.272  68.136  1.00  0.00    -0.217 C  
HETATM    4  C   UNL     1     -10.163  11.072  68.962  1.00  0.00    -0.217 C  
HETATM    5  C   UNL     1      -6.692  10.545  67.931  1.00  0.00    -0.065 C  
HETATM    6  CA  UNL     1      -8.916  10.544  69.083  1.00  0.00    -0.161 C  
HETATM    7  N   UNL     1      -7.886  11.011  68.350  1.00  0.00    -0.119 N  
HETATM    8  CA  UNL     1      -6.641  11.660  66.841  1.00  0.00    -0.129 C  
HETATM    9  C   UNL     1      -8.693   9.409  70.032  1.00  0.00    -0.210 C  
HETATM   10  O   UNL     1      -6.115   9.497  68.112  1.00  0.00    -0.054 OA 
HETATM   11  O   UNL     1      -7.798   8.474  69.704  1.00  0.00    -0.091 OA 
HETATM   12  OXT UNL     1      -9.254   9.364  71.120  1.00  0.00    -0.230 OA 
ENDROOT
BRANCH   4  13
HETATM   13  C   UNL     1     -11.403  10.390  69.544  1.00  0.00    -0.265 C  
BRANCH  13  14
HETATM   14  O   UNL     1     -12.330  11.340  70.094  1.00  0.00    -0.296 OA 
BRANCH  14  15
HETATM   15  C   UNL     1     -12.831  11.080  71.336  1.00  0.00    -0.443 C  
HETATM   16  C   UNL     1     -12.630   9.639  71.717  1.00  0.00    -0.497 C  
HETATM   17  O   UNL     1     -13.326  11.911  72.085  1.00  0.00    -0.503 OA 
ENDBRANCH  14  15
ENDBRANCH  13  14
ENDBRANCH   4  13
BRANCH   8  18
HETATM   18  N   UNL     1      -6.712  11.074  65.434  1.00  0.00    -0.357 N  
HETATM   19  C   UNL     1      -7.560  10.169  64.800  1.00  0.00    -0.139 C  
HETATM   20  H   UNL     1      -5.975  11.423  64.822  1.00  0.00     0.000 HD 
HETATM   21  O   UNL     1      -7.203   9.708  63.689  1.00  0.00    -0.104 OA 
BRANCH  19  22
HETATM   22  C   UNL     1      -8.953   9.777  65.292  1.00  0.00    -0.193 C  
BRANCH  22  23
HETATM   23  C   UNL     1      -9.181   8.573  66.115  1.00  0.00    -0.211 A  
HETATM   24  N   UNL     1     -10.405   8.259  66.718  1.00  0.00    -0.318 NA 
HETATM   25  H2  UNL     1     -11.477   5.393  67.813  1.00  0.00     0.000 HD 
HETATM   26  N   UNL     1     -11.510   6.391  67.606  1.00  0.00    -0.654 NA 
HETATM   27  C   UNL     1      -8.314   7.495  66.011  1.00  0.00    -0.136 A  
HETATM   28  S   UNL     1      -9.023   6.094  66.681  1.00  0.00    -0.133 SA 
HETATM   29  H1  UNL     1     -12.351   6.925  67.824  1.00  0.00     0.000 HD 
HETATM   30  C   UNL     1     -10.439   6.994  67.047  1.00  0.00    -0.316 A  
ENDBRANCH  22  23
BRANCH  22  31
HETATM   31  N   UNL     1     -10.093  10.226  64.862  1.00  0.00    -0.326 NA 
HETATM   32  H   UNL     1     -10.918  10.031  65.427  1.00  0.00     0.000 HD 
BRANCH  31  33
HETATM   33  O   UNL     1     -10.275  10.955  63.687  1.00  0.00    -0.337 OA 
HETATM   34  C   UNL     1     -11.109  12.092  63.689  1.00  0.00    -0.452 C  
ENDBRANCH  31  33
ENDBRANCH  22  31
ENDBRANCH  19  22
ENDBRANCH   8  18
TORSDOF 8
ENDMDL
MODEL       66
REMARK 921   NORMALIZED FREE ENERGY PREDICTED BY IDOCK:   -5.70 KCAL/MOL
REMARK 922        TOTAL FREE ENERGY PREDICTED BY IDOCK:   -9.52 KCAL/MOL
REMARK 923 INTER-LIGAND FREE ENERGY PREDICTED BY IDOCK:   -8.41 KCAL/MOL
REMARK 924 INTRA-LIGAND FREE ENERGY PREDICTED BY IDOCK:   -1.11 KCAL/MOL
REMARK 927      BINDING AFFINITY PREDICTED BY RF-SCORE:    0.00 PKD
ROOT
HETATM    1  C   UNL     1     -10.647   9.881  68.269  1.00  0.00    -0.229 C  
HETATM    2  S   UNL     1      -9.204   8.939  67.854  1.00  0.00    -0.138 SA 
HETATM    3  C   UNL     1      -8.989   7.841  69.287  1.00  0.00    -0.139 C  
HETATM    4  C   UNL     1      -9.992   7.913  70.403  1.00  0.00    -0.192 C  
HETATM    5  C   UNL     1     -11.703  11.047  69.604  1.00  0.00    -0.329 C  
HETATM    6  CA  UNL     1     -11.004   8.815  70.501  1.00  0.00    -0.239 C  
HETATM    7  N   UNL     1     -11.122   9.831  69.622  1.00  0.00    -0.235 N  
HETATM    8  CA  UNL     1     -10.807  11.455  68.393  1.00  0.00    -0.207 C  
HETATM    9  C   UNL     1     -11.989   8.689  71.620  1.00  0.00    -0.326 C  
HETATM   10  O   UNL     1     -12.368  11.647  70.417  1.00  0.00    -0.321 OA 
HETATM   11  O   UNL     1     -12.493   9.806  72.152  1.00  0.00    -0.336 OA 
HETATM   12  OXT UNL     1     -12.389   7.596  72.001  1.00  0.00    -0.295 OA 
ENDROOT
BRANCH   4  13
HETATM   13  C   UNL     1      -9.652   6.936  71.531  1.00  0.00    -0.162 C  
BRANCH  13  14
HETATM   14  O   UNL     1     -10.095   5.602  71.236  1.00  0.00    -0.190 OA 
BRANCH  14  15
HETATM   15  C   UNL     1      -9.141   4.682  70.910  1.00  0.00    -0.131 C  
HETATM   16  C   UNL     1      -9.560   3.855  69.726  1.00  0.00    -0.271 C  
HETATM   17  O   UNL     1      -8.052   4.571  71.457  1.00  0.00    -0.095 OA 
ENDBRANCH  14  15
ENDBRANCH  13  14
ENDBRANCH   4  13
BRANCH   8  18
HETATM   18  N   UNL     1      -9.830  12.565  68.766  1.00  0.00    -0.421 N  
HETATM   19  C   UNL     1      -9.891  13.957  68.758  1.00  0.00    -0.114 C  
HETATM   20  H   UNL     1      -8.932  12.210  69.094  1.00  0.00     0.000 HD 
HETATM   21  O   UNL     1      -8.819  14.594  68.901  1.00  0.00    -0.179 OA 
BRANCH  19  22
HETATM   22  C   UNL     1     -11.178  14.779  68.707  1.00  0.00    -0.270 C  
BRANCH  22  23
HETATM   23  C   UNL     1     -11.882  15.206  69.933  1.00  0.00    -0.330 A  
HETATM   24  N   UNL     1     -13.013  14.562  70.449  1.00  0.00    -0.268 NA 
HETATM   25  H2  UNL     1     -14.244  14.674  73.455  1.00  0.00     0.000 HD 
HETATM   26  N   UNL     1     -14.178  14.393  72.477  1.00  0.00    -0.540 NA 
HETATM   27  C   UNL     1     -11.235  16.023  70.848  1.00  0.00    -0.329 A  
HETATM   28  S   UNL     1     -12.048  15.997  72.349  1.00  0.00    -0.557 SA 
HETATM   29  H1  UNL     1     -14.858  13.737  72.093  1.00  0.00     0.000 HD 
HETATM   30  C   UNL     1     -13.192  14.892  71.702  1.00  0.00    -0.359 A  
ENDBRANCH  22  23
BRANCH  22  31
HETATM   31  N   UNL     1     -11.951  14.965  67.681  1.00  0.00    -0.492 NA 
HETATM   32  H   UNL     1     -12.051  15.918  67.334  1.00  0.00     0.000 HD 
BRANCH  31  33
HETATM   33  O   UNL     1     -12.656  13.962  67.017  1.00  0.00    -0.216 OA 
HETATM   34  C   UNL     1     -12.417  13.724  65.648  1.00  0.00    -0.503 C  
ENDBRANCH  31  33
ENDBRANCH  22  31
ENDBRANCH  19  22
ENDBRANCH   8  18
TORSDOF 8
ENDMDL
MODEL       67
REMARK 921   NORMALIZED FREE ENERGY PREDICTED BY IDOCK:   -5.69 KCAL/MOL
REMARK 922        TOTAL FREE ENERGY PREDICTED BY IDOCK:   -9.51 KCAL/MOL
REMARK 923 INTER-LIGAND FREE ENERGY PREDICTED BY IDOCK:   -8.20 KCAL/MOL
REMARK 924 INTRA-LIGAND FREE ENERGY PREDICTED BY IDOCK:   -1.31 KCAL/MOL
REMARK 927      BINDING AFFINITY PREDICTED BY RF-SCORE:    0.00 PKD
ROOT
HETATM    1  C   UNL     1     -11.037  12.366  67.590  1.00  0.00    -0.259 C  
HETATM    2  S   UNL     1     -12.016  13.835  67.425  1.00  0.00    -0.357 SA 
HETATM    3  C   UNL     1     -10.796  15.175  67.568  1.00  0.00    -0.301 C  
HETATM    4  C   UNL     1      -9.348  14.812  67.740  1.00  0.00    -0.199 C  
HETATM    5  C   UNL     1      -9.613  11.266  68.599  1.00  0.00    -0.190 C  
HETATM    6  CA  UNL     1      -8.863  13.555  67.914  1.00  0.00    -0.190 C  
HETATM    7  N   UNL     1      -9.690  12.501  68.065  1.00  0.00    -0.209 N  
HETATM    8  CA  UNL     1     -11.171  11.194  68.650  1.00  0.00    -0.255 C  
HETATM    9  C   UNL     1      -7.382  13.344  67.961  1.00  0.00    -0.129 C  
HETATM   10  O   UNL     1      -8.710  10.659  69.128  1.00  0.00    -0.163 OA 
HETATM   11  O   UNL     1      -6.901  12.393  68.766  1.00  0.00    -0.083 OA 
HETATM   12  OXT UNL     1      -6.623  13.969  67.231  1.00  0.00    -0.266 OA 
ENDROOT
BRANCH   4  13
HETATM   13  C   UNL     1      -8.466  16.057  67.859  1.00  0.00    -0.162 C  
BRANCH  13  14
HETATM   14  O   UNL     1      -9.048  17.192  67.199  1.00  0.00    -0.221 OA 
BRANCH  14  15
HETATM   15  C   UNL     1      -9.019  18.385  67.862  1.00  0.00    -0.283 C  
HETATM   16  C   UNL     1     -10.336  19.104  67.754  1.00  0.00    -0.513 C  
HETATM   17  O   UNL     1      -8.075  18.804  68.518  1.00  0.00    -0.326 OA 
ENDBRANCH  14  15
ENDBRANCH  13  14
ENDBRANCH   4  13
BRANCH   8  18
HETATM   18  N   UNL     1     -11.686  11.154  70.085  1.00  0.00    -0.331 N  
HETATM   19  C   UNL     1     -11.981  10.131  70.984  1.00  0.00    -0.378 C  
HETATM   20  H   UNL     1     -11.849  12.082  70.474  1.00  0.00     0.000 HD 
HETATM   21  O   UNL     1     -12.620  10.427  72.022  1.00  0.00    -0.351 OA 
BRANCH  19  22
HETATM   22  C   UNL     1     -11.487   8.690  70.868  1.00  0.00    -0.275 C  
BRANCH  22  23
HETATM   23  C   UNL     1     -10.545   8.105  71.844  1.00  0.00    -0.260 A  
HETATM   24  N   UNL     1      -9.385   8.748  72.293  1.00  0.00    -0.360 NA 
HETATM   25  H2  UNL     1      -7.627   8.174  74.965  1.00  0.00     0.000 HD 
HETATM   26  N   UNL     1      -7.887   8.634  74.093  1.00  0.00    -0.403 NA 
HETATM   27  C   UNL     1     -10.960   7.062  72.658  1.00  0.00    -0.278 A  
HETATM   28  S   UNL     1      -9.893   6.876  73.977  1.00  0.00    -0.318 SA 
HETATM   29  H1  UNL     1      -7.334   9.420  73.751  1.00  0.00     0.000 HD 
HETATM   30  C   UNL     1      -8.961   8.198  73.401  1.00  0.00    -0.243 A  
ENDBRANCH  22  23
BRANCH  22  31
HETATM   31  N   UNL     1     -11.569   7.913  69.832  1.00  0.00    -0.445 NA 
HETATM   32  H   UNL     1     -12.490   7.551  69.586  1.00  0.00     0.000 HD 
BRANCH  31  33
HETATM   33  O   UNL     1     -10.494   7.533  69.028  1.00  0.00    -0.210 OA 
HETATM   34  C   UNL     1     -10.659   7.441  67.632  1.00  0.00    -0.239 C  
ENDBRANCH  31  33
ENDBRANCH  22  31
ENDBRANCH  19  22
ENDBRANCH   8  18
TORSDOF 8
ENDMDL
MODEL       68
REMARK 921   NORMALIZED FREE ENERGY PREDICTED BY IDOCK:   -5.68 KCAL/MOL
REMARK 922        TOTAL FREE ENERGY PREDICTED BY IDOCK:   -9.49 KCAL/MOL
REMARK 923 INTER-LIGAND FREE ENERGY PREDICTED BY IDOCK:   -7.91 KCAL/MOL
REMARK 924 INTRA-LIGAND FREE ENERGY PREDICTED BY IDOCK:   -1.58 KCAL/MOL
REMARK 927      BINDING AFFINITY PREDICTED BY RF-SCORE:    0.00 PKD
ROOT
HETATM    1  C   UNL     1      -8.073  10.068  69.159  1.00  0.00    -0.126 C  
HETATM    2  S   UNL     1      -9.322   9.428  70.241  1.00  0.00    -0.264 SA 
HETATM    3  C   UNL     1     -10.280   8.314  69.171  1.00  0.00    -0.218 C  
HETATM    4  C   UNL     1      -9.847   8.143  67.742  1.00  0.00    -0.209 C  
HETATM    5  C   UNL     1      -7.529  10.950  67.374  1.00  0.00    -0.100 C  
HETATM    6  CA  UNL     1      -8.854   8.839  67.128  1.00  0.00    -0.127 C  
HETATM    7  N   UNL     1      -8.229   9.860  67.747  1.00  0.00    -0.113 N  
HETATM    8  CA  UNL     1      -7.757  11.578  68.784  1.00  0.00    -0.124 C  
HETATM    9  C   UNL     1      -8.467   8.476  65.729  1.00  0.00    -0.154 C  
HETATM   10  O   UNL     1      -7.193  11.374  66.292  1.00  0.00    -0.057 OA 
HETATM   11  O   UNL     1      -8.082   9.452  64.902  1.00  0.00    -0.116 OA 
HETATM   12  OXT UNL     1      -8.427   7.309  65.357  1.00  0.00    -0.141 OA 
ENDROOT
BRANCH   4  13
HETATM   13  C   UNL     1     -10.770   7.186  66.984  1.00  0.00    -0.350 C  
BRANCH  13  14
HETATM   14  O   UNL     1     -10.951   5.946  67.687  1.00  0.00    -0.282 OA 
BRANCH  14  15
HETATM   15  C   UNL     1     -10.234   4.870  67.254  1.00  0.00    -0.137 C  
HETATM   16  C   UNL     1     -10.532   4.557  65.813  1.00  0.00    -0.268 C  
HETATM   17  O   UNL     1      -9.404   4.262  67.917  1.00  0.00    -0.136 OA 
ENDBRANCH  14  15
ENDBRANCH  13  14
ENDBRANCH   4  13
BRANCH   8  18
HETATM   18  N   UNL     1      -8.630  12.826  68.708  1.00  0.00    -0.367 N  
HETATM   19  C   UNL     1      -9.824  13.141  68.063  1.00  0.00    -0.231 C  
HETATM   20  H   UNL     1      -8.256  13.605  69.251  1.00  0.00     0.000 HD 
HETATM   21  O   UNL     1     -10.163  14.347  68.009  1.00  0.00    -0.222 OA 
BRANCH  19  22
HETATM   22  C   UNL     1     -10.820  12.120  67.515  1.00  0.00    -0.243 C  
BRANCH  22  23
HETATM   23  C   UNL     1     -11.222  12.105  66.094  1.00  0.00    -0.338 A  
HETATM   24  N   UNL     1     -12.016  13.092  65.496  1.00  0.00    -0.398 NA 
HETATM   25  H2  UNL     1     -12.353  13.822  62.347  1.00  0.00     0.000 HD 
HETATM   26  N   UNL     1     -12.511  13.901  63.351  1.00  0.00    -1.110 NA 
HETATM   27  C   UNL     1     -10.517  11.327  65.188  1.00  0.00    -0.291 A  
HETATM   28  S   UNL     1     -10.856  11.819  63.589  1.00  0.00    -0.457 SA 
HETATM   29  H1  UNL     1     -13.130  14.627  63.710  1.00  0.00     0.000 HD 
HETATM   30  C   UNL     1     -11.898  13.043  64.194  1.00  0.00    -0.416 A  
ENDBRANCH  22  23
BRANCH  22  31
HETATM   31  N   UNL     1     -11.626  11.364  68.197  1.00  0.00    -0.436 NA 
HETATM   32  H   UNL     1     -11.881  10.464  67.792  1.00  0.00     0.000 HD 
BRANCH  31  33
HETATM   33  O   UNL     1     -12.168  11.687  69.440  1.00  0.00    -0.271 OA 
HETATM   34  C   UNL     1     -12.766  10.683  70.228  1.00  0.00    -0.209 C  
ENDBRANCH  31  33
ENDBRANCH  22  31
ENDBRANCH  19  22
ENDBRANCH   8  18
TORSDOF 8
ENDMDL
MODEL       69
REMARK 921   NORMALIZED FREE ENERGY PREDICTED BY IDOCK:   -5.62 KCAL/MOL
REMARK 922        TOTAL FREE ENERGY PREDICTED BY IDOCK:   -9.41 KCAL/MOL
REMARK 923 INTER-LIGAND FREE ENERGY PREDICTED BY IDOCK:   -8.09 KCAL/MOL
REMARK 924 INTRA-LIGAND FREE ENERGY PREDICTED BY IDOCK:   -1.31 KCAL/MOL
REMARK 927      BINDING AFFINITY PREDICTED BY RF-SCORE:    0.00 PKD
ROOT
HETATM    1  C   UNL     1      -9.920   9.801  70.060  1.00  0.00    -0.254 C  
HETATM    2  S   UNL     1      -9.330  10.899  68.799  1.00  0.00    -0.165 SA 
HETATM    3  C   UNL     1     -10.570  12.229  68.783  1.00  0.00    -0.194 C  
HETATM    4  C   UNL     1     -11.707  12.163  69.764  1.00  0.00    -0.381 C  
HETATM    5  C   UNL     1     -11.444   8.696  70.905  1.00  0.00    -0.275 C  
HETATM    6  CA  UNL     1     -11.967  11.127  70.605  1.00  0.00    -0.360 C  
HETATM    7  N   UNL     1     -11.259   9.981  70.543  1.00  0.00    -0.313 N  
HETATM    8  CA  UNL     1     -10.291   8.262  69.947  1.00  0.00    -0.218 C  
HETATM    9  C   UNL     1     -13.075  11.258  71.602  1.00  0.00    -0.408 C  
HETATM   10  O   UNL     1     -12.356   8.127  71.461  1.00  0.00    -0.294 OA 
HETATM   11  O   UNL     1     -13.785  10.169  71.908  1.00  0.00    -0.254 OA 
HETATM   12  OXT UNL     1     -13.290  12.312  72.186  1.00  0.00    -0.526 OA 
ENDROOT
BRANCH   4  13
HETATM   13  C   UNL     1     -12.660  13.348  69.602  1.00  0.00     0.150 C  
BRANCH  13  14
HETATM   14  O   UNL     1     -12.053  14.585  70.009  1.00  0.00    -0.301 OA 
BRANCH  14  15
HETATM   15  C   UNL     1     -12.745  15.361  70.892  1.00  0.00    -0.461 C  
HETATM   16  C   UNL     1     -11.819  16.055  71.854  1.00  0.00    -0.619 C  
HETATM   17  O   UNL     1     -13.957  15.534  70.881  1.00  0.00    -0.489 OA 
ENDBRANCH  14  15
ENDBRANCH  13  14
ENDBRANCH   4  13
BRANCH   8  18
HETATM   18  N   UNL     1     -10.809   7.408  68.795  1.00  0.00    -0.403 N  
HETATM   19  C   UNL     1     -10.476   7.286  67.447  1.00  0.00    -0.289 C  
HETATM   20  H   UNL     1     -11.569   6.787  69.072  1.00  0.00     0.000 HD 
HETATM   21  O   UNL     1     -11.262   6.654  66.701  1.00  0.00    -0.231 OA 
BRANCH  19  22
HETATM   22  C   UNL     1      -9.165   7.761  66.821  1.00  0.00    -0.163 C  
BRANCH  22  23
HETATM   23  C   UNL     1      -9.137   8.577  65.591  1.00  0.00    -0.132 A  
HETATM   24  N   UNL     1      -9.836   9.780  65.435  1.00  0.00    -0.319 NA 
HETATM   25  H2  UNL     1      -9.337  12.179  63.300  1.00  0.00     0.000 HD 
HETATM   26  N   UNL     1      -9.785  11.689  64.074  1.00  0.00    -0.401 NA 
HETATM   27  C   UNL     1      -8.114   8.399  64.672  1.00  0.00    -0.156 A  
HETATM   28  S   UNL     1      -8.034   9.729  63.604  1.00  0.00    -0.154 SA 
HETATM   29  H1  UNL     1     -10.563  12.127  64.567  1.00  0.00     0.000 HD 
HETATM   30  C   UNL     1      -9.344  10.465  64.436  1.00  0.00    -0.272 A  
ENDBRANCH  22  23
BRANCH  22  31
HETATM   31  N   UNL     1      -7.970   7.320  67.071  1.00  0.00    -0.108 NA 
HETATM   32  H   UNL     1      -7.647   6.510  66.542  1.00  0.00     0.000 HD 
BRANCH  31  33
HETATM   33  O   UNL     1      -7.093   7.867  68.007  1.00  0.00    -0.081 OA 
HETATM   34  C   UNL     1      -5.759   7.419  68.065  1.00  0.00    -0.027 C  
ENDBRANCH  31  33
ENDBRANCH  22  31
ENDBRANCH  19  22
ENDBRANCH   8  18
TORSDOF 8
ENDMDL
MODEL       70
REMARK 921   NORMALIZED FREE ENERGY PREDICTED BY IDOCK:   -5.62 KCAL/MOL
REMARK 922        TOTAL FREE ENERGY PREDICTED BY IDOCK:   -9.40 KCAL/MOL
REMARK 923 INTER-LIGAND FREE ENERGY PREDICTED BY IDOCK:   -8.36 KCAL/MOL
REMARK 924 INTRA-LIGAND FREE ENERGY PREDICTED BY IDOCK:   -1.04 KCAL/MOL
REMARK 927      BINDING AFFINITY PREDICTED BY RF-SCORE:    0.00 PKD
ROOT
HETATM    1  C   UNL     1      -7.967  11.482  67.205  1.00  0.00    -0.153 C  
HETATM    2  S   UNL     1      -7.343  11.990  68.785  1.00  0.00    -0.068 SA 
HETATM    3  C   UNL     1      -7.335  10.450  69.752  1.00  0.00    -0.154 C  
HETATM    4  C   UNL     1      -7.775   9.179  69.081  1.00  0.00    -0.081 C  
HETATM    5  C   UNL     1      -9.380  10.497  66.069  1.00  0.00    -0.178 C  
HETATM    6  CA  UNL     1      -8.294   9.084  67.829  1.00  0.00    -0.117 C  
HETATM    7  N   UNL     1      -8.572  10.185  67.101  1.00  0.00    -0.125 N  
HETATM    8  CA  UNL     1      -9.240  12.012  66.420  1.00  0.00    -0.216 C  
HETATM    9  C   UNL     1      -8.583   7.731  67.259  1.00  0.00    -0.128 C  
HETATM   10  O   UNL     1     -10.148   9.840  65.404  1.00  0.00    -0.305 OA 
HETATM   11  O   UNL     1      -9.641   7.592  66.455  1.00  0.00    -0.200 OA 
HETATM   12  OXT UNL     1      -7.836   6.780  67.456  1.00  0.00    -0.108 OA 
ENDROOT
BRANCH   4  13
HETATM   13  C   UNL     1      -7.722   7.988  70.040  1.00  0.00    -0.088 C  
BRANCH  13  14
HETATM   14  O   UNL     1      -8.967   7.801  70.733  1.00  0.00    -0.145 OA 
BRANCH  14  15
HETATM   15  C   UNL     1      -9.213   8.607  71.806  1.00  0.00    -0.268 C  
HETATM   16  C   UNL     1     -10.579   9.232  71.719  1.00  0.00    -0.286 C  
HETATM   17  O   UNL     1      -8.461   8.765  72.757  1.00  0.00    -0.414 OA 
ENDBRANCH  14  15
ENDBRANCH  13  14
ENDBRANCH   4  13
BRANCH   8  18
HETATM   18  N   UNL     1     -10.566  12.605  66.885  1.00  0.00    -0.239 N  
HETATM   19  C   UNL     1     -11.247  13.791  66.617  1.00  0.00    -0.318 C  
HETATM   20  H   UNL     1     -11.065  12.000  67.536  1.00  0.00     0.000 HD 
HETATM   21  O   UNL     1     -12.218  14.090  67.353  1.00  0.00    -0.384 OA 
BRANCH  19  22
HETATM   22  C   UNL     1     -10.982  14.705  65.422  1.00  0.00    -0.353 C  
BRANCH  22  23
HETATM   23  C   UNL     1     -10.346  16.029  65.576  1.00  0.00    -0.390 A  
HETATM   24  N   UNL     1     -10.980  17.241  65.277  1.00  0.00    -0.428 NA 
HETATM   25  H2  UNL     1     -10.242  20.244  66.277  1.00  0.00     0.000 HD 
HETATM   26  N   UNL     1     -10.762  19.520  65.781  1.00  0.00    -0.473 NA 
HETATM   27  C   UNL     1      -9.231  16.165  66.390  1.00  0.00    -0.300 A  
HETATM   28  S   UNL     1      -8.968  17.809  66.770  1.00  0.00    -0.266 SA 
HETATM   29  H1  UNL     1     -11.586  19.774  65.236  1.00  0.00     0.000 HD 
HETATM   30  C   UNL     1     -10.355  18.235  65.852  1.00  0.00    -0.284 A  
ENDBRANCH  22  23
BRANCH  22  31
HETATM   31  N   UNL     1     -11.491  14.610  64.232  1.00  0.00    -0.639 NA 
HETATM   32  H   UNL     1     -11.110  15.217  63.507  1.00  0.00     0.000 HD 
BRANCH  31  33
HETATM   33  O   UNL     1     -12.520  13.742  63.868  1.00  0.00    -0.695 OA 
HETATM   34  C   UNL     1     -12.219  12.423  63.474  1.00  0.00    -0.563 C  
ENDBRANCH  31  33
ENDBRANCH  22  31
ENDBRANCH  19  22
ENDBRANCH   8  18
TORSDOF 8
ENDMDL
MODEL       71
REMARK 921   NORMALIZED FREE ENERGY PREDICTED BY IDOCK:   -5.59 KCAL/MOL
REMARK 922        TOTAL FREE ENERGY PREDICTED BY IDOCK:   -9.36 KCAL/MOL
REMARK 923 INTER-LIGAND FREE ENERGY PREDICTED BY IDOCK:   -8.57 KCAL/MOL
REMARK 924 INTRA-LIGAND FREE ENERGY PREDICTED BY IDOCK:   -0.79 KCAL/MOL
REMARK 927      BINDING AFFINITY PREDICTED BY RF-SCORE:    0.00 PKD
ROOT
HETATM    1  C   UNL     1      -9.410  11.166  67.455  1.00  0.00    -0.164 C  
HETATM    2  S   UNL     1     -10.187  11.802  68.916  1.00  0.00    -0.030 SA 
HETATM    3  C   UNL     1     -10.750  10.305  69.781  1.00  0.00    -0.285 C  
HETATM    4  C   UNL     1     -10.445   8.966  69.173  1.00  0.00    -0.236 C  
HETATM    5  C   UNL     1      -9.450   9.946  65.791  1.00  0.00    -0.222 C  
HETATM    6  CA  UNL     1      -9.873   8.762  67.956  1.00  0.00    -0.169 C  
HETATM    7  N   UNL     1      -9.628   9.788  67.117  1.00  0.00    -0.164 N  
HETATM    8  CA  UNL     1      -9.747  11.472  65.935  1.00  0.00    -0.232 C  
HETATM    9  C   UNL     1      -9.532   7.367  67.536  1.00  0.00    -0.138 C  
HETATM   10  O   UNL     1      -9.425   9.162  64.870  1.00  0.00    -0.113 OA 
HETATM   11  O   UNL     1      -9.649   7.046  66.244  1.00  0.00    -0.137 OA 
HETATM   12  OXT UNL     1      -9.085   6.549  68.331  1.00  0.00    -0.125 OA 
ENDROOT
BRANCH   4  13
HETATM   13  C   UNL     1     -11.003   7.821  70.020  1.00  0.00    -0.214 C  
BRANCH  13  14
HETATM   14  O   UNL     1     -11.501   8.284  71.286  1.00  0.00    -0.261 OA 
BRANCH  14  15
HETATM   15  C   UNL     1     -12.694   7.779  71.713  1.00  0.00    -0.329 C  
HETATM   16  C   UNL     1     -13.610   8.871  72.195  1.00  0.00    -0.502 C  
HETATM   17  O   UNL     1     -13.021   6.601  71.659  1.00  0.00    -0.300 OA 
ENDBRANCH  14  15
ENDBRANCH  13  14
ENDBRANCH   4  13
BRANCH   8  18
HETATM   18  N   UNL     1     -11.037  11.863  65.221  1.00  0.00    -0.306 N  
HETATM   19  C   UNL     1     -12.015  12.829  65.442  1.00  0.00    -0.436 C  
HETATM   20  H   UNL     1     -11.225  11.289  64.400  1.00  0.00     0.000 HD 
HETATM   21  O   UNL     1     -13.090  12.736  64.801  1.00  0.00    -0.813 OA 
BRANCH  19  22
HETATM   22  C   UNL     1     -11.843  14.069  66.319  1.00  0.00    -0.411 C  
BRANCH  22  23
HETATM   23  C   UNL     1     -10.813  15.089  66.038  1.00  0.00    -0.334 A  
HETATM   24  N   UNL     1     -11.096  16.440  65.800  1.00  0.00     0.003 NA 
HETATM   25  H2  UNL     1      -9.124  19.015  66.010  1.00  0.00     0.000 HD 
HETATM   26  N   UNL     1      -9.994  18.509  65.844  1.00  0.00    -0.530 NA 
HETATM   27  C   UNL     1      -9.492  14.844  66.378  1.00  0.00    -0.300 A  
HETATM   28  S   UNL     1      -8.599  16.299  66.388  1.00  0.00    -0.341 SA 
HETATM   29  H1  UNL     1     -10.837  19.024  65.591  1.00  0.00     0.000 HD 
HETATM   30  C   UNL     1     -10.019  17.165  65.962  1.00  0.00    -0.253 A  
ENDBRANCH  22  23
BRANCH  22  31
HETATM   31  N   UNL     1     -12.325  14.262  67.509  1.00  0.00    -0.587 NA 
HETATM   32  H   UNL     1     -13.138  13.712  67.783  1.00  0.00     0.000 HD 
BRANCH  31  33
HETATM   33  O   UNL     1     -11.815  15.164  68.443  1.00  0.00    -0.328 OA 
HETATM   34  C   UNL     1     -12.109  14.999  69.811  1.00  0.00    -0.314 C  
ENDBRANCH  31  33
ENDBRANCH  22  31
ENDBRANCH  19  22
ENDBRANCH   8  18
TORSDOF 8
ENDMDL
MODEL       72
REMARK 921   NORMALIZED FREE ENERGY PREDICTED BY IDOCK:   -5.59 KCAL/MOL
REMARK 922        TOTAL FREE ENERGY PREDICTED BY IDOCK:   -9.36 KCAL/MOL
REMARK 923 INTER-LIGAND FREE ENERGY PREDICTED BY IDOCK:   -8.61 KCAL/MOL
REMARK 924 INTRA-LIGAND FREE ENERGY PREDICTED BY IDOCK:   -0.75 KCAL/MOL
REMARK 927      BINDING AFFINITY PREDICTED BY RF-SCORE:    0.00 PKD
ROOT
HETATM    1  C   UNL     1     -11.430  11.891  63.952  1.00  0.00    -0.426 C  
HETATM    2  S   UNL     1      -9.828  11.516  63.291  1.00  0.00    -0.392 SA 
HETATM    3  C   UNL     1      -8.863  11.047  64.759  1.00  0.00    -0.032 C  
HETATM    4  C   UNL     1      -9.550  11.033  66.095  1.00  0.00    -0.240 C  
HETATM    5  C   UNL     1     -12.616  12.874  65.324  1.00  0.00    -0.439 C  
HETATM    6  CA  UNL     1     -10.820  11.452  66.336  1.00  0.00    -0.271 C  
HETATM    7  N   UNL     1     -11.556  12.044  65.374  1.00  0.00    -0.323 N  
HETATM    8  CA  UNL     1     -12.259  13.239  63.849  1.00  0.00    -0.425 C  
HETATM    9  C   UNL     1     -11.401  11.272  67.704  1.00  0.00    -0.282 C  
HETATM   10  O   UNL     1     -13.309  13.368  66.185  1.00  0.00     0.209 OA 
HETATM   11  O   UNL     1     -12.242  12.202  68.164  1.00  0.00    -0.388 OA 
HETATM   12  OXT UNL     1     -11.178  10.267  68.367  1.00  0.00    -0.265 OA 
ENDROOT
BRANCH   4  13
HETATM   13  C   UNL     1      -8.590  10.633  67.218  1.00  0.00    -0.126 C  
BRANCH  13  14
HETATM   14  O   UNL     1      -7.242  11.045  66.943  1.00  0.00    -0.117 OA 
BRANCH  14  15
HETATM   15  C   UNL     1      -6.247  10.458  67.668  1.00  0.00    -0.056 C  
HETATM   16  C   UNL     1      -5.313  11.484  68.248  1.00  0.00    -0.042 C  
HETATM   17  O   UNL     1      -6.145   9.257  67.884  1.00  0.00    -0.049 OA 
ENDBRANCH  14  15
ENDBRANCH  13  14
ENDBRANCH   4  13
BRANCH   8  18
HETATM   18  N   UNL     1     -11.841  14.700  63.717  1.00  0.00    -0.737 N  
HETATM   19  C   UNL     1     -11.385  15.666  64.612  1.00  0.00    -0.349 C  
HETATM   20  H   UNL     1     -11.911  15.048  62.761  1.00  0.00     0.000 HD 
HETATM   21  O   UNL     1     -11.354  16.859  64.225  1.00  0.00    -1.202 OA 
BRANCH  19  22
HETATM   22  C   UNL     1     -10.806  15.376  65.996  1.00  0.00    -0.314 C  
BRANCH  22  23
HETATM   23  C   UNL     1      -9.351  15.280  66.230  1.00  0.00    -0.310 A  
HETATM   24  N   UNL     1      -8.445  16.312  65.954  1.00  0.00    -0.290 NA 
HETATM   25  H2  UNL     1      -5.439  16.763  67.105  1.00  0.00     0.000 HD 
HETATM   26  N   UNL     1      -6.276  16.966  66.560  1.00  0.00    -0.280 NA 
HETATM   27  C   UNL     1      -8.856  14.315  67.094  1.00  0.00    -0.229 A  
HETATM   28  S   UNL     1      -7.255  14.689  67.551  1.00  0.00    -0.163 SA 
HETATM   29  H1  UNL     1      -6.316  17.812  65.992  1.00  0.00     0.000 HD 
HETATM   30  C   UNL     1      -7.322  16.113  66.595  1.00  0.00    -0.121 A  
ENDBRANCH  22  23
BRANCH  22  31
HETATM   31  N   UNL     1     -11.438  14.916  67.032  1.00  0.00    -0.349 NA 
HETATM   32  H   UNL     1     -11.616  13.913  67.068  1.00  0.00     0.000 HD 
BRANCH  31  33
HETATM   33  O   UNL     1     -11.894  15.688  68.101  1.00  0.00    -0.286 OA 
HETATM   34  C   UNL     1     -11.302  15.545  69.372  1.00  0.00    -0.316 C  
ENDBRANCH  31  33
ENDBRANCH  22  31
ENDBRANCH  19  22
ENDBRANCH   8  18
TORSDOF 8
ENDMDL
MODEL       73
REMARK 921   NORMALIZED FREE ENERGY PREDICTED BY IDOCK:   -5.57 KCAL/MOL
REMARK 922        TOTAL FREE ENERGY PREDICTED BY IDOCK:   -9.33 KCAL/MOL
REMARK 923 INTER-LIGAND FREE ENERGY PREDICTED BY IDOCK:   -8.08 KCAL/MOL
REMARK 924 INTRA-LIGAND FREE ENERGY PREDICTED BY IDOCK:   -1.24 KCAL/MOL
REMARK 927      BINDING AFFINITY PREDICTED BY RF-SCORE:    0.00 PKD
ROOT
HETATM    1  C   UNL     1      -9.048   9.654  69.482  1.00  0.00    -0.199 C  
HETATM    2  S   UNL     1      -8.632   9.615  67.759  1.00  0.00    -0.125 SA 
HETATM    3  C   UNL     1      -9.872  10.708  67.000  1.00  0.00    -0.185 C  
HETATM    4  C   UNL     1     -10.873  11.386  67.892  1.00  0.00    -0.274 C  
HETATM    5  C   UNL     1     -10.445   9.491  70.992  1.00  0.00    -0.306 C  
HETATM    6  CA  UNL     1     -11.017  11.172  69.227  1.00  0.00    -0.247 C  
HETATM    7  N   UNL     1     -10.316  10.211  69.860  1.00  0.00    -0.263 N  
HETATM    8  CA  UNL     1      -9.422   8.448  70.444  1.00  0.00    -0.168 C  
HETATM    9  C   UNL     1     -11.989  12.008  69.999  1.00  0.00    -0.324 C  
HETATM   10  O   UNL     1     -11.274   9.495  71.873  1.00  0.00    -0.310 OA 
HETATM   11  O   UNL     1     -12.647  11.441  71.013  1.00  0.00    -0.389 OA 
HETATM   12  OXT UNL     1     -12.133  13.202  69.766  1.00  0.00    -0.307 OA 
ENDROOT
BRANCH   4  13
HETATM   13  C   UNL     1     -11.847  12.251  67.089  1.00  0.00    -0.258 C  
BRANCH  13  14
HETATM   14  O   UNL     1     -11.838  11.914  65.693  1.00  0.00    -0.398 OA 
BRANCH  14  15
HETATM   15  C   UNL     1     -12.511  12.744  64.844  1.00  0.00    -0.497 C  
HETATM   16  C   UNL     1     -12.612  12.151  63.465  1.00  0.00    -0.621 C  
HETATM   17  O   UNL     1     -13.029  13.807  65.159  1.00  0.00    -0.738 OA 
ENDBRANCH  14  15
ENDBRANCH  13  14
ENDBRANCH   4  13
BRANCH   8  18
HETATM   18  N   UNL     1     -10.078   7.094  70.194  1.00  0.00    -0.187 N  
HETATM   19  C   UNL     1     -10.365   5.990  70.995  1.00  0.00    -0.216 C  
HETATM   20  H   UNL     1     -10.373   6.969  69.226  1.00  0.00     0.000 HD 
HETATM   21  O   UNL     1     -10.702   4.924  70.427  1.00  0.00    -0.100 OA 
BRANCH  19  22
HETATM   22  C   UNL     1     -10.419   6.004  72.521  1.00  0.00    -0.202 C  
BRANCH  22  23
HETATM   23  C   UNL     1      -9.233   6.318  73.343  1.00  0.00    -0.131 A  
HETATM   24  N   UNL     1      -7.991   5.689  73.196  1.00  0.00    -0.110 NA 
HETATM   25  H2  UNL     1      -5.057   6.687  74.177  1.00  0.00     0.000 HD 
HETATM   26  N   UNL     1      -5.742   6.071  73.739  1.00  0.00    -0.051 NA 
HETATM   27  C   UNL     1      -9.175   7.518  74.036  1.00  0.00    -0.227 A  
HETATM   28  S   UNL     1      -7.572   7.854  74.514  1.00  0.00    -0.218 SA 
HETATM   29  H1  UNL     1      -5.432   5.209  73.291  1.00  0.00     0.000 HD 
HETATM   30  C   UNL     1      -7.050   6.402  73.759  1.00  0.00    -0.082 A  
ENDBRANCH  22  23
BRANCH  22  31
HETATM   31  N   UNL     1     -11.345   5.499  73.279  1.00  0.00    -0.491 NA 
HETATM   32  H   UNL     1     -12.274   5.915  73.227  1.00  0.00     0.000 HD 
BRANCH  31  33
HETATM   33  O   UNL     1     -11.166   4.433  74.160  1.00  0.00    -0.225 OA 
HETATM   34  C   UNL     1     -11.032   3.123  73.658  1.00  0.00    -0.233 C  
ENDBRANCH  31  33
ENDBRANCH  22  31
ENDBRANCH  19  22
ENDBRANCH   8  18
TORSDOF 8
ENDMDL
MODEL       74
REMARK 921   NORMALIZED FREE ENERGY PREDICTED BY IDOCK:   -5.56 KCAL/MOL
REMARK 922        TOTAL FREE ENERGY PREDICTED BY IDOCK:   -9.31 KCAL/MOL
REMARK 923 INTER-LIGAND FREE ENERGY PREDICTED BY IDOCK:   -8.26 KCAL/MOL
REMARK 924 INTRA-LIGAND FREE ENERGY PREDICTED BY IDOCK:   -1.05 KCAL/MOL
REMARK 927      BINDING AFFINITY PREDICTED BY RF-SCORE:    0.00 PKD
ROOT
HETATM    1  C   UNL     1     -10.631  12.316  66.256  1.00  0.00    -0.251 C  
HETATM    2  S   UNL     1     -12.075  12.914  65.420  1.00  0.00    -0.474 SA 
HETATM    3  C   UNL     1     -11.806  14.711  65.344  1.00  0.00    -0.304 C  
HETATM    4  C   UNL     1     -10.532  15.270  65.909  1.00  0.00    -0.345 C  
HETATM    5  C   UNL     1      -9.306  12.411  67.835  1.00  0.00    -0.195 C  
HETATM    6  CA  UNL     1      -9.588  14.563  66.586  1.00  0.00    -0.276 C  
HETATM    7  N   UNL     1      -9.785  13.270  66.914  1.00  0.00    -0.241 N  
HETATM    8  CA  UNL     1     -10.533  11.476  67.598  1.00  0.00    -0.189 C  
HETATM    9  C   UNL     1      -8.318  15.243  66.991  1.00  0.00    -0.234 C  
HETATM   10  O   UNL     1      -8.471  12.525  68.703  1.00  0.00    -0.094 OA 
HETATM   11  O   UNL     1      -7.749  14.888  68.146  1.00  0.00    -0.105 OA 
HETATM   12  OXT UNL     1      -7.763  16.053  66.259  1.00  0.00    -0.143 OA 
ENDROOT
BRANCH   4  13
HETATM   13  C   UNL     1     -10.478  16.794  65.777  1.00  0.00    -0.292 C  
BRANCH  13  14
HETATM   14  O   UNL     1     -10.812  17.451  67.010  1.00  0.00    -0.209 OA 
BRANCH  14  15
HETATM   15  C   UNL     1     -10.425  18.752  67.152  1.00  0.00    -0.427 C  
HETATM   16  C   UNL     1      -9.884  19.015  68.530  1.00  0.00    -0.473 C  
HETATM   17  O   UNL     1     -10.448  19.595  66.265  1.00  0.00    -0.454 OA 
ENDBRANCH  14  15
ENDBRANCH  13  14
ENDBRANCH   4  13
BRANCH   8  18
HETATM   18  N   UNL     1     -11.425  11.397  68.833  1.00  0.00    -0.267 N  
HETATM   19  C   UNL     1     -11.745  10.387  69.738  1.00  0.00    -0.237 C  
HETATM   20  H   UNL     1     -11.890  12.279  69.044  1.00  0.00     0.000 HD 
HETATM   21  O   UNL     1     -12.708  10.580  70.518  1.00  0.00    -0.338 OA 
BRANCH  19  22
HETATM   22  C   UNL     1     -10.942   9.103  69.941  1.00  0.00    -0.204 C  
BRANCH  22  23
HETATM   23  C   UNL     1      -9.924   8.977  71.004  1.00  0.00    -0.279 A  
HETATM   24  N   UNL     1     -10.205   8.548  72.307  1.00  0.00    -0.325 NA 
HETATM   25  H2  UNL     1      -8.180   7.360  74.555  1.00  0.00     0.000 HD 
HETATM   26  N   UNL     1      -9.069   7.662  74.158  1.00  0.00    -0.408 NA 
HETATM   27  C   UNL     1      -8.582   8.901  70.665  1.00  0.00    -0.194 A  
HETATM   28  S   UNL     1      -7.668   8.307  71.979  1.00  0.00    -0.119 SA 
HETATM   29  H1  UNL     1      -9.923   7.579  74.709  1.00  0.00     0.000 HD 
HETATM   30  C   UNL     1      -9.106   8.168  72.907  1.00  0.00    -0.267 A  
ENDBRANCH  22  23
BRANCH  22  31
HETATM   31  N   UNL     1     -10.818   8.114  69.110  1.00  0.00    -0.412 NA 
HETATM   32  H   UNL     1     -10.329   8.293  68.234  1.00  0.00     0.000 HD 
BRANCH  31  33
HETATM   33  O   UNL     1     -11.303   6.823  69.322  1.00  0.00    -0.237 OA 
HETATM   34  C   UNL     1     -10.456   5.714  69.127  1.00  0.00    -0.269 C  
ENDBRANCH  31  33
ENDBRANCH  22  31
ENDBRANCH  19  22
ENDBRANCH   8  18
TORSDOF 8
ENDMDL
MODEL       75
REMARK 921   NORMALIZED FREE ENERGY PREDICTED BY IDOCK:   -5.55 KCAL/MOL
REMARK 922        TOTAL FREE ENERGY PREDICTED BY IDOCK:   -9.31 KCAL/MOL
REMARK 923 INTER-LIGAND FREE ENERGY PREDICTED BY IDOCK:   -8.28 KCAL/MOL
REMARK 924 INTRA-LIGAND FREE ENERGY PREDICTED BY IDOCK:   -1.03 KCAL/MOL
REMARK 927      BINDING AFFINITY PREDICTED BY RF-SCORE:    0.00 PKD
ROOT
HETATM    1  C   UNL     1      -8.798  11.731  67.953  1.00  0.00    -0.165 C  
HETATM    2  S   UNL     1      -8.522  10.482  69.181  1.00  0.00    -0.121 SA 
HETATM    3  C   UNL     1      -8.790   8.929  68.274  1.00  0.00    -0.134 C  
HETATM    4  C   UNL     1      -9.118   9.001  66.809  1.00  0.00    -0.178 C  
HETATM    5  C   UNL     1      -9.960  12.545  66.455  1.00  0.00    -0.252 C  
HETATM    6  CA  UNL     1      -9.350  10.141  66.105  1.00  0.00    -0.172 C  
HETATM    7  N   UNL     1      -9.415  11.340  66.718  1.00  0.00    -0.176 N  
HETATM    8  CA  UNL     1      -9.843  12.925  67.964  1.00  0.00    -0.223 C  
HETATM    9  C   UNL     1      -9.557  10.055  64.626  1.00  0.00    -0.297 C  
HETATM   10  O   UNL     1     -10.586  12.970  65.511  1.00  0.00    -0.273 OA 
HETATM   11  O   UNL     1     -10.414  10.906  64.054  1.00  0.00    -0.364 OA 
HETATM   12  OXT UNL     1      -8.910   9.280  63.932  1.00  0.00    -0.204 OA 
ENDROOT
BRANCH   4  13
HETATM   13  C   UNL     1      -9.327   7.609  66.210  1.00  0.00    -0.131 C  
BRANCH  13  14
HETATM   14  O   UNL     1     -10.633   7.088  66.505  1.00  0.00    -0.161 OA 
BRANCH  14  15
HETATM   15  C   UNL     1     -10.697   5.899  67.170  1.00  0.00    -0.306 C  
HETATM   16  C   UNL     1     -10.977   6.105  68.634  1.00  0.00    -0.415 C  
HETATM   17  O   UNL     1     -10.604   4.794  66.652  1.00  0.00    -0.226 OA 
ENDBRANCH  14  15
ENDBRANCH  13  14
ENDBRANCH   4  13
BRANCH   8  18
HETATM   18  N   UNL     1     -11.215  13.090  68.610  1.00  0.00    -0.260 N  
HETATM   19  C   UNL     1     -11.801  14.069  69.409  1.00  0.00    -0.333 C  
HETATM   20  H   UNL     1     -11.842  12.311  68.413  1.00  0.00     0.000 HD 
HETATM   21  O   UNL     1     -12.883  13.791  69.981  1.00  0.00    -0.132 OA 
BRANCH  19  22
HETATM   22  C   UNL     1     -11.295  15.503  69.555  1.00  0.00    -0.313 C  
BRANCH  22  23
HETATM   23  C   UNL     1     -10.641  16.219  68.441  1.00  0.00    -0.301 A  
HETATM   24  N   UNL     1     -10.892  15.956  67.089  1.00  0.00    -0.302 NA 
HETATM   25  H2  UNL     1     -10.331  17.834  64.496  1.00  0.00     0.000 HD 
HETATM   26  N   UNL     1     -10.644  17.009  65.009  1.00  0.00    -0.655 NA 
HETATM   27  C   UNL     1     -10.041  17.447  68.672  1.00  0.00    -0.355 A  
HETATM   28  S   UNL     1      -9.777  18.268  67.198  1.00  0.00    -0.317 SA 
HETATM   29  H1  UNL     1     -11.068  16.231  64.504  1.00  0.00     0.000 HD 
HETATM   30  C   UNL     1     -10.492  16.957  66.349  1.00  0.00    -0.252 A  
ENDBRANCH  22  23
BRANCH  22  31
HETATM   31  N   UNL     1     -11.103  16.160  70.658  1.00  0.00    -0.336 NA 
HETATM   32  H   UNL     1     -10.203  16.623  70.780  1.00  0.00     0.000 HD 
BRANCH  31  33
HETATM   33  O   UNL     1     -12.034  16.282  71.690  1.00  0.00    -0.468 OA 
HETATM   34  C   UNL     1     -11.908  15.487  72.847  1.00  0.00    -0.457 C  
ENDBRANCH  31  33
ENDBRANCH  22  31
ENDBRANCH  19  22
ENDBRANCH   8  18
TORSDOF 8
ENDMDL
MODEL       76
REMARK 921   NORMALIZED FREE ENERGY PREDICTED BY IDOCK:   -5.55 KCAL/MOL
REMARK 922        TOTAL FREE ENERGY PREDICTED BY IDOCK:   -9.30 KCAL/MOL
REMARK 923 INTER-LIGAND FREE ENERGY PREDICTED BY IDOCK:   -8.14 KCAL/MOL
REMARK 924 INTRA-LIGAND FREE ENERGY PREDICTED BY IDOCK:   -1.15 KCAL/MOL
REMARK 927      BINDING AFFINITY PREDICTED BY RF-SCORE:    0.00 PKD
ROOT
HETATM    1  C   UNL     1     -10.884   9.958  66.659  1.00  0.00     0.039 C  
HETATM    2  S   UNL     1     -11.419  10.748  68.153  1.00  0.00    -0.198 SA 
HETATM    3  C   UNL     1     -11.768  12.454  67.628  1.00  0.00    -0.346 C  
HETATM    4  C   UNL     1     -11.591  12.809  66.179  1.00  0.00    -0.431 C  
HETATM    5  C   UNL     1      -9.685   9.925  64.980  1.00  0.00    -0.288 C  
HETATM    6  CA  UNL     1     -11.078  11.993  65.221  1.00  0.00    -0.317 C  
HETATM    7  N   UNL     1     -10.561  10.787  65.533  1.00  0.00    -0.185 N  
HETATM    8  CA  UNL     1      -9.513   9.218  66.360  1.00  0.00    -0.218 C  
HETATM    9  C   UNL     1     -11.067  12.455  63.798  1.00  0.00    -0.445 C  
HETATM   10  O   UNL     1      -9.059   9.948  63.945  1.00  0.00    -0.236 OA 
HETATM   11  O   UNL     1     -10.046  12.088  63.019  1.00  0.00    -0.348 OA 
HETATM   12  OXT UNL     1     -12.000  13.091  63.324  1.00  0.00    -0.562 OA 
ENDROOT
BRANCH   4  13
HETATM   13  C   UNL     1     -11.911  14.282  65.917  1.00  0.00    -0.391 C  
BRANCH  13  14
HETATM   14  O   UNL     1     -10.723  15.056  65.682  1.00  0.00    -0.315 OA 
BRANCH  14  15
HETATM   15  C   UNL     1     -10.886  16.323  65.202  1.00  0.00    -0.318 C  
HETATM   16  C   UNL     1     -10.267  17.340  66.122  1.00  0.00    -0.338 C  
HETATM   17  O   UNL     1     -11.408  16.611  64.134  1.00  0.00    -1.141 OA 
ENDBRANCH  14  15
ENDBRANCH  13  14
ENDBRANCH   4  13
BRANCH   8  18
HETATM   18  N   UNL     1      -8.102   9.397  66.911  1.00  0.00    -0.108 N  
HETATM   19  C   UNL     1      -7.458   9.005  68.083  1.00  0.00    -0.084 C  
HETATM   20  H   UNL     1      -7.494   9.920  66.281  1.00  0.00     0.000 HD 
HETATM   21  O   UNL     1      -6.345   9.521  68.343  1.00  0.00    -0.052 OA 
BRANCH  19  22
HETATM   22  C   UNL     1      -7.944   7.905  69.025  1.00  0.00    -0.122 C  
BRANCH  22  23
HETATM   23  C   UNL     1      -9.178   8.047  69.824  1.00  0.00    -0.149 A  
HETATM   24  N   UNL     1     -10.091   7.009  70.043  1.00  0.00    -0.185 NA 
HETATM   25  H2  UNL     1     -12.352   6.721  72.360  1.00  0.00     0.000 HD 
HETATM   26  N   UNL     1     -11.806   6.452  71.542  1.00  0.00    -0.318 NA 
HETATM   27  C   UNL     1      -9.300   9.100  70.718  1.00  0.00    -0.264 A  
HETATM   28  S   UNL     1     -10.565   8.799  71.824  1.00  0.00    -0.364 SA 
HETATM   29  H1  UNL     1     -11.980   5.554  71.092  1.00  0.00     0.000 HD 
HETATM   30  C   UNL     1     -10.859   7.287  71.065  1.00  0.00    -0.239 A  
ENDBRANCH  22  23
BRANCH  22  31
HETATM   31  N   UNL     1      -7.264   6.890  69.464  1.00  0.00    -0.079 NA 
HETATM   32  H   UNL     1      -7.099   6.832  70.468  1.00  0.00     0.000 HD 
BRANCH  31  33
HETATM   33  O   UNL     1      -6.742   5.871  68.668  1.00  0.00    -0.059 OA 
HETATM   34  C   UNL     1      -7.466   5.414  67.548  1.00  0.00    -0.084 C  
ENDBRANCH  31  33
ENDBRANCH  22  31
ENDBRANCH  19  22
ENDBRANCH   8  18
TORSDOF 8
ENDMDL
MODEL       77
REMARK 921   NORMALIZED FREE ENERGY PREDICTED BY IDOCK:   -5.54 KCAL/MOL
REMARK 922        TOTAL FREE ENERGY PREDICTED BY IDOCK:   -9.29 KCAL/MOL
REMARK 923 INTER-LIGAND FREE ENERGY PREDICTED BY IDOCK:   -8.02 KCAL/MOL
REMARK 924 INTRA-LIGAND FREE ENERGY PREDICTED BY IDOCK:   -1.27 KCAL/MOL
REMARK 927      BINDING AFFINITY PREDICTED BY RF-SCORE:    0.00 PKD
ROOT
HETATM    1  C   UNL     1      -8.836   9.187  69.601  1.00  0.00    -0.151 C  
HETATM    2  S   UNL     1      -8.578   8.806  71.313  1.00  0.00    -0.202 SA 
HETATM    3  C   UNL     1      -9.324   7.158  71.498  1.00  0.00    -0.153 C  
HETATM    4  C   UNL     1      -9.914   6.497  70.284  1.00  0.00    -0.198 C  
HETATM    5  C   UNL     1     -10.086   9.321  67.964  1.00  0.00    -0.193 C  
HETATM    6  CA  UNL     1     -10.047   7.069  69.058  1.00  0.00    -0.180 C  
HETATM    7  N   UNL     1      -9.750   8.368  68.856  1.00  0.00    -0.164 N  
HETATM    8  CA  UNL     1      -9.599  10.421  68.959  1.00  0.00    -0.204 C  
HETATM    9  C   UNL     1     -10.556   6.242  67.919  1.00  0.00    -0.262 C  
HETATM   10  O   UNL     1     -10.788   9.308  66.979  1.00  0.00    -0.186 OA 
HETATM   11  O   UNL     1     -11.321   6.833  66.998  1.00  0.00    -0.337 OA 
HETATM   12  OXT UNL     1     -10.226   5.070  67.781  1.00  0.00    -0.154 OA 
ENDROOT
BRANCH   4  13
HETATM   13  C   UNL     1     -10.509   5.129  70.622  1.00  0.00    -0.199 C  
BRANCH  13  14
HETATM   14  O   UNL     1      -9.651   4.369  71.487  1.00  0.00    -0.143 OA 
BRANCH  14  15
HETATM   15  C   UNL     1     -10.247   3.605  72.447  1.00  0.00    -0.145 C  
HETATM   16  C   UNL     1     -11.102   4.441  73.360  1.00  0.00    -0.394 C  
HETATM   17  O   UNL     1     -10.162   2.387  72.534  1.00  0.00    -0.149 OA 
ENDBRANCH  14  15
ENDBRANCH  13  14
ENDBRANCH   4  13
BRANCH   8  18
HETATM   18  N   UNL     1     -10.756  11.287  69.448  1.00  0.00    -0.389 N  
HETATM   19  C   UNL     1     -11.235  12.551  69.109  1.00  0.00    -0.239 C  
HETATM   20  H   UNL     1     -11.299  10.843  70.188  1.00  0.00     0.000 HD 
HETATM   21  O   UNL     1     -12.073  13.087  69.873  1.00  0.00    -0.313 OA 
BRANCH  19  22
HETATM   22  C   UNL     1     -10.912  13.294  67.814  1.00  0.00    -0.258 C  
BRANCH  22  23
HETATM   23  C   UNL     1     -11.085  12.666  66.488  1.00  0.00    -0.280 A  
HETATM   24  N   UNL     1     -12.288  12.672  65.772  1.00  0.00    -0.619 NA 
HETATM   25  H2  UNL     1     -12.787  12.187  62.597  1.00  0.00     0.000 HD 
HETATM   26  N   UNL     1     -13.033  12.380  63.568  1.00  0.00    -0.738 NA 
HETATM   27  C   UNL     1      -9.971  12.380  65.712  1.00  0.00    -0.254 A  
HETATM   28  S   UNL     1     -10.430  12.105  64.091  1.00  0.00    -0.397 SA 
HETATM   29  H1  UNL     1     -14.006  12.556  63.817  1.00  0.00     0.000 HD 
HETATM   30  C   UNL     1     -12.068  12.401  64.512  1.00  0.00    -0.417 A  
ENDBRANCH  22  23
BRANCH  22  31
HETATM   31  N   UNL     1     -10.218  14.383  67.685  1.00  0.00    -0.229 NA 
HETATM   32  H   UNL     1     -10.112  14.766  66.746  1.00  0.00     0.000 HD 
BRANCH  31  33
HETATM   33  O   UNL     1      -9.605  15.071  68.732  1.00  0.00    -0.206 OA 
HETATM   34  C   UNL     1     -10.159  16.281  69.196  1.00  0.00    -0.264 C  
ENDBRANCH  31  33
ENDBRANCH  22  31
ENDBRANCH  19  22
ENDBRANCH   8  18
TORSDOF 8
ENDMDL
MODEL       78
REMARK 921   NORMALIZED FREE ENERGY PREDICTED BY IDOCK:   -5.54 KCAL/MOL
REMARK 922        TOTAL FREE ENERGY PREDICTED BY IDOCK:   -9.28 KCAL/MOL
REMARK 923 INTER-LIGAND FREE ENERGY PREDICTED BY IDOCK:   -8.07 KCAL/MOL
REMARK 924 INTRA-LIGAND FREE ENERGY PREDICTED BY IDOCK:   -1.21 KCAL/MOL
REMARK 927      BINDING AFFINITY PREDICTED BY RF-SCORE:    0.00 PKD
ROOT
HETATM    1  C   UNL     1     -10.619   8.530  67.703  1.00  0.00    -0.198 C  
HETATM    2  S   UNL     1      -9.238   7.479  67.343  1.00  0.00    -0.135 SA 
HETATM    3  C   UNL     1      -8.783   6.804  68.970  1.00  0.00    -0.130 C  
HETATM    4  C   UNL     1      -9.605   7.198  70.165  1.00  0.00    -0.168 C  
HETATM    5  C   UNL     1     -11.481  10.036  68.819  1.00  0.00     0.022 C  
HETATM    6  CA  UNL     1     -10.608   8.115  70.168  1.00  0.00    -0.237 C  
HETATM    7  N   UNL     1     -10.880   8.858  69.076  1.00  0.00    -0.114 N  
HETATM    8  CA  UNL     1     -10.789  10.082  67.421  1.00  0.00    -0.249 C  
HETATM    9  C   UNL     1     -11.407   8.318  71.417  1.00  0.00    -0.262 C  
HETATM   10  O   UNL     1     -12.026  10.848  69.531  1.00  0.00    -0.305 OA 
HETATM   11  O   UNL     1     -11.846   9.548  71.697  1.00  0.00    -0.366 OA 
HETATM   12  OXT UNL     1     -11.723   7.377  72.135  1.00  0.00    -0.277 OA 
ENDROOT
BRANCH   4  13
HETATM   13  C   UNL     1      -9.076   6.555  71.449  1.00  0.00    -0.148 C  
BRANCH  13  14
HETATM   14  O   UNL     1      -7.776   7.053  71.802  1.00  0.00    -0.092 OA 
BRANCH  14  15
HETATM   15  C   UNL     1      -7.724   8.133  72.633  1.00  0.00    -0.132 C  
HETATM   16  C   UNL     1      -8.507   7.891  73.895  1.00  0.00    -0.316 C  
HETATM   17  O   UNL     1      -7.078   9.152  72.427  1.00  0.00    -0.320 OA 
ENDBRANCH  14  15
ENDBRANCH  13  14
ENDBRANCH   4  13
BRANCH   8  18
HETATM   18  N   UNL     1      -9.789  11.230  67.325  1.00  0.00    -0.181 N  
HETATM   19  C   UNL     1      -9.878  12.567  66.944  1.00  0.00    -0.227 C  
HETATM   20  H   UNL     1      -8.847  10.958  67.603  1.00  0.00     0.000 HD 
HETATM   21  O   UNL     1      -8.809  13.194  66.747  1.00  0.00    -0.207 OA 
BRANCH  19  22
HETATM   22  C   UNL     1     -11.174  13.372  66.859  1.00  0.00    -0.308 C  
BRANCH  22  23
HETATM   23  C   UNL     1     -11.354  14.643  67.589  1.00  0.00    -0.336 A  
HETATM   24  N   UNL     1     -11.745  14.724  68.931  1.00  0.00    -0.300 NA 
HETATM   25  H2  UNL     1     -11.405  17.192  71.018  1.00  0.00     0.000 HD 
HETATM   26  N   UNL     1     -11.677  16.263  70.699  1.00  0.00    -0.516 NA 
HETATM   27  C   UNL     1     -10.772  15.803  67.102  1.00  0.00    -0.312 A  
HETATM   28  S   UNL     1     -10.724  17.001  68.317  1.00  0.00    -0.344 SA 
HETATM   29  H1  UNL     1     -12.113  15.612  71.352  1.00  0.00     0.000 HD 
HETATM   30  C   UNL     1     -11.458  15.905  69.416  1.00  0.00    -0.351 A  
ENDBRANCH  22  23
BRANCH  22  31
HETATM   31  N   UNL     1     -12.324  12.964  66.416  1.00  0.00    -0.450 NA 
HETATM   32  H   UNL     1     -12.879  12.366  67.027  1.00  0.00     0.000 HD 
BRANCH  31  33
HETATM   33  O   UNL     1     -12.860  13.281  65.168  1.00  0.00    -0.670 OA 
HETATM   34  C   UNL     1     -12.077  13.122  64.007  1.00  0.00    -0.446 C  
ENDBRANCH  31  33
ENDBRANCH  22  31
ENDBRANCH  19  22
ENDBRANCH   8  18
TORSDOF 8
ENDMDL
MODEL       79
REMARK 921   NORMALIZED FREE ENERGY PREDICTED BY IDOCK:   -5.53 KCAL/MOL
REMARK 922        TOTAL FREE ENERGY PREDICTED BY IDOCK:   -9.28 KCAL/MOL
REMARK 923 INTER-LIGAND FREE ENERGY PREDICTED BY IDOCK:   -8.00 KCAL/MOL
REMARK 924 INTRA-LIGAND FREE ENERGY PREDICTED BY IDOCK:   -1.28 KCAL/MOL
REMARK 927      BINDING AFFINITY PREDICTED BY RF-SCORE:    0.00 PKD
ROOT
HETATM    1  C   UNL     1      -7.731  12.273  67.474  1.00  0.00    -0.158 C  
HETATM    2  S   UNL     1      -6.983  12.144  69.075  1.00  0.00    -0.053 SA 
HETATM    3  C   UNL     1      -7.389  10.451  69.598  1.00  0.00    -0.156 C  
HETATM    4  C   UNL     1      -8.162   9.574  68.654  1.00  0.00    -0.112 C  
HETATM    5  C   UNL     1      -9.366  12.043  66.236  1.00  0.00    -0.223 C  
HETATM    6  CA  UNL     1      -8.696   9.967  67.467  1.00  0.00    -0.125 C  
HETATM    7  N   UNL     1      -8.668  11.259  67.081  1.00  0.00    -0.147 N  
HETATM    8  CA  UNL     1      -8.817  13.310  66.962  1.00  0.00    -0.212 C  
HETATM    9  C   UNL     1      -9.346   8.947  66.586  1.00  0.00    -0.185 C  
HETATM   10  O   UNL     1     -10.288  11.818  65.486  1.00  0.00    -0.242 OA 
HETATM   11  O   UNL     1     -10.406   9.316  65.862  1.00  0.00    -0.154 OA 
HETATM   12  OXT UNL     1      -8.885   7.819  66.464  1.00  0.00    -0.138 OA 
ENDROOT
BRANCH   4  13
HETATM   13  C   UNL     1      -8.430   8.194  69.257  1.00  0.00    -0.134 C  
BRANCH  13  14
HETATM   14  O   UNL     1      -9.267   8.271  70.422  1.00  0.00    -0.148 OA 
BRANCH  14  15
HETATM   15  C   UNL     1     -10.605   8.067  70.246  1.00  0.00    -0.231 C  
HETATM   16  C   UNL     1     -11.396   9.301  70.586  1.00  0.00    -0.330 C  
HETATM   17  O   UNL     1     -11.111   7.043  69.809  1.00  0.00    -0.260 OA 
ENDBRANCH  14  15
ENDBRANCH  13  14
ENDBRANCH   4  13
BRANCH   8  18
HETATM   18  N   UNL     1      -9.928  14.077  67.672  1.00  0.00    -0.234 N  
HETATM   19  C   UNL     1     -10.396  15.387  67.613  1.00  0.00    -0.262 C  
HETATM   20  H   UNL     1     -10.442  13.502  68.339  1.00  0.00     0.000 HD 
HETATM   21  O   UNL     1     -11.183  15.772  68.512  1.00  0.00    -0.314 OA 
BRANCH  19  22
HETATM   22  C   UNL     1     -10.123  16.367  66.473  1.00  0.00    -0.295 C  
BRANCH  22  23
HETATM   23  C   UNL     1      -9.647  17.743  66.721  1.00  0.00    -0.300 A  
HETATM   24  N   UNL     1      -8.461  18.266  66.193  1.00  0.00    -0.488 NA 
HETATM   25  H2  UNL     1      -7.578  21.372  65.817  1.00  0.00     0.000 HD 
HETATM   26  N   UNL     1      -7.488  20.357  65.767  1.00  0.00    -0.520 NA 
HETATM   27  C   UNL     1     -10.538  18.708  67.165  1.00  0.00    -0.417 A  
HETATM   28  S   UNL     1      -9.887  20.270  66.936  1.00  0.00    -0.431 SA 
HETATM   29  H1  UNL     1      -6.651  19.944  65.357  1.00  0.00     0.000 HD 
HETATM   30  C   UNL     1      -8.477  19.573  66.245  1.00  0.00    -0.352 A  
ENDBRANCH  22  23
BRANCH  22  31
HETATM   31  N   UNL     1     -10.510  16.263  65.238  1.00  0.00    -0.604 NA 
HETATM   32  H   UNL     1     -10.601  17.123  64.699  1.00  0.00     0.000 HD 
BRANCH  31  33
HETATM   33  O   UNL     1     -10.811  15.065  64.591  1.00  0.00    -0.373 OA 
HETATM   34  C   UNL     1     -12.145  14.766  64.250  1.00  0.00    -0.394 C  
ENDBRANCH  31  33
ENDBRANCH  22  31
ENDBRANCH  19  22
ENDBRANCH   8  18
TORSDOF 8
ENDMDL
MODEL       80
REMARK 921   NORMALIZED FREE ENERGY PREDICTED BY IDOCK:   -5.52 KCAL/MOL
REMARK 922        TOTAL FREE ENERGY PREDICTED BY IDOCK:   -9.26 KCAL/MOL
REMARK 923 INTER-LIGAND FREE ENERGY PREDICTED BY IDOCK:   -8.12 KCAL/MOL
REMARK 924 INTRA-LIGAND FREE ENERGY PREDICTED BY IDOCK:   -1.14 KCAL/MOL
REMARK 927      BINDING AFFINITY PREDICTED BY RF-SCORE:    0.00 PKD
ROOT
HETATM    1  C   UNL     1     -10.048  15.578  66.587  1.00  0.00    -0.267 C  
HETATM    2  S   UNL     1     -10.807  15.094  65.060  1.00  0.00    -0.434 SA 
HETATM    3  C   UNL     1     -10.369  13.336  64.907  1.00  0.00    -0.351 C  
HETATM    4  C   UNL     1      -9.569  12.698  66.007  1.00  0.00    -0.190 C  
HETATM    5  C   UNL     1      -8.398  15.650  67.824  1.00  0.00    -0.148 C  
HETATM    6  CA  UNL     1      -9.034  13.346  67.075  1.00  0.00    -0.224 C  
HETATM    7  N   UNL     1      -9.087  14.690  67.176  1.00  0.00    -0.212 N  
HETATM    8  CA  UNL     1      -8.981  16.722  66.850  1.00  0.00    -0.223 C  
HETATM    9  C   UNL     1      -8.355  12.552  68.146  1.00  0.00    -0.175 C  
HETATM   10  O   UNL     1      -7.465  15.609  68.593  1.00  0.00    -0.119 OA 
HETATM   11  O   UNL     1      -7.297  13.088  68.760  1.00  0.00    -0.105 OA 
HETATM   12  OXT UNL     1      -8.791  11.467  68.512  1.00  0.00    -0.158 OA 
ENDROOT
BRANCH   4  13
HETATM   13  C   UNL     1      -9.278  11.225  65.710  1.00  0.00    -0.219 C  
BRANCH  13  14
HETATM   14  O   UNL     1     -10.380  10.377  66.069  1.00  0.00    -0.241 OA 
BRANCH  14  15
HETATM   15  C   UNL     1     -10.098   9.077  66.370  1.00  0.00    -0.281 C  
HETATM   16  C   UNL     1      -8.765   8.662  65.811  1.00  0.00    -0.212 C  
HETATM   17  O   UNL     1     -10.796   8.345  67.059  1.00  0.00    -0.224 OA 
ENDBRANCH  14  15
ENDBRANCH  13  14
ENDBRANCH   4  13
BRANCH   8  18
HETATM   18  N   UNL     1      -7.893  17.339  65.977  1.00  0.00    -0.256 N  
HETATM   19  C   UNL     1      -7.336  18.612  65.872  1.00  0.00    -0.213 C  
HETATM   20  H   UNL     1      -7.481  16.671  65.326  1.00  0.00     0.000 HD 
HETATM   21  O   UNL     1      -6.612  18.857  64.877  1.00  0.00    -0.500 OA 
BRANCH  19  22
HETATM   22  C   UNL     1      -7.438  19.705  66.935  1.00  0.00    -0.235 C  
BRANCH  22  23
HETATM   23  C   UNL     1      -6.617  19.682  68.162  1.00  0.00    -0.260 A  
HETATM   24  N   UNL     1      -6.888  20.454  69.299  1.00  0.00    -0.093 NA 
HETATM   25  H2  UNL     1      -5.866  20.032  72.355  1.00  0.00     0.000 HD 
HETATM   26  N   UNL     1      -6.364  20.477  71.584  1.00  0.00    -0.694 NA 
HETATM   27  C   UNL     1      -5.766  18.613  68.400  1.00  0.00    -0.191 A  
HETATM   28  S   UNL     1      -5.294  18.580  70.040  1.00  0.00    -0.238 SA 
HETATM   29  H1  UNL     1      -6.937  21.302  71.761  1.00  0.00     0.000 HD 
HETATM   30  C   UNL     1      -6.259  19.969  70.338  1.00  0.00    -0.333 A  
ENDBRANCH  22  23
BRANCH  22  31
HETATM   31  N   UNL     1      -8.381  20.587  67.067  1.00  0.00    -0.509 NA 
HETATM   32  H   UNL     1      -8.108  21.569  67.087  1.00  0.00     0.000 HD 
BRANCH  31  33
HETATM   33  O   UNL     1      -9.740  20.296  67.182  1.00  0.00    -0.400 OA 
HETATM   34  C   UNL     1     -10.502  20.030  66.026  1.00  0.00    -0.416 C  
ENDBRANCH  31  33
ENDBRANCH  22  31
ENDBRANCH  19  22
ENDBRANCH   8  18
TORSDOF 8
ENDMDL
MODEL       81
REMARK 921   NORMALIZED FREE ENERGY PREDICTED BY IDOCK:   -5.49 KCAL/MOL
REMARK 922        TOTAL FREE ENERGY PREDICTED BY IDOCK:   -9.22 KCAL/MOL
REMARK 923 INTER-LIGAND FREE ENERGY PREDICTED BY IDOCK:   -7.88 KCAL/MOL
REMARK 924 INTRA-LIGAND FREE ENERGY PREDICTED BY IDOCK:   -1.34 KCAL/MOL
REMARK 927      BINDING AFFINITY PREDICTED BY RF-SCORE:    0.00 PKD
ROOT
HETATM    1  C   UNL     1     -11.631  13.255  66.527  1.00  0.00    -0.350 C  
HETATM    2  S   UNL     1     -12.466  12.780  65.037  1.00  0.00    -0.453 SA 
HETATM    3  C   UNL     1     -11.402  11.473  64.353  1.00  0.00    -0.209 C  
HETATM    4  C   UNL     1     -10.177  11.069  65.123  1.00  0.00    -0.352 C  
HETATM    5  C   UNL     1      -9.910  13.828  67.511  1.00  0.00    -0.230 C  
HETATM    6  CA  UNL     1      -9.715  11.674  66.249  1.00  0.00    -0.218 C  
HETATM    7  N   UNL     1     -10.282  12.803  66.720  1.00  0.00    -0.236 N  
HETATM    8  CA  UNL     1     -11.090  14.684  66.953  1.00  0.00    -0.333 C  
HETATM    9  C   UNL     1      -8.539  11.085  66.964  1.00  0.00    -0.140 C  
HETATM   10  O   UNL     1      -8.888  14.068  68.112  1.00  0.00    -0.168 OA 
HETATM   11  O   UNL     1      -7.677  11.914  67.559  1.00  0.00    -0.132 OA 
HETATM   12  OXT UNL     1      -8.397   9.873  67.073  1.00  0.00    -0.120 OA 
ENDROOT
BRANCH   4  13
HETATM   13  C   UNL     1      -9.392   9.973  64.399  1.00  0.00    -0.290 C  
BRANCH  13  14
HETATM   14  O   UNL     1      -8.366  10.518  63.554  1.00  0.00    -0.164 OA 
BRANCH  14  15
HETATM   15  C   UNL     1      -7.114   9.987  63.668  1.00  0.00    -0.126 C  
HETATM   16  C   UNL     1      -7.169   8.517  63.980  1.00  0.00    -0.093 C  
HETATM   17  O   UNL     1      -6.069  10.597  63.482  1.00  0.00    -0.093 OA 
ENDBRANCH  14  15
ENDBRANCH  13  14
ENDBRANCH   4  13
BRANCH   8  18
HETATM   18  N   UNL     1     -10.586  15.879  66.149  1.00  0.00    -0.312 N  
HETATM   19  C   UNL     1     -10.223  17.184  66.473  1.00  0.00    -0.322 C  
HETATM   20  H   UNL     1     -10.494  15.677  65.154  1.00  0.00     0.000 HD 
HETATM   21  O   UNL     1     -10.075  18.003  65.534  1.00  0.00    -0.508 OA 
BRANCH  19  22
HETATM   22  C   UNL     1      -9.873  17.676  67.876  1.00  0.00    -0.300 C  
BRANCH  22  23
HETATM   23  C   UNL     1      -8.509  18.116  68.233  1.00  0.00    -0.284 A  
HETATM   24  N   UNL     1      -8.208  19.373  68.770  1.00  0.00    -0.365 NA 
HETATM   25  H2  UNL     1      -5.573  20.322  70.420  1.00  0.00     0.000 HD 
HETATM   26  N   UNL     1      -6.488  20.413  69.978  1.00  0.00    -0.306 NA 
HETATM   27  C   UNL     1      -7.510  17.172  68.420  1.00  0.00    -0.227 A  
HETATM   28  S   UNL     1      -6.189  17.860  69.256  1.00  0.00    -0.246 SA 
HETATM   29  H1  UNL     1      -6.986  21.302  70.026  1.00  0.00     0.000 HD 
HETATM   30  C   UNL     1      -7.029  19.356  69.335  1.00  0.00    -0.295 A  
ENDBRANCH  22  23
BRANCH  22  31
HETATM   31  N   UNL     1     -10.571  17.523  68.959  1.00  0.00    -0.369 NA 
HETATM   32  H   UNL     1     -11.166  18.299  69.250  1.00  0.00     0.000 HD 
BRANCH  31  33
HETATM   33  O   UNL     1     -10.572  16.379  69.757  1.00  0.00    -0.309 OA 
HETATM   34  C   UNL     1     -11.695  16.079  70.553  1.00  0.00    -0.329 C  
ENDBRANCH  31  33
ENDBRANCH  22  31
ENDBRANCH  19  22
ENDBRANCH   8  18
TORSDOF 8
ENDMDL
MODEL       82
REMARK 921   NORMALIZED FREE ENERGY PREDICTED BY IDOCK:   -5.48 KCAL/MOL
REMARK 922        TOTAL FREE ENERGY PREDICTED BY IDOCK:   -9.20 KCAL/MOL
REMARK 923 INTER-LIGAND FREE ENERGY PREDICTED BY IDOCK:   -7.61 KCAL/MOL
REMARK 924 INTRA-LIGAND FREE ENERGY PREDICTED BY IDOCK:   -1.59 KCAL/MOL
REMARK 927      BINDING AFFINITY PREDICTED BY RF-SCORE:    0.00 PKD
ROOT
HETATM    1  C   UNL     1      -9.897   8.114  70.468  1.00  0.00    -0.186 C  
HETATM    2  S   UNL     1      -8.818   9.175  69.544  1.00  0.00    -0.158 SA 
HETATM    3  C   UNL     1      -9.740  10.740  69.454  1.00  0.00    -0.061 C  
HETATM    4  C   UNL     1     -11.073  10.829  70.141  1.00  0.00    -0.298 C  
HETATM    5  C   UNL     1     -11.764   7.294  70.785  1.00  0.00    -0.299 C  
HETATM    6  CA  UNL     1     -11.723   9.797  70.742  1.00  0.00    -0.328 C  
HETATM    7  N   UNL     1     -11.254   8.536  70.667  1.00  0.00    -0.254 N  
HETATM    8  CA  UNL     1     -10.515   6.714  70.049  1.00  0.00    -0.212 C  
HETATM    9  C   UNL     1     -12.997  10.069  71.480  1.00  0.00    -0.434 C  
HETATM   10  O   UNL     1     -12.875   6.886  71.037  1.00  0.00    -0.333 OA 
HETATM   11  O   UNL     1     -13.955   9.138  71.458  1.00  0.00    -0.354 OA 
HETATM   12  OXT UNL     1     -13.143  11.082  72.153  1.00  0.00    -0.460 OA 
ENDROOT
BRANCH   4  13
HETATM   13  C   UNL     1     -11.714  12.205  69.951  1.00  0.00    -0.287 C  
BRANCH  13  14
HETATM   14  O   UNL     1     -11.096  12.942  68.885  1.00  0.00    -0.246 OA 
BRANCH  14  15
HETATM   15  C   UNL     1     -11.701  12.902  67.663  1.00  0.00    -0.370 C  
HETATM   16  C   UNL     1     -11.972  14.287  67.140  1.00  0.00    -0.449 C  
HETATM   17  O   UNL     1     -11.944  11.884  67.028  1.00  0.00    -0.615 OA 
ENDBRANCH  14  15
ENDBRANCH  13  14
ENDBRANCH   4  13
BRANCH   8  18
HETATM   18  N   UNL     1     -10.888   6.113  68.698  1.00  0.00    -0.309 N  
HETATM   19  C   UNL     1     -10.412   6.272  67.399  1.00  0.00    -0.248 C  
HETATM   20  H   UNL     1     -11.657   5.446  68.760  1.00  0.00     0.000 HD 
HETATM   21  O   UNL     1     -11.099   5.804  66.459  1.00  0.00    -0.200 OA 
BRANCH  19  22
HETATM   22  C   UNL     1      -9.055   6.868  67.028  1.00  0.00    -0.136 C  
BRANCH  22  23
HETATM   23  C   UNL     1      -8.919   7.930  66.010  1.00  0.00    -0.154 A  
HETATM   24  N   UNL     1      -9.831   8.980  65.850  1.00  0.00    -0.255 NA 
HETATM   25  H2  UNL     1      -9.417  11.848  64.377  1.00  0.00     0.000 HD 
HETATM   26  N   UNL     1      -9.910  11.120  64.893  1.00  0.00    -0.249 NA 
HETATM   27  C   UNL     1      -7.686   8.162  65.420  1.00  0.00    -0.101 A  
HETATM   28  S   UNL     1      -7.670   9.688  64.654  1.00  0.00    -0.137 SA 
HETATM   29  H1  UNL     1     -10.871  11.278  65.198  1.00  0.00     0.000 HD 
HETATM   30  C   UNL     1      -9.287   9.954  65.167  1.00  0.00    -0.258 A  
ENDBRANCH  22  23
BRANCH  22  31
HETATM   31  N   UNL     1      -7.882   6.382  67.300  1.00  0.00    -0.103 NA 
HETATM   32  H   UNL     1      -7.106   6.664  66.702  1.00  0.00     0.000 HD 
BRANCH  31  33
HETATM   33  O   UNL     1      -7.602   5.504  68.347  1.00  0.00    -0.082 OA 
HETATM   34  C   UNL     1      -6.410   4.753  68.333  1.00  0.00    -0.036 C  
ENDBRANCH  31  33
ENDBRANCH  22  31
ENDBRANCH  19  22
ENDBRANCH   8  18
TORSDOF 8
ENDMDL
MODEL       83
REMARK 921   NORMALIZED FREE ENERGY PREDICTED BY IDOCK:   -5.47 KCAL/MOL
REMARK 922        TOTAL FREE ENERGY PREDICTED BY IDOCK:   -9.18 KCAL/MOL
REMARK 923 INTER-LIGAND FREE ENERGY PREDICTED BY IDOCK:   -7.84 KCAL/MOL
REMARK 924 INTRA-LIGAND FREE ENERGY PREDICTED BY IDOCK:   -1.35 KCAL/MOL
REMARK 927      BINDING AFFINITY PREDICTED BY RF-SCORE:    0.00 PKD
ROOT
HETATM    1  C   UNL     1      -7.654  10.481  68.526  1.00  0.00    -0.097 C  
HETATM    2  S   UNL     1      -7.441   9.413  69.925  1.00  0.00    -0.117 SA 
HETATM    3  C   UNL     1      -7.618   7.748  69.218  1.00  0.00    -0.098 C  
HETATM    4  C   UNL     1      -7.846   7.617  67.738  1.00  0.00    -0.120 C  
HETATM    5  C   UNL     1      -8.725  11.058  66.859  1.00  0.00    -0.148 C  
HETATM    6  CA  UNL     1      -8.048   8.647  66.875  1.00  0.00    -0.098 C  
HETATM    7  N   UNL     1      -8.178   9.914  67.316  1.00  0.00    -0.120 N  
HETATM    8  CA  UNL     1      -8.719  11.637  68.309  1.00  0.00    -0.163 C  
HETATM    9  C   UNL     1      -8.152   8.361  65.409  1.00  0.00    -0.133 C  
HETATM   10  O   UNL     1      -9.292  11.338  65.828  1.00  0.00    -0.213 OA 
HETATM   11  O   UNL     1      -8.982   9.105  64.674  1.00  0.00    -0.192 OA 
HETATM   12  OXT UNL     1      -7.445   7.519  64.870  1.00  0.00    -0.077 OA 
ENDROOT
BRANCH   4  13
HETATM   13  C   UNL     1      -7.987   6.153  67.317  1.00  0.00    -0.102 C  
BRANCH  13  14
HETATM   14  O   UNL     1      -9.045   5.490  68.029  1.00  0.00    -0.108 OA 
BRANCH  14  15
HETATM   15  C   UNL     1     -10.318   5.674  67.573  1.00  0.00    -0.222 C  
HETATM   16  C   UNL     1     -10.522   5.012  66.238  1.00  0.00    -0.352 C  
HETATM   17  O   UNL     1     -11.210   6.247  68.183  1.00  0.00    -0.327 OA 
ENDBRANCH  14  15
ENDBRANCH  13  14
ENDBRANCH   4  13
BRANCH   8  18
HETATM   18  N   UNL     1     -10.134  11.849  68.835  1.00  0.00    -0.404 N  
HETATM   19  C   UNL     1     -10.973  12.956  68.952  1.00  0.00    -0.228 C  
HETATM   20  H   UNL     1     -10.563  10.990  69.178  1.00  0.00     0.000 HD 
HETATM   21  O   UNL     1     -12.005  12.840  69.656  1.00  0.00    -0.314 OA 
BRANCH  19  22
HETATM   22  C   UNL     1     -10.801  14.271  68.195  1.00  0.00    -0.244 C  
BRANCH  22  23
HETATM   23  C   UNL     1     -11.430  14.504  66.879  1.00  0.00    -0.364 A  
HETATM   24  N   UNL     1     -11.229  15.656  66.109  1.00  0.00    -0.125 NA 
HETATM   25  H2  UNL     1     -11.722  16.109  62.929  1.00  0.00     0.000 HD 
HETATM   26  N   UNL     1     -11.454  16.354  63.882  1.00  0.00    -1.618 NA 
HETATM   27  C   UNL     1     -11.941  13.433  66.163  1.00  0.00    -0.413 A  
HETATM   28  S   UNL     1     -12.183  13.868  64.530  1.00  0.00    -0.396 SA 
HETATM   29  H1  UNL     1     -11.095  17.287  64.082  1.00  0.00     0.000 HD 
HETATM   30  C   UNL     1     -11.578  15.440  64.868  1.00  0.00    -0.248 A  
ENDBRANCH  22  23
BRANCH  22  31
HETATM   31  N   UNL     1      -9.918  15.197  68.418  1.00  0.00    -0.218 NA 
HETATM   32  H   UNL     1      -9.002  15.088  67.984  1.00  0.00     0.000 HD 
BRANCH  31  33
HETATM   33  O   UNL     1     -10.126  16.329  69.206  1.00  0.00    -0.243 OA 
HETATM   34  C   UNL     1     -11.089  16.301  70.234  1.00  0.00    -0.332 C  
ENDBRANCH  31  33
ENDBRANCH  22  31
ENDBRANCH  19  22
ENDBRANCH   8  18
TORSDOF 8
ENDMDL
MODEL       84
REMARK 921   NORMALIZED FREE ENERGY PREDICTED BY IDOCK:   -5.47 KCAL/MOL
REMARK 922        TOTAL FREE ENERGY PREDICTED BY IDOCK:   -9.18 KCAL/MOL
REMARK 923 INTER-LIGAND FREE ENERGY PREDICTED BY IDOCK:   -8.08 KCAL/MOL
REMARK 924 INTRA-LIGAND FREE ENERGY PREDICTED BY IDOCK:   -1.10 KCAL/MOL
REMARK 927      BINDING AFFINITY PREDICTED BY RF-SCORE:    0.00 PKD
ROOT
HETATM    1  C   UNL     1     -10.946   9.557  71.084  1.00  0.00    -0.368 C  
HETATM    2  S   UNL     1     -12.369   8.577  71.479  1.00  0.00    -0.320 SA 
HETATM    3  C   UNL     1     -11.746   7.408  72.724  1.00  0.00    -0.139 C  
HETATM    4  C   UNL     1     -10.311   7.517  73.156  1.00  0.00    -0.402 C  
HETATM    5  C   UNL     1      -8.959   9.696  70.546  1.00  0.00    -0.128 C  
HETATM    6  CA  UNL     1      -9.383   8.349  72.615  1.00  0.00    -0.264 C  
HETATM    7  N   UNL     1      -9.662   9.095  71.527  1.00  0.00    -0.285 N  
HETATM    8  CA  UNL     1     -10.251   9.782  69.676  1.00  0.00    -0.233 C  
HETATM    9  C   UNL     1      -8.020   8.420  73.229  1.00  0.00    -0.091 C  
HETATM   10  O   UNL     1      -7.772   9.785  70.328  1.00  0.00    -0.158 OA 
HETATM   11  O   UNL     1      -6.970   8.614  72.425  1.00  0.00    -0.199 OA 
HETATM   12  OXT UNL     1      -7.861   8.378  74.443  1.00  0.00    -0.243 OA 
ENDROOT
BRANCH   4  13
HETATM   13  C   UNL     1      -9.952   6.450  74.193  1.00  0.00    -0.309 C  
BRANCH  13  14
HETATM   14  O   UNL     1     -10.750   5.265  74.041  1.00  0.00    -0.282 OA 
BRANCH  14  15
HETATM   15  C   UNL     1     -10.240   4.262  73.270  1.00  0.00    -0.156 C  
HETATM   16  C   UNL     1     -11.081   3.018  73.364  1.00  0.00    -0.285 C  
HETATM   17  O   UNL     1      -9.263   4.360  72.539  1.00  0.00    -0.121 OA 
ENDBRANCH  14  15
ENDBRANCH  13  14
ENDBRANCH   4  13
BRANCH   8  18
HETATM   18  N   UNL     1     -10.147   8.914  68.426  1.00  0.00    -0.183 N  
HETATM   19  C   UNL     1     -10.151   9.175  67.058  1.00  0.00    -0.249 C  
HETATM   20  H   UNL     1     -10.052   7.922  68.640  1.00  0.00     0.000 HD 
HETATM   21  O   UNL     1     -10.288   8.205  66.274  1.00  0.00    -0.110 OA 
BRANCH  19  22
HETATM   22  C   UNL     1      -9.883  10.539  66.423  1.00  0.00    -0.210 C  
BRANCH  22  23
HETATM   23  C   UNL     1     -10.889  11.223  65.585  1.00  0.00    -0.177 A  
HETATM   24  N   UNL     1     -11.839  12.123  66.083  1.00  0.00    -0.582 NA 
HETATM   25  H2  UNL     1     -13.552  14.382  64.493  1.00  0.00     0.000 HD 
HETATM   26  N   UNL     1     -13.232  13.836  65.293  1.00  0.00    -0.702 NA 
HETATM   27  C   UNL     1     -10.696  11.311  64.215  1.00  0.00    -0.349 A  
HETATM   28  S   UNL     1     -11.712  12.508  63.546  1.00  0.00    -0.516 SA 
HETATM   29  H1  UNL     1     -13.599  14.039  66.223  1.00  0.00     0.000 HD 
HETATM   30  C   UNL     1     -12.328  12.850  65.112  1.00  0.00    -0.493 A  
ENDBRANCH  22  23
BRANCH  22  31
HETATM   31  N   UNL     1      -8.735  11.128  66.282  1.00  0.00    -0.179 NA 
HETATM   32  H   UNL     1      -8.013  10.633  65.759  1.00  0.00     0.000 HD 
BRANCH  31  33
HETATM   33  O   UNL     1      -8.411  12.386  66.790  1.00  0.00    -0.174 OA 
HETATM   34  C   UNL     1      -8.488  12.625  68.176  1.00  0.00    -0.177 C  
ENDBRANCH  31  33
ENDBRANCH  22  31
ENDBRANCH  19  22
ENDBRANCH   8  18
TORSDOF 8
ENDMDL
MODEL       85
REMARK 921   NORMALIZED FREE ENERGY PREDICTED BY IDOCK:   -5.47 KCAL/MOL
REMARK 922        TOTAL FREE ENERGY PREDICTED BY IDOCK:   -9.18 KCAL/MOL
REMARK 923 INTER-LIGAND FREE ENERGY PREDICTED BY IDOCK:   -9.23 KCAL/MOL
REMARK 924 INTRA-LIGAND FREE ENERGY PREDICTED BY IDOCK:    0.05 KCAL/MOL
REMARK 927      BINDING AFFINITY PREDICTED BY RF-SCORE:    0.00 PKD
ROOT
HETATM    1  C   UNL     1      -9.360  15.348  66.012  1.00  0.00    -0.329 C  
HETATM    2  S   UNL     1      -8.778  14.956  67.640  1.00  0.00    -0.185 SA 
HETATM    3  C   UNL     1      -9.969  13.715  68.228  1.00  0.00    -0.236 C  
HETATM    4  C   UNL     1     -11.071  13.282  67.303  1.00  0.00    -0.301 C  
HETATM    5  C   UNL     1     -10.891  15.885  64.738  1.00  0.00    -0.324 C  
HETATM    6  CA  UNL     1     -11.337  13.821  66.083  1.00  0.00    -0.314 C  
HETATM    7  N   UNL     1     -10.673  14.907  65.639  1.00  0.00    -0.321 N  
HETATM    8  CA  UNL     1      -9.790  16.756  65.420  1.00  0.00     0.245 C  
HETATM    9  C   UNL     1     -12.403  13.206  65.231  1.00  0.00    -0.481 C  
HETATM   10  O   UNL     1     -11.801  16.103  63.971  1.00  0.00    -0.876 OA 
HETATM   11  O   UNL     1     -13.140  14.009  64.460  1.00  0.00    -0.400 OA 
HETATM   12  OXT UNL     1     -12.558  11.993  65.176  1.00  0.00    -0.396 OA 
ENDROOT
BRANCH   4  13
HETATM   13  C   UNL     1     -11.987  12.249  67.962  1.00  0.00    -0.187 C  
BRANCH  13  14
HETATM   14  O   UNL     1     -11.783  12.180  69.382  1.00  0.00    -0.291 OA 
BRANCH  14  15
HETATM   15  C   UNL     1     -11.933  10.962  69.978  1.00  0.00    -0.350 C  
HETATM   16  C   UNL     1     -10.638  10.197  69.998  1.00  0.00    -0.338 C  
HETATM   17  O   UNL     1     -12.965  10.551  70.492  1.00  0.00    -0.345 OA 
ENDBRANCH  14  15
ENDBRANCH  13  14
ENDBRANCH   4  13
BRANCH   8  18
HETATM   18  N   UNL     1     -10.380  18.008  66.060  1.00  0.00    -0.379 N  
HETATM   19  C   UNL     1     -10.420  18.509  67.360  1.00  0.00    -0.419 C  
HETATM   20  H   UNL     1     -10.849  18.614  65.387  1.00  0.00     0.000 HD 
HETATM   21  O   UNL     1     -11.199  19.462  67.599  1.00  0.00    -0.274 OA 
BRANCH  19  22
HETATM   22  C   UNL     1      -9.502  18.068  68.499  1.00  0.00    -0.319 C  
BRANCH  22  23
HETATM   23  C   UNL     1      -8.110  18.547  68.611  1.00  0.00    -0.310 A  
HETATM   24  N   UNL     1      -7.741  19.732  69.260  1.00  0.00    -0.192 NA 
HETATM   25  H2  UNL     1      -4.835  20.617  70.417  1.00  0.00     0.000 HD 
HETATM   26  N   UNL     1      -5.829  20.705  70.207  1.00  0.00    -0.510 NA 
HETATM   27  C   UNL     1      -7.061  17.660  68.424  1.00  0.00    -0.236 A  
HETATM   28  S   UNL     1      -5.611  18.311  69.045  1.00  0.00    -0.208 SA 
HETATM   29  H1  UNL     1      -6.335  21.540  70.502  1.00  0.00     0.000 HD 
HETATM   30  C   UNL     1      -6.464  19.717  69.541  1.00  0.00    -0.348 A  
ENDBRANCH  22  23
BRANCH  22  31
HETATM   31  N   UNL     1      -9.679  17.069  69.309  1.00  0.00    -0.148 NA 
HETATM   32  H   UNL     1      -8.942  16.366  69.355  1.00  0.00     0.000 HD 
BRANCH  31  33
HETATM   33  O   UNL     1     -10.798  16.882  70.119  1.00  0.00    -0.180 OA 
HETATM   34  C   UNL     1     -10.954  15.678  70.834  1.00  0.00    -0.272 C  
ENDBRANCH  31  33
ENDBRANCH  22  31
ENDBRANCH  19  22
ENDBRANCH   8  18
TORSDOF 8
ENDMDL
MODEL       86
REMARK 921   NORMALIZED FREE ENERGY PREDICTED BY IDOCK:   -5.47 KCAL/MOL
REMARK 922        TOTAL FREE ENERGY PREDICTED BY IDOCK:   -9.18 KCAL/MOL
REMARK 923 INTER-LIGAND FREE ENERGY PREDICTED BY IDOCK:   -7.37 KCAL/MOL
REMARK 924 INTRA-LIGAND FREE ENERGY PREDICTED BY IDOCK:   -1.81 KCAL/MOL
REMARK 927      BINDING AFFINITY PREDICTED BY RF-SCORE:    0.00 PKD
ROOT
HETATM    1  C   UNL     1      -8.445   8.985  70.981  1.00  0.00    -0.203 C  
HETATM    2  S   UNL     1      -7.520   8.648  69.507  1.00  0.00    -0.074 SA 
HETATM    3  C   UNL     1      -8.648   9.155  68.174  1.00  0.00    -0.129 C  
HETATM    4  C   UNL     1      -9.984   9.735  68.546  1.00  0.00    -0.177 C  
HETATM    5  C   UNL     1     -10.181   8.821  72.084  1.00  0.00    -0.301 C  
HETATM    6  CA  UNL     1     -10.487   9.816  69.806  1.00  0.00    -0.250 C  
HETATM    7  N   UNL     1      -9.848   9.257  70.853  1.00  0.00    -0.285 N  
HETATM    8  CA  UNL     1      -8.862   7.990  72.144  1.00  0.00    -0.159 C  
HETATM    9  C   UNL     1     -11.789  10.522  70.027  1.00  0.00    -0.308 C  
HETATM   10  O   UNL     1     -11.226   8.815  72.693  1.00  0.00    -0.187 OA 
HETATM   11  O   UNL     1     -12.609  10.060  70.975  1.00  0.00    -0.326 OA 
HETATM   12  OXT UNL     1     -12.076  11.542  69.413  1.00  0.00    -0.312 OA 
ENDROOT
BRANCH   4  13
HETATM   13  C   UNL     1     -10.808  10.091  67.307  1.00  0.00    -0.217 C  
BRANCH  13  14
HETATM   14  O   UNL     1     -10.466  11.386  66.789  1.00  0.00    -0.225 OA 
BRANCH  14  15
HETATM   15  C   UNL     1     -11.238  11.881  65.779  1.00  0.00    -0.312 C  
HETATM   16  C   UNL     1     -10.586  11.674  64.440  1.00  0.00    -0.377 C  
HETATM   17  O   UNL     1     -12.349  12.376  65.918  1.00  0.00    -0.638 OA 
ENDBRANCH  14  15
ENDBRANCH  13  14
ENDBRANCH   4  13
BRANCH   8  18
HETATM   18  N   UNL     1      -9.143   6.491  72.169  1.00  0.00    -0.140 N  
HETATM   19  C   UNL     1     -10.108   5.673  71.584  1.00  0.00    -0.195 C  
HETATM   20  H   UNL     1      -8.477   5.972  72.740  1.00  0.00     0.000 HD 
HETATM   21  O   UNL     1     -10.208   4.493  71.998  1.00  0.00    -0.192 OA 
BRANCH  19  22
HETATM   22  C   UNL     1     -10.981   6.060  70.391  1.00  0.00    -0.328 C  
BRANCH  22  23
HETATM   23  C   UNL     1     -10.463   6.056  69.009  1.00  0.00    -0.256 A  
HETATM   24  N   UNL     1      -9.339   5.329  68.597  1.00  0.00    -0.116 NA 
HETATM   25  H2  UNL     1      -8.468   4.421  65.600  1.00  0.00     0.000 HD 
HETATM   26  N   UNL     1      -8.397   4.506  66.614  1.00  0.00    -0.106 NA 
HETATM   27  C   UNL     1     -11.284   6.457  67.966  1.00  0.00    -0.155 A  
HETATM   28  S   UNL     1     -10.646   5.938  66.470  1.00  0.00    -0.135 SA 
HETATM   29  H1  UNL     1      -7.618   4.066  67.104  1.00  0.00     0.000 HD 
HETATM   30  C   UNL     1      -9.334   5.198  67.296  1.00  0.00    -0.122 A  
ENDBRANCH  22  23
BRANCH  22  31
HETATM   31  N   UNL     1     -12.120   6.682  70.421  1.00  0.00    -0.543 NA 
HETATM   32  H   UNL     1     -12.381   7.226  69.599  1.00  0.00     0.000 HD 
BRANCH  31  33
HETATM   33  O   UNL     1     -13.016   6.664  71.490  1.00  0.00    -0.274 OA 
HETATM   34  C   UNL     1     -14.255   7.327  71.379  1.00  0.00    -0.326 C  
ENDBRANCH  31  33
ENDBRANCH  22  31
ENDBRANCH  19  22
ENDBRANCH   8  18
TORSDOF 8
ENDMDL
MODEL       87
REMARK 921   NORMALIZED FREE ENERGY PREDICTED BY IDOCK:   -5.45 KCAL/MOL
REMARK 922        TOTAL FREE ENERGY PREDICTED BY IDOCK:   -9.16 KCAL/MOL
REMARK 923 INTER-LIGAND FREE ENERGY PREDICTED BY IDOCK:   -7.98 KCAL/MOL
REMARK 924 INTRA-LIGAND FREE ENERGY PREDICTED BY IDOCK:   -1.17 KCAL/MOL
REMARK 927      BINDING AFFINITY PREDICTED BY RF-SCORE:    0.00 PKD
ROOT
HETATM    1  C   UNL     1      -7.937   8.814  68.405  1.00  0.00    -0.109 C  
HETATM    2  S   UNL     1      -9.404   7.879  68.064  1.00  0.00    -0.146 SA 
HETATM    3  C   UNL     1     -10.609   9.147  67.567  1.00  0.00    -0.249 C  
HETATM    4  C   UNL     1     -10.161  10.580  67.512  1.00  0.00    -0.245 C  
HETATM    5  C   UNL     1      -6.998  10.395  69.342  1.00  0.00    -0.091 C  
HETATM    6  CA  UNL     1      -8.949  11.046  67.912  1.00  0.00    -0.144 C  
HETATM    7  N   UNL     1      -8.056  10.240  68.521  1.00  0.00    -0.104 N  
HETATM    8  CA  UNL     1      -7.095   8.891  69.748  1.00  0.00    -0.054 C  
HETATM    9  C   UNL     1      -8.612  12.487  67.691  1.00  0.00    -0.178 C  
HETATM   10  O   UNL     1      -6.461  11.375  69.806  1.00  0.00    -0.123 OA 
HETATM   11  O   UNL     1      -7.857  13.110  68.601  1.00  0.00    -0.126 OA 
HETATM   12  OXT UNL     1      -8.951  13.075  66.671  1.00  0.00    -0.205 OA 
ENDROOT
BRANCH   4  13
HETATM   13  C   UNL     1     -11.301  11.510  67.093  1.00  0.00    -0.284 C  
BRANCH  13  14
HETATM   14  O   UNL     1     -11.970  12.084  68.227  1.00  0.00    -0.426 OA 
BRANCH  14  15
HETATM   15  C   UNL     1     -11.942  13.442  68.350  1.00  0.00    -0.324 C  
HETATM   16  C   UNL     1     -11.666  13.859  69.769  1.00  0.00    -0.372 C  
HETATM   17  O   UNL     1     -12.060  14.237  67.427  1.00  0.00    -0.400 OA 
ENDBRANCH  14  15
ENDBRANCH  13  14
ENDBRANCH   4  13
BRANCH   8  18
HETATM   18  N   UNL     1      -7.476   8.730  71.216  1.00  0.00    -0.103 N  
HETATM   19  C   UNL     1      -8.668   8.465  71.888  1.00  0.00    -0.195 C  
HETATM   20  H   UNL     1      -6.682   8.839  71.846  1.00  0.00     0.000 HD 
HETATM   21  O   UNL     1      -8.691   8.632  73.131  1.00  0.00    -0.371 OA 
BRANCH  19  22
HETATM   22  C   UNL     1      -9.923   7.873  71.249  1.00  0.00    -0.176 C  
BRANCH  22  23
HETATM   23  C   UNL     1     -11.231   8.554  71.318  1.00  0.00    -0.265 A  
HETATM   24  N   UNL     1     -12.323   8.077  72.054  1.00  0.00    -0.316 NA 
HETATM   25  H2  UNL     1     -14.948   9.682  73.102  1.00  0.00     0.000 HD 
HETATM   26  N   UNL     1     -14.326   8.885  72.966  1.00  0.00    -1.154 NA 
HETATM   27  C   UNL     1     -11.327   9.895  70.978  1.00  0.00    -0.386 A  
HETATM   28  S   UNL     1     -12.787  10.556  71.565  1.00  0.00    -0.483 SA 
HETATM   29  H1  UNL     1     -14.567   7.981  73.373  1.00  0.00     0.000 HD 
HETATM   30  C   UNL     1     -13.192   9.034  72.250  1.00  0.00    -0.460 A  
ENDBRANCH  22  23
BRANCH  22  31
HETATM   31  N   UNL     1     -10.095   6.652  70.841  1.00  0.00    -0.187 NA 
HETATM   32  H   UNL     1     -10.890   6.469  70.230  1.00  0.00     0.000 HD 
BRANCH  31  33
HETATM   33  O   UNL     1      -9.277   5.573  71.172  1.00  0.00    -0.146 OA 
HETATM   34  C   UNL     1      -9.700   4.642  72.142  1.00  0.00    -0.165 C  
ENDBRANCH  31  33
ENDBRANCH  22  31
ENDBRANCH  19  22
ENDBRANCH   8  18
TORSDOF 8
ENDMDL
MODEL       88
REMARK 921   NORMALIZED FREE ENERGY PREDICTED BY IDOCK:   -5.45 KCAL/MOL
REMARK 922        TOTAL FREE ENERGY PREDICTED BY IDOCK:   -9.15 KCAL/MOL
REMARK 923 INTER-LIGAND FREE ENERGY PREDICTED BY IDOCK:   -8.03 KCAL/MOL
REMARK 924 INTRA-LIGAND FREE ENERGY PREDICTED BY IDOCK:   -1.11 KCAL/MOL
REMARK 927      BINDING AFFINITY PREDICTED BY RF-SCORE:    0.00 PKD
ROOT
HETATM    1  C   UNL     1      -9.199  10.529  68.418  1.00  0.00    -0.154 C  
HETATM    2  S   UNL     1      -8.639  11.030  66.812  1.00  0.00    -0.157 SA 
HETATM    3  C   UNL     1      -9.577  12.555  66.493  1.00  0.00    -0.242 C  
HETATM    4  C   UNL     1     -10.511  13.059  67.557  1.00  0.00    -0.229 C  
HETATM    5  C   UNL     1     -10.736  10.127  69.735  1.00  0.00    -0.279 C  
HETATM    6  CA  UNL     1     -10.815  12.412  68.713  1.00  0.00    -0.226 C  
HETATM    7  N   UNL     1     -10.369  11.163  68.955  1.00  0.00    -0.201 N  
HETATM    8  CA  UNL     1      -9.879   9.164  68.854  1.00  0.00    -0.174 C  
HETATM    9  C   UNL     1     -11.681  13.096  69.725  1.00  0.00    -0.280 C  
HETATM   10  O   UNL     1     -11.627   9.985  70.540  1.00  0.00    -0.279 OA 
HETATM   11  O   UNL     1     -12.526  12.351  70.444  1.00  0.00    -0.239 OA 
HETATM   12  OXT UNL     1     -11.577  14.295  69.951  1.00  0.00    -0.263 OA 
ENDROOT
BRANCH   4  13
HETATM   13  C   UNL     1     -11.227  14.338  67.118  1.00  0.00    -0.322 C  
BRANCH  13  14
HETATM   14  O   UNL     1     -12.517  14.062  66.550  1.00  0.00    -0.442 OA 
BRANCH  14  15
HETATM   15  C   UNL     1     -12.575  13.840  65.205  1.00  0.00    -0.473 C  
HETATM   16  C   UNL     1     -11.839  14.907  64.441  1.00  0.00    -0.372 C  
HETATM   17  O   UNL     1     -13.098  12.871  64.672  1.00  0.00    -0.742 OA 
ENDBRANCH  14  15
ENDBRANCH  13  14
ENDBRANCH   4  13
BRANCH   8  18
HETATM   18  N   UNL     1     -10.752   8.160  68.107  1.00  0.00    -0.433 N  
HETATM   19  C   UNL     1     -10.887   6.774  68.143  1.00  0.00    -0.228 C  
HETATM   20  H   UNL     1     -11.374   8.602  67.432  1.00  0.00     0.000 HD 
HETATM   21  O   UNL     1     -11.534   6.223  67.221  1.00  0.00    -0.117 OA 
BRANCH  19  22
HETATM   22  C   UNL     1     -10.411   5.875  69.282  1.00  0.00    -0.274 C  
BRANCH  22  23
HETATM   23  C   UNL     1     -10.345   6.350  70.679  1.00  0.00    -0.198 A  
HETATM   24  N   UNL     1      -9.233   6.996  71.233  1.00  0.00    -0.152 NA 
HETATM   25  H2  UNL     1      -9.062   8.878  73.878  1.00  0.00     0.000 HD 
HETATM   26  N   UNL     1      -8.723   8.386  73.051  1.00  0.00    -0.336 NA 
HETATM   27  C   UNL     1     -11.516   6.532  71.399  1.00  0.00    -0.309 A  
HETATM   28  S   UNL     1     -11.226   7.499  72.775  1.00  0.00    -0.338 SA 
HETATM   29  H1  UNL     1      -7.742   8.466  72.783  1.00  0.00     0.000 HD 
HETATM   30  C   UNL     1      -9.574   7.634  72.323  1.00  0.00    -0.165 A  
ENDBRANCH  22  23
BRANCH  22  31
HETATM   31  N   UNL     1      -9.766   4.752  69.180  1.00  0.00    -0.175 NA 
HETATM   32  H   UNL     1      -9.361   4.524  68.273  1.00  0.00     0.000 HD 
BRANCH  31  33
HETATM   33  O   UNL     1      -9.585   3.836  70.215  1.00  0.00    -0.175 OA 
HETATM   34  C   UNL     1      -8.287   3.394  70.543  1.00  0.00    -0.060 C  
ENDBRANCH  31  33
ENDBRANCH  22  31
ENDBRANCH  19  22
ENDBRANCH   8  18
TORSDOF 8
ENDMDL
MODEL       89
REMARK 921   NORMALIZED FREE ENERGY PREDICTED BY IDOCK:   -5.42 KCAL/MOL
REMARK 922        TOTAL FREE ENERGY PREDICTED BY IDOCK:   -9.11 KCAL/MOL
REMARK 923 INTER-LIGAND FREE ENERGY PREDICTED BY IDOCK:   -8.00 KCAL/MOL
REMARK 924 INTRA-LIGAND FREE ENERGY PREDICTED BY IDOCK:   -1.11 KCAL/MOL
REMARK 927      BINDING AFFINITY PREDICTED BY RF-SCORE:    0.00 PKD
ROOT
HETATM    1  C   UNL     1      -9.149  10.780  67.867  1.00  0.00    -0.150 C  
HETATM    2  S   UNL     1      -8.915  11.090  66.137  1.00  0.00    -0.195 SA 
HETATM    3  C   UNL     1     -10.025  12.492  65.805  1.00  0.00    -0.259 C  
HETATM    4  C   UNL     1     -10.808  13.074  66.948  1.00  0.00    -0.282 C  
HETATM    5  C   UNL     1     -10.398  10.462  69.478  1.00  0.00    -0.237 C  
HETATM    6  CA  UNL     1     -10.853  12.575  68.211  1.00  0.00    -0.234 C  
HETATM    7  N   UNL     1     -10.263  11.403  68.522  1.00  0.00    -0.202 N  
HETATM    8  CA  UNL     1      -9.621   9.446  68.584  1.00  0.00    -0.147 C  
HETATM    9  C   UNL     1     -11.593  13.332  69.269  1.00  0.00    -0.314 C  
HETATM   10  O   UNL     1     -11.125  10.374  70.441  1.00  0.00    -0.301 OA 
HETATM   11  O   UNL     1     -12.234  12.640  70.215  1.00  0.00    -0.331 OA 
HETATM   12  OXT UNL     1     -11.559  14.555  69.323  1.00  0.00    -0.267 OA 
ENDROOT
BRANCH   4  13
HETATM   13  C   UNL     1     -11.698  14.231  66.490  1.00  0.00    -0.394 C  
BRANCH  13  14
HETATM   14  O   UNL     1     -11.447  14.592  65.122  1.00  0.00    -0.341 OA 
BRANCH  14  15
HETATM   15  C   UNL     1     -11.191  15.905  64.857  1.00  0.00    -0.337 C  
HETATM   16  C   UNL     1     -10.244  16.493  65.869  1.00  0.00    -0.368 C  
HETATM   17  O   UNL     1     -11.615  16.527  63.892  1.00  0.00    -1.175 OA 
ENDBRANCH  14  15
ENDBRANCH  13  14
ENDBRANCH   4  13
BRANCH   8  18
HETATM   18  N   UNL     1     -10.514   8.294  68.136  1.00  0.00    -0.329 N  
HETATM   19  C   UNL     1     -10.802   7.030  68.649  1.00  0.00    -0.147 C  
HETATM   20  H   UNL     1     -11.012   8.492  67.269  1.00  0.00     0.000 HD 
HETATM   21  O   UNL     1     -11.405   6.218  67.907  1.00  0.00    -0.257 OA 
BRANCH  19  22
HETATM   22  C   UNL     1     -10.547   6.588  70.089  1.00  0.00    -0.227 C  
BRANCH  22  23
HETATM   23  C   UNL     1      -9.316   5.872  70.481  1.00  0.00    -0.163 A  
HETATM   24  N   UNL     1      -9.080   4.518  70.211  1.00  0.00    -0.094 NA 
HETATM   25  H2  UNL     1      -6.261   2.902  70.142  1.00  0.00     0.000 HD 
HETATM   26  N   UNL     1      -7.269   3.036  70.067  1.00  0.00    -0.040 NA 
HETATM   27  C   UNL     1      -8.170   6.591  70.787  1.00  0.00    -0.125 A  
HETATM   28  S   UNL     1      -6.801   5.573  70.753  1.00  0.00    -0.053 SA 
HETATM   29  H1  UNL     1      -7.865   2.250  69.807  1.00  0.00     0.000 HD 
HETATM   30  C   UNL     1      -7.804   4.250  70.315  1.00  0.00    -0.052 A  
ENDBRANCH  22  23
BRANCH  22  31
HETATM   31  N   UNL     1     -11.413   6.511  71.052  1.00  0.00    -0.319 NA 
HETATM   32  H   UNL     1     -11.975   5.662  71.112  1.00  0.00     0.000 HD 
BRANCH  31  33
HETATM   33  O   UNL     1     -11.636   7.498  72.011  1.00  0.00    -0.268 OA 
HETATM   34  C   UNL     1     -10.881   7.504  73.201  1.00  0.00    -0.395 C  
ENDBRANCH  31  33
ENDBRANCH  22  31
ENDBRANCH  19  22
ENDBRANCH   8  18
TORSDOF 8
ENDMDL
MODEL       90
REMARK 921   NORMALIZED FREE ENERGY PREDICTED BY IDOCK:   -5.39 KCAL/MOL
REMARK 922        TOTAL FREE ENERGY PREDICTED BY IDOCK:   -9.07 KCAL/MOL
REMARK 923 INTER-LIGAND FREE ENERGY PREDICTED BY IDOCK:   -7.42 KCAL/MOL
REMARK 924 INTRA-LIGAND FREE ENERGY PREDICTED BY IDOCK:   -1.65 KCAL/MOL
REMARK 927      BINDING AFFINITY PREDICTED BY RF-SCORE:    0.00 PKD
ROOT
HETATM    1  C   UNL     1      -9.643   5.523  69.884  1.00  0.00    -0.164 C  
HETATM    2  S   UNL     1     -11.208   6.250  69.479  1.00  0.00    -0.394 SA 
HETATM    3  C   UNL     1     -10.772   7.565  68.301  1.00  0.00    -0.073 C  
HETATM    4  C   UNL     1      -9.330   7.732  67.914  1.00  0.00    -0.148 C  
HETATM    5  C   UNL     1      -7.678   5.718  70.483  1.00  0.00    -0.099 C  
HETATM    6  CA  UNL     1      -8.282   7.056  68.454  1.00  0.00    -0.124 C  
HETATM    7  N   UNL     1      -8.451   6.226  69.503  1.00  0.00    -0.127 N  
HETATM    8  CA  UNL     1      -8.956   5.365  71.306  1.00  0.00    -0.141 C  
HETATM    9  C   UNL     1      -6.913   7.256  67.884  1.00  0.00    -0.076 C  
HETATM   10  O   UNL     1      -6.500   5.832  70.738  1.00  0.00    -0.033 OA 
HETATM   11  O   UNL     1      -5.867   7.218  68.714  1.00  0.00    -0.021 OA 
HETATM   12  OXT UNL     1      -6.732   7.378  66.679  1.00  0.00    -0.057 OA 
ENDROOT
BRANCH   4  13
HETATM   13  C   UNL     1      -9.141   8.890  66.931  1.00  0.00    -0.133 C  
BRANCH  13  14
HETATM   14  O   UNL     1      -9.683  10.119  67.440  1.00  0.00    -0.154 OA 
BRANCH  14  15
HETATM   15  C   UNL     1     -10.457  10.860  66.594  1.00  0.00    -0.254 C  
HETATM   16  C   UNL     1      -9.934  10.805  65.185  1.00  0.00    -0.351 C  
HETATM   17  O   UNL     1     -11.482  11.448  66.910  1.00  0.00    -0.445 OA 
ENDBRANCH  14  15
ENDBRANCH  13  14
ENDBRANCH   4  13
BRANCH   8  18
HETATM   18  N   UNL     1      -9.042   6.183  72.590  1.00  0.00    -0.141 N  
HETATM   19  C   UNL     1      -9.154   7.543  72.871  1.00  0.00    -0.163 C  
HETATM   20  H   UNL     1      -9.010   5.606  73.431  1.00  0.00     0.000 HD 
HETATM   21  O   UNL     1      -8.959   7.918  74.052  1.00  0.00    -0.267 OA 
BRANCH  19  22
HETATM   22  C   UNL     1      -9.614   8.610  71.878  1.00  0.00    -0.307 C  
BRANCH  22  23
HETATM   23  C   UNL     1     -11.039   8.956  71.708  1.00  0.00    -0.363 A  
HETATM   24  N   UNL     1     -12.083   8.342  72.411  1.00  0.00    -0.389 NA 
HETATM   25  H2  UNL     1     -15.113   9.401  72.920  1.00  0.00     0.000 HD 
HETATM   26  N   UNL     1     -14.317   8.767  72.982  1.00  0.00    -1.133 NA 
HETATM   27  C   UNL     1     -11.387  10.170  71.133  1.00  0.00    -0.249 A  
HETATM   28  S   UNL     1     -13.022  10.537  71.461  1.00  0.00    -0.469 SA 
HETATM   29  H1  UNL     1     -14.401   7.901  73.515  1.00  0.00     0.000 HD 
HETATM   30  C   UNL     1     -13.162   9.079  72.358  1.00  0.00    -0.447 A  
ENDBRANCH  22  23
BRANCH  22  31
HETATM   31  N   UNL     1      -8.927   9.124  70.904  1.00  0.00    -0.236 NA 
HETATM   32  H   UNL     1      -9.346   9.109  69.975  1.00  0.00     0.000 HD 
BRANCH  31  33
HETATM   33  O   UNL     1      -7.662   9.696  71.030  1.00  0.00    -0.323 OA 
HETATM   34  C   UNL     1      -7.017  10.231  69.897  1.00  0.00    -0.142 C  
ENDBRANCH  31  33
ENDBRANCH  22  31
ENDBRANCH  19  22
ENDBRANCH   8  18
TORSDOF 8
ENDMDL
MODEL       91
REMARK 921   NORMALIZED FREE ENERGY PREDICTED BY IDOCK:   -5.38 KCAL/MOL
REMARK 922        TOTAL FREE ENERGY PREDICTED BY IDOCK:   -9.05 KCAL/MOL
REMARK 923 INTER-LIGAND FREE ENERGY PREDICTED BY IDOCK:   -7.68 KCAL/MOL
REMARK 924 INTRA-LIGAND FREE ENERGY PREDICTED BY IDOCK:   -1.37 KCAL/MOL
REMARK 927      BINDING AFFINITY PREDICTED BY RF-SCORE:    0.00 PKD
ROOT
HETATM    1  C   UNL     1      -8.221   9.898  68.470  1.00  0.00    -0.106 C  
HETATM    2  S   UNL     1      -7.738   9.921  70.175  1.00  0.00    -0.135 SA 
HETATM    3  C   UNL     1      -8.443   8.381  70.836  1.00  0.00    -0.140 C  
HETATM    4  C   UNL     1      -9.183   7.470  69.898  1.00  0.00    -0.147 C  
HETATM    5  C   UNL     1      -9.675   9.679  67.023  1.00  0.00    -0.181 C  
HETATM    6  CA  UNL     1      -9.480   7.743  68.600  1.00  0.00    -0.152 C  
HETATM    7  N   UNL     1      -9.220   8.952  68.062  1.00  0.00    -0.139 N  
HETATM    8  CA  UNL     1      -9.070  10.968  67.661  1.00  0.00    -0.145 C  
HETATM    9  C   UNL     1     -10.128   6.686  67.762  1.00  0.00    -0.148 C  
HETATM   10  O   UNL     1     -10.501   9.453  66.167  1.00  0.00    -0.162 OA 
HETATM   11  O   UNL     1     -11.012   7.064  66.834  1.00  0.00    -0.371 OA 
HETATM   12  OXT UNL     1      -9.812   5.507  67.861  1.00  0.00    -0.125 OA 
ENDROOT
BRANCH   4  13
HETATM   13  C   UNL     1      -9.721   6.233  70.621  1.00  0.00    -0.176 C  
BRANCH  13  14
HETATM   14  O   UNL     1      -9.506   6.306  72.039  1.00  0.00    -0.153 OA 
BRANCH  14  15
HETATM   15  C   UNL     1     -10.555   5.979  72.849  1.00  0.00    -0.235 C  
HETATM   16  C   UNL     1     -11.872   6.262  72.180  1.00  0.00    -0.365 C  
HETATM   17  O   UNL     1     -10.459   5.462  73.954  1.00  0.00    -0.239 OA 
ENDBRANCH  14  15
ENDBRANCH  13  14
ENDBRANCH   4  13
BRANCH   8  18
HETATM   18  N   UNL     1     -10.157  11.952  68.078  1.00  0.00    -0.189 N  
HETATM   19  C   UNL     1     -10.559  13.207  67.624  1.00  0.00    -0.228 C  
HETATM   20  H   UNL     1     -10.714  11.618  68.864  1.00  0.00     0.000 HD 
HETATM   21  O   UNL     1     -11.346  13.868  68.343  1.00  0.00    -0.254 OA 
BRANCH  19  22
HETATM   22  C   UNL     1     -10.211  13.799  66.259  1.00  0.00    -0.297 C  
BRANCH  22  23
HETATM   23  C   UNL     1     -10.678  13.187  64.999  1.00  0.00    -0.323 A  
HETATM   24  N   UNL     1      -9.896  12.338  64.206  1.00  0.00    -0.182 NA 
HETATM   25  H2  UNL     1     -10.837  10.205  61.942  1.00  0.00     0.000 HD 
HETATM   26  N   UNL     1     -10.186  10.721  62.533  1.00  0.00    -0.755 NA 
HETATM   27  C   UNL     1     -12.037  13.105  64.737  1.00  0.00    -0.409 A  
HETATM   28  S   UNL     1     -12.337  11.978  63.490  1.00  0.00    -0.465 SA 
HETATM   29  H1  UNL     1      -9.186  10.527  62.473  1.00  0.00     0.000 HD 
HETATM   30  C   UNL     1     -10.654  11.653  63.389  1.00  0.00    -0.409 A  
ENDBRANCH  22  23
BRANCH  22  31
HETATM   31  N   UNL     1      -9.293  14.678  65.995  1.00  0.00    -0.487 NA 
HETATM   32  H   UNL     1      -8.358  14.507  66.363  1.00  0.00     0.000 HD 
BRANCH  31  33
HETATM   33  O   UNL     1      -9.486  15.838  65.245  1.00  0.00    -0.288 OA 
HETATM   34  C   UNL     1     -10.267  16.889  65.766  1.00  0.00    -0.268 C  
ENDBRANCH  31  33
ENDBRANCH  22  31
ENDBRANCH  19  22
ENDBRANCH   8  18
TORSDOF 8
ENDMDL
MODEL       92
REMARK 921   NORMALIZED FREE ENERGY PREDICTED BY IDOCK:   -5.35 KCAL/MOL
REMARK 922        TOTAL FREE ENERGY PREDICTED BY IDOCK:   -9.01 KCAL/MOL
REMARK 923 INTER-LIGAND FREE ENERGY PREDICTED BY IDOCK:   -7.63 KCAL/MOL
REMARK 924 INTRA-LIGAND FREE ENERGY PREDICTED BY IDOCK:   -1.38 KCAL/MOL
REMARK 927      BINDING AFFINITY PREDICTED BY RF-SCORE:    0.00 PKD
ROOT
HETATM    1  C   UNL     1      -9.178   9.825  69.606  1.00  0.00    -0.223 C  
HETATM    2  S   UNL     1      -8.647   9.911  67.917  1.00  0.00    -0.125 SA 
HETATM    3  C   UNL     1      -9.814  11.085  67.165  1.00  0.00    -0.184 C  
HETATM    4  C   UNL     1     -10.862  11.714  68.039  1.00  0.00    -0.259 C  
HETATM    5  C   UNL     1     -10.676   9.576  71.002  1.00  0.00    -0.340 C  
HETATM    6  CA  UNL     1     -11.099  11.401  69.340  1.00  0.00    -0.241 C  
HETATM    7  N   UNL     1     -10.459  10.378  69.941  1.00  0.00    -0.246 N  
HETATM    8  CA  UNL     1      -9.635   8.557  70.442  1.00  0.00    -0.172 C  
HETATM    9  C   UNL     1     -12.108  12.195  70.109  1.00  0.00    -0.290 C  
HETATM   10  O   UNL     1     -11.563   9.530  71.824  1.00  0.00    -0.385 OA 
HETATM   11  O   UNL     1     -12.843  11.566  71.030  1.00  0.00    -0.336 OA 
HETATM   12  OXT UNL     1     -12.216  13.406  69.962  1.00  0.00    -0.327 OA 
ENDROOT
BRANCH   4  13
HETATM   13  C   UNL     1     -11.765  12.659  67.244  1.00  0.00    -0.370 C  
BRANCH  13  14
HETATM   14  O   UNL     1     -12.155  12.094  65.982  1.00  0.00    -0.612 OA 
BRANCH  14  15
HETATM   15  C   UNL     1     -12.397  12.960  64.956  1.00  0.00    -0.485 C  
HETATM   16  C   UNL     1     -12.020  12.357  63.630  1.00  0.00    -0.626 C  
HETATM   17  O   UNL     1     -12.913  14.064  65.071  1.00  0.00    -0.728 OA 
ENDBRANCH  14  15
ENDBRANCH  13  14
ENDBRANCH   4  13
BRANCH   8  18
HETATM   18  N   UNL     1     -10.295   7.241  70.044  1.00  0.00    -0.208 N  
HETATM   19  C   UNL     1      -9.981   6.230  69.138  1.00  0.00    -0.150 C  
HETATM   20  H   UNL     1     -11.159   7.060  70.555  1.00  0.00     0.000 HD 
HETATM   21  O   UNL     1     -10.866   5.381  68.874  1.00  0.00    -0.152 OA 
BRANCH  19  22
HETATM   22  C   UNL     1      -8.601   6.000  68.524  1.00  0.00    -0.111 C  
BRANCH  22  23
HETATM   23  C   UNL     1      -8.419   5.755  67.079  1.00  0.00    -0.107 A  
HETATM   24  N   UNL     1      -8.803   6.657  66.079  1.00  0.00    -0.154 NA 
HETATM   25  H2  UNL     1      -7.808   6.841  62.991  1.00  0.00     0.000 HD 
HETATM   26  N   UNL     1      -8.333   7.101  63.826  1.00  0.00    -0.354 NA 
HETATM   27  C   UNL     1      -7.508   4.800  66.653  1.00  0.00    -0.086 A  
HETATM   28  S   UNL     1      -7.143   5.020  65.000  1.00  0.00    -0.063 SA 
HETATM   29  H1  UNL     1      -8.958   7.907  63.799  1.00  0.00     0.000 HD 
HETATM   30  C   UNL     1      -8.195   6.377  64.956  1.00  0.00    -0.125 A  
ENDBRANCH  22  23
BRANCH  22  31
HETATM   31  N   UNL     1      -7.501   5.711  69.150  1.00  0.00    -0.081 NA 
HETATM   32  H   UNL     1      -7.021   4.852  68.886  1.00  0.00     0.000 HD 
BRANCH  31  33
HETATM   33  O   UNL     1      -6.924   6.487  70.156  1.00  0.00    -0.059 OA 
HETATM   34  C   UNL     1      -6.153   7.617  69.817  1.00  0.00    -0.027 C  
ENDBRANCH  31  33
ENDBRANCH  22  31
ENDBRANCH  19  22
ENDBRANCH   8  18
TORSDOF 8
ENDMDL
MODEL       93
REMARK 921   NORMALIZED FREE ENERGY PREDICTED BY IDOCK:   -5.34 KCAL/MOL
REMARK 922        TOTAL FREE ENERGY PREDICTED BY IDOCK:   -8.99 KCAL/MOL
REMARK 923 INTER-LIGAND FREE ENERGY PREDICTED BY IDOCK:   -8.17 KCAL/MOL
REMARK 924 INTRA-LIGAND FREE ENERGY PREDICTED BY IDOCK:   -0.82 KCAL/MOL
REMARK 927      BINDING AFFINITY PREDICTED BY RF-SCORE:    0.00 PKD
ROOT
HETATM    1  C   UNL     1     -10.990  11.807  65.012  1.00  0.00    -0.300 C  
HETATM    2  S   UNL     1     -10.151  11.076  63.632  1.00  0.00    -0.384 SA 
HETATM    3  C   UNL     1      -9.287   9.655  64.367  1.00  0.00    -0.148 C  
HETATM    4  C   UNL     1      -9.466   9.386  65.834  1.00  0.00    -0.315 C  
HETATM    5  C   UNL     1     -10.967  12.533  66.943  1.00  0.00    -0.257 C  
HETATM    6  CA  UNL     1     -10.137  10.182  66.708  1.00  0.00    -0.219 C  
HETATM    7  N   UNL     1     -10.618  11.384  66.332  1.00  0.00    -0.255 N  
HETATM    8  CA  UNL     1     -10.875  13.285  65.578  1.00  0.00    -0.284 C  
HETATM    9  C   UNL     1     -10.322   9.722  68.120  1.00  0.00    -0.202 C  
HETATM   10  O   UNL     1     -10.984  12.869  68.105  1.00  0.00    -0.229 OA 
HETATM   11  O   UNL     1     -10.308  10.637  69.093  1.00  0.00    -0.202 OA 
HETATM   12  OXT UNL     1     -10.555   8.549  68.386  1.00  0.00    -0.193 OA 
ENDROOT
BRANCH   4  13
HETATM   13  C   UNL     1      -8.659   8.168  66.287  1.00  0.00    -0.144 C  
BRANCH  13  14
HETATM   14  O   UNL     1      -8.761   7.080  65.353  1.00  0.00    -0.094 OA 
BRANCH  14  15
HETATM   15  C   UNL     1      -8.885   5.823  65.868  1.00  0.00    -0.150 C  
HETATM   16  C   UNL     1      -8.817   4.779  64.787  1.00  0.00    -0.153 C  
HETATM   17  O   UNL     1      -8.977   5.553  67.058  1.00  0.00    -0.114 OA 
ENDBRANCH  14  15
ENDBRANCH  13  14
ENDBRANCH   4  13
BRANCH   8  18
HETATM   18  N   UNL     1      -9.742  14.306  65.574  1.00  0.00    -0.542 N  
HETATM   19  C   UNL     1      -9.591  15.591  66.090  1.00  0.00    -0.330 C  
HETATM   20  H   UNL     1      -8.911  13.975  65.085  1.00  0.00     0.000 HD 
HETATM   21  O   UNL     1      -8.606  16.267  65.706  1.00  0.00    -0.348 OA 
BRANCH  19  22
HETATM   22  C   UNL     1     -10.464  16.208  67.181  1.00  0.00    -0.305 C  
BRANCH  22  23
HETATM   23  C   UNL     1     -10.170  17.534  67.763  1.00  0.00    -0.349 A  
HETATM   24  N   UNL     1      -9.046  17.810  68.550  1.00  0.00    -0.283 NA 
HETATM   25  H2  UNL     1      -7.675  20.676  69.233  1.00  0.00     0.000 HD 
HETATM   26  N   UNL     1      -7.795  19.664  69.253  1.00  0.00    -0.201 NA 
HETATM   27  C   UNL     1     -10.780  18.664  67.240  1.00  0.00    -0.394 A  
HETATM   28  S   UNL     1      -9.958  20.072  67.743  1.00  0.00    -0.424 SA 
HETATM   29  H1  UNL     1      -7.127  19.086  69.765  1.00  0.00     0.000 HD 
HETATM   30  C   UNL     1      -8.834  19.099  68.604  1.00  0.00    -0.365 A  
ENDBRANCH  22  23
BRANCH  22  31
HETATM   31  N   UNL     1     -11.346  15.603  67.917  1.00  0.00    -0.332 NA 
HETATM   32  H   UNL     1     -11.612  14.656  67.649  1.00  0.00     0.000 HD 
BRANCH  31  33
HETATM   33  O   UNL     1     -11.958  16.148  69.045  1.00  0.00    -0.291 OA 
HETATM   34  C   UNL     1     -12.213  15.335  70.168  1.00  0.00    -0.364 C  
ENDBRANCH  31  33
ENDBRANCH  22  31
ENDBRANCH  19  22
ENDBRANCH   8  18
TORSDOF 8
ENDMDL
MODEL       94
REMARK 921   NORMALIZED FREE ENERGY PREDICTED BY IDOCK:   -5.32 KCAL/MOL
REMARK 922        TOTAL FREE ENERGY PREDICTED BY IDOCK:   -8.97 KCAL/MOL
REMARK 923 INTER-LIGAND FREE ENERGY PREDICTED BY IDOCK:   -8.01 KCAL/MOL
REMARK 924 INTRA-LIGAND FREE ENERGY PREDICTED BY IDOCK:   -0.95 KCAL/MOL
REMARK 927      BINDING AFFINITY PREDICTED BY RF-SCORE:    0.00 PKD
ROOT
HETATM    1  C   UNL     1      -9.380  10.431  68.970  1.00  0.00    -0.194 C  
HETATM    2  S   UNL     1     -10.331   9.793  70.323  1.00  0.00    -0.292 SA 
HETATM    3  C   UNL     1     -10.722   8.095  69.802  1.00  0.00    -0.229 C  
HETATM    4  C   UNL     1     -10.186   7.607  68.486  1.00  0.00    -0.220 C  
HETATM    5  C   UNL     1      -9.136  10.756  66.947  1.00  0.00    -0.149 C  
HETATM    6  CA  UNL     1      -9.516   8.362  67.576  1.00  0.00    -0.149 C  
HETATM    7  N   UNL     1      -9.372   9.692  67.740  1.00  0.00    -0.128 N  
HETATM    8  CA  UNL     1      -9.661  11.706  68.069  1.00  0.00    -0.182 C  
HETATM    9  C   UNL     1      -8.948   7.703  66.358  1.00  0.00    -0.167 C  
HETATM   10  O   UNL     1      -8.939  10.862  65.758  1.00  0.00    -0.183 OA 
HETATM   11  O   UNL     1      -8.936   8.389  65.212  1.00  0.00    -0.126 OA 
HETATM   12  OXT UNL     1      -8.438   6.591  66.411  1.00  0.00    -0.115 OA 
ENDROOT
BRANCH   4  13
HETATM   13  C   UNL     1     -10.623   6.169  68.199  1.00  0.00    -0.264 C  
BRANCH  13  14
HETATM   14  O   UNL     1      -9.627   5.216  68.601  1.00  0.00    -0.126 OA 
BRANCH  14  15
HETATM   15  C   UNL     1      -9.475   4.996  69.939  1.00  0.00    -0.159 C  
HETATM   16  C   UNL     1      -8.135   5.477  70.424  1.00  0.00    -0.103 C  
HETATM   17  O   UNL     1     -10.329   4.526  70.679  1.00  0.00    -0.150 OA 
ENDBRANCH  14  15
ENDBRANCH  13  14
ENDBRANCH   4  13
BRANCH   8  18
HETATM   18  N   UNL     1     -10.948  12.411  67.651  1.00  0.00    -0.227 N  
HETATM   19  C   UNL     1     -11.237  13.505  66.838  1.00  0.00    -0.311 C  
HETATM   20  H   UNL     1     -11.782  11.987  68.056  1.00  0.00     0.000 HD 
HETATM   21  O   UNL     1     -12.395  13.985  66.888  1.00  0.00    -0.418 OA 
BRANCH  19  22
HETATM   22  C   UNL     1     -10.290  14.100  65.797  1.00  0.00    -0.325 C  
BRANCH  22  23
HETATM   23  C   UNL     1      -9.788  15.485  65.897  1.00  0.00    -0.353 A  
HETATM   24  N   UNL     1     -10.494  16.607  65.443  1.00  0.00    -0.622 NA 
HETATM   25  H2  UNL     1     -10.117  19.732  66.253  1.00  0.00     0.000 HD 
HETATM   26  N   UNL     1     -10.523  18.928  65.775  1.00  0.00    -0.587 NA 
HETATM   27  C   UNL     1      -8.773  15.786  66.793  1.00  0.00    -0.271 A  
HETATM   28  S   UNL     1      -8.691  17.470  67.058  1.00  0.00    -0.247 SA 
HETATM   29  H1  UNL     1     -11.309  19.062  65.139  1.00  0.00     0.000 HD 
HETATM   30  C   UNL     1     -10.015  17.695  65.988  1.00  0.00    -0.209 A  
ENDBRANCH  22  23
BRANCH  22  31
HETATM   31  N   UNL     1     -10.032  13.635  64.613  1.00  0.00    -0.620 NA 
HETATM   32  H   UNL     1      -9.228  14.022  64.120  1.00  0.00     0.000 HD 
BRANCH  31  33
HETATM   33  O   UNL     1     -10.770  12.646  63.962  1.00  0.00    -0.370 OA 
HETATM   34  C   UNL     1     -11.998  12.973  63.354  1.00  0.00    -0.520 C  
ENDBRANCH  31  33
ENDBRANCH  22  31
ENDBRANCH  19  22
ENDBRANCH   8  18
TORSDOF 8
ENDMDL
MODEL       95
REMARK 921   NORMALIZED FREE ENERGY PREDICTED BY IDOCK:   -5.32 KCAL/MOL
REMARK 922        TOTAL FREE ENERGY PREDICTED BY IDOCK:   -8.96 KCAL/MOL
REMARK 923 INTER-LIGAND FREE ENERGY PREDICTED BY IDOCK:   -8.02 KCAL/MOL
REMARK 924 INTRA-LIGAND FREE ENERGY PREDICTED BY IDOCK:   -0.95 KCAL/MOL
REMARK 927      BINDING AFFINITY PREDICTED BY RF-SCORE:    0.00 PKD
ROOT
HETATM    1  C   UNL     1      -9.640  12.356  66.976  1.00  0.00    -0.211 C  
HETATM    2  S   UNL     1      -8.787  13.621  67.879  1.00  0.00    -0.199 SA 
HETATM    3  C   UNL     1      -9.367  15.160  67.102  1.00  0.00    -0.212 C  
HETATM    4  C   UNL     1     -10.377  15.067  65.993  1.00  0.00    -0.326 C  
HETATM    5  C   UNL     1     -10.201  11.503  65.183  1.00  0.00    -0.274 C  
HETATM    6  CA  UNL     1     -10.826  13.917  65.425  1.00  0.00    -0.319 C  
HETATM    7  N   UNL     1     -10.293  12.722  65.752  1.00  0.00    -0.277 N  
HETATM    8  CA  UNL     1      -9.036  11.140  66.156  1.00  0.00    -0.201 C  
HETATM    9  C   UNL     1     -11.916  13.985  64.403  1.00  0.00    -0.454 C  
HETATM   10  O   UNL     1     -10.616  11.056  64.138  1.00  0.00    -0.371 OA 
HETATM   11  O   UNL     1     -11.896  13.110  63.393  1.00  0.00    -0.510 OA 
HETATM   12  OXT UNL     1     -12.851  14.768  64.515  1.00  0.00    -0.525 OA 
ENDROOT
BRANCH   4  13
HETATM   13  C   UNL     1     -10.740  16.449  65.445  1.00  0.00    -0.296 C  
BRANCH  13  14
HETATM   14  O   UNL     1     -10.560  17.480  66.429  1.00  0.00    -0.297 OA 
BRANCH  14  15
HETATM   15  C   UNL     1     -10.584  18.773  65.994  1.00  0.00    -0.386 C  
HETATM   16  C   UNL     1      -9.973  19.703  67.006  1.00  0.00    -0.510 C  
HETATM   17  O   UNL     1     -10.988  19.141  64.899  1.00  0.00    -0.317 OA 
ENDBRANCH  14  15
ENDBRANCH  13  14
ENDBRANCH   4  13
BRANCH   8  18
HETATM   18  N   UNL     1      -7.720  10.950  65.409  1.00  0.00    -0.360 N  
HETATM   19  C   UNL     1      -6.985   9.839  65.001  1.00  0.00    -0.119 C  
HETATM   20  H   UNL     1      -7.279  11.833  65.152  1.00  0.00     0.000 HD 
HETATM   21  O   UNL     1      -5.807  10.023  64.610  1.00  0.00    -0.093 OA 
BRANCH  19  22
HETATM   22  C   UNL     1      -7.536   8.419  64.876  1.00  0.00    -0.100 C  
BRANCH  22  23
HETATM   23  C   UNL     1      -8.260   7.762  65.983  1.00  0.00    -0.123 A  
HETATM   24  N   UNL     1      -9.650   7.805  66.143  1.00  0.00    -0.098 NA 
HETATM   25  H2  UNL     1     -11.578   5.840  67.870  1.00  0.00     0.000 HD 
HETATM   26  N   UNL     1     -11.338   6.617  67.255  1.00  0.00    -0.783 NA 
HETATM   27  C   UNL     1      -7.644   6.746  66.699  1.00  0.00    -0.086 A  
HETATM   28  S   UNL     1      -8.801   5.854  67.582  1.00  0.00    -0.104 SA 
HETATM   29  H1  UNL     1     -12.078   7.210  66.879  1.00  0.00     0.000 HD 
HETATM   30  C   UNL     1     -10.045   6.853  66.947  1.00  0.00    -0.218 A  
ENDBRANCH  22  23
BRANCH  22  31
HETATM   31  N   UNL     1      -7.231   7.534  63.977  1.00  0.00    -0.072 NA 
HETATM   32  H   UNL     1      -6.276   7.177  63.973  1.00  0.00     0.000 HD 
BRANCH  31  33
HETATM   33  O   UNL     1      -8.108   7.032  63.017  1.00  0.00    -0.105 OA 
HETATM   34  C   UNL     1      -8.328   5.643  62.923  1.00  0.00    -0.072 C  
ENDBRANCH  31  33
ENDBRANCH  22  31
ENDBRANCH  19  22
ENDBRANCH   8  18
TORSDOF 8
ENDMDL
MODEL       96
REMARK 921   NORMALIZED FREE ENERGY PREDICTED BY IDOCK:   -5.32 KCAL/MOL
REMARK 922        TOTAL FREE ENERGY PREDICTED BY IDOCK:   -8.96 KCAL/MOL
REMARK 923 INTER-LIGAND FREE ENERGY PREDICTED BY IDOCK:   -8.06 KCAL/MOL
REMARK 924 INTRA-LIGAND FREE ENERGY PREDICTED BY IDOCK:   -0.90 KCAL/MOL
REMARK 927      BINDING AFFINITY PREDICTED BY RF-SCORE:    0.00 PKD
ROOT
HETATM    1  C   UNL     1     -11.220  11.350  67.241  1.00  0.00    -0.304 C  
HETATM    2  S   UNL     1     -10.218  11.003  65.821  1.00  0.00    -0.263 SA 
HETATM    3  C   UNL     1      -9.491   9.381  66.202  1.00  0.00    -0.226 C  
HETATM    4  C   UNL     1      -9.872   8.708  67.490  1.00  0.00    -0.234 C  
HETATM    5  C   UNL     1     -11.442  11.481  69.289  1.00  0.00    -0.305 C  
HETATM    6  CA  UNL     1     -10.637   9.255  68.472  1.00  0.00    -0.183 C  
HETATM    7  N   UNL     1     -11.039  10.540  68.412  1.00  0.00    -0.266 N  
HETATM    8  CA  UNL     1     -11.152  12.590  68.229  1.00  0.00    -0.257 C  
HETATM    9  C   UNL     1     -11.021   8.416  69.650  1.00  0.00    -0.087 C  
HETATM   10  O   UNL     1     -11.609  11.464  70.487  1.00  0.00    -0.278 OA 
HETATM   11  O   UNL     1     -11.119   9.005  70.845  1.00  0.00    -0.247 OA 
HETATM   12  OXT UNL     1     -11.313   7.233  69.526  1.00  0.00    -0.098 OA 
ENDROOT
BRANCH   4  13
HETATM   13  C   UNL     1      -9.158   7.365  67.657  1.00  0.00    -0.125 C  
BRANCH  13  14
HETATM   14  O   UNL     1      -9.419   6.479  66.557  1.00  0.00    -0.161 OA 
BRANCH  14  15
HETATM   15  C   UNL     1      -9.974   5.266  66.847  1.00  0.00    -0.194 C  
HETATM   16  C   UNL     1     -10.590   4.640  65.626  1.00  0.00    -0.241 C  
HETATM   17  O   UNL     1      -9.931   4.714  67.938  1.00  0.00    -0.143 OA 
ENDBRANCH  14  15
ENDBRANCH  13  14
ENDBRANCH   4  13
BRANCH   8  18
HETATM   18  N   UNL     1     -10.008  13.499  68.667  1.00  0.00    -0.366 N  
HETATM   19  C   UNL     1      -9.419  14.644  68.136  1.00  0.00    -0.212 C  
HETATM   20  H   UNL     1      -9.579  13.202  69.543  1.00  0.00     0.000 HD 
HETATM   21  O   UNL     1      -8.326  15.023  68.622  1.00  0.00    -0.149 OA 
BRANCH  19  22
HETATM   22  C   UNL     1     -10.054  15.551  67.083  1.00  0.00    -0.254 C  
BRANCH  22  23
HETATM   23  C   UNL     1      -9.919  17.021  67.132  1.00  0.00    -0.281 A  
HETATM   24  N   UNL     1      -9.970  17.849  66.004  1.00  0.00    -0.540 NA 
HETATM   25  H2  UNL     1     -10.567  21.039  65.827  1.00  0.00     0.000 HD 
HETATM   26  N   UNL     1     -10.356  20.102  65.483  1.00  0.00    -0.377 NA 
HETATM   27  C   UNL     1     -10.127  17.690  68.329  1.00  0.00    -0.362 A  
HETATM   28  S   UNL     1     -10.372  19.355  68.046  1.00  0.00    -0.411 SA 
HETATM   29  H1  UNL     1     -10.259  19.942  64.480  1.00  0.00     0.000 HD 
HETATM   30  C   UNL     1     -10.208  19.085  66.358  1.00  0.00    -0.437 A  
ENDBRANCH  22  23
BRANCH  22  31
HETATM   31  N   UNL     1     -10.975  15.233  66.225  1.00  0.00    -0.320 NA 
HETATM   32  H   UNL     1     -11.909  15.612  66.376  1.00  0.00     0.000 HD 
BRANCH  31  33
HETATM   33  O   UNL     1     -10.785  14.414  65.112  1.00  0.00    -0.347 OA 
HETATM   34  C   UNL     1     -11.860  14.158  64.238  1.00  0.00    -0.397 C  
ENDBRANCH  31  33
ENDBRANCH  22  31
ENDBRANCH  19  22
ENDBRANCH   8  18
TORSDOF 8
ENDMDL
MODEL       97
REMARK 921   NORMALIZED FREE ENERGY PREDICTED BY IDOCK:   -5.31 KCAL/MOL
REMARK 922        TOTAL FREE ENERGY PREDICTED BY IDOCK:   -8.95 KCAL/MOL
REMARK 923 INTER-LIGAND FREE ENERGY PREDICTED BY IDOCK:   -7.37 KCAL/MOL
REMARK 924 INTRA-LIGAND FREE ENERGY PREDICTED BY IDOCK:   -1.58 KCAL/MOL
REMARK 927      BINDING AFFINITY PREDICTED BY RF-SCORE:    0.00 PKD
ROOT
HETATM    1  C   UNL     1      -9.461  10.705  65.925  1.00  0.00    -0.196 C  
HETATM    2  S   UNL     1      -7.768  10.344  66.309  1.00  0.00    -0.135 SA 
HETATM    3  C   UNL     1      -7.813   9.942  68.082  1.00  0.00    -0.085 C  
HETATM    4  C   UNL     1      -9.139   9.955  68.788  1.00  0.00    -0.147 C  
HETATM    5  C   UNL     1     -11.217  11.706  66.338  1.00  0.00    -0.287 C  
HETATM    6  CA  UNL     1     -10.320  10.355  68.246  1.00  0.00    -0.171 C  
HETATM    7  N   UNL     1     -10.375  10.900  67.014  1.00  0.00    -0.221 N  
HETATM    8  CA  UNL     1     -10.082  12.032  65.317  1.00  0.00    -0.260 C  
HETATM    9  C   UNL     1     -11.577  10.206  69.044  1.00  0.00    -0.011 C  
HETATM   10  O   UNL     1     -12.276  12.212  66.631  1.00  0.00    -0.566 OA 
HETATM   11  O   UNL     1     -12.530  11.132  68.907  1.00  0.00    -0.460 OA 
HETATM   12  OXT UNL     1     -11.772   9.227  69.754  1.00  0.00     0.062 OA 
ENDROOT
BRANCH   4  13
HETATM   13  C   UNL     1      -8.991   9.611  70.271  1.00  0.00    -0.219 C  
BRANCH  13  14
HETATM   14  O   UNL     1      -8.612   8.240  70.468  1.00  0.00    -0.124 OA 
BRANCH  14  15
HETATM   15  C   UNL     1      -9.367   7.498  71.330  1.00  0.00    -0.149 C  
HETATM   16  C   UNL     1      -9.229   7.993  72.744  1.00  0.00    -0.318 C  
HETATM   17  O   UNL     1     -10.115   6.585  71.006  1.00  0.00    -0.183 OA 
ENDBRANCH  14  15
ENDBRANCH  13  14
ENDBRANCH   4  13
BRANCH   8  18
HETATM   18  N   UNL     1      -9.663  13.497  65.391  1.00  0.00    -0.530 N  
HETATM   19  C   UNL     1      -9.633  14.449  66.408  1.00  0.00    -0.299 C  
HETATM   20  H   UNL     1      -9.331  13.860  64.498  1.00  0.00     0.000 HD 
HETATM   21  O   UNL     1      -9.456  15.648  66.085  1.00  0.00    -0.286 OA 
BRANCH  19  22
HETATM   22  C   UNL     1      -9.681  14.139  67.903  1.00  0.00    -0.224 C  
BRANCH  22  23
HETATM   23  C   UNL     1     -10.669  14.770  68.801  1.00  0.00    -0.253 A  
HETATM   24  N   UNL     1     -11.926  14.224  69.089  1.00  0.00    -0.335 NA 
HETATM   25  H2  UNL     1     -13.913  14.851  71.582  1.00  0.00     0.000 HD 
HETATM   26  N   UNL     1     -13.600  14.405  70.720  1.00  0.00    -0.396 NA 
HETATM   27  C   UNL     1     -10.255  15.733  69.709  1.00  0.00    -0.290 A  
HETATM   28  S   UNL     1     -11.442  15.966  70.914  1.00  0.00    -0.418 SA 
HETATM   29  H1  UNL     1     -14.181  13.692  70.280  1.00  0.00     0.000 HD 
HETATM   30  C   UNL     1     -12.420  14.765  70.172  1.00  0.00    -0.309 A  
ENDBRANCH  22  23
BRANCH  22  31
HETATM   31  N   UNL     1      -8.765  13.557  68.615  1.00  0.00    -0.353 NA 
HETATM   32  H   UNL     1      -9.050  13.141  69.501  1.00  0.00     0.000 HD 
BRANCH  31  33
HETATM   33  O   UNL     1      -7.420  13.456  68.261  1.00  0.00    -0.109 OA 
HETATM   34  C   UNL     1      -6.446  14.166  68.992  1.00  0.00    -0.099 C  
ENDBRANCH  31  33
ENDBRANCH  22  31
ENDBRANCH  19  22
ENDBRANCH   8  18
TORSDOF 8
ENDMDL
MODEL       98
REMARK 921   NORMALIZED FREE ENERGY PREDICTED BY IDOCK:   -5.31 KCAL/MOL
REMARK 922        TOTAL FREE ENERGY PREDICTED BY IDOCK:   -8.94 KCAL/MOL
REMARK 923 INTER-LIGAND FREE ENERGY PREDICTED BY IDOCK:   -7.74 KCAL/MOL
REMARK 924 INTRA-LIGAND FREE ENERGY PREDICTED BY IDOCK:   -1.21 KCAL/MOL
REMARK 927      BINDING AFFINITY PREDICTED BY RF-SCORE:    0.00 PKD
ROOT
HETATM    1  C   UNL     1      -9.920   9.956  69.885  1.00  0.00    -0.252 C  
HETATM    2  S   UNL     1      -9.074   8.483  69.380  1.00  0.00    -0.150 SA 
HETATM    3  C   UNL     1      -9.141   8.557  67.564  1.00  0.00    -0.134 C  
HETATM    4  C   UNL     1      -9.796   9.745  66.918  1.00  0.00    -0.256 C  
HETATM    5  C   UNL     1     -11.554  11.212  69.773  1.00  0.00    -0.334 C  
HETATM    6  CA  UNL     1     -10.456  10.737  67.572  1.00  0.00    -0.220 C  
HETATM    7  N   UNL     1     -10.681  10.671  68.900  1.00  0.00    -0.203 N  
HETATM    8  CA  UNL     1     -11.200  10.101  70.811  1.00  0.00    -0.336 C  
HETATM    9  C   UNL     1     -10.961  11.913  66.796  1.00  0.00    -0.292 C  
HETATM   10  O   UNL     1     -12.461  12.001  69.639  1.00  0.00    -0.068 OA 
HETATM   11  O   UNL     1     -12.109  12.480  67.177  1.00  0.00    -0.504 OA 
HETATM   12  OXT UNL     1     -10.314  12.400  65.877  1.00  0.00    -0.246 OA 
ENDROOT
BRANCH   4  13
HETATM   13  C   UNL     1      -9.779   9.638  65.392  1.00  0.00    -0.295 C  
BRANCH  13  14
HETATM   14  O   UNL     1      -8.459   9.825  64.856  1.00  0.00    -0.137 OA 
BRANCH  14  15
HETATM   15  C   UNL     1      -8.352  10.029  63.511  1.00  0.00    -0.171 C  
HETATM   16  C   UNL     1      -9.549  10.763  62.972  1.00  0.00    -0.381 C  
HETATM   17  O   UNL     1      -7.388   9.718  62.825  1.00  0.00    -0.113 OA 
ENDBRANCH  14  15
ENDBRANCH  13  14
ENDBRANCH   4  13
BRANCH   8  18
HETATM   18  N   UNL     1     -12.389   9.184  71.079  1.00  0.00    -0.437 N  
HETATM   19  C   UNL     1     -12.522   7.844  71.438  1.00  0.00    -0.309 C  
HETATM   20  H   UNL     1     -13.286   9.657  70.973  1.00  0.00     0.000 HD 
HETATM   21  O   UNL     1     -13.660   7.322  71.349  1.00  0.00    -0.388 OA 
BRANCH  19  22
HETATM   22  C   UNL     1     -11.416   6.984  72.046  1.00  0.00    -0.271 C  
BRANCH  22  23
HETATM   23  C   UNL     1     -10.956   5.735  71.406  1.00  0.00    -0.237 A  
HETATM   24  N   UNL     1     -10.775   5.584  70.026  1.00  0.00    -0.314 NA 
HETATM   25  H2  UNL     1      -9.018   3.373  68.418  1.00  0.00     0.000 HD 
HETATM   26  N   UNL     1      -9.632   4.178  68.538  1.00  0.00    -0.148 NA 
HETATM   27  C   UNL     1     -10.307   4.773  72.166  1.00  0.00    -0.190 A  
HETATM   28  S   UNL     1      -9.483   3.672  71.155  1.00  0.00    -0.174 SA 
HETATM   29  H1  UNL     1      -9.950   4.698  67.720  1.00  0.00     0.000 HD 
HETATM   30  C   UNL     1     -10.018   4.547  69.778  1.00  0.00    -0.198 A  
ENDBRANCH  22  23
BRANCH  22  31
HETATM   31  N   UNL     1     -10.951   7.043  73.256  1.00  0.00    -0.495 NA 
HETATM   32  H   UNL     1     -11.417   6.480  73.967  1.00  0.00     0.000 HD 
BRANCH  31  33
HETATM   33  O   UNL     1      -9.863   7.817  73.660  1.00  0.00    -0.290 OA 
HETATM   34  C   UNL     1      -8.838   7.237  74.434  1.00  0.00    -0.196 C  
ENDBRANCH  31  33
ENDBRANCH  22  31
ENDBRANCH  19  22
ENDBRANCH   8  18
TORSDOF 8
ENDMDL
MODEL       99
REMARK 921   NORMALIZED FREE ENERGY PREDICTED BY IDOCK:   -5.29 KCAL/MOL
REMARK 922        TOTAL FREE ENERGY PREDICTED BY IDOCK:   -8.92 KCAL/MOL
REMARK 923 INTER-LIGAND FREE ENERGY PREDICTED BY IDOCK:   -8.03 KCAL/MOL
REMARK 924 INTRA-LIGAND FREE ENERGY PREDICTED BY IDOCK:   -0.89 KCAL/MOL
REMARK 927      BINDING AFFINITY PREDICTED BY RF-SCORE:    0.00 PKD
ROOT
HETATM    1  C   UNL     1      -8.853  13.518  68.801  1.00  0.00     0.105 C  
HETATM    2  S   UNL     1      -8.856  15.199  69.364  1.00  0.00    -0.117 SA 
HETATM    3  C   UNL     1     -10.469  15.366  70.188  1.00  0.00    -0.272 C  
HETATM    4  C   UNL     1     -11.368  14.164  70.256  1.00  0.00    -0.093 C  
HETATM    5  C   UNL     1      -9.773  11.958  67.811  1.00  0.00    -0.189 C  
HETATM    6  CA  UNL     1     -11.137  12.968  69.652  1.00  0.00     0.091 C  
HETATM    7  N   UNL     1     -10.093  12.796  68.817  1.00  0.00    -0.114 N  
HETATM    8  CA  UNL     1      -8.683  12.963  67.324  1.00  0.00    -0.204 C  
HETATM    9  C   UNL     1     -12.076  11.830  69.906  1.00  0.00    -0.287 C  
HETATM   10  O   UNL     1     -10.347  11.013  67.321  1.00  0.00    -0.195 OA 
HETATM   11  O   UNL     1     -12.319  10.974  68.910  1.00  0.00    -0.516 OA 
HETATM   12  OXT UNL     1     -12.560  11.634  71.013  1.00  0.00    -0.378 OA 
ENDROOT
BRANCH   4  13
HETATM   13  C   UNL     1     -12.685  14.486  70.966  1.00  0.00    -0.343 C  
BRANCH  13  14
HETATM   14  O   UNL     1     -12.554  14.418  72.395  1.00  0.00    -0.320 OA 
BRANCH  14  15
HETATM   15  C   UNL     1     -13.186  15.380  73.128  1.00  0.00    -0.525 C  
HETATM   16  C   UNL     1     -12.463  15.648  74.420  1.00  0.00    -0.790 C  
HETATM   17  O   UNL     1     -14.178  16.001  72.771  1.00  0.00    -0.472 OA 
ENDBRANCH  14  15
ENDBRANCH  13  14
ENDBRANCH   4  13
BRANCH   8  18
HETATM   18  N   UNL     1      -9.026  13.545  65.956  1.00  0.00    -0.348 N  
HETATM   19  C   UNL     1     -10.003  14.422  65.491  1.00  0.00    -0.329 C  
HETATM   20  H   UNL     1      -8.402  13.219  65.219  1.00  0.00     0.000 HD 
HETATM   21  O   UNL     1     -10.166  14.516  64.250  1.00  0.00     0.046 OA 
BRANCH  19  22
HETATM   22  C   UNL     1     -10.820  15.372  66.366  1.00  0.00    -0.303 C  
BRANCH  22  23
HETATM   23  C   UNL     1     -10.311  16.699  66.764  1.00  0.00    -0.295 A  
HETATM   24  N   UNL     1      -9.218  17.332  66.159  1.00  0.00    -0.467 NA 
HETATM   25  H2  UNL     1      -8.401  20.477  66.177  1.00  0.00     0.000 HD 
HETATM   26  N   UNL     1      -8.321  19.487  65.946  1.00  0.00    -0.435 NA 
HETATM   27  C   UNL     1     -11.123  17.556  67.492  1.00  0.00     0.071 A  
HETATM   28  S   UNL     1     -10.514  19.150  67.430  1.00  0.00    -0.480 SA 
HETATM   29  H1  UNL     1      -7.555  19.168  65.352  1.00  0.00     0.000 HD 
HETATM   30  C   UNL     1      -9.226  18.611  66.430  1.00  0.00    -0.291 A  
ENDBRANCH  22  23
BRANCH  22  31
HETATM   31  N   UNL     1     -11.864  15.080  67.080  1.00  0.00    -0.231 NA 
HETATM   32  H   UNL     1     -12.051  15.659  67.897  1.00  0.00     0.000 HD 
BRANCH  31  33
HETATM   33  O   UNL     1     -12.750  14.036  66.815  1.00  0.00    -0.194 OA 
HETATM   34  C   UNL     1     -13.120  13.750  65.485  1.00  0.00    -0.158 C  
ENDBRANCH  31  33
ENDBRANCH  22  31
ENDBRANCH  19  22
ENDBRANCH   8  18
TORSDOF 8
ENDMDL
MODEL      100
REMARK 921   NORMALIZED FREE ENERGY PREDICTED BY IDOCK:   -5.29 KCAL/MOL
REMARK 922        TOTAL FREE ENERGY PREDICTED BY IDOCK:   -8.92 KCAL/MOL
REMARK 923 INTER-LIGAND FREE ENERGY PREDICTED BY IDOCK:   -7.18 KCAL/MOL
REMARK 924 INTRA-LIGAND FREE ENERGY PREDICTED BY IDOCK:   -1.73 KCAL/MOL
REMARK 927      BINDING AFFINITY PREDICTED BY RF-SCORE:    0.00 PKD
ROOT
HETATM    1  C   UNL     1     -11.017  16.245  68.269  1.00  0.00    -0.348 C  
HETATM    2  S   UNL     1     -10.373  17.282  66.984  1.00  0.00    -0.296 SA 
HETATM    3  C   UNL     1     -10.569  16.271  65.485  1.00  0.00    -0.353 C  
HETATM    4  C   UNL     1     -11.206  14.916  65.612  1.00  0.00    -0.347 C  
HETATM    5  C   UNL     1     -11.086  14.423  69.235  1.00  0.00    -0.271 C  
HETATM    6  CA  UNL     1     -11.557  14.313  66.778  1.00  0.00    -0.391 C  
HETATM    7  N   UNL     1     -11.245  14.860  67.970  1.00  0.00    -0.295 N  
HETATM    8  CA  UNL     1     -10.297  15.724  69.583  1.00  0.00    -0.290 C  
HETATM    9  C   UNL     1     -12.285  13.006  66.733  1.00  0.00    -0.194 C  
HETATM   10  O   UNL     1     -11.205  13.332  69.744  1.00  0.00    -0.118 OA 
HETATM   11  O   UNL     1     -12.035  12.107  67.689  1.00  0.00    -0.529 OA 
HETATM   12  OXT UNL     1     -13.144  12.780  65.890  1.00  0.00     0.082 OA 
ENDROOT
BRANCH   4  13
HETATM   13  C   UNL     1     -11.277  14.199  64.262  1.00  0.00    -0.177 C  
BRANCH  13  14
HETATM   14  O   UNL     1     -10.298  13.153  64.159  1.00  0.00    -0.421 OA 
BRANCH  14  15
HETATM   15  C   UNL     1     -10.653  12.029  63.471  1.00  0.00    -0.465 C  
HETATM   16  C   UNL     1      -9.443  11.293  62.964  1.00  0.00    -0.385 C  
HETATM   17  O   UNL     1     -11.798  11.621  63.327  1.00  0.00    -0.359 OA 
ENDBRANCH  14  15
ENDBRANCH  13  14
ENDBRANCH   4  13
BRANCH   8  18
HETATM   18  N   UNL     1      -8.837  15.425  69.911  1.00  0.00    -0.307 N  
HETATM   19  C   UNL     1      -7.857  14.620  69.336  1.00  0.00    -0.028 C  
HETATM   20  H   UNL     1      -8.506  15.926  70.735  1.00  0.00     0.000 HD 
HETATM   21  O   UNL     1      -6.810  14.408  69.993  1.00  0.00    -0.126 OA 
BRANCH  19  22
HETATM   22  C   UNL     1      -7.899  14.066  67.912  1.00  0.00    -0.160 C  
BRANCH  22  23
HETATM   23  C   UNL     1      -7.839  12.617  67.635  1.00  0.00    -0.162 A  
HETATM   24  N   UNL     1      -8.879  11.891  67.041  1.00  0.00    -0.183 NA 
HETATM   25  H2  UNL     1      -8.773   9.009  65.543  1.00  0.00     0.000 HD 
HETATM   26  N   UNL     1      -9.194   9.864  65.905  1.00  0.00    -0.164 NA 
HETATM   27  C   UNL     1      -6.610  11.976  67.589  1.00  0.00    -0.107 A  
HETATM   28  S   UNL     1      -6.756  10.462  66.816  1.00  0.00    -0.092 SA 
HETATM   29  H1  UNL     1     -10.188  10.039  65.760  1.00  0.00     0.000 HD 
HETATM   30  C   UNL     1      -8.431  10.756  66.572  1.00  0.00    -0.147 A  
ENDBRANCH  22  23
BRANCH  22  31
HETATM   31  N   UNL     1      -7.712  14.723  66.808  1.00  0.00    -0.248 NA 
HETATM   32  H   UNL     1      -8.372  14.562  66.048  1.00  0.00     0.000 HD 
BRANCH  31  33
HETATM   33  O   UNL     1      -6.678  15.630  66.581  1.00  0.00    -0.095 OA 
HETATM   34  C   UNL     1      -6.862  16.995  66.883  1.00  0.00    -0.212 C  
ENDBRANCH  31  33
ENDBRANCH  22  31
ENDBRANCH  19  22
ENDBRANCH   8  18
TORSDOF 8
ENDMDL
MODEL      101
REMARK 921   NORMALIZED FREE ENERGY PREDICTED BY IDOCK:   -5.25 KCAL/MOL
REMARK 922        TOTAL FREE ENERGY PREDICTED BY IDOCK:   -8.86 KCAL/MOL
REMARK 923 INTER-LIGAND FREE ENERGY PREDICTED BY IDOCK:   -7.85 KCAL/MOL
REMARK 924 INTRA-LIGAND FREE ENERGY PREDICTED BY IDOCK:   -1.01 KCAL/MOL
REMARK 927      BINDING AFFINITY PREDICTED BY RF-SCORE:    0.00 PKD
ROOT
HETATM    1  C   UNL     1     -11.162  12.279  65.545  1.00  0.00    -0.332 C  
HETATM    2  S   UNL     1     -11.636  11.512  64.019  1.00  0.00    -0.062 SA 
HETATM    3  C   UNL     1     -10.134  10.625  63.506  1.00  0.00    -0.224 C  
HETATM    4  C   UNL     1      -8.928  10.678  64.401  1.00  0.00    -0.212 C  
HETATM    5  C   UNL     1      -9.840  13.425  66.640  1.00  0.00    -0.278 C  
HETATM    6  CA  UNL     1      -8.811  11.432  65.526  1.00  0.00    -0.030 C  
HETATM    7  N   UNL     1      -9.767  12.314  65.880  1.00  0.00    -0.248 N  
HETATM    8  CA  UNL     1     -11.175  13.817  65.933  1.00  0.00    -0.302 C  
HETATM    9  C   UNL     1      -7.584  11.293  66.373  1.00  0.00    -0.072 C  
HETATM   10  O   UNL     1      -9.023  14.011  67.312  1.00  0.00    -0.197 OA 
HETATM   11  O   UNL     1      -7.113  12.379  66.991  1.00  0.00    -0.116 OA 
HETATM   12  OXT UNL     1      -7.058  10.203  66.563  1.00  0.00    -0.095 OA 
ENDROOT
BRANCH   4  13
HETATM   13  C   UNL     1      -7.754   9.894  63.812  1.00  0.00    -0.143 C  
BRANCH  13  14
HETATM   14  O   UNL     1      -8.006   8.480  63.798  1.00  0.00    -0.147 OA 
BRANCH  14  15
HETATM   15  C   UNL     1      -7.272   7.720  62.935  1.00  0.00    -0.090 C  
HETATM   16  C   UNL     1      -6.031   8.444  62.489  1.00  0.00    -0.083 C  
HETATM   17  O   UNL     1      -7.538   6.573  62.602  1.00  0.00    -0.068 OA 
ENDBRANCH  14  15
ENDBRANCH  13  14
ENDBRANCH   4  13
BRANCH   8  18
HETATM   18  N   UNL     1     -11.021  15.091  65.109  1.00  0.00    -0.380 N  
HETATM   19  C   UNL     1     -10.956  16.448  65.418  1.00  0.00    -0.160 C  
HETATM   20  H   UNL     1     -10.948  14.909  64.108  1.00  0.00     0.000 HD 
HETATM   21  O   UNL     1     -11.067  17.272  64.479  1.00  0.00    -1.082 OA 
BRANCH  19  22
HETATM   22  C   UNL     1     -10.642  17.019  66.800  1.00  0.00    -0.191 C  
BRANCH  22  23
HETATM   23  C   UNL     1      -9.822  18.234  66.977  1.00  0.00    -0.326 A  
HETATM   24  N   UNL     1      -8.723  18.559  66.173  1.00  0.00    -0.494 NA 
HETATM   25  H2  UNL     1      -7.291  21.442  65.723  1.00  0.00     0.000 HD 
HETATM   26  N   UNL     1      -7.446  20.441  65.602  1.00  0.00    -0.532 NA 
HETATM   27  C   UNL     1     -10.330  19.308  67.692  1.00  0.00    -0.429 A  
HETATM   28  S   UNL     1      -9.426  20.720  67.371  1.00  0.00    -0.189 SA 
HETATM   29  H1  UNL     1      -6.856  19.912  64.960  1.00  0.00     0.000 HD 
HETATM   30  C   UNL     1      -8.432  19.828  66.291  1.00  0.00    -0.361 A  
ENDBRANCH  22  23
BRANCH  22  31
HETATM   31  N   UNL     1     -10.778  16.423  67.946  1.00  0.00    -0.326 NA 
HETATM   32  H   UNL     1     -10.005  16.492  68.607  1.00  0.00     0.000 HD 
BRANCH  31  33
HETATM   33  O   UNL     1     -11.900  15.697  68.343  1.00  0.00    -0.346 OA 
HETATM   34  C   UNL     1     -12.013  15.253  69.676  1.00  0.00    -0.338 C  
ENDBRANCH  31  33
ENDBRANCH  22  31
ENDBRANCH  19  22
ENDBRANCH   8  18
TORSDOF 8
ENDMDL
MODEL      102
REMARK 921   NORMALIZED FREE ENERGY PREDICTED BY IDOCK:   -5.25 KCAL/MOL
REMARK 922        TOTAL FREE ENERGY PREDICTED BY IDOCK:   -8.86 KCAL/MOL
REMARK 923 INTER-LIGAND FREE ENERGY PREDICTED BY IDOCK:   -7.74 KCAL/MOL
REMARK 924 INTRA-LIGAND FREE ENERGY PREDICTED BY IDOCK:   -1.12 KCAL/MOL
REMARK 927      BINDING AFFINITY PREDICTED BY RF-SCORE:    0.00 PKD
ROOT
HETATM    1  C   UNL     1      -8.766   7.479  67.603  1.00  0.00    -0.122 C  
HETATM    2  S   UNL     1     -10.482   7.922  67.632  1.00  0.00    -0.213 SA 
HETATM    3  C   UNL     1     -10.567   9.363  66.527  1.00  0.00    -0.054 C  
HETATM    4  C   UNL     1      -9.307   9.821  65.848  1.00  0.00    -0.260 C  
HETATM    5  C   UNL     1      -6.777   8.004  67.768  1.00  0.00    -0.068 C  
HETATM    6  CA  UNL     1      -8.062   9.323  66.070  1.00  0.00    -0.110 C  
HETATM    7  N   UNL     1      -7.835   8.415  67.041  1.00  0.00    -0.095 N  
HETATM    8  CA  UNL     1      -7.745   7.368  68.813  1.00  0.00    -0.119 C  
HETATM    9  C   UNL     1      -6.921   9.811  65.233  1.00  0.00    -0.111 C  
HETATM   10  O   UNL     1      -5.610   8.322  67.764  1.00  0.00    -0.037 OA 
HETATM   11  O   UNL     1      -5.718   9.921  65.803  1.00  0.00    -0.052 OA 
HETATM   12  OXT UNL     1      -7.055  10.037  64.037  1.00  0.00    -0.126 OA 
ENDROOT
BRANCH   4  13
HETATM   13  C   UNL     1      -9.555  11.050  64.971  1.00  0.00    -0.247 C  
BRANCH  13  14
HETATM   14  O   UNL     1     -10.900  11.086  64.466  1.00  0.00    -0.313 OA 
BRANCH  14  15
HETATM   15  C   UNL     1     -11.662  12.170  64.789  1.00  0.00    -0.327 C  
HETATM   16  C   UNL     1     -11.902  13.048  63.591  1.00  0.00    -0.580 C  
HETATM   17  O   UNL     1     -12.149  12.387  65.890  1.00  0.00    -0.580 OA 
ENDBRANCH  14  15
ENDBRANCH  13  14
ENDBRANCH   4  13
BRANCH   8  18
HETATM   18  N   UNL     1      -7.661   8.077  70.161  1.00  0.00    -0.085 N  
HETATM   19  C   UNL     1      -8.576   8.347  71.176  1.00  0.00    -0.154 C  
HETATM   20  H   UNL     1      -6.727   8.432  70.364  1.00  0.00     0.000 HD 
HETATM   21  O   UNL     1      -8.244   9.169  72.064  1.00  0.00    -0.320 OA 
BRANCH  19  22
HETATM   22  C   UNL     1      -9.913   7.632  71.366  1.00  0.00    -0.181 C  
BRANCH  22  23
HETATM   23  C   UNL     1     -11.195   8.365  71.391  1.00  0.00    -0.261 A  
HETATM   24  N   UNL     1     -12.225   8.109  72.305  1.00  0.00    -0.349 NA 
HETATM   25  H2  UNL     1     -14.706  10.014  73.186  1.00  0.00     0.000 HD 
HETATM   26  N   UNL     1     -14.117   9.181  73.180  1.00  0.00    -1.155 NA 
HETATM   27  C   UNL     1     -11.292   9.601  70.768  1.00  0.00    -0.340 A  
HETATM   28  S   UNL     1     -12.677  10.436  71.314  1.00  0.00    -0.469 SA 
HETATM   29  H1  UNL     1     -14.339   8.401  73.798  1.00  0.00     0.000 HD 
HETATM   30  C   UNL     1     -13.051   9.121  72.355  1.00  0.00    -0.423 A  
ENDBRANCH  22  23
BRANCH  22  31
HETATM   31  N   UNL     1     -10.103   6.421  71.793  1.00  0.00    -0.184 NA 
HETATM   32  H   UNL     1     -10.675   6.301  72.629  1.00  0.00     0.000 HD 
BRANCH  31  33
HETATM   33  O   UNL     1      -9.586   5.271  71.198  1.00  0.00    -0.152 OA 
HETATM   34  C   UNL     1      -9.972   4.924  69.888  1.00  0.00    -0.247 C  
ENDBRANCH  31  33
ENDBRANCH  22  31
ENDBRANCH  19  22
ENDBRANCH   8  18
TORSDOF 8
ENDMDL
MODEL      103
REMARK 921   NORMALIZED FREE ENERGY PREDICTED BY IDOCK:   -5.22 KCAL/MOL
REMARK 922        TOTAL FREE ENERGY PREDICTED BY IDOCK:   -8.82 KCAL/MOL
REMARK 923 INTER-LIGAND FREE ENERGY PREDICTED BY IDOCK:   -7.67 KCAL/MOL
REMARK 924 INTRA-LIGAND FREE ENERGY PREDICTED BY IDOCK:   -1.15 KCAL/MOL
REMARK 927      BINDING AFFINITY PREDICTED BY RF-SCORE:    0.00 PKD
ROOT
HETATM    1  C   UNL     1     -12.146  11.452  69.590  1.00  0.00    -0.305 C  
HETATM    2  S   UNL     1     -12.253  12.970  70.499  1.00  0.00    -0.226 SA 
HETATM    3  C   UNL     1     -11.975  14.244  69.231  1.00  0.00    -0.335 C  
HETATM    4  C   UNL     1     -11.771  13.807  67.808  1.00  0.00    -0.393 C  
HETATM    5  C   UNL     1     -11.154  10.228  68.256  1.00  0.00    -0.254 C  
HETATM    6  CA  UNL     1     -11.660  12.521  67.384  1.00  0.00    -0.370 C  
HETATM    7  N   UNL     1     -11.610  11.497  68.259  1.00  0.00    -0.301 N  
HETATM    8  CA  UNL     1     -11.170  10.222  69.817  1.00  0.00    -0.282 C  
HETATM    9  C   UNL     1     -11.569  12.242  65.916  1.00  0.00    -0.393 C  
HETATM   10  O   UNL     1     -10.631   9.550  67.402  1.00  0.00    -0.268 OA 
HETATM   11  O   UNL     1     -10.809  11.222  65.509  1.00  0.00    -0.253 OA 
HETATM   12  OXT UNL     1     -12.227  12.878  65.102  1.00  0.00    -0.415 OA 
ENDROOT
BRANCH   4  13
HETATM   13  C   UNL     1     -11.537  15.001  66.881  1.00  0.00    -0.223 C  
BRANCH  13  14
HETATM   14  O   UNL     1     -11.112  16.167  67.605  1.00  0.00    -0.301 OA 
BRANCH  14  15
HETATM   15  C   UNL     1     -10.224  16.999  66.988  1.00  0.00    -0.303 C  
HETATM   16  C   UNL     1      -8.814  16.490  67.122  1.00  0.00    -0.213 C  
HETATM   17  O   UNL     1     -10.520  17.999  66.349  1.00  0.00    -0.375 OA 
ENDBRANCH  14  15
ENDBRANCH  13  14
ENDBRANCH   4  13
BRANCH   8  18
HETATM   18  N   UNL     1      -9.761  10.114  70.392  1.00  0.00    -0.344 N  
HETATM   19  C   UNL     1      -8.912   9.051  70.693  1.00  0.00    -0.220 C  
HETATM   20  H   UNL     1      -9.349  11.023  70.604  1.00  0.00     0.000 HD 
HETATM   21  O   UNL     1      -7.894   9.289  71.386  1.00  0.00    -0.335 OA 
BRANCH  19  22
HETATM   22  C   UNL     1      -9.055   7.632  70.145  1.00  0.00    -0.150 C  
BRANCH  22  23
HETATM   23  C   UNL     1      -9.701   6.556  70.923  1.00  0.00    -0.176 A  
HETATM   24  N   UNL     1      -9.008   5.484  71.500  1.00  0.00    -0.136 NA 
HETATM   25  H2  UNL     1      -9.930   3.503  73.906  1.00  0.00     0.000 HD 
HETATM   26  N   UNL     1      -9.317   3.882  73.184  1.00  0.00    -0.108 NA 
HETATM   27  C   UNL     1     -10.967   6.755  71.453  1.00  0.00    -0.242 A  
HETATM   28  S   UNL     1     -11.297   5.596  72.662  1.00  0.00    -0.275 SA 
HETATM   29  H1  UNL     1      -8.392   3.477  73.042  1.00  0.00     0.000 HD 
HETATM   30  C   UNL     1      -9.738   4.915  72.424  1.00  0.00    -0.157 A  
ENDBRANCH  22  23
BRANCH  22  31
HETATM   31  N   UNL     1      -8.430   7.114  69.133  1.00  0.00    -0.132 NA 
HETATM   32  H   UNL     1      -8.742   6.200  68.804  1.00  0.00     0.000 HD 
BRANCH  31  33
HETATM   33  O   UNL     1      -7.365   7.709  68.458  1.00  0.00    -0.089 OA 
HETATM   34  C   UNL     1      -7.591   8.375  67.237  1.00  0.00    -0.097 C  
ENDBRANCH  31  33
ENDBRANCH  22  31
ENDBRANCH  19  22
ENDBRANCH   8  18
TORSDOF 8
ENDMDL
MODEL      104
REMARK 921   NORMALIZED FREE ENERGY PREDICTED BY IDOCK:   -5.20 KCAL/MOL
REMARK 922        TOTAL FREE ENERGY PREDICTED BY IDOCK:   -8.79 KCAL/MOL
REMARK 923 INTER-LIGAND FREE ENERGY PREDICTED BY IDOCK:   -7.39 KCAL/MOL
REMARK 924 INTRA-LIGAND FREE ENERGY PREDICTED BY IDOCK:   -1.40 KCAL/MOL
REMARK 927      BINDING AFFINITY PREDICTED BY RF-SCORE:    0.00 PKD
ROOT
HETATM    1  C   UNL     1      -8.586   8.669  68.369  1.00  0.00    -0.135 C  
HETATM    2  S   UNL     1      -9.448   9.885  69.329  1.00  0.00    -0.222 SA 
HETATM    3  C   UNL     1     -10.753   8.925  70.155  1.00  0.00    -0.225 C  
HETATM    4  C   UNL     1     -10.812   7.443  69.918  1.00  0.00    -0.259 C  
HETATM    5  C   UNL     1      -8.605   7.109  67.019  1.00  0.00    -0.122 C  
HETATM    6  CA  UNL     1     -10.039   6.750  69.041  1.00  0.00    -0.164 C  
HETATM    7  N   UNL     1      -9.199   7.383  68.197  1.00  0.00    -0.134 N  
HETATM    8  CA  UNL     1      -8.335   8.631  66.803  1.00  0.00    -0.108 C  
HETATM    9  C   UNL     1     -10.142   5.257  68.998  1.00  0.00    -0.202 C  
HETATM   10  O   UNL     1      -8.616   6.132  66.306  1.00  0.00    -0.125 OA 
HETATM   11  O   UNL     1      -9.997   4.644  67.820  1.00  0.00    -0.152 OA 
HETATM   12  OXT UNL     1     -10.280   4.596  70.019  1.00  0.00    -0.234 OA 
ENDROOT
BRANCH   4  13
HETATM   13  C   UNL     1     -11.976   6.798  70.674  1.00  0.00    -0.362 C  
BRANCH  13  14
HETATM   14  O   UNL     1     -11.947   7.115  72.075  1.00  0.00    -0.289 OA 
BRANCH  14  15
HETATM   15  C   UNL     1     -11.164   6.338  72.877  1.00  0.00    -0.200 C  
HETATM   16  C   UNL     1     -10.115   7.157  73.578  1.00  0.00    -0.374 C  
HETATM   17  O   UNL     1     -11.317   5.139  73.065  1.00  0.00    -0.302 OA 
ENDBRANCH  14  15
ENDBRANCH  13  14
ENDBRANCH   4  13
BRANCH   8  18
HETATM   18  N   UNL     1      -9.124   9.178  65.618  1.00  0.00    -0.205 N  
HETATM   19  C   UNL     1      -9.700  10.411  65.320  1.00  0.00    -0.278 C  
HETATM   20  H   UNL     1      -9.259   8.489  64.879  1.00  0.00     0.000 HD 
HETATM   21  O   UNL     1     -10.496  10.470  64.351  1.00  0.00    -0.304 OA 
BRANCH  19  22
HETATM   22  C   UNL     1      -9.352  11.732  66.005  1.00  0.00    -0.220 C  
BRANCH  22  23
HETATM   23  C   UNL     1     -10.344  12.814  66.166  1.00  0.00    -0.269 A  
HETATM   24  N   UNL     1     -11.052  13.056  67.350  1.00  0.00    -0.263 NA 
HETATM   25  H2  UNL     1     -12.587  15.756  68.307  1.00  0.00     0.000 HD 
HETATM   26  N   UNL     1     -12.247  14.797  68.369  1.00  0.00    -0.605 NA 
HETATM   27  C   UNL     1     -10.342  13.885  65.285  1.00  0.00    -0.378 A  
HETATM   28  S   UNL     1     -11.235  15.189  65.930  1.00  0.00    -0.226 SA 
HETATM   29  H1  UNL     1     -12.436  14.247  69.208  1.00  0.00     0.000 HD 
HETATM   30  C   UNL     1     -11.552  14.264  67.342  1.00  0.00    -0.369 A  
ENDBRANCH  22  23
BRANCH  22  31
HETATM   31  N   UNL     1      -8.167  12.193  66.266  1.00  0.00    -0.376 NA 
HETATM   32  H   UNL     1      -7.578  12.451  65.475  1.00  0.00     0.000 HD 
BRANCH  31  33
HETATM   33  O   UNL     1      -7.638  12.364  67.544  1.00  0.00    -0.133 OA 
HETATM   34  C   UNL     1      -6.523  13.206  67.736  1.00  0.00    -0.153 C  
ENDBRANCH  31  33
ENDBRANCH  22  31
ENDBRANCH  19  22
ENDBRANCH   8  18
TORSDOF 8
ENDMDL
MODEL      105
REMARK 921   NORMALIZED FREE ENERGY PREDICTED BY IDOCK:   -5.19 KCAL/MOL
REMARK 922        TOTAL FREE ENERGY PREDICTED BY IDOCK:   -8.77 KCAL/MOL
REMARK 923 INTER-LIGAND FREE ENERGY PREDICTED BY IDOCK:   -7.70 KCAL/MOL
REMARK 924 INTRA-LIGAND FREE ENERGY PREDICTED BY IDOCK:   -1.07 KCAL/MOL
REMARK 927      BINDING AFFINITY PREDICTED BY RF-SCORE:    0.00 PKD
ROOT
HETATM    1  C   UNL     1     -10.101  13.491  66.391  1.00  0.00    -0.294 C  
HETATM    2  S   UNL     1     -11.055  14.925  65.972  1.00  0.00    -0.323 SA 
HETATM    3  C   UNL     1      -9.960  16.307  66.414  1.00  0.00    -0.300 C  
HETATM    4  C   UNL     1      -8.592  15.995  66.953  1.00  0.00    -0.263 C  
HETATM    5  C   UNL     1      -8.946  12.439  67.739  1.00  0.00    -0.182 C  
HETATM    6  CA  UNL     1      -8.125  14.755  67.254  1.00  0.00    -0.207 C  
HETATM    7  N   UNL     1      -8.926  13.672  67.195  1.00  0.00    -0.223 N  
HETATM    8  CA  UNL     1     -10.462  12.312  67.389  1.00  0.00    -0.210 C  
HETATM    9  C   UNL     1      -6.699  14.596  67.680  1.00  0.00    -0.174 C  
HETATM   10  O   UNL     1      -8.188  11.862  68.485  1.00  0.00    -0.154 OA 
HETATM   11  O   UNL     1      -6.408  13.660  68.588  1.00  0.00    -0.080 OA 
HETATM   12  OXT UNL     1      -5.800  15.249  67.165  1.00  0.00    -0.288 OA 
ENDROOT
BRANCH   4  13
HETATM   13  C   UNL     1      -7.814  17.269  67.287  1.00  0.00    -0.189 C  
BRANCH  13  14
HETATM   14  O   UNL     1      -8.337  18.414  66.594  1.00  0.00    -0.249 OA 
BRANCH  14  15
HETATM   15  C   UNL     1      -7.469  19.128  65.820  1.00  0.00    -0.177 C  
HETATM   16  C   UNL     1      -6.304  18.284  65.382  1.00  0.00    -0.233 C  
HETATM   17  O   UNL     1      -7.631  20.288  65.465  1.00  0.00    -0.245 OA 
ENDBRANCH  14  15
ENDBRANCH  13  14
ENDBRANCH   4  13
BRANCH   8  18
HETATM   18  N   UNL     1     -11.325  12.250  68.645  1.00  0.00    -0.266 N  
HETATM   19  C   UNL     1     -11.727  11.225  69.499  1.00  0.00    -0.345 C  
HETATM   20  H   UNL     1     -11.688  13.161  68.921  1.00  0.00     0.000 HD 
HETATM   21  O   UNL     1     -12.644  11.469  70.320  1.00  0.00    -0.210 OA 
BRANCH  19  22
HETATM   22  C   UNL     1     -11.059   9.855  69.601  1.00  0.00    -0.241 C  
BRANCH  22  23
HETATM   23  C   UNL     1     -10.475   9.361  70.865  1.00  0.00    -0.310 A  
HETATM   24  N   UNL     1     -11.214   8.732  71.874  1.00  0.00    -0.346 NA 
HETATM   25  H2  UNL     1     -10.176   6.818  74.287  1.00  0.00     0.000 HD 
HETATM   26  N   UNL     1     -10.850   7.329  73.717  1.00  0.00    -0.528 NA 
HETATM   27  C   UNL     1      -9.108   9.143  70.952  1.00  0.00    -0.252 A  
HETATM   28  S   UNL     1      -8.746   8.164  72.302  1.00  0.00    -0.200 SA 
HETATM   29  H1  UNL     1     -11.844   7.274  73.939  1.00  0.00     0.000 HD 
HETATM   30  C   UNL     1     -10.419   8.072  72.676  1.00  0.00    -0.339 A  
ENDBRANCH  22  23
BRANCH  22  31
HETATM   31  N   UNL     1     -10.666   9.097  68.623  1.00  0.00    -0.380 NA 
HETATM   32  H   UNL     1     -10.151   8.250  68.861  1.00  0.00     0.000 HD 
BRANCH  31  33
HETATM   33  O   UNL     1     -10.894   9.352  67.271  1.00  0.00    -0.247 OA 
HETATM   34  C   UNL     1     -10.013   8.835  66.300  1.00  0.00    -0.245 C  
ENDBRANCH  31  33
ENDBRANCH  22  31
ENDBRANCH  19  22
ENDBRANCH   8  18
TORSDOF 8
ENDMDL
MODEL      106
REMARK 921   NORMALIZED FREE ENERGY PREDICTED BY IDOCK:   -5.19 KCAL/MOL
REMARK 922        TOTAL FREE ENERGY PREDICTED BY IDOCK:   -8.77 KCAL/MOL
REMARK 923 INTER-LIGAND FREE ENERGY PREDICTED BY IDOCK:   -7.47 KCAL/MOL
REMARK 924 INTRA-LIGAND FREE ENERGY PREDICTED BY IDOCK:   -1.30 KCAL/MOL
REMARK 927      BINDING AFFINITY PREDICTED BY RF-SCORE:    0.00 PKD
ROOT
HETATM    1  C   UNL     1      -8.636  12.436  68.371  1.00  0.00    -0.129 C  
HETATM    2  S   UNL     1     -10.309  11.911  68.112  1.00  0.00    -0.205 SA 
HETATM    3  C   UNL     1     -10.150  10.580  66.883  1.00  0.00    -0.216 C  
HETATM    4  C   UNL     1      -8.775  10.202  66.410  1.00  0.00    -0.140 C  
HETATM    5  C   UNL     1      -6.811  13.042  67.622  1.00  0.00    -0.154 C  
HETATM    6  CA  UNL     1      -7.622  10.845  66.733  1.00  0.00    -0.134 C  
HETATM    7  N   UNL     1      -7.635  11.990  67.445  1.00  0.00    -0.142 N  
HETATM    8  CA  UNL     1      -8.004  13.879  68.180  1.00  0.00    -0.148 C  
HETATM    9  C   UNL     1      -6.316  10.279  66.269  1.00  0.00    -0.090 C  
HETATM   10  O   UNL     1      -5.712  13.301  67.188  1.00  0.00    -0.323 OA 
HETATM   11  O   UNL     1      -5.336  11.127  65.944  1.00  0.00    -0.140 OA 
HETATM   12  OXT UNL     1      -6.111   9.072  66.253  1.00  0.00    -0.060 OA 
ENDROOT
BRANCH   4  13
HETATM   13  C   UNL     1      -8.826   9.080  65.370  1.00  0.00    -0.197 C  
BRANCH  13  14
HETATM   14  O   UNL     1      -9.487   7.910  65.875  1.00  0.00    -0.080 OA 
BRANCH  14  15
HETATM   15  C   UNL     1      -8.741   6.775  66.005  1.00  0.00    -0.146 C  
HETATM   16  C   UNL     1      -8.369   6.526  67.442  1.00  0.00    -0.120 C  
HETATM   17  O   UNL     1      -8.453   6.012  65.094  1.00  0.00    -0.148 OA 
ENDBRANCH  14  15
ENDBRANCH  13  14
ENDBRANCH   4  13
BRANCH   8  18
HETATM   18  N   UNL     1      -8.352  15.044  67.260  1.00  0.00    -0.190 N  
HETATM   19  C   UNL     1      -9.387  15.299  66.362  1.00  0.00    -0.296 C  
HETATM   20  H   UNL     1      -7.677  15.807  67.313  1.00  0.00     0.000 HD 
HETATM   21  O   UNL     1      -9.256  16.265  65.572  1.00  0.00    -0.402 OA 
BRANCH  19  22
HETATM   22  C   UNL     1     -10.728  14.568  66.338  1.00  0.00    -0.309 C  
BRANCH  22  23
HETATM   23  C   UNL     1     -11.161  13.767  65.176  1.00  0.00    -0.316 A  
HETATM   24  N   UNL     1     -10.291  13.018  64.375  1.00  0.00    -0.393 NA 
HETATM   25  H2  UNL     1     -10.962  10.549  62.370  1.00  0.00     0.000 HD 
HETATM   26  N   UNL     1     -10.382  11.232  62.858  1.00  0.00    -0.700 NA 
HETATM   27  C   UNL     1     -12.493  13.401  65.052  1.00  0.00    -0.428 A  
HETATM   28  S   UNL     1     -12.659  12.130  63.924  1.00  0.00    -0.367 SA 
HETATM   29  H1  UNL     1      -9.372  11.231  62.716  1.00  0.00     0.000 HD 
HETATM   30  C   UNL     1     -10.959  12.129  63.685  1.00  0.00    -0.461 A  
ENDBRANCH  22  23
BRANCH  22  31
HETATM   31  N   UNL     1     -11.739  14.755  67.131  1.00  0.00    -0.365 NA 
HETATM   32  H   UNL     1     -12.602  14.255  66.919  1.00  0.00     0.000 HD 
BRANCH  31  33
HETATM   33  O   UNL     1     -11.736  15.586  68.251  1.00  0.00    -0.360 OA 
HETATM   34  C   UNL     1     -11.988  15.045  69.528  1.00  0.00    -0.313 C  
ENDBRANCH  31  33
ENDBRANCH  22  31
ENDBRANCH  19  22
ENDBRANCH   8  18
TORSDOF 8
ENDMDL
MODEL      107
REMARK 921   NORMALIZED FREE ENERGY PREDICTED BY IDOCK:   -5.19 KCAL/MOL
REMARK 922        TOTAL FREE ENERGY PREDICTED BY IDOCK:   -8.77 KCAL/MOL
REMARK 923 INTER-LIGAND FREE ENERGY PREDICTED BY IDOCK:   -7.45 KCAL/MOL
REMARK 924 INTRA-LIGAND FREE ENERGY PREDICTED BY IDOCK:   -1.32 KCAL/MOL
REMARK 927      BINDING AFFINITY PREDICTED BY RF-SCORE:    0.00 PKD
ROOT
HETATM    1  C   UNL     1     -11.043  13.158  68.246  1.00  0.00    -0.266 C  
HETATM    2  S   UNL     1      -9.845  12.102  67.477  1.00  0.00    -0.194 SA 
HETATM    3  C   UNL     1      -9.981  10.551  68.416  1.00  0.00    -0.164 C  
HETATM    4  C   UNL     1     -11.002  10.466  69.516  1.00  0.00    -0.307 C  
HETATM    5  C   UNL     1     -11.866  13.995  69.943  1.00  0.00    -0.329 C  
HETATM    6  CA  UNL     1     -11.773  11.493  69.961  1.00  0.00    -0.332 C  
HETATM    7  N   UNL     1     -11.595  12.749  69.507  1.00  0.00    -0.289 N  
HETATM    8  CA  UNL     1     -10.830  14.574  68.930  1.00  0.00    -0.253 C  
HETATM    9  C   UNL     1     -12.823  11.222  70.992  1.00  0.00    -0.300 C  
HETATM   10  O   UNL     1     -12.416  14.411  70.937  1.00  0.00    -0.308 OA 
HETATM   11  O   UNL     1     -13.076  12.165  71.904  1.00  0.00    -0.446 OA 
HETATM   12  OXT UNL     1     -13.494  10.198  70.970  1.00  0.00    -0.351 OA 
ENDROOT
BRANCH   4  13
HETATM   13  C   UNL     1     -10.970   9.102  70.209  1.00  0.00    -0.245 C  
BRANCH  13  14
HETATM   14  O   UNL     1     -11.088   8.021  69.270  1.00  0.00    -0.043 OA 
BRANCH  14  15
HETATM   15  C   UNL     1     -10.220   6.977  69.405  1.00  0.00    -0.189 C  
HETATM   16  C   UNL     1     -10.635   6.060  70.522  1.00  0.00    -0.329 C  
HETATM   17  O   UNL     1      -9.257   6.762  68.680  1.00  0.00    -0.134 OA 
ENDBRANCH  14  15
ENDBRANCH  13  14
ENDBRANCH   4  13
BRANCH   8  18
HETATM   18  N   UNL     1      -9.640  15.207  69.643  1.00  0.00    -0.436 N  
HETATM   19  C   UNL     1      -8.380  15.641  69.235  1.00  0.00    -0.256 C  
HETATM   20  H   UNL     1      -9.803  15.344  70.640  1.00  0.00     0.000 HD 
HETATM   21  O   UNL     1      -7.532  15.902  70.123  1.00  0.00     0.257 OA 
BRANCH  19  22
HETATM   22  C   UNL     1      -7.980  15.940  67.792  1.00  0.00    -0.141 C  
BRANCH  22  23
HETATM   23  C   UNL     1      -8.473  17.134  67.075  1.00  0.00    -0.211 A  
HETATM   24  N   UNL     1      -9.782  17.619  67.172  1.00  0.00    -0.282 NA 
HETATM   25  H2  UNL     1     -10.931  20.577  66.471  1.00  0.00     0.000 HD 
HETATM   26  N   UNL     1     -10.964  19.606  66.782  1.00  0.00    -0.380 NA 
HETATM   27  C   UNL     1      -7.567  18.059  66.577  1.00  0.00    -0.245 A  
HETATM   28  S   UNL     1      -8.355  19.530  66.218  1.00  0.00    -0.329 SA 
HETATM   29  H1  UNL     1     -11.846  19.208  67.104  1.00  0.00     0.000 HD 
HETATM   30  C   UNL     1      -9.840  18.859  66.762  1.00  0.00    -0.348 A  
ENDBRANCH  22  23
BRANCH  22  31
HETATM   31  N   UNL     1      -7.435  15.124  66.942  1.00  0.00    -0.282 NA 
HETATM   32  H   UNL     1      -7.965  14.897  66.101  1.00  0.00     0.000 HD 
BRANCH  31  33
HETATM   33  O   UNL     1      -6.181  14.532  67.090  1.00  0.00    -0.213 OA 
HETATM   34  C   UNL     1      -6.080  13.209  67.563  1.00  0.00    -0.105 C  
ENDBRANCH  31  33
ENDBRANCH  22  31
ENDBRANCH  19  22
ENDBRANCH   8  18
TORSDOF 8
ENDMDL
MODEL      108
REMARK 921   NORMALIZED FREE ENERGY PREDICTED BY IDOCK:   -5.18 KCAL/MOL
REMARK 922        TOTAL FREE ENERGY PREDICTED BY IDOCK:   -8.75 KCAL/MOL
REMARK 923 INTER-LIGAND FREE ENERGY PREDICTED BY IDOCK:   -7.51 KCAL/MOL
REMARK 924 INTRA-LIGAND FREE ENERGY PREDICTED BY IDOCK:   -1.24 KCAL/MOL
REMARK 927      BINDING AFFINITY PREDICTED BY RF-SCORE:    0.00 PKD
ROOT
HETATM    1  C   UNL     1      -8.752   9.076  68.649  1.00  0.00    -0.133 C  
HETATM    2  S   UNL     1      -7.945   9.522  70.163  1.00  0.00    -0.171 SA 
HETATM    3  C   UNL     1      -7.633   7.920  70.965  1.00  0.00    -0.082 C  
HETATM    4  C   UNL     1      -8.041   6.666  70.245  1.00  0.00    -0.121 C  
HETATM    5  C   UNL     1     -10.218   8.031  67.640  1.00  0.00    -0.228 C  
HETATM    6  CA  UNL     1      -8.736   6.614  69.078  1.00  0.00    -0.129 C  
HETATM    7  N   UNL     1      -9.232   7.731  68.509  1.00  0.00    -0.138 N  
HETATM    8  CA  UNL     1     -10.178   9.518  68.113  1.00  0.00    -0.193 C  
HETATM    9  C   UNL     1      -8.972   5.287  68.428  1.00  0.00    -0.108 C  
HETATM   10  O   UNL     1     -11.010   7.347  67.033  1.00  0.00    -0.332 OA 
HETATM   11  O   UNL     1     -10.122   5.094  67.776  1.00  0.00    -0.163 OA 
HETATM   12  OXT UNL     1      -8.112   4.415  68.421  1.00  0.00    -0.081 OA 
ENDROOT
BRANCH   4  13
HETATM   13  C   UNL     1      -7.721   5.415  71.067  1.00  0.00    -0.098 C  
BRANCH  13  14
HETATM   14  O   UNL     1      -8.578   5.292  72.213  1.00  0.00    -0.124 OA 
BRANCH  14  15
HETATM   15  C   UNL     1      -9.804   4.726  72.020  1.00  0.00    -0.176 C  
HETATM   16  C   UNL     1     -10.906   5.626  72.507  1.00  0.00    -0.299 C  
HETATM   17  O   UNL     1     -10.007   3.653  71.467  1.00  0.00    -0.174 OA 
ENDBRANCH  14  15
ENDBRANCH  13  14
ENDBRANCH   4  13
BRANCH   8  18
HETATM   18  N   UNL     1     -11.469   9.918  68.820  1.00  0.00    -0.491 N  
HETATM   19  C   UNL     1     -11.983  11.121  69.300  1.00  0.00    -0.351 C  
HETATM   20  H   UNL     1     -12.096   9.129  68.977  1.00  0.00     0.000 HD 
HETATM   21  O   UNL     1     -12.983  11.073  70.056  1.00  0.00    -0.105 OA 
BRANCH  19  22
HETATM   22  C   UNL     1     -11.498  12.509  68.886  1.00  0.00    -0.307 C  
BRANCH  22  23
HETATM   23  C   UNL     1     -11.259  12.865  67.473  1.00  0.00    -0.290 A  
HETATM   24  N   UNL     1     -12.247  12.835  66.481  1.00  0.00    -0.496 NA 
HETATM   25  H2  UNL     1     -12.300  14.324  63.593  1.00  0.00     0.000 HD 
HETATM   26  N   UNL     1     -12.642  13.737  64.353  1.00  0.00    -0.666 NA 
HETATM   27  C   UNL     1     -10.146  13.619  67.133  1.00  0.00    -0.245 A  
HETATM   28  S   UNL     1     -10.328  14.279  65.569  1.00  0.00    -0.376 SA 
HETATM   29  H1  UNL     1     -13.561  13.300  64.280  1.00  0.00     0.000 HD 
HETATM   30  C   UNL     1     -11.875  13.544  65.447  1.00  0.00    -0.357 A  
ENDBRANCH  22  23
BRANCH  22  31
HETATM   31  N   UNL     1     -10.981  13.422  69.652  1.00  0.00    -0.460 NA 
HETATM   32  H   UNL     1     -10.002  13.316  69.914  1.00  0.00     0.000 HD 
BRANCH  31  33
HETATM   33  O   UNL     1     -11.662  14.536  70.142  1.00  0.00    -0.270 OA 
HETATM   34  C   UNL     1     -11.111  15.823  69.978  1.00  0.00    -0.344 C  
ENDBRANCH  31  33
ENDBRANCH  22  31
ENDBRANCH  19  22
ENDBRANCH   8  18
TORSDOF 8
ENDMDL
MODEL      109
REMARK 921   NORMALIZED FREE ENERGY PREDICTED BY IDOCK:   -5.15 KCAL/MOL
REMARK 922        TOTAL FREE ENERGY PREDICTED BY IDOCK:   -8.72 KCAL/MOL
REMARK 923 INTER-LIGAND FREE ENERGY PREDICTED BY IDOCK:   -7.53 KCAL/MOL
REMARK 924 INTRA-LIGAND FREE ENERGY PREDICTED BY IDOCK:   -1.19 KCAL/MOL
REMARK 927      BINDING AFFINITY PREDICTED BY RF-SCORE:    0.00 PKD
ROOT
HETATM    1  C   UNL     1      -9.237  10.742  67.943  1.00  0.00    -0.150 C  
HETATM    2  S   UNL     1     -10.854  10.067  67.677  1.00  0.00    -0.230 SA 
HETATM    3  C   UNL     1     -10.520   8.461  66.892  1.00  0.00    -0.289 C  
HETATM    4  C   UNL     1      -9.090   8.050  66.682  1.00  0.00    -0.199 C  
HETATM    5  C   UNL     1      -7.359  11.225  67.237  1.00  0.00    -0.122 C  
HETATM    6  CA  UNL     1      -8.000   8.824  66.924  1.00  0.00    -0.098 C  
HETATM    7  N   UNL     1      -8.126  10.118  67.282  1.00  0.00    -0.113 N  
HETATM    8  CA  UNL     1      -8.631  12.111  67.418  1.00  0.00    -0.175 C  
HETATM    9  C   UNL     1      -6.634   8.231  66.768  1.00  0.00    -0.057 C  
HETATM   10  O   UNL     1      -6.226  11.420  66.859  1.00  0.00    -0.106 OA 
HETATM   11  O   UNL     1      -5.650   9.014  66.317  1.00  0.00    -0.046 OA 
HETATM   12  OXT UNL     1      -6.393   7.081  67.110  1.00  0.00    -0.047 OA 
ENDROOT
BRANCH   4  13
HETATM   13  C   UNL     1      -8.992   6.685  65.997  1.00  0.00    -0.112 C  
BRANCH  13  14
HETATM   14  O   UNL     1     -10.046   5.800  66.412  1.00  0.00    -0.169 OA 
BRANCH  14  15
HETATM   15  C   UNL     1      -9.872   5.125  67.584  1.00  0.00    -0.160 C  
HETATM   16  C   UNL     1      -8.771   4.107  67.472  1.00  0.00    -0.117 C  
HETATM   17  O   UNL     1     -10.480   5.347  68.623  1.00  0.00    -0.181 OA 
ENDBRANCH  14  15
ENDBRANCH  13  14
ENDBRANCH   4  13
BRANCH   8  18
HETATM   18  N   UNL     1      -8.908  12.956  66.179  1.00  0.00    -0.409 N  
HETATM   19  C   UNL     1     -10.065  13.339  65.503  1.00  0.00    -0.263 C  
HETATM   20  H   UNL     1      -8.059  13.321  65.749  1.00  0.00     0.000 HD 
HETATM   21  O   UNL     1      -9.938  13.848  64.363  1.00  0.00    -0.215 OA 
BRANCH  19  22
HETATM   22  C   UNL     1     -11.476  13.301  66.086  1.00  0.00    -0.328 C  
BRANCH  22  23
HETATM   23  C   UNL     1     -11.818  13.978  67.353  1.00  0.00    -0.409 A  
HETATM   24  N   UNL     1     -11.969  13.316  68.577  1.00  0.00    -0.340 NA 
HETATM   25  H2  UNL     1     -11.852  14.526  71.591  1.00  0.00     0.000 HD 
HETATM   26  N   UNL     1     -11.950  13.814  70.869  1.00  0.00    -0.502 NA 
HETATM   27  C   UNL     1     -11.623  15.346  67.475  1.00  0.00    -0.169 A  
HETATM   28  S   UNL     1     -11.643  15.806  69.119  1.00  0.00    -0.388 SA 
HETATM   29  H1  UNL     1     -12.094  12.840  71.136  1.00  0.00     0.000 HD 
HETATM   30  C   UNL     1     -11.887  14.167  69.567  1.00  0.00    -0.322 A  
ENDBRANCH  22  23
BRANCH  22  31
HETATM   31  N   UNL     1     -12.442  12.499  65.755  1.00  0.00    -0.566 NA 
HETATM   32  H   UNL     1     -12.715  11.787  66.432  1.00  0.00     0.000 HD 
BRANCH  31  33
HETATM   33  O   UNL     1     -13.134  12.535  64.545  1.00  0.00    -0.816 OA 
HETATM   34  C   UNL     1     -12.607  11.878  63.415  1.00  0.00    -0.431 C  
ENDBRANCH  31  33
ENDBRANCH  22  31
ENDBRANCH  19  22
ENDBRANCH   8  18
TORSDOF 8
ENDMDL
MODEL      110
REMARK 921   NORMALIZED FREE ENERGY PREDICTED BY IDOCK:   -5.15 KCAL/MOL
REMARK 922        TOTAL FREE ENERGY PREDICTED BY IDOCK:   -8.72 KCAL/MOL
REMARK 923 INTER-LIGAND FREE ENERGY PREDICTED BY IDOCK:   -7.92 KCAL/MOL
REMARK 924 INTRA-LIGAND FREE ENERGY PREDICTED BY IDOCK:   -0.79 KCAL/MOL
REMARK 927      BINDING AFFINITY PREDICTED BY RF-SCORE:    0.00 PKD
ROOT
HETATM    1  C   UNL     1     -11.298  16.056  68.441  1.00  0.00    -0.355 C  
HETATM    2  S   UNL     1     -10.613  17.221  67.294  1.00  0.00    -0.230 SA 
HETATM    3  C   UNL     1     -10.624  16.319  65.716  1.00  0.00    -0.324 C  
HETATM    4  C   UNL     1     -11.188  14.926  65.689  1.00  0.00    -0.347 C  
HETATM    5  C   UNL     1     -11.338  14.165  69.265  1.00  0.00    -0.281 C  
HETATM    6  CA  UNL     1     -11.598  14.218  66.775  1.00  0.00    -0.391 C  
HETATM    7  N   UNL     1     -11.418  14.688  68.025  1.00  0.00    -0.310 N  
HETATM    8  CA  UNL     1     -10.659  15.475  69.772  1.00  0.00    -0.295 C  
HETATM    9  C   UNL     1     -12.240  12.881  66.573  1.00  0.00    -0.188 C  
HETATM   10  O   UNL     1     -11.434  13.033  69.682  1.00  0.00    -0.251 OA 
HETATM   11  O   UNL     1     -12.017  11.926  67.480  1.00  0.00    -0.586 OA 
HETATM   12  OXT UNL     1     -13.012  12.675  65.645  1.00  0.00    -0.290 OA 
ENDROOT
BRANCH   4  13
HETATM   13  C   UNL     1     -11.104  14.311  64.291  1.00  0.00    -0.087 C  
BRANCH  13  14
HETATM   14  O   UNL     1     -10.147  13.242  64.231  1.00  0.00    -0.338 OA 
BRANCH  14  15
HETATM   15  C   UNL     1     -10.485  12.138  63.505  1.00  0.00    -0.454 C  
HETATM   16  C   UNL     1      -9.277  11.296  63.194  1.00  0.00    -0.275 C  
HETATM   17  O   UNL     1     -11.625  11.821  63.192  1.00  0.00    -0.294 OA 
ENDBRANCH  14  15
ENDBRANCH  13  14
ENDBRANCH   4  13
BRANCH   8  18
HETATM   18  N   UNL     1      -9.217  15.230  70.203  1.00  0.00    -0.277 N  
HETATM   19  C   UNL     1      -8.018  15.034  69.521  1.00  0.00    -0.135 C  
HETATM   20  H   UNL     1      -9.105  15.204  71.217  1.00  0.00     0.000 HD 
HETATM   21  O   UNL     1      -7.031  14.617  70.174  1.00  0.00    -0.141 OA 
BRANCH  19  22
HETATM   22  C   UNL     1      -7.771  15.398  68.058  1.00  0.00    -0.125 C  
BRANCH  22  23
HETATM   23  C   UNL     1      -7.515  16.789  67.631  1.00  0.00    -0.153 A  
HETATM   24  N   UNL     1      -7.310  17.854  68.517  1.00  0.00    -0.259 NA 
HETATM   25  H2  UNL     1      -5.913  20.737  67.970  1.00  0.00     0.000 HD 
HETATM   26  N   UNL     1      -6.379  20.005  68.507  1.00  0.00    -0.275 NA 
HETATM   27  C   UNL     1      -7.078  17.042  66.339  1.00  0.00    -0.250 A  
HETATM   28  S   UNL     1      -6.424  18.614  66.229  1.00  0.00    -0.216 SA 
HETATM   29  H1  UNL     1      -6.567  20.149  69.499  1.00  0.00     0.000 HD 
HETATM   30  C   UNL     1      -6.741  18.856  67.899  1.00  0.00    -0.215 A  
ENDBRANCH  22  23
BRANCH  22  31
HETATM   31  N   UNL     1      -8.016  14.667  67.014  1.00  0.00    -0.348 NA 
HETATM   32  H   UNL     1      -8.172  15.148  66.129  1.00  0.00     0.000 HD 
BRANCH  31  33
HETATM   33  O   UNL     1      -8.081  13.274  67.009  1.00  0.00    -0.124 OA 
HETATM   34  C   UNL     1      -6.914  12.515  67.228  1.00  0.00    -0.112 C  
ENDBRANCH  31  33
ENDBRANCH  22  31
ENDBRANCH  19  22
ENDBRANCH   8  18
TORSDOF 8
ENDMDL
MODEL      111
REMARK 921   NORMALIZED FREE ENERGY PREDICTED BY IDOCK:   -5.14 KCAL/MOL
REMARK 922        TOTAL FREE ENERGY PREDICTED BY IDOCK:   -8.70 KCAL/MOL
REMARK 923 INTER-LIGAND FREE ENERGY PREDICTED BY IDOCK:   -7.31 KCAL/MOL
REMARK 924 INTRA-LIGAND FREE ENERGY PREDICTED BY IDOCK:   -1.39 KCAL/MOL
REMARK 927      BINDING AFFINITY PREDICTED BY RF-SCORE:    0.00 PKD
ROOT
HETATM    1  C   UNL     1     -11.534   9.929  71.068  1.00  0.00    -0.388 C  
HETATM    2  S   UNL     1     -13.059   9.095  71.415  1.00  0.00    -0.270 SA 
HETATM    3  C   UNL     1     -12.575   7.344  71.497  1.00  0.00    -0.367 C  
HETATM    4  C   UNL     1     -11.126   6.991  71.314  1.00  0.00    -0.282 C  
HETATM    5  C   UNL     1      -9.811  10.121  69.949  1.00  0.00    -0.177 C  
HETATM    6  CA  UNL     1     -10.137   7.859  70.975  1.00  0.00    -0.192 C  
HETATM    7  N   UNL     1     -10.410   9.140  70.653  1.00  0.00    -0.225 N  
HETATM    8  CA  UNL     1     -11.173  10.877  69.847  1.00  0.00    -0.282 C  
HETATM    9  C   UNL     1      -8.721   7.375  70.938  1.00  0.00    -0.144 C  
HETATM   10  O   UNL     1      -8.754  10.178  69.363  1.00  0.00    -0.159 OA 
HETATM   11  O   UNL     1      -7.899   7.886  70.017  1.00  0.00    -0.101 OA 
HETATM   12  OXT UNL     1      -8.293   6.585  71.769  1.00  0.00    -0.115 OA 
ENDROOT
BRANCH   4  13
HETATM   13  C   UNL     1     -10.899   5.480  71.398  1.00  0.00    -0.185 C  
BRANCH  13  14
HETATM   14  O   UNL     1     -10.991   4.998  72.748  1.00  0.00    -0.234 OA 
BRANCH  14  15
HETATM   15  C   UNL     1     -10.570   3.722  72.987  1.00  0.00    -0.167 C  
HETATM   16  C   UNL     1      -9.615   3.252  71.924  1.00  0.00    -0.221 C  
HETATM   17  O   UNL     1     -10.869   3.053  73.967  1.00  0.00    -0.186 OA 
ENDBRANCH  14  15
ENDBRANCH  13  14
ENDBRANCH   4  13
BRANCH   8  18
HETATM   18  N   UNL     1     -11.673  10.942  68.408  1.00  0.00    -0.395 N  
HETATM   19  C   UNL     1     -11.475  11.825  67.349  1.00  0.00    -0.305 C  
HETATM   20  H   UNL     1     -12.289  10.166  68.167  1.00  0.00     0.000 HD 
HETATM   21  O   UNL     1     -12.229  11.725  66.351  1.00  0.00    -0.341 OA 
BRANCH  19  22
HETATM   22  C   UNL     1     -10.335  12.837  67.251  1.00  0.00    -0.232 C  
BRANCH  22  23
HETATM   23  C   UNL     1     -10.578  14.266  66.970  1.00  0.00    -0.280 A  
HETATM   24  N   UNL     1     -10.768  15.236  67.962  1.00  0.00    -0.261 NA 
HETATM   25  H2  UNL     1     -10.465  18.466  67.755  1.00  0.00     0.000 HD 
HETATM   26  N   UNL     1     -10.650  17.566  68.199  1.00  0.00    -0.378 NA 
HETATM   27  C   UNL     1     -10.245  14.789  65.730  1.00  0.00    -0.338 A  
HETATM   28  S   UNL     1     -10.182  16.493  65.799  1.00  0.00    -0.292 SA 
HETATM   29  H1  UNL     1     -10.886  17.530  69.191  1.00  0.00     0.000 HD 
HETATM   30  C   UNL     1     -10.580  16.433  67.469  1.00  0.00    -0.309 A  
ENDBRANCH  22  23
BRANCH  22  31
HETATM   31  N   UNL     1      -9.069  12.583  67.114  1.00  0.00    -0.197 NA 
HETATM   32  H   UNL     1      -8.794  11.951  66.363  1.00  0.00     0.000 HD 
BRANCH  31  33
HETATM   33  O   UNL     1      -8.055  13.107  67.916  1.00  0.00    -0.132 OA 
HETATM   34  C   UNL     1      -6.706  12.915  67.557  1.00  0.00    -0.154 C  
ENDBRANCH  31  33
ENDBRANCH  22  31
ENDBRANCH  19  22
ENDBRANCH   8  18
TORSDOF 8
ENDMDL
MODEL      112
REMARK 921   NORMALIZED FREE ENERGY PREDICTED BY IDOCK:   -5.11 KCAL/MOL
REMARK 922        TOTAL FREE ENERGY PREDICTED BY IDOCK:   -8.66 KCAL/MOL
REMARK 923 INTER-LIGAND FREE ENERGY PREDICTED BY IDOCK:   -7.45 KCAL/MOL
REMARK 924 INTRA-LIGAND FREE ENERGY PREDICTED BY IDOCK:   -1.21 KCAL/MOL
REMARK 927      BINDING AFFINITY PREDICTED BY RF-SCORE:    0.00 PKD
ROOT
HETATM    1  C   UNL     1      -7.736  10.252  66.578  1.00  0.00    -0.113 C  
HETATM    2  S   UNL     1      -7.273   9.004  67.748  1.00  0.00    -0.084 SA 
HETATM    3  C   UNL     1      -7.262   7.478  66.758  1.00  0.00    -0.084 C  
HETATM    4  C   UNL     1      -7.576   7.572  65.292  1.00  0.00    -0.097 C  
HETATM    5  C   UNL     1      -8.995  10.939  65.095  1.00  0.00    -0.180 C  
HETATM    6  CA  UNL     1      -7.984   8.693  64.640  1.00  0.00    -0.141 C  
HETATM    7  N   UNL     1      -8.260   9.830  65.310  1.00  0.00    -0.131 N  
HETATM    8  CA  UNL     1      -8.966  11.253  66.623  1.00  0.00    -0.176 C  
HETATM    9  C   UNL     1      -8.152   8.653  63.154  1.00  0.00    -0.170 C  
HETATM   10  O   UNL     1      -9.669  11.304  64.159  1.00  0.00    -0.238 OA 
HETATM   11  O   UNL     1      -9.130   9.378  62.605  1.00  0.00    -0.252 OA 
HETATM   12  OXT UNL     1      -7.374   8.034  62.438  1.00  0.00    -0.092 OA 
ENDROOT
BRANCH   4  13
HETATM   13  C   UNL     1      -7.538   6.199  64.619  1.00  0.00    -0.093 C  
BRANCH  13  14
HETATM   14  O   UNL     1      -8.836   5.584  64.582  1.00  0.00    -0.079 OA 
BRANCH  14  15
HETATM   15  C   UNL     1      -9.203   4.831  65.659  1.00  0.00    -0.152 C  
HETATM   16  C   UNL     1     -10.652   5.040  66.005  1.00  0.00    -0.286 C  
HETATM   17  O   UNL     1      -8.480   4.036  66.244  1.00  0.00    -0.108 OA 
ENDBRANCH  14  15
ENDBRANCH  13  14
ENDBRANCH   4  13
BRANCH   8  18
HETATM   18  N   UNL     1     -10.356  11.152  67.244  1.00  0.00    -0.199 N  
HETATM   19  C   UNL     1     -11.481  11.974  67.248  1.00  0.00    -0.335 C  
HETATM   20  H   UNL     1     -10.492  10.292  67.774  1.00  0.00     0.000 HD 
HETATM   21  O   UNL     1     -12.399  11.711  68.061  1.00  0.00    -0.429 OA 
BRANCH  19  22
HETATM   22  C   UNL     1     -11.744  13.107  66.257  1.00  0.00    -0.375 C  
BRANCH  22  23
HETATM   23  C   UNL     1     -11.091  14.425  66.385  1.00  0.00    -0.326 A  
HETATM   24  N   UNL     1     -11.371  15.340  67.408  1.00  0.00    -0.318 NA 
HETATM   25  H2  UNL     1      -9.587  17.842  68.465  1.00  0.00     0.000 HD 
HETATM   26  N   UNL     1     -10.381  17.203  68.430  1.00  0.00    -0.340 NA 
HETATM   27  C   UNL     1      -9.892  14.665  65.730  1.00  0.00    -0.328 A  
HETATM   28  S   UNL     1      -9.122  16.042  66.383  1.00  0.00    -0.348 SA 
HETATM   29  H1  UNL     1     -11.146  17.311  69.096  1.00  0.00     0.000 HD 
HETATM   30  C   UNL     1     -10.411  16.222  67.503  1.00  0.00    -0.288 A  
ENDBRANCH  22  23
BRANCH  22  31
HETATM   31  N   UNL     1     -12.713  13.190  65.398  1.00  0.00    -0.584 NA 
HETATM   32  H   UNL     1     -13.212  14.077  65.335  1.00  0.00     0.000 HD 
BRANCH  31  33
HETATM   33  O   UNL     1     -13.126  12.160  64.553  1.00  0.00    -0.720 OA 
HETATM   34  C   UNL     1     -12.606  12.073  63.246  1.00  0.00    -0.385 C  
ENDBRANCH  31  33
ENDBRANCH  22  31
ENDBRANCH  19  22
ENDBRANCH   8  18
TORSDOF 8
ENDMDL
MODEL      113
REMARK 921   NORMALIZED FREE ENERGY PREDICTED BY IDOCK:   -5.07 KCAL/MOL
REMARK 922        TOTAL FREE ENERGY PREDICTED BY IDOCK:   -8.60 KCAL/MOL
REMARK 923 INTER-LIGAND FREE ENERGY PREDICTED BY IDOCK:   -7.26 KCAL/MOL
REMARK 924 INTRA-LIGAND FREE ENERGY PREDICTED BY IDOCK:   -1.33 KCAL/MOL
REMARK 927      BINDING AFFINITY PREDICTED BY RF-SCORE:    0.00 PKD
ROOT
HETATM    1  C   UNL     1     -10.450  11.897  64.777  1.00  0.00    -0.289 C  
HETATM    2  S   UNL     1     -12.153  12.320  65.026  1.00  0.00    -0.248 SA 
HETATM    3  C   UNL     1     -12.123  13.323  66.542  1.00  0.00    -0.375 C  
HETATM    4  C   UNL     1     -10.797  13.600  67.194  1.00  0.00    -0.292 C  
HETATM    5  C   UNL     1      -8.663  11.159  65.499  1.00  0.00    -0.094 C  
HETATM    6  CA  UNL     1      -9.604  13.070  66.816  1.00  0.00    -0.248 C  
HETATM    7  N   UNL     1      -9.531  12.126  65.855  1.00  0.00    -0.216 N  
HETATM    8  CA  UNL     1      -9.786  10.459  64.670  1.00  0.00    -0.338 C  
HETATM    9  C   UNL     1      -8.353  13.529  67.497  1.00  0.00    -0.184 C  
HETATM   10  O   UNL     1      -7.589  10.821  65.941  1.00  0.00    -0.149 OA 
HETATM   11  O   UNL     1      -7.372  12.643  67.686  1.00  0.00    -0.113 OA 
HETATM   12  OXT UNL     1      -8.189  14.700  67.813  1.00  0.00    -0.141 OA 
ENDROOT
BRANCH   4  13
HETATM   13  C   UNL     1     -10.957  14.442  68.461  1.00  0.00    -0.251 C  
BRANCH  13  14
HETATM   14  O   UNL     1     -11.187  15.827  68.160  1.00  0.00    -0.329 OA 
BRANCH  14  15
HETATM   15  C   UNL     1     -10.834  16.742  69.109  1.00  0.00    -0.287 C  
HETATM   16  C   UNL     1     -10.066  17.887  68.507  1.00  0.00    -0.392 C  
HETATM   17  O   UNL     1     -11.145  16.688  70.291  1.00  0.00    -0.297 OA 
ENDBRANCH  14  15
ENDBRANCH  13  14
ENDBRANCH   4  13
BRANCH   8  18
HETATM   18  N   UNL     1     -10.159   9.104  65.262  1.00  0.00    -0.148 N  
HETATM   19  C   UNL     1     -10.207   8.587  66.555  1.00  0.00    -0.216 C  
HETATM   20  H   UNL     1     -10.435   8.425  64.553  1.00  0.00     0.000 HD 
HETATM   21  O   UNL     1     -10.329   7.345  66.688  1.00  0.00    -0.252 OA 
BRANCH  19  22
HETATM   22  C   UNL     1     -10.242   9.422  67.833  1.00  0.00    -0.211 C  
BRANCH  22  23
HETATM   23  C   UNL     1      -9.284   9.206  68.936  1.00  0.00    -0.139 A  
HETATM   24  N   UNL     1      -8.123   9.965  69.123  1.00  0.00    -0.108 NA 
HETATM   25  H2  UNL     1      -6.326  10.336  71.805  1.00  0.00     0.000 HD 
HETATM   26  N   UNL     1      -6.601  10.472  70.833  1.00  0.00    -0.385 NA 
HETATM   27  C   UNL     1      -9.680   8.500  70.062  1.00  0.00    -0.170 A  
HETATM   28  S   UNL     1      -8.595   8.775  71.350  1.00  0.00    -0.174 SA 
HETATM   29  H1  UNL     1      -6.057  11.096  70.237  1.00  0.00     0.000 HD 
HETATM   30  C   UNL     1      -7.680   9.825  70.346  1.00  0.00    -0.137 A  
ENDBRANCH  22  23
BRANCH  22  31
HETATM   31  N   UNL     1     -11.209  10.183  68.248  1.00  0.00    -0.481 NA 
HETATM   32  H   UNL     1     -12.117  10.078  67.797  1.00  0.00     0.000 HD 
BRANCH  31  33
HETATM   33  O   UNL     1     -11.102  11.132  69.265  1.00  0.00    -0.225 OA 
HETATM   34  C   UNL     1     -12.114  11.233  70.240  1.00  0.00    -0.373 C  
ENDBRANCH  31  33
ENDBRANCH  22  31
ENDBRANCH  19  22
ENDBRANCH   8  18
TORSDOF 8
ENDMDL
MODEL      114
REMARK 921   NORMALIZED FREE ENERGY PREDICTED BY IDOCK:   -5.06 KCAL/MOL
REMARK 922        TOTAL FREE ENERGY PREDICTED BY IDOCK:   -8.59 KCAL/MOL
REMARK 923 INTER-LIGAND FREE ENERGY PREDICTED BY IDOCK:   -7.14 KCAL/MOL
REMARK 924 INTRA-LIGAND FREE ENERGY PREDICTED BY IDOCK:   -1.44 KCAL/MOL
REMARK 927      BINDING AFFINITY PREDICTED BY RF-SCORE:    0.00 PKD
ROOT
HETATM    1  C   UNL     1      -8.600  10.984  67.028  1.00  0.00    -0.140 C  
HETATM    2  S   UNL     1      -8.998  11.424  68.698  1.00  0.00    -0.085 SA 
HETATM    3  C   UNL     1      -9.253   9.818  69.511  1.00  0.00    -0.213 C  
HETATM    4  C   UNL     1      -9.058   8.566  68.702  1.00  0.00    -0.139 C  
HETATM    5  C   UNL     1      -9.016   9.927  65.306  1.00  0.00    -0.191 C  
HETATM    6  CA  UNL     1      -8.814   8.517  67.366  1.00  0.00    -0.134 C  
HETATM    7  N   UNL     1      -8.839   9.633  66.609  1.00  0.00    -0.137 N  
HETATM    8  CA  UNL     1      -9.331  11.408  65.685  1.00  0.00    -0.222 C  
HETATM    9  C   UNL     1      -8.533   7.195  66.724  1.00  0.00    -0.121 C  
HETATM   10  O   UNL     1      -9.198   9.236  64.329  1.00  0.00    -0.133 OA 
HETATM   11  O   UNL     1      -8.967   6.990  65.477  1.00  0.00    -0.030 OA 
HETATM   12  OXT UNL     1      -7.861   6.339  67.286  1.00  0.00    -0.105 OA 
ENDROOT
BRANCH   4  13
HETATM   13  C   UNL     1      -9.328   7.311  69.534  1.00  0.00    -0.152 C  
BRANCH  13  14
HETATM   14  O   UNL     1     -10.734   7.043  69.660  1.00  0.00    -0.226 OA 
BRANCH  14  15
HETATM   15  C   UNL     1     -11.239   6.922  70.922  1.00  0.00    -0.289 C  
HETATM   16  C   UNL     1     -10.158   6.592  71.914  1.00  0.00    -0.200 C  
HETATM   17  O   UNL     1     -12.405   7.115  71.237  1.00  0.00    -0.344 OA 
ENDBRANCH  14  15
ENDBRANCH  13  14
ENDBRANCH   4  13
BRANCH   8  18
HETATM   18  N   UNL     1     -10.778  11.773  65.369  1.00  0.00    -0.275 N  
HETATM   19  C   UNL     1     -11.671  12.721  65.863  1.00  0.00    -0.414 C  
HETATM   20  H   UNL     1     -11.180  11.195  64.632  1.00  0.00     0.000 HD 
HETATM   21  O   UNL     1     -12.881  12.607  65.552  1.00  0.00    -0.513 OA 
BRANCH  19  22
HETATM   22  C   UNL     1     -11.280  13.964  66.661  1.00  0.00    -0.320 C  
BRANCH  22  23
HETATM   23  C   UNL     1     -11.831  14.237  68.004  1.00  0.00    -0.344 A  
HETATM   24  N   UNL     1     -12.227  13.239  68.903  1.00  0.00    -0.203 NA 
HETATM   25  H2  UNL     1     -12.637  13.427  72.122  1.00  0.00     0.000 HD 
HETATM   26  N   UNL     1     -12.619  12.989  71.201  1.00  0.00    -0.353 NA 
HETATM   27  C   UNL     1     -11.622  15.474  68.594  1.00  0.00    -0.368 A  
HETATM   28  S   UNL     1     -11.933  15.395  70.270  1.00  0.00    -0.383 SA 
HETATM   29  H1  UNL     1     -12.840  11.997  71.109  1.00  0.00     0.000 HD 
HETATM   30  C   UNL     1     -12.305  13.725  70.115  1.00  0.00    -0.323 A  
ENDBRANCH  22  23
BRANCH  22  31
HETATM   31  N   UNL     1     -10.691  15.031  66.214  1.00  0.00    -0.315 NA 
HETATM   32  H   UNL     1     -10.219  15.627  66.894  1.00  0.00     0.000 HD 
BRANCH  31  33
HETATM   33  O   UNL     1     -10.652  15.425  64.877  1.00  0.00    -0.416 OA 
HETATM   34  C   UNL     1     -11.622  16.320  64.380  1.00  0.00    -0.056 C  
ENDBRANCH  31  33
ENDBRANCH  22  31
ENDBRANCH  19  22
ENDBRANCH   8  18
TORSDOF 8
ENDMDL
MODEL      115
REMARK 921   NORMALIZED FREE ENERGY PREDICTED BY IDOCK:   -5.06 KCAL/MOL
REMARK 922        TOTAL FREE ENERGY PREDICTED BY IDOCK:   -8.58 KCAL/MOL
REMARK 923 INTER-LIGAND FREE ENERGY PREDICTED BY IDOCK:   -8.12 KCAL/MOL
REMARK 924 INTRA-LIGAND FREE ENERGY PREDICTED BY IDOCK:   -0.47 KCAL/MOL
REMARK 927      BINDING AFFINITY PREDICTED BY RF-SCORE:    0.00 PKD
ROOT
HETATM    1  C   UNL     1      -8.972  13.897  65.957  1.00  0.00     0.379 C  
HETATM    2  S   UNL     1     -10.173  14.825  65.042  1.00  0.00    -0.253 SA 
HETATM    3  C   UNL     1     -10.328  16.369  65.990  1.00  0.00    -0.352 C  
HETATM    4  C   UNL     1      -9.469  16.551  67.210  1.00  0.00    -0.237 C  
HETATM    5  C   UNL     1      -8.280  13.132  67.745  1.00  0.00    -0.168 C  
HETATM    6  CA  UNL     1      -8.652  15.609  67.750  1.00  0.00    -0.162 C  
HETATM    7  N   UNL     1      -8.631  14.347  67.277  1.00  0.00    -0.204 N  
HETATM    8  CA  UNL     1      -9.111  12.457  66.609  1.00  0.00    -0.204 C  
HETATM    9  C   UNL     1      -7.775  15.979  68.905  1.00  0.00    -0.196 C  
HETATM   10  O   UNL     1      -7.817  12.766  68.801  1.00  0.00    -0.076 OA 
HETATM   11  O   UNL     1      -7.536  15.057  69.842  1.00  0.00    -0.180 OA 
HETATM   12  OXT UNL     1      -7.224  17.071  68.967  1.00  0.00    -0.227 OA 
ENDROOT
BRANCH   4  13
HETATM   13  C   UNL     1      -9.738  17.894  67.893  1.00  0.00    -0.288 C  
BRANCH  13  14
HETATM   14  O   UNL     1     -10.848  18.585  67.297  1.00  0.00    -0.408 OA 
BRANCH  14  15
HETATM   15  C   UNL     1     -10.563  19.641  66.481  1.00  0.00    -0.482 C  
HETATM   16  C   UNL     1      -9.602  20.595  67.135  1.00  0.00    -0.534 C  
HETATM   17  O   UNL     1     -10.976  19.780  65.338  1.00  0.00    -0.414 OA 
ENDBRANCH  14  15
ENDBRANCH  13  14
ENDBRANCH   4  13
BRANCH   8  18
HETATM   18  N   UNL     1     -10.304  11.687  67.167  1.00  0.00    -0.212 N  
HETATM   19  C   UNL     1     -11.428  12.041  67.910  1.00  0.00    -0.330 C  
HETATM   20  H   UNL     1     -10.271  10.692  66.946  1.00  0.00     0.000 HD 
HETATM   21  O   UNL     1     -12.110  11.120  68.420  1.00  0.00    -0.605 OA 
BRANCH  19  22
HETATM   22  C   UNL     1     -11.970  13.462  68.060  1.00  0.00    -0.322 C  
BRANCH  22  23
HETATM   23  C   UNL     1     -12.212  14.071  69.383  1.00  0.00    -0.292 A  
HETATM   24  N   UNL     1     -13.126  13.571  70.319  1.00  0.00     0.194 NA 
HETATM   25  H2  UNL     1     -13.280  14.102  73.521  1.00  0.00     0.000 HD 
HETATM   26  N   UNL     1     -13.553  13.710  72.620  1.00  0.00    -0.693 NA 
HETATM   27  C   UNL     1     -11.272  14.936  69.924  1.00  0.00    -0.275 A  
HETATM   28  S   UNL     1     -11.539  15.134  71.598  1.00  0.00    -0.382 SA 
HETATM   29  H1  UNL     1     -14.342  13.066  72.567  1.00  0.00     0.000 HD 
HETATM   30  C   UNL     1     -12.867  14.049  71.508  1.00  0.00    -0.362 A  
ENDBRANCH  22  23
BRANCH  22  31
HETATM   31  N   UNL     1     -12.533  14.188  67.143  1.00  0.00    -0.536 NA 
HETATM   32  H   UNL     1     -12.398  15.198  67.194  1.00  0.00     0.000 HD 
BRANCH  31  33
HETATM   33  O   UNL     1     -13.310  13.696  66.095  1.00  0.00     0.098 OA 
HETATM   34  C   UNL     1     -12.687  13.121  64.970  1.00  0.00    -0.392 C  
ENDBRANCH  31  33
ENDBRANCH  22  31
ENDBRANCH  19  22
ENDBRANCH   8  18
TORSDOF 8
ENDMDL
MODEL      116
REMARK 921   NORMALIZED FREE ENERGY PREDICTED BY IDOCK:   -5.06 KCAL/MOL
REMARK 922        TOTAL FREE ENERGY PREDICTED BY IDOCK:   -8.58 KCAL/MOL
REMARK 923 INTER-LIGAND FREE ENERGY PREDICTED BY IDOCK:   -7.40 KCAL/MOL
REMARK 924 INTRA-LIGAND FREE ENERGY PREDICTED BY IDOCK:   -1.18 KCAL/MOL
REMARK 927      BINDING AFFINITY PREDICTED BY RF-SCORE:    0.00 PKD
ROOT
HETATM    1  C   UNL     1      -8.880  12.260  68.297  1.00  0.00    -0.178 C  
HETATM    2  S   UNL     1     -10.463  11.554  67.927  1.00  0.00    -0.192 SA 
HETATM    3  C   UNL     1     -10.092  10.338  66.627  1.00  0.00    -0.223 C  
HETATM    4  C   UNL     1      -8.664  10.161  66.197  1.00  0.00    -0.154 C  
HETATM    5  C   UNL     1      -7.116  13.130  67.673  1.00  0.00    -0.160 C  
HETATM    6  CA  UNL     1      -7.613  10.916  66.613  1.00  0.00    -0.139 C  
HETATM    7  N   UNL     1      -7.796  12.001  67.393  1.00  0.00    -0.153 N  
HETATM    8  CA  UNL     1      -8.425  13.778  68.225  1.00  0.00    -0.173 C  
HETATM    9  C   UNL     1      -6.230  10.545  66.177  1.00  0.00    -0.111 C  
HETATM   10  O   UNL     1      -6.041  13.549  67.308  1.00  0.00    -0.327 OA 
HETATM   11  O   UNL     1      -5.351  11.526  65.951  1.00  0.00    -0.285 OA 
HETATM   12  OXT UNL     1      -5.876   9.376  66.095  1.00  0.00    -0.055 OA 
ENDROOT
BRANCH   4  13
HETATM   13  C   UNL     1      -8.535   9.115  65.088  1.00  0.00    -0.167 C  
BRANCH  13  14
HETATM   14  O   UNL     1      -9.222   9.514  63.891  1.00  0.00    -0.213 OA 
BRANCH  14  15
HETATM   15  C   UNL     1      -8.793  10.652  63.274  1.00  0.00    -0.201 C  
HETATM   16  C   UNL     1      -7.446  10.455  62.635  1.00  0.00    -0.144 C  
HETATM   17  O   UNL     1      -9.434  11.691  63.185  1.00  0.00    -0.345 OA 
ENDBRANCH  14  15
ENDBRANCH  13  14
ENDBRANCH   4  13
BRANCH   8  18
HETATM   18  N   UNL     1      -8.878  14.952  67.363  1.00  0.00    -0.183 N  
HETATM   19  C   UNL     1     -10.115  15.403  66.908  1.00  0.00    -0.257 C  
HETATM   20  H   UNL     1      -8.103  15.537  67.051  1.00  0.00     0.000 HD 
HETATM   21  O   UNL     1     -10.127  16.277  66.007  1.00  0.00    -0.315 OA 
BRANCH  19  22
HETATM   22  C   UNL     1     -11.466  15.006  67.499  1.00  0.00    -0.328 C  
BRANCH  22  23
HETATM   23  C   UNL     1     -11.852  15.364  68.879  1.00  0.00    -0.329 A  
HETATM   24  N   UNL     1     -12.982  14.857  69.531  1.00  0.00     0.300 NA 
HETATM   25  H2  UNL     1     -13.633  14.740  72.713  1.00  0.00     0.000 HD 
HETATM   26  N   UNL     1     -13.792  14.598  71.716  1.00  0.00    -0.403 NA 
HETATM   27  C   UNL     1     -10.910  15.915  69.734  1.00  0.00    -0.328 A  
HETATM   28  S   UNL     1     -11.443  15.812  71.353  1.00  0.00    -0.414 SA 
HETATM   29  H1  UNL     1     -14.644  14.132  71.402  1.00  0.00     0.000 HD 
HETATM   30  C   UNL     1     -12.876  15.027  70.823  1.00  0.00    -0.392 A  
ENDBRANCH  22  23
BRANCH  22  31
HETATM   31  N   UNL     1     -12.295  14.119  67.038  1.00  0.00    -0.571 NA 
HETATM   32  H   UNL     1     -12.637  13.412  67.689  1.00  0.00     0.000 HD 
BRANCH  31  33
HETATM   33  O   UNL     1     -12.756  14.059  65.723  1.00  0.00    -0.516 OA 
HETATM   34  C   UNL     1     -12.267  13.065  64.853  1.00  0.00    -0.441 C  
ENDBRANCH  31  33
ENDBRANCH  22  31
ENDBRANCH  19  22
ENDBRANCH   8  18
TORSDOF 8
ENDMDL
MODEL      117
REMARK 921   NORMALIZED FREE ENERGY PREDICTED BY IDOCK:   -5.05 KCAL/MOL
REMARK 922        TOTAL FREE ENERGY PREDICTED BY IDOCK:   -8.57 KCAL/MOL
REMARK 923 INTER-LIGAND FREE ENERGY PREDICTED BY IDOCK:   -7.87 KCAL/MOL
REMARK 924 INTRA-LIGAND FREE ENERGY PREDICTED BY IDOCK:   -0.69 KCAL/MOL
REMARK 927      BINDING AFFINITY PREDICTED BY RF-SCORE:    0.00 PKD
ROOT
HETATM    1  C   UNL     1      -7.973   9.556  68.591  1.00  0.00    -0.092 C  
HETATM    2  S   UNL     1      -7.339   9.686  70.242  1.00  0.00    -0.157 SA 
HETATM    3  C   UNL     1      -8.085   8.264  71.095  1.00  0.00    -0.111 C  
HETATM    4  C   UNL     1      -8.966   7.336  70.307  1.00  0.00    -0.151 C  
HETATM    5  C   UNL     1      -9.561   9.325  67.295  1.00  0.00    -0.155 C  
HETATM    6  CA  UNL     1      -9.358   7.520  69.019  1.00  0.00    -0.146 C  
HETATM    7  N   UNL     1      -9.066   8.656  68.355  1.00  0.00    -0.138 N  
HETATM    8  CA  UNL     1      -8.815  10.614  67.762  1.00  0.00    -0.133 C  
HETATM    9  C   UNL     1     -10.149   6.448  68.336  1.00  0.00    -0.157 C  
HETATM   10  O   UNL     1     -10.473   9.092  66.535  1.00  0.00    -0.234 OA 
HETATM   11  O   UNL     1     -11.084   6.813  67.455  1.00  0.00    -0.328 OA 
HETATM   12  OXT UNL     1      -9.906   5.261  68.516  1.00  0.00    -0.135 OA 
ENDROOT
BRANCH   4  13
HETATM   13  C   UNL     1      -9.520   6.208  71.181  1.00  0.00    -0.167 C  
BRANCH  13  14
HETATM   14  O   UNL     1     -10.903   6.416  71.512  1.00  0.00    -0.237 OA 
BRANCH  14  15
HETATM   15  C   UNL     1     -11.178   7.228  72.573  1.00  0.00    -0.301 C  
HETATM   16  C   UNL     1     -10.391   6.824  73.790  1.00  0.00    -0.397 C  
HETATM   17  O   UNL     1     -11.918   8.202  72.543  1.00  0.00    -0.376 OA 
ENDBRANCH  14  15
ENDBRANCH  13  14
ENDBRANCH   4  13
BRANCH   8  18
HETATM   18  N   UNL     1      -9.791  11.710  68.177  1.00  0.00    -0.185 N  
HETATM   19  C   UNL     1      -9.767  13.102  68.131  1.00  0.00    -0.228 C  
HETATM   20  H   UNL     1     -10.654  11.341  68.576  1.00  0.00     0.000 HD 
HETATM   21  O   UNL     1     -10.641  13.727  68.779  1.00  0.00    -0.248 OA 
BRANCH  19  22
HETATM   22  C   UNL     1      -8.830  13.936  67.258  1.00  0.00    -0.221 C  
BRANCH  22  23
HETATM   23  C   UNL     1      -9.311  15.098  66.484  1.00  0.00    -0.280 A  
HETATM   24  N   UNL     1     -10.146  15.000  65.365  1.00  0.00    -0.361 NA 
HETATM   25  H2  UNL     1     -12.029  17.275  64.007  1.00  0.00     0.000 HD 
HETATM   26  N   UNL     1     -11.605  16.355  64.126  1.00  0.00    -1.400 NA 
HETATM   27  C   UNL     1      -9.280  16.362  67.053  1.00  0.00    -0.221 A  
HETATM   28  S   UNL     1     -10.284  17.432  66.181  1.00  0.00    -0.279 SA 
HETATM   29  H1  UNL     1     -11.859  15.595  63.495  1.00  0.00     0.000 HD 
HETATM   30  C   UNL     1     -10.712  16.153  65.118  1.00  0.00    -0.371 A  
ENDBRANCH  22  23
BRANCH  22  31
HETATM   31  N   UNL     1      -7.639  13.615  66.856  1.00  0.00    -0.265 NA 
HETATM   32  H   UNL     1      -7.563  12.907  66.126  1.00  0.00     0.000 HD 
BRANCH  31  33
HETATM   33  O   UNL     1      -6.453  14.163  67.345  1.00  0.00    -0.306 OA 
HETATM   34  C   UNL     1      -6.475  14.959  68.507  1.00  0.00    -0.091 C  
ENDBRANCH  31  33
ENDBRANCH  22  31
ENDBRANCH  19  22
ENDBRANCH   8  18
TORSDOF 8
ENDMDL
MODEL      118
REMARK 921   NORMALIZED FREE ENERGY PREDICTED BY IDOCK:   -5.05 KCAL/MOL
REMARK 922        TOTAL FREE ENERGY PREDICTED BY IDOCK:   -8.56 KCAL/MOL
REMARK 923 INTER-LIGAND FREE ENERGY PREDICTED BY IDOCK:   -7.28 KCAL/MOL
REMARK 924 INTRA-LIGAND FREE ENERGY PREDICTED BY IDOCK:   -1.28 KCAL/MOL
REMARK 927      BINDING AFFINITY PREDICTED BY RF-SCORE:    0.00 PKD
ROOT
HETATM    1  C   UNL     1     -12.432  10.631  70.482  1.00  0.00    -0.358 C  
HETATM    2  S   UNL     1     -13.032  11.730  71.737  1.00  0.00    -0.251 SA 
HETATM    3  C   UNL     1     -12.745  13.380  71.030  1.00  0.00    -0.307 C  
HETATM    4  C   UNL     1     -12.154  13.476  69.651  1.00  0.00    -0.365 C  
HETATM    5  C   UNL     1     -10.952  10.055  69.164  1.00  0.00    -0.220 C  
HETATM    6  CA  UNL     1     -11.701  12.431  68.910  1.00  0.00    -0.324 C  
HETATM    7  N   UNL     1     -11.640  11.185  69.421  1.00  0.00    -0.287 N  
HETATM    8  CA  UNL     1     -11.304   9.520  70.588  1.00  0.00    -0.301 C  
HETATM    9  C   UNL     1     -11.240  12.677  67.507  1.00  0.00    -0.288 C  
HETATM   10  O   UNL     1     -10.133   9.770  68.321  1.00  0.00    -0.152 OA 
HETATM   11  O   UNL     1     -10.223  11.951  67.036  1.00  0.00    -0.207 OA 
HETATM   12  OXT UNL     1     -11.818  13.469  66.773  1.00  0.00    -0.364 OA 
ENDROOT
BRANCH   4  13
HETATM   13  C   UNL     1     -11.966  14.932  69.220  1.00  0.00    -0.291 C  
BRANCH  13  14
HETATM   14  O   UNL     1     -10.779  15.510  69.786  1.00  0.00    -0.250 OA 
BRANCH  14  15
HETATM   15  C   UNL     1     -10.034  16.324  68.984  1.00  0.00    -0.256 C  
HETATM   16  C   UNL     1      -8.657  15.762  68.760  1.00  0.00    -0.203 C  
HETATM   17  O   UNL     1     -10.436  17.351  68.453  1.00  0.00    -0.357 OA 
ENDBRANCH  14  15
ENDBRANCH  13  14
ENDBRANCH   4  13
BRANCH   8  18
HETATM   18  N   UNL     1     -10.061   9.390  71.462  1.00  0.00    -0.229 N  
HETATM   19  C   UNL     1      -9.284   8.318  71.893  1.00  0.00    -0.208 C  
HETATM   20  H   UNL     1      -9.725  10.288  71.808  1.00  0.00     0.000 HD 
HETATM   21  O   UNL     1      -8.454   8.524  72.812  1.00  0.00    -0.336 OA 
BRANCH  19  22
HETATM   22  C   UNL     1      -9.273   6.929  71.256  1.00  0.00    -0.157 C  
BRANCH  22  23
HETATM   23  C   UNL     1      -9.343   5.696  72.067  1.00  0.00    -0.150 A  
HETATM   24  N   UNL     1     -10.486   5.282  72.762  1.00  0.00    -0.205 NA 
HETATM   25  H2  UNL     1     -11.249   2.325  73.875  1.00  0.00     0.000 HD 
HETATM   26  N   UNL     1     -11.371   3.321  73.694  1.00  0.00    -0.194 NA 
HETATM   27  C   UNL     1      -8.411   4.689  71.867  1.00  0.00    -0.117 A  
HETATM   28  S   UNL     1      -8.957   3.227  72.560  1.00  0.00    -0.089 SA 
HETATM   29  H1  UNL     1     -12.228   3.787  73.993  1.00  0.00     0.000 HD 
HETATM   30  C   UNL     1     -10.399   4.012  73.063  1.00  0.00    -0.168 A  
ENDBRANCH  22  23
BRANCH  22  31
HETATM   31  N   UNL     1      -8.934   6.624  70.041  1.00  0.00    -0.144 NA 
HETATM   32  H   UNL     1      -7.968   6.338  69.880  1.00  0.00     0.000 HD 
BRANCH  31  33
HETATM   33  O   UNL     1      -9.787   6.658  68.939  1.00  0.00    -0.138 OA 
HETATM   34  C   UNL     1     -11.104   6.170  69.055  1.00  0.00    -0.367 C  
ENDBRANCH  31  33
ENDBRANCH  22  31
ENDBRANCH  19  22
ENDBRANCH   8  18
TORSDOF 8
ENDMDL
MODEL      119
REMARK 921   NORMALIZED FREE ENERGY PREDICTED BY IDOCK:   -5.04 KCAL/MOL
REMARK 922        TOTAL FREE ENERGY PREDICTED BY IDOCK:   -8.56 KCAL/MOL
REMARK 923 INTER-LIGAND FREE ENERGY PREDICTED BY IDOCK:   -7.27 KCAL/MOL
REMARK 924 INTRA-LIGAND FREE ENERGY PREDICTED BY IDOCK:   -1.29 KCAL/MOL
REMARK 927      BINDING AFFINITY PREDICTED BY RF-SCORE:    0.00 PKD
ROOT
HETATM    1  C   UNL     1      -9.706  10.645  68.362  1.00  0.00    -0.166 C  
HETATM    2  S   UNL     1     -10.730   9.322  67.775  1.00  0.00    -0.137 SA 
HETATM    3  C   UNL     1      -9.736   8.574  66.448  1.00  0.00    -0.258 C  
HETATM    4  C   UNL     1      -8.372   9.139  66.168  1.00  0.00    -0.123 C  
HETATM    5  C   UNL     1      -8.538  12.306  67.994  1.00  0.00    -0.176 C  
HETATM    6  CA  UNL     1      -7.841  10.249  66.746  1.00  0.00    -0.114 C  
HETATM    7  N   UNL     1      -8.573  11.027  67.569  1.00  0.00    -0.127 N  
HETATM    8  CA  UNL     1     -10.030  12.196  68.439  1.00  0.00    -0.206 C  
HETATM    9  C   UNL     1      -6.424  10.624  66.442  1.00  0.00    -0.117 C  
HETATM   10  O   UNL     1      -7.774  13.218  67.778  1.00  0.00    -0.128 OA 
HETATM   11  O   UNL     1      -6.110  11.920  66.379  1.00  0.00    -0.134 OA 
HETATM   12  OXT UNL     1      -5.549   9.775  66.325  1.00  0.00    -0.050 OA 
ENDROOT
BRANCH   4  13
HETATM   13  C   UNL     1      -7.684   8.405  65.015  1.00  0.00    -0.104 C  
BRANCH  13  14
HETATM   14  O   UNL     1      -8.293   8.704  63.749  1.00  0.00    -0.167 OA 
BRANCH  14  15
HETATM   15  C   UNL     1      -7.960   9.888  63.158  1.00  0.00    -0.145 C  
HETATM   16  C   UNL     1      -9.185  10.687  62.805  1.00  0.00    -0.328 C  
HETATM   17  O   UNL     1      -6.819  10.295  62.986  1.00  0.00    -0.138 OA 
ENDBRANCH  14  15
ENDBRANCH  13  14
ENDBRANCH   4  13
BRANCH   8  18
HETATM   18  N   UNL     1     -10.932  13.104  67.609  1.00  0.00    -0.256 N  
HETATM   19  C   UNL     1     -11.610  14.295  67.862  1.00  0.00    -0.336 C  
HETATM   20  H   UNL     1     -11.069  12.765  66.658  1.00  0.00     0.000 HD 
HETATM   21  O   UNL     1     -12.471  14.670  67.030  1.00  0.00    -0.112 OA 
BRANCH  19  22
HETATM   22  C   UNL     1     -11.308  15.249  69.017  1.00  0.00    -0.300 C  
BRANCH  22  23
HETATM   23  C   UNL     1     -12.040  15.183  70.298  1.00  0.00    -0.341 A  
HETATM   24  N   UNL     1     -12.879  14.124  70.665  1.00  0.00    -0.322 NA 
HETATM   25  H2  UNL     1     -13.909  13.255  73.623  1.00  0.00     0.000 HD 
HETATM   26  N   UNL     1     -13.813  13.203  72.609  1.00  0.00    -0.746 NA 
HETATM   27  C   UNL     1     -11.634  15.972  71.363  1.00  0.00    -0.455 A  
HETATM   28  S   UNL     1     -12.310  15.399  72.822  1.00  0.00    -0.455 SA 
HETATM   29  H1  UNL     1     -14.272  12.450  72.096  1.00  0.00     0.000 HD 
HETATM   30  C   UNL     1     -13.082  14.131  71.957  1.00  0.00    -0.387 A  
ENDBRANCH  22  23
BRANCH  22  31
HETATM   31  N   UNL     1     -10.634  16.357  68.965  1.00  0.00    -0.286 NA 
HETATM   32  H   UNL     1      -9.794  16.424  69.539  1.00  0.00     0.000 HD 
BRANCH  31  33
HETATM   33  O   UNL     1     -10.969  17.462  68.183  1.00  0.00    -0.334 OA 
HETATM   34  C   UNL     1     -10.012  18.025  67.315  1.00  0.00    -0.323 C  
ENDBRANCH  31  33
ENDBRANCH  22  31
ENDBRANCH  19  22
ENDBRANCH   8  18
TORSDOF 8
ENDMDL
MODEL      120
REMARK 921   NORMALIZED FREE ENERGY PREDICTED BY IDOCK:   -5.03 KCAL/MOL
REMARK 922        TOTAL FREE ENERGY PREDICTED BY IDOCK:   -8.54 KCAL/MOL
REMARK 923 INTER-LIGAND FREE ENERGY PREDICTED BY IDOCK:   -7.31 KCAL/MOL
REMARK 924 INTRA-LIGAND FREE ENERGY PREDICTED BY IDOCK:   -1.23 KCAL/MOL
REMARK 927      BINDING AFFINITY PREDICTED BY RF-SCORE:    0.00 PKD
ROOT
HETATM    1  C   UNL     1      -9.363  15.344  65.771  1.00  0.00    -0.229 C  
HETATM    2  S   UNL     1      -8.609  14.826  67.290  1.00  0.00    -0.224 SA 
HETATM    3  C   UNL     1      -9.796  13.625  67.964  1.00  0.00    -0.244 C  
HETATM    4  C   UNL     1     -11.031  13.312  67.166  1.00  0.00    -0.288 C  
HETATM    5  C   UNL     1     -11.003  16.043  64.732  1.00  0.00    -0.356 C  
HETATM    6  CA  UNL     1     -11.411  13.934  66.020  1.00  0.00    -0.340 C  
HETATM    7  N   UNL     1     -10.739  15.003  65.548  1.00  0.00    -0.334 N  
HETATM    8  CA  UNL     1      -9.770  16.807  65.310  1.00  0.00     0.647 C  
HETATM    9  C   UNL     1     -12.613  13.434  65.282  1.00  0.00    -0.464 C  
HETATM   10  O   UNL     1     -11.985  16.358  64.100  1.00  0.00    -0.860 OA 
HETATM   11  O   UNL     1     -13.387  14.322  64.652  1.00  0.00    -0.059 OA 
HETATM   12  OXT UNL     1     -12.854  12.237  65.187  1.00  0.00    -0.522 OA 
ENDROOT
BRANCH   4  13
HETATM   13  C   UNL     1     -11.924  12.298  67.885  1.00  0.00    -0.173 C  
BRANCH  13  14
HETATM   14  O   UNL     1     -11.988  12.547  69.299  1.00  0.00    -0.296 OA 
BRANCH  14  15
HETATM   15  C   UNL     1     -11.952  11.464  70.128  1.00  0.00    -0.377 C  
HETATM   16  C   UNL     1     -10.998  10.417  69.621  1.00  0.00    -0.325 C  
HETATM   17  O   UNL     1     -12.562  11.364  71.184  1.00  0.00    -0.394 OA 
ENDBRANCH  14  15
ENDBRANCH  13  14
ENDBRANCH   4  13
BRANCH   8  18
HETATM   18  N   UNL     1     -10.192  18.052  66.082  1.00  0.00    -0.382 N  
HETATM   19  C   UNL     1     -10.467  18.319  67.422  1.00  0.00    -0.409 C  
HETATM   20  H   UNL     1     -10.296  18.872  65.485  1.00  0.00     0.000 HD 
HETATM   21  O   UNL     1     -11.027  19.407  67.702  1.00  0.00    -0.429 OA 
BRANCH  19  22
HETATM   22  C   UNL     1     -10.036  17.445  68.598  1.00  0.00    -0.340 C  
BRANCH  22  23
HETATM   23  C   UNL     1     -11.001  16.950  69.600  1.00  0.00    -0.001 A  
HETATM   24  N   UNL     1     -12.125  16.176  69.286  1.00  0.00    -0.122 NA 
HETATM   25  H2  UNL     1     -13.898  14.257  71.219  1.00  0.00     0.000 HD 
HETATM   26  N   UNL     1     -13.619  14.717  70.353  1.00  0.00    -0.441 NA 
HETATM   27  C   UNL     1     -10.636  16.892  70.936  1.00  0.00     1.202 A  
HETATM   28  S   UNL     1     -11.705  15.883  71.803  1.00  0.00    -0.500 SA 
HETATM   29  H1  UNL     1     -14.134  14.530  69.493  1.00  0.00     0.000 HD 
HETATM   30  C   UNL     1     -12.572  15.569  70.355  1.00  0.00    -0.378 A  
ENDBRANCH  22  23
BRANCH  22  31
HETATM   31  N   UNL     1      -8.828  17.259  69.037  1.00  0.00    -0.153 NA 
HETATM   32  H   UNL     1      -8.685  16.513  69.717  1.00  0.00     0.000 HD 
BRANCH  31  33
HETATM   33  O   UNL     1      -7.712  18.000  68.650  1.00  0.00    -0.292 OA 
HETATM   34  C   UNL     1      -6.418  17.537  68.964  1.00  0.00    -0.227 C  
ENDBRANCH  31  33
ENDBRANCH  22  31
ENDBRANCH  19  22
ENDBRANCH   8  18
TORSDOF 8
ENDMDL
MODEL      121
REMARK 921   NORMALIZED FREE ENERGY PREDICTED BY IDOCK:   -5.03 KCAL/MOL
REMARK 922        TOTAL FREE ENERGY PREDICTED BY IDOCK:   -8.53 KCAL/MOL
REMARK 923 INTER-LIGAND FREE ENERGY PREDICTED BY IDOCK:   -6.97 KCAL/MOL
REMARK 924 INTRA-LIGAND FREE ENERGY PREDICTED BY IDOCK:   -1.56 KCAL/MOL
REMARK 927      BINDING AFFINITY PREDICTED BY RF-SCORE:    0.00 PKD
ROOT
HETATM    1  C   UNL     1      -7.725  10.594  69.276  1.00  0.00    -0.142 C  
HETATM    2  S   UNL     1      -7.458  11.592  67.835  1.00  0.00    -0.114 SA 
HETATM    3  C   UNL     1      -9.139  12.067  67.331  1.00  0.00    -0.178 C  
HETATM    4  C   UNL     1     -10.297  11.602  68.168  1.00  0.00    -0.208 C  
HETATM    5  C   UNL     1      -8.691   9.035  70.222  1.00  0.00    -0.184 C  
HETATM    6  CA  UNL     1     -10.219  10.751  69.225  1.00  0.00    -0.194 C  
HETATM    7  N   UNL     1      -9.060  10.143  69.549  1.00  0.00    -0.207 N  
HETATM    8  CA  UNL     1      -7.286   9.093  69.542  1.00  0.00    -0.068 C  
HETATM    9  C   UNL     1     -11.450  10.469  70.028  1.00  0.00    -0.316 C  
HETATM   10  O   UNL     1      -9.322   8.188  70.811  1.00  0.00    -0.154 OA 
HETATM   11  O   UNL     1     -11.608   9.245  70.539  1.00  0.00    -0.267 OA 
HETATM   12  OXT UNL     1     -12.265  11.347  70.280  1.00  0.00    -0.332 OA 
ENDROOT
BRANCH   4  13
HETATM   13  C   UNL     1     -11.634  12.076  67.593  1.00  0.00    -0.321 C  
BRANCH  13  14
HETATM   14  O   UNL     1     -11.507  13.331  66.905  1.00  0.00    -0.308 OA 
BRANCH  14  15
HETATM   15  C   UNL     1     -12.079  13.430  65.671  1.00  0.00    -0.434 C  
HETATM   16  C   UNL     1     -11.608  14.660  64.945  1.00  0.00    -0.405 C  
HETATM   17  O   UNL     1     -12.832  12.603  65.174  1.00  0.00    -0.721 OA 
ENDBRANCH  14  15
ENDBRANCH  13  14
ENDBRANCH   4  13
BRANCH   8  18
HETATM   18  N   UNL     1      -7.061   7.903  68.615  1.00  0.00    -0.074 N  
HETATM   19  C   UNL     1      -7.798   7.319  67.587  1.00  0.00    -0.113 C  
HETATM   20  H   UNL     1      -6.174   7.431  68.785  1.00  0.00     0.000 HD 
HETATM   21  O   UNL     1      -7.439   6.190  67.174  1.00  0.00    -0.079 OA 
BRANCH  19  22
HETATM   22  C   UNL     1      -8.945   7.993  66.836  1.00  0.00    -0.138 C  
BRANCH  22  23
HETATM   23  C   UNL     1      -8.721   8.771  65.602  1.00  0.00    -0.184 A  
HETATM   24  N   UNL     1      -9.615   9.730  65.109  1.00  0.00    -0.290 NA 
HETATM   25  H2  UNL     1      -9.072  12.151  63.009  1.00  0.00     0.000 HD 
HETATM   26  N   UNL     1      -9.609  11.563  63.646  1.00  0.00    -0.434 NA 
HETATM   27  C   UNL     1      -7.441   8.876  65.079  1.00  0.00    -0.097 A  
HETATM   28  S   UNL     1      -7.357  10.164  63.961  1.00  0.00    -0.071 SA 
HETATM   29  H1  UNL     1     -10.592  11.772  63.820  1.00  0.00     0.000 HD 
HETATM   30  C   UNL     1      -9.013  10.515  64.253  1.00  0.00    -0.216 A  
ENDBRANCH  22  23
BRANCH  22  31
HETATM   31  N   UNL     1     -10.145   8.222  67.276  1.00  0.00    -0.221 NA 
HETATM   32  H   UNL     1     -10.364   9.173  67.570  1.00  0.00     0.000 HD 
BRANCH  31  33
HETATM   33  O   UNL     1     -11.158   7.268  67.376  1.00  0.00    -0.214 OA 
HETATM   34  C   UNL     1     -11.159   6.356  68.450  1.00  0.00    -0.285 C  
ENDBRANCH  31  33
ENDBRANCH  22  31
ENDBRANCH  19  22
ENDBRANCH   8  18
TORSDOF 8
ENDMDL
MODEL      122
REMARK 921   NORMALIZED FREE ENERGY PREDICTED BY IDOCK:   -5.02 KCAL/MOL
REMARK 922        TOTAL FREE ENERGY PREDICTED BY IDOCK:   -8.52 KCAL/MOL
REMARK 923 INTER-LIGAND FREE ENERGY PREDICTED BY IDOCK:   -7.23 KCAL/MOL
REMARK 924 INTRA-LIGAND FREE ENERGY PREDICTED BY IDOCK:   -1.29 KCAL/MOL
REMARK 927      BINDING AFFINITY PREDICTED BY RF-SCORE:    0.00 PKD
ROOT
HETATM    1  C   UNL     1      -9.150   9.293  68.548  1.00  0.00    -0.132 C  
HETATM    2  S   UNL     1      -9.724   9.930  70.100  1.00  0.00    -0.126 SA 
HETATM    3  C   UNL     1     -10.745   8.578  70.761  1.00  0.00    -0.217 C  
HETATM    4  C   UNL     1     -10.857   7.309  69.966  1.00  0.00    -0.271 C  
HETATM    5  C   UNL     1      -9.529   8.389  66.732  1.00  0.00    -0.197 C  
HETATM    6  CA  UNL     1     -10.350   7.107  68.721  1.00  0.00    -0.192 C  
HETATM    7  N   UNL     1      -9.779   8.112  68.028  1.00  0.00    -0.156 N  
HETATM    8  CA  UNL     1      -9.340   9.895  67.093  1.00  0.00    -0.146 C  
HETATM    9  C   UNL     1     -10.450   5.747  68.104  1.00  0.00    -0.217 C  
HETATM   10  O   UNL     1      -9.729   7.771  65.711  1.00  0.00     0.151 OA 
HETATM   11  O   UNL     1     -10.631   5.661  66.783  1.00  0.00    -0.262 OA 
HETATM   12  OXT UNL     1     -10.299   4.730  68.768  1.00  0.00    -0.070 OA 
ENDROOT
BRANCH   4  13
HETATM   13  C   UNL     1     -11.764   6.289  70.659  1.00  0.00    -0.215 C  
BRANCH  13  14
HETATM   14  O   UNL     1     -11.863   6.531  72.071  1.00  0.00    -0.308 OA 
BRANCH  14  15
HETATM   15  C   UNL     1     -11.051   5.802  72.890  1.00  0.00    -0.281 C  
HETATM   16  C   UNL     1     -10.321   6.686  73.865  1.00  0.00    -0.385 C  
HETATM   17  O   UNL     1     -10.961   4.582  72.890  1.00  0.00    -0.214 OA 
ENDBRANCH  14  15
ENDBRANCH  13  14
ENDBRANCH   4  13
BRANCH   8  18
HETATM   18  N   UNL     1     -10.427  10.764  66.469  1.00  0.00    -0.247 N  
HETATM   19  C   UNL     1     -11.130  11.892  66.886  1.00  0.00    -0.305 C  
HETATM   20  H   UNL     1     -10.701  10.448  65.539  1.00  0.00     0.000 HD 
HETATM   21  O   UNL     1     -12.142  12.232  66.228  1.00  0.00    -0.626 OA 
BRANCH  19  22
HETATM   22  C   UNL     1     -10.700  12.825  68.017  1.00  0.00    -0.230 C  
BRANCH  22  23
HETATM   23  C   UNL     1     -11.641  13.272  69.063  1.00  0.00    -0.312 A  
HETATM   24  N   UNL     1     -12.161  12.434  70.057  1.00  0.00    -0.296 NA 
HETATM   25  H2  UNL     1     -13.499  13.224  72.912  1.00  0.00     0.000 HD 
HETATM   26  N   UNL     1     -13.166  12.611  72.168  1.00  0.00    -0.469 NA 
HETATM   27  C   UNL     1     -11.757  14.624  69.352  1.00  0.00    -0.316 A  
HETATM   28  S   UNL     1     -12.526  14.848  70.859  1.00  0.00    -0.362 SA 
HETATM   29  H1  UNL     1     -13.235  11.599  72.279  1.00  0.00     0.000 HD 
HETATM   30  C   UNL     1     -12.640  13.144  71.045  1.00  0.00    -0.312 A  
ENDBRANCH  22  23
BRANCH  22  31
HETATM   31  N   UNL     1      -9.622  13.547  68.073  1.00  0.00    -0.214 NA 
HETATM   32  H   UNL     1      -9.686  14.514  67.755  1.00  0.00     0.000 HD 
BRANCH  31  33
HETATM   33  O   UNL     1      -8.383  13.103  68.535  1.00  0.00    -0.141 OA 
HETATM   34  C   UNL     1      -7.267  13.119  67.676  1.00  0.00    -0.159 C  
ENDBRANCH  31  33
ENDBRANCH  22  31
ENDBRANCH  19  22
ENDBRANCH   8  18
TORSDOF 8
ENDMDL
MODEL      123
REMARK 921   NORMALIZED FREE ENERGY PREDICTED BY IDOCK:   -5.01 KCAL/MOL
REMARK 922        TOTAL FREE ENERGY PREDICTED BY IDOCK:   -8.51 KCAL/MOL
REMARK 923 INTER-LIGAND FREE ENERGY PREDICTED BY IDOCK:   -6.88 KCAL/MOL
REMARK 924 INTRA-LIGAND FREE ENERGY PREDICTED BY IDOCK:   -1.63 KCAL/MOL
REMARK 927      BINDING AFFINITY PREDICTED BY RF-SCORE:    0.00 PKD
ROOT
HETATM    1  C   UNL     1     -10.924  11.744  65.200  1.00  0.00    -0.294 C  
HETATM    2  S   UNL     1      -9.437  10.808  64.964  1.00  0.00    -0.260 SA 
HETATM    3  C   UNL     1      -9.041  10.213  66.636  1.00  0.00    -0.144 C  
HETATM    4  C   UNL     1      -9.973  10.562  67.761  1.00  0.00    -0.198 C  
HETATM    5  C   UNL     1     -11.986  13.195  66.212  1.00  0.00    -0.415 C  
HETATM    6  CA  UNL     1     -11.048  11.389  67.671  1.00  0.00    -0.268 C  
HETATM    7  N   UNL     1     -11.306  12.079  66.542  1.00  0.00    -0.342 N  
HETATM    8  CA  UNL     1     -11.206  13.268  64.862  1.00  0.00    -0.318 C  
HETATM    9  C   UNL     1     -11.946  11.550  68.858  1.00  0.00    -0.299 C  
HETATM   10  O   UNL     1     -12.646  13.973  66.863  1.00  0.00    -0.262 OA 
HETATM   11  O   UNL     1     -12.505  12.744  69.073  1.00  0.00     0.067 OA 
HETATM   12  OXT UNL     1     -12.228  10.603  69.580  1.00  0.00    -0.290 OA 
ENDROOT
BRANCH   4  13
HETATM   13  C   UNL     1      -9.481   9.997  69.095  1.00  0.00    -0.207 C  
BRANCH  13  14
HETATM   14  O   UNL     1      -9.123   8.609  68.991  1.00  0.00    -0.144 OA 
BRANCH  14  15
HETATM   15  C   UNL     1     -10.097   7.690  69.248  1.00  0.00    -0.190 C  
HETATM   16  C   UNL     1     -10.244   7.445  70.725  1.00  0.00    -0.200 C  
HETATM   17  O   UNL     1     -10.814   7.167  68.405  1.00  0.00    -0.178 OA 
ENDBRANCH  14  15
ENDBRANCH  13  14
ENDBRANCH   4  13
BRANCH   8  18
HETATM   18  N   UNL     1     -10.303  14.496  64.800  1.00  0.00    -0.510 N  
HETATM   19  C   UNL     1      -9.755  15.348  65.756  1.00  0.00    -0.350 C  
HETATM   20  H   UNL     1     -10.043  14.748  63.847  1.00  0.00     0.000 HD 
HETATM   21  O   UNL     1      -9.240  16.422  65.360  1.00  0.00    -0.326 OA 
BRANCH  19  22
HETATM   22  C   UNL     1      -9.622  15.030  67.244  1.00  0.00    -0.207 C  
BRANCH  22  23
HETATM   23  C   UNL     1      -8.543  14.166  67.765  1.00  0.00    -0.184 A  
HETATM   24  N   UNL     1      -7.724  13.366  66.960  1.00  0.00     0.037 NA 
HETATM   25  H2  UNL     1      -4.817  12.077  67.632  1.00  0.00     0.000 HD 
HETATM   26  N   UNL     1      -5.645  12.287  67.075  1.00  0.00    -0.306 NA 
HETATM   27  C   UNL     1      -8.029  14.398  69.032  1.00  0.00    -0.057 A  
HETATM   28  S   UNL     1      -6.529  13.605  69.221  1.00  0.00    -0.106 SA 
HETATM   29  H1  UNL     1      -5.712  11.941  66.118  1.00  0.00     0.000 HD 
HETATM   30  C   UNL     1      -6.643  13.022  67.610  1.00  0.00    -0.159 A  
ENDBRANCH  22  23
BRANCH  22  31
HETATM   31  N   UNL     1     -10.518  15.201  68.168  1.00  0.00    -0.242 NA 
HETATM   32  H   UNL     1     -11.138  14.419  68.373  1.00  0.00     0.000 HD 
BRANCH  31  33
HETATM   33  O   UNL     1     -10.698  16.374  68.901  1.00  0.00    -0.277 OA 
HETATM   34  C   UNL     1     -10.805  16.315  70.305  1.00  0.00    -0.254 C  
ENDBRANCH  31  33
ENDBRANCH  22  31
ENDBRANCH  19  22
ENDBRANCH   8  18
TORSDOF 8
ENDMDL
MODEL      124
REMARK 921   NORMALIZED FREE ENERGY PREDICTED BY IDOCK:   -5.01 KCAL/MOL
REMARK 922        TOTAL FREE ENERGY PREDICTED BY IDOCK:   -8.50 KCAL/MOL
REMARK 923 INTER-LIGAND FREE ENERGY PREDICTED BY IDOCK:   -7.21 KCAL/MOL
REMARK 924 INTRA-LIGAND FREE ENERGY PREDICTED BY IDOCK:   -1.29 KCAL/MOL
REMARK 927      BINDING AFFINITY PREDICTED BY RF-SCORE:    0.00 PKD
ROOT
HETATM    1  C   UNL     1      -9.945   8.617  70.099  1.00  0.00    -0.182 C  
HETATM    2  S   UNL     1      -9.137   9.695  68.947  1.00  0.00    -0.150 SA 
HETATM    3  C   UNL     1     -10.184  11.182  68.951  1.00  0.00    -0.194 C  
HETATM    4  C   UNL     1     -11.377  11.216  69.863  1.00  0.00    -0.348 C  
HETATM    5  C   UNL     1     -11.654   7.686  70.786  1.00  0.00    -0.265 C  
HETATM    6  CA  UNL     1     -11.826  10.179  70.619  1.00  0.00    -0.342 C  
HETATM    7  N   UNL     1     -11.276   8.952  70.520  1.00  0.00    -0.256 N  
HETATM    8  CA  UNL     1     -10.512   7.154  69.865  1.00  0.00    -0.223 C  
HETATM    9  C   UNL     1     -12.966  10.403  71.562  1.00  0.00    -0.458 C  
HETATM   10  O   UNL     1     -12.666   7.217  71.253  1.00  0.00    -0.371 OA 
HETATM   11  O   UNL     1     -13.834   9.407  71.756  1.00  0.00    -0.354 OA 
HETATM   12  OXT UNL     1     -13.074  11.442  72.202  1.00  0.00    -0.462 OA 
ENDROOT
BRANCH   4  13
HETATM   13  C   UNL     1     -12.152  12.529  69.728  1.00  0.00    -0.224 C  
BRANCH  13  14
HETATM   14  O   UNL     1     -11.290  13.627  69.386  1.00  0.00    -0.262 OA 
BRANCH  14  15
HETATM   15  C   UNL     1     -11.670  14.420  68.343  1.00  0.00    -0.332 C  
HETATM   16  C   UNL     1     -11.476  15.877  68.664  1.00  0.00    -0.391 C  
HETATM   17  O   UNL     1     -12.062  14.017  67.256  1.00  0.00    -0.409 OA 
ENDBRANCH  14  15
ENDBRANCH  13  14
ENDBRANCH   4  13
BRANCH   8  18
HETATM   18  N   UNL     1     -11.068   6.447  68.633  1.00  0.00    -0.466 N  
HETATM   19  C   UNL     1     -10.683   6.377  67.295  1.00  0.00    -0.353 C  
HETATM   20  H   UNL     1     -11.908   5.905  68.832  1.00  0.00     0.000 HD 
HETATM   21  O   UNL     1     -11.499   5.896  66.473  1.00  0.00     0.148 OA 
BRANCH  19  22
HETATM   22  C   UNL     1      -9.296   6.732  66.761  1.00  0.00    -0.160 C  
BRANCH  22  23
HETATM   23  C   UNL     1      -8.061   6.245  67.408  1.00  0.00    -0.109 A  
HETATM   24  N   UNL     1      -8.003   5.111  68.227  1.00  0.00    -0.087 NA 
HETATM   25  H2  UNL     1      -5.425   3.317  69.065  1.00  0.00     0.000 HD 
HETATM   26  N   UNL     1      -6.405   3.598  69.037  1.00  0.00    -0.029 NA 
HETATM   27  C   UNL     1      -6.826   6.653  66.926  1.00  0.00    -0.065 A  
HETATM   28  S   UNL     1      -5.591   5.629  67.508  1.00  0.00    -0.013 SA 
HETATM   29  H1  UNL     1      -7.104   3.045  69.534  1.00  0.00     0.000 HD 
HETATM   30  C   UNL     1      -6.767   4.698  68.344  1.00  0.00    -0.050 A  
ENDBRANCH  22  23
BRANCH  22  31
HETATM   31  N   UNL     1      -8.997   7.670  65.915  1.00  0.00    -0.318 NA 
HETATM   32  H   UNL     1      -8.207   7.506  65.292  1.00  0.00     0.000 HD 
BRANCH  31  33
HETATM   33  O   UNL     1      -9.671   8.885  65.794  1.00  0.00    -0.240 OA 
HETATM   34  C   UNL     1      -9.224   9.846  64.865  1.00  0.00    -0.246 C  
ENDBRANCH  31  33
ENDBRANCH  22  31
ENDBRANCH  19  22
ENDBRANCH   8  18
TORSDOF 8
ENDMDL
MODEL      125
REMARK 921   NORMALIZED FREE ENERGY PREDICTED BY IDOCK:   -5.00 KCAL/MOL
REMARK 922        TOTAL FREE ENERGY PREDICTED BY IDOCK:   -8.49 KCAL/MOL
REMARK 923 INTER-LIGAND FREE ENERGY PREDICTED BY IDOCK:   -7.07 KCAL/MOL
REMARK 924 INTRA-LIGAND FREE ENERGY PREDICTED BY IDOCK:   -1.42 KCAL/MOL
REMARK 927      BINDING AFFINITY PREDICTED BY RF-SCORE:    0.00 PKD
ROOT
HETATM    1  C   UNL     1      -9.175  10.297  69.194  1.00  0.00    -0.194 C  
HETATM    2  S   UNL     1      -9.955   9.234  70.379  1.00  0.00    -0.255 SA 
HETATM    3  C   UNL     1     -10.500   7.815  69.380  1.00  0.00    -0.220 C  
HETATM    4  C   UNL     1     -10.181   7.806  67.912  1.00  0.00    -0.259 C  
HETATM    5  C   UNL     1      -9.204  11.292  67.387  1.00  0.00    -0.162 C  
HETATM    6  CA  UNL     1      -9.610   8.827  67.220  1.00  0.00    -0.165 C  
HETATM    7  N   UNL     1      -9.378  10.022  67.800  1.00  0.00    -0.140 N  
HETATM    8  CA  UNL     1      -9.517  11.802  68.828  1.00  0.00    -0.026 C  
HETATM    9  C   UNL     1      -9.253   8.623  65.781  1.00  0.00    -0.181 C  
HETATM   10  O   UNL     1      -9.172  11.797  66.288  1.00  0.00    -0.216 OA 
HETATM   11  O   UNL     1      -9.369   9.659  64.945  1.00  0.00    -0.247 OA 
HETATM   12  OXT UNL     1      -8.796   7.561  65.379  1.00  0.00    -0.059 OA 
ENDROOT
BRANCH   4  13
HETATM   13  C   UNL     1     -10.724   6.551  67.226  1.00  0.00    -0.356 C  
BRANCH  13  14
HETATM   14  O   UNL     1     -10.135   5.352  67.754  1.00  0.00    -0.155 OA 
BRANCH  14  15
HETATM   15  C   UNL     1      -9.875   4.342  66.875  1.00  0.00    -0.193 C  
HETATM   16  C   UNL     1      -9.365   3.117  67.583  1.00  0.00    -0.247 C  
HETATM   17  O   UNL     1     -10.083   4.385  65.669  1.00  0.00    -0.217 OA 
ENDBRANCH  14  15
ENDBRANCH  13  14
ENDBRANCH   4  13
BRANCH   8  18
HETATM   18  N   UNL     1     -10.813  12.605  68.870  1.00  0.00    -0.339 N  
HETATM   19  C   UNL     1     -11.167  13.901  68.499  1.00  0.00    -0.270 C  
HETATM   20  H   UNL     1     -11.595  12.076  69.256  1.00  0.00     0.000 HD 
HETATM   21  O   UNL     1     -12.275  14.342  68.887  1.00  0.00    -0.281 OA 
BRANCH  19  22
HETATM   22  C   UNL     1     -10.365  14.792  67.552  1.00  0.00    -0.238 C  
BRANCH  22  23
HETATM   23  C   UNL     1      -9.882  16.128  67.958  1.00  0.00    -0.231 A  
HETATM   24  N   UNL     1      -8.617  16.368  68.507  1.00  0.00    -0.212 NA 
HETATM   25  H2  UNL     1      -6.956  19.156  68.691  1.00  0.00     0.000 HD 
HETATM   26  N   UNL     1      -7.137  18.160  68.818  1.00  0.00    -0.273 NA 
HETATM   27  C   UNL     1     -10.501  17.263  67.457  1.00  0.00    -0.356 A  
HETATM   28  S   UNL     1      -9.508  18.633  67.686  1.00  0.00    -0.298 SA 
HETATM   29  H1  UNL     1      -6.427  17.569  69.251  1.00  0.00     0.000 HD 
HETATM   30  C   UNL     1      -8.314  17.637  68.414  1.00  0.00    -0.290 A  
ENDBRANCH  22  23
BRANCH  22  31
HETATM   31  N   UNL     1     -10.243  14.664  66.266  1.00  0.00    -0.281 NA 
HETATM   32  H   UNL     1      -9.376  14.991  65.841  1.00  0.00     0.000 HD 
BRANCH  31  33
HETATM   33  O   UNL     1     -11.206  14.114  65.421  1.00  0.00    -0.309 OA 
HETATM   34  C   UNL     1     -11.978  14.956  64.595  1.00  0.00    -0.401 C  
ENDBRANCH  31  33
ENDBRANCH  22  31
ENDBRANCH  19  22
ENDBRANCH   8  18
TORSDOF 8
ENDMDL
MODEL      126
REMARK 921   NORMALIZED FREE ENERGY PREDICTED BY IDOCK:   -4.98 KCAL/MOL
REMARK 922        TOTAL FREE ENERGY PREDICTED BY IDOCK:   -8.46 KCAL/MOL
REMARK 923 INTER-LIGAND FREE ENERGY PREDICTED BY IDOCK:   -6.07 KCAL/MOL
REMARK 924 INTRA-LIGAND FREE ENERGY PREDICTED BY IDOCK:   -2.39 KCAL/MOL
REMARK 927      BINDING AFFINITY PREDICTED BY RF-SCORE:    0.00 PKD
ROOT
HETATM    1  C   UNL     1     -10.836   5.987  68.834  1.00  0.00    -0.331 C  
HETATM    2  S   UNL     1     -11.024   6.700  67.222  1.00  0.00    -0.350 SA 
HETATM    3  C   UNL     1      -9.336   7.216  66.787  1.00  0.00    -0.161 C  
HETATM    4  C   UNL     1      -8.226   6.931  67.758  1.00  0.00    -0.117 C  
HETATM    5  C   UNL     1     -10.129   6.096  70.770  1.00  0.00    -0.193 C  
HETATM    6  CA  UNL     1      -8.379   6.415  69.006  1.00  0.00    -0.118 C  
HETATM    7  N   UNL     1      -9.604   6.214  69.534  1.00  0.00    -0.142 N  
HETATM    8  CA  UNL     1     -11.548   6.394  70.193  1.00  0.00    -0.381 C  
HETATM    9  C   UNL     1      -7.163   6.086  69.815  1.00  0.00    -0.074 C  
HETATM   10  O   UNL     1      -9.633   6.110  71.874  1.00  0.00    -0.154 OA 
HETATM   11  O   UNL     1      -7.214   6.260  71.138  1.00  0.00    -0.075 OA 
HETATM   12  OXT UNL     1      -6.165   5.599  69.299  1.00  0.00    -0.026 OA 
ENDROOT
BRANCH   4  13
HETATM   13  C   UNL     1      -6.880   7.445  67.242  1.00  0.00    -0.078 C  
BRANCH  13  14
HETATM   14  O   UNL     1      -6.448   6.733  66.071  1.00  0.00    -0.047 OA 
BRANCH  14  15
HETATM   15  C   UNL     1      -6.526   7.387  64.876  1.00  0.00    -0.037 C  
HETATM   16  C   UNL     1      -5.915   8.759  64.962  1.00  0.00    -0.059 C  
HETATM   17  O   UNL     1      -6.975   6.914  63.841  1.00  0.00    -0.051 OA 
ENDBRANCH  14  15
ENDBRANCH  13  14
ENDBRANCH   4  13
BRANCH   8  18
HETATM   18  N   UNL     1     -12.100   7.717  70.713  1.00  0.00    -0.485 N  
HETATM   19  C   UNL     1     -11.713   9.049  70.584  1.00  0.00    -0.198 C  
HETATM   20  H   UNL     1     -12.939   7.601  71.281  1.00  0.00     0.000 HD 
HETATM   21  O   UNL     1     -12.250   9.893  71.341  1.00  0.00    -0.352 OA 
BRANCH  19  22
HETATM   22  C   UNL     1     -10.770   9.590  69.511  1.00  0.00    -0.228 C  
BRANCH  22  23
HETATM   23  C   UNL     1      -9.376   9.971  69.816  1.00  0.00    -0.202 A  
HETATM   24  N   UNL     1      -8.640   9.452  70.887  1.00  0.00    -0.277 NA 
HETATM   25  H2  UNL     1      -5.420   9.393  71.326  1.00  0.00     0.000 HD 
HETATM   26  N   UNL     1      -6.401   9.223  71.547  1.00  0.00    -0.202 NA 
HETATM   27  C   UNL     1      -8.596  10.565  68.835  1.00  0.00    -0.153 A  
HETATM   28  S   UNL     1      -6.944  10.486  69.258  1.00  0.00    -0.100 SA 
HETATM   29  H1  UNL     1      -6.648   8.729  72.404  1.00  0.00     0.000 HD 
HETATM   30  C   UNL     1      -7.361   9.654  70.701  1.00  0.00    -0.096 A  
ENDBRANCH  22  23
BRANCH  22  31
HETATM   31  N   UNL     1     -11.091  10.041  68.337  1.00  0.00    -0.438 NA 
HETATM   32  H   UNL     1     -10.636   9.617  67.529  1.00  0.00     0.000 HD 
BRANCH  31  33
HETATM   33  O   UNL     1     -12.011  11.061  68.095  1.00  0.00    -0.610 OA 
HETATM   34  C   UNL     1     -11.614  12.210  67.383  1.00  0.00    -0.340 C  
ENDBRANCH  31  33
ENDBRANCH  22  31
ENDBRANCH  19  22
ENDBRANCH   8  18
TORSDOF 8
ENDMDL
MODEL      127
REMARK 921   NORMALIZED FREE ENERGY PREDICTED BY IDOCK:   -4.97 KCAL/MOL
REMARK 922        TOTAL FREE ENERGY PREDICTED BY IDOCK:   -8.45 KCAL/MOL
REMARK 923 INTER-LIGAND FREE ENERGY PREDICTED BY IDOCK:   -6.36 KCAL/MOL
REMARK 924 INTRA-LIGAND FREE ENERGY PREDICTED BY IDOCK:   -2.09 KCAL/MOL
REMARK 927      BINDING AFFINITY PREDICTED BY RF-SCORE:    0.00 PKD
ROOT
HETATM    1  C   UNL     1     -10.397  10.676  66.356  1.00  0.00    -0.231 C  
HETATM    2  S   UNL     1     -11.348  11.923  67.183  1.00  0.00    -0.325 SA 
HETATM    3  C   UNL     1     -10.088  12.926  68.028  1.00  0.00    -0.235 C  
HETATM    4  C   UNL     1      -8.641  12.563  67.846  1.00  0.00    -0.179 C  
HETATM    5  C   UNL     1      -8.937   9.218  66.393  1.00  0.00    -0.154 C  
HETATM    6  CA  UNL     1      -8.177  11.468  67.188  1.00  0.00    -0.161 C  
HETATM    7  N   UNL     1      -9.018  10.522  66.724  1.00  0.00    -0.137 N  
HETATM    8  CA  UNL     1     -10.490   9.098  66.494  1.00  0.00    -0.127 C  
HETATM    9  C   UNL     1      -6.702  11.302  66.998  1.00  0.00    -0.126 C  
HETATM   10  O   UNL     1      -8.017   8.433  66.382  1.00  0.00    -0.096 OA 
HETATM   11  O   UNL     1      -6.193  10.067  67.027  1.00  0.00    -0.061 OA 
HETATM   12  OXT UNL     1      -5.977  12.257  66.748  1.00  0.00    -0.252 OA 
ENDROOT
BRANCH   4  13
HETATM   13  C   UNL     1      -7.723  13.497  68.636  1.00  0.00    -0.093 C  
BRANCH  13  14
HETATM   14  O   UNL     1      -8.024  14.880  68.391  1.00  0.00    -0.123 OA 
BRANCH  14  15
HETATM   15  C   UNL     1      -7.439  15.466  67.307  1.00  0.00    -0.207 C  
HETATM   16  C   UNL     1      -8.469  15.978  66.338  1.00  0.00    -0.363 C  
HETATM   17  O   UNL     1      -6.235  15.621  67.153  1.00  0.00    -0.317 OA 
ENDBRANCH  14  15
ENDBRANCH  13  14
ENDBRANCH   4  13
BRANCH   8  18
HETATM   18  N   UNL     1     -10.910   8.185  67.641  1.00  0.00    -0.507 N  
HETATM   19  C   UNL     1     -10.517   8.052  68.971  1.00  0.00    -0.199 C  
HETATM   20  H   UNL     1     -11.641   7.525  67.375  1.00  0.00     0.000 HD 
HETATM   21  O   UNL     1     -10.894   7.031  69.596  1.00  0.00    -0.236 OA 
BRANCH  19  22
HETATM   22  C   UNL     1      -9.759   9.109  69.773  1.00  0.00    -0.181 C  
BRANCH  22  23
HETATM   23  C   UNL     1      -8.305   9.015  70.012  1.00  0.00    -0.142 A  
HETATM   24  N   UNL     1      -7.532  10.053  70.546  1.00  0.00    -0.283 NA 
HETATM   25  H2  UNL     1      -4.612   9.915  71.966  1.00  0.00     0.000 HD 
HETATM   26  N   UNL     1      -5.465  10.348  71.613  1.00  0.00    -0.283 NA 
HETATM   27  C   UNL     1      -7.700   7.770  70.086  1.00  0.00    -0.090 A  
HETATM   28  S   UNL     1      -6.160   7.898  70.811  1.00  0.00    -0.033 SA 
HETATM   29  H1  UNL     1      -5.606  11.352  71.725  1.00  0.00     0.000 HD 
HETATM   30  C   UNL     1      -6.397   9.588  71.000  1.00  0.00    -0.077 A  
ENDBRANCH  22  23
BRANCH  22  31
HETATM   31  N   UNL     1     -10.265  10.015  70.552  1.00  0.00    -0.396 NA 
HETATM   32  H   UNL     1      -9.680  10.819  70.781  1.00  0.00     0.000 HD 
BRANCH  31  33
HETATM   33  O   UNL     1     -11.546   9.976  71.102  1.00  0.00    -0.355 OA 
HETATM   34  C   UNL     1     -12.497  10.950  70.736  1.00  0.00    -0.394 C  
ENDBRANCH  31  33
ENDBRANCH  22  31
ENDBRANCH  19  22
ENDBRANCH   8  18
TORSDOF 8
ENDMDL
MODEL      128
REMARK 921   NORMALIZED FREE ENERGY PREDICTED BY IDOCK:   -4.97 KCAL/MOL
REMARK 922        TOTAL FREE ENERGY PREDICTED BY IDOCK:   -8.45 KCAL/MOL
REMARK 923 INTER-LIGAND FREE ENERGY PREDICTED BY IDOCK:   -7.44 KCAL/MOL
REMARK 924 INTRA-LIGAND FREE ENERGY PREDICTED BY IDOCK:   -1.01 KCAL/MOL
REMARK 927      BINDING AFFINITY PREDICTED BY RF-SCORE:    0.00 PKD
ROOT
HETATM    1  C   UNL     1      -9.081  11.500  68.392  1.00  0.00    -0.185 C  
HETATM    2  S   UNL     1     -10.616  10.639  68.599  1.00  0.00    -0.220 SA 
HETATM    3  C   UNL     1     -10.157   8.895  68.372  1.00  0.00    -0.189 C  
HETATM    4  C   UNL     1      -8.714   8.559  68.120  1.00  0.00    -0.142 C  
HETATM    5  C   UNL     1      -7.359  11.860  67.312  1.00  0.00    -0.146 C  
HETATM    6  CA  UNL     1      -7.714   9.459  67.931  1.00  0.00    -0.088 C  
HETATM    7  N   UNL     1      -7.970  10.780  67.838  1.00  0.00    -0.109 N  
HETATM    8  CA  UNL     1      -8.711  12.641  67.353  1.00  0.00    -0.191 C  
HETATM    9  C   UNL     1      -6.306   8.969  67.800  1.00  0.00    -0.056 C  
HETATM   10  O   UNL     1      -6.304  12.004  66.738  1.00  0.00    -0.119 OA 
HETATM   11  O   UNL     1      -5.480   9.622  66.977  1.00  0.00    -0.045 OA 
HETATM   12  OXT UNL     1      -5.886   8.040  68.478  1.00  0.00    -0.037 OA 
ENDROOT
BRANCH   4  13
HETATM   13  C   UNL     1      -8.510   7.054  67.937  1.00  0.00    -0.124 C  
BRANCH  13  14
HETATM   14  O   UNL     1      -9.329   6.525  66.882  1.00  0.00    -0.136 OA 
BRANCH  14  15
HETATM   15  C   UNL     1     -10.266   5.593  67.223  1.00  0.00    -0.206 C  
HETATM   16  C   UNL     1     -10.656   4.751  66.039  1.00  0.00    -0.300 C  
HETATM   17  O   UNL     1     -10.699   5.409  68.353  1.00  0.00    -0.138 OA 
ENDBRANCH  14  15
ENDBRANCH  13  14
ENDBRANCH   4  13
BRANCH   8  18
HETATM   18  N   UNL     1      -9.216  12.963  65.951  1.00  0.00    -0.451 N  
HETATM   19  C   UNL     1     -10.281  13.707  65.448  1.00  0.00    -0.313 C  
HETATM   20  H   UNL     1      -8.648  12.539  65.218  1.00  0.00     0.000 HD 
HETATM   21  O   UNL     1     -10.566  13.579  64.233  1.00  0.00    -0.412 OA 
BRANCH  19  22
HETATM   22  C   UNL     1     -11.061  14.762  66.230  1.00  0.00    -0.341 C  
BRANCH  22  23
HETATM   23  C   UNL     1     -10.508  16.105  66.499  1.00  0.00    -0.297 A  
HETATM   24  N   UNL     1     -10.641  17.193  65.628  1.00  0.00    -0.515 NA 
HETATM   25  H2  UNL     1     -10.336  20.368  66.252  1.00  0.00     0.000 HD 
HETATM   26  N   UNL     1     -10.506  19.533  65.692  1.00  0.00    -0.501 NA 
HETATM   27  C   UNL     1     -10.169  16.462  67.795  1.00  0.00    -0.274 A  
HETATM   28  S   UNL     1     -10.002  18.156  67.922  1.00  0.00    -0.352 SA 
HETATM   29  H1  UNL     1     -10.747  19.627  64.705  1.00  0.00     0.000 HD 
HETATM   30  C   UNL     1     -10.408  18.314  66.261  1.00  0.00    -0.405 A  
ENDBRANCH  22  23
BRANCH  22  31
HETATM   31  N   UNL     1     -12.110  14.574  66.972  1.00  0.00    -0.505 NA 
HETATM   32  H   UNL     1     -12.900  15.204  66.838  1.00  0.00     0.000 HD 
BRANCH  31  33
HETATM   33  O   UNL     1     -12.239  13.577  67.939  1.00  0.00    -0.305 OA 
HETATM   34  C   UNL     1     -12.096  13.900  69.304  1.00  0.00    -0.339 C  
ENDBRANCH  31  33
ENDBRANCH  22  31
ENDBRANCH  19  22
ENDBRANCH   8  18
TORSDOF 8
ENDMDL
MODEL      129
REMARK 921   NORMALIZED FREE ENERGY PREDICTED BY IDOCK:   -4.97 KCAL/MOL
REMARK 922        TOTAL FREE ENERGY PREDICTED BY IDOCK:   -8.44 KCAL/MOL
REMARK 923 INTER-LIGAND FREE ENERGY PREDICTED BY IDOCK:   -6.70 KCAL/MOL
REMARK 924 INTRA-LIGAND FREE ENERGY PREDICTED BY IDOCK:   -1.75 KCAL/MOL
REMARK 927      BINDING AFFINITY PREDICTED BY RF-SCORE:    0.00 PKD
ROOT
HETATM    1  C   UNL     1      -7.630   7.543  68.971  1.00  0.00    -0.108 C  
HETATM    2  S   UNL     1      -8.767   6.512  68.084  1.00  0.00    -0.115 SA 
HETATM    3  C   UNL     1      -9.640   7.680  66.998  1.00  0.00    -0.175 C  
HETATM    4  C   UNL     1      -9.240   9.128  67.033  1.00  0.00    -0.167 C  
HETATM    5  C   UNL     1      -7.243   9.228  70.097  1.00  0.00    -0.083 C  
HETATM    6  CA  UNL     1      -8.348   9.682  67.896  1.00  0.00    -0.117 C  
HETATM    7  N   UNL     1      -7.812   8.965  68.904  1.00  0.00    -0.095 N  
HETATM    8  CA  UNL     1      -7.487   7.751  70.537  1.00  0.00    -0.074 C  
HETATM    9  C   UNL     1      -7.973  11.122  67.733  1.00  0.00    -0.116 C  
HETATM   10  O   UNL     1      -6.990  10.262  70.672  1.00  0.00    -0.323 OA 
HETATM   11  O   UNL     1      -7.721  11.840  68.830  1.00  0.00    -0.116 OA 
HETATM   12  OXT UNL     1      -7.824  11.623  66.626  1.00  0.00    -0.149 OA 
ENDROOT
BRANCH   4  13
HETATM   13  C   UNL     1     -10.084   9.968  66.072  1.00  0.00    -0.248 C  
BRANCH  13  14
HETATM   14  O   UNL     1      -9.693   9.772  64.703  1.00  0.00    -0.268 OA 
BRANCH  14  15
HETATM   15  C   UNL     1      -9.988  10.768  63.819  1.00  0.00    -0.351 C  
HETATM   16  C   UNL     1     -10.709  11.904  64.493  1.00  0.00    -0.361 C  
HETATM   17  O   UNL     1      -9.662  10.784  62.639  1.00  0.00    -0.280 OA 
ENDBRANCH  14  15
ENDBRANCH  13  14
ENDBRANCH   4  13
BRANCH   8  18
HETATM   18  N   UNL     1      -8.487   7.665  71.685  1.00  0.00    -0.106 N  
HETATM   19  C   UNL     1      -9.781   8.141  71.885  1.00  0.00    -0.205 C  
HETATM   20  H   UNL     1      -8.129   7.142  72.484  1.00  0.00     0.000 HD 
HETATM   21  O   UNL     1     -10.249   8.103  73.049  1.00  0.00    -0.309 OA 
BRANCH  19  22
HETATM   22  C   UNL     1     -10.728   8.601  70.778  1.00  0.00    -0.216 C  
BRANCH  22  23
HETATM   23  C   UNL     1     -11.167  10.006  70.658  1.00  0.00    -0.350 A  
HETATM   24  N   UNL     1     -11.002  10.781  69.504  1.00  0.00    -0.251 NA 
HETATM   25  H2  UNL     1     -12.558  13.493  68.615  1.00  0.00     0.000 HD 
HETATM   26  N   UNL     1     -11.895  12.721  68.537  1.00  0.00    -0.320 NA 
HETATM   27  C   UNL     1     -12.112  10.509  71.541  1.00  0.00    -0.220 A  
HETATM   28  S   UNL     1     -12.783  11.956  70.935  1.00  0.00    -0.123 SA 
HETATM   29  H1  UNL     1     -11.311  12.639  67.705  1.00  0.00     0.000 HD 
HETATM   30  C   UNL     1     -11.799  11.818  69.535  1.00  0.00    -0.337 A  
ENDBRANCH  22  23
BRANCH  22  31
HETATM   31  N   UNL     1     -11.467   7.854  70.016  1.00  0.00    -0.471 NA 
HETATM   32  H   UNL     1     -11.426   8.022  69.011  1.00  0.00     0.000 HD 
BRANCH  31  33
HETATM   33  O   UNL     1     -12.312   6.840  70.464  1.00  0.00    -0.326 OA 
HETATM   34  C   UNL     1     -13.212   7.091  71.519  1.00  0.00    -0.317 C  
ENDBRANCH  31  33
ENDBRANCH  22  31
ENDBRANCH  19  22
ENDBRANCH   8  18
TORSDOF 8
ENDMDL
MODEL      130
REMARK 921   NORMALIZED FREE ENERGY PREDICTED BY IDOCK:   -4.96 KCAL/MOL
REMARK 922        TOTAL FREE ENERGY PREDICTED BY IDOCK:   -8.44 KCAL/MOL
REMARK 923 INTER-LIGAND FREE ENERGY PREDICTED BY IDOCK:   -7.31 KCAL/MOL
REMARK 924 INTRA-LIGAND FREE ENERGY PREDICTED BY IDOCK:   -1.13 KCAL/MOL
REMARK 927      BINDING AFFINITY PREDICTED BY RF-SCORE:    0.00 PKD
ROOT
HETATM    1  C   UNL     1      -9.507  11.010  68.429  1.00  0.00    -0.182 C  
HETATM    2  S   UNL     1     -10.683  10.650  69.705  1.00  0.00    -0.217 SA 
HETATM    3  C   UNL     1     -11.149   8.923  69.378  1.00  0.00     0.045 C  
HETATM    4  C   UNL     1     -10.486   8.205  68.237  1.00  0.00    -0.210 C  
HETATM    5  C   UNL     1      -8.966  11.005  66.437  1.00  0.00    -0.181 C  
HETATM    6  CA  UNL     1      -9.636   8.765  67.337  1.00  0.00    -0.161 C  
HETATM    7  N   UNL     1      -9.399  10.093  67.330  1.00  0.00    -0.151 N  
HETATM    8  CA  UNL     1      -9.552  12.148  67.324  1.00  0.00    -0.185 C  
HETATM    9  C   UNL     1      -8.970   7.891  66.320  1.00  0.00    -0.171 C  
HETATM   10  O   UNL     1      -8.603  10.914  65.287  1.00  0.00    -0.172 OA 
HETATM   11  O   UNL     1      -8.743   8.392  65.103  1.00  0.00    -0.162 OA 
HETATM   12  OXT UNL     1      -8.570   6.769  66.604  1.00  0.00    -0.116 OA 
ENDROOT
BRANCH   4  13
HETATM   13  C   UNL     1     -11.004   6.772  68.096  1.00  0.00    -0.201 C  
BRANCH  13  14
HETATM   14  O   UNL     1     -11.228   6.155  69.374  1.00  0.00    -0.391 OA 
BRANCH  14  15
HETATM   15  C   UNL     1     -10.247   5.339  69.856  1.00  0.00    -0.294 C  
HETATM   16  C   UNL     1     -10.335   5.201  71.352  1.00  0.00    -0.273 C  
HETATM   17  O   UNL     1      -9.430   4.738  69.172  1.00  0.00    -0.124 OA 
ENDBRANCH  14  15
ENDBRANCH  13  14
ENDBRANCH   4  13
BRANCH   8  18
HETATM   18  N   UNL     1     -10.704  12.865  66.627  1.00  0.00    -0.263 N  
HETATM   19  C   UNL     1     -11.479  13.982  66.930  1.00  0.00    -0.356 C  
HETATM   20  H   UNL     1     -10.965  12.429  65.743  1.00  0.00     0.000 HD 
HETATM   21  O   UNL     1     -12.519  14.177  66.256  1.00  0.00    -0.466 OA 
BRANCH  19  22
HETATM   22  C   UNL     1     -11.103  15.063  67.942  1.00  0.00    -0.307 C  
BRANCH  22  23
HETATM   23  C   UNL     1     -10.509  16.350  67.527  1.00  0.00    -0.304 A  
HETATM   24  N   UNL     1     -10.579  17.524  68.287  1.00  0.00    -0.374 NA 
HETATM   25  H2  UNL     1      -8.725  20.189  68.120  1.00  0.00     0.000 HD 
HETATM   26  N   UNL     1      -9.469  19.582  68.465  1.00  0.00    -0.373 NA 
HETATM   27  C   UNL     1      -9.520  16.369  66.555  1.00  0.00    -0.272 A  
HETATM   28  S   UNL     1      -8.687  17.859  66.582  1.00  0.00    -0.260 SA 
HETATM   29  H1  UNL     1     -10.054  19.891  69.241  1.00  0.00     0.000 HD 
HETATM   30  C   UNL     1      -9.672  18.378  67.889  1.00  0.00    -0.308 A  
ENDBRANCH  22  23
BRANCH  22  31
HETATM   31  N   UNL     1     -10.977  14.927  69.227  1.00  0.00    -0.259 NA 
HETATM   32  H   UNL     1     -10.411  15.617  69.720  1.00  0.00     0.000 HD 
BRANCH  31  33
HETATM   33  O   UNL     1     -11.556  13.910  69.985  1.00  0.00    -0.262 OA 
HETATM   34  C   UNL     1     -12.426  14.233  71.046  1.00  0.00    -0.362 C  
ENDBRANCH  31  33
ENDBRANCH  22  31
ENDBRANCH  19  22
ENDBRANCH   8  18
TORSDOF 8
ENDMDL
MODEL      131
REMARK 921   NORMALIZED FREE ENERGY PREDICTED BY IDOCK:   -4.96 KCAL/MOL
REMARK 922        TOTAL FREE ENERGY PREDICTED BY IDOCK:   -8.43 KCAL/MOL
REMARK 923 INTER-LIGAND FREE ENERGY PREDICTED BY IDOCK:   -7.27 KCAL/MOL
REMARK 924 INTRA-LIGAND FREE ENERGY PREDICTED BY IDOCK:   -1.16 KCAL/MOL
REMARK 927      BINDING AFFINITY PREDICTED BY RF-SCORE:    0.00 PKD
ROOT
HETATM    1  C   UNL     1     -11.517  11.192  68.908  1.00  0.00    -0.295 C  
HETATM    2  S   UNL     1     -12.458  10.168  70.007  1.00  0.00     0.154 SA 
HETATM    3  C   UNL     1     -13.231  11.362  71.140  1.00  0.00     0.042 C  
HETATM    4  C   UNL     1     -12.978  12.827  70.921  1.00  0.00    -0.080 C  
HETATM    5  C   UNL     1     -10.152  12.709  68.600  1.00  0.00    -0.122 C  
HETATM    6  CA  UNL     1     -12.121  13.354  70.007  1.00  0.00    -0.334 C  
HETATM    7  N   UNL     1     -11.312  12.565  69.271  1.00  0.00    -0.259 N  
HETATM    8  CA  UNL     1      -9.959  11.160  68.606  1.00  0.00    -0.205 C  
HETATM    9  C   UNL     1     -12.061  14.839  69.834  1.00  0.00    -0.332 C  
HETATM   10  O   UNL     1      -9.429  13.660  68.411  1.00  0.00    -0.208 OA 
HETATM   11  O   UNL     1     -10.882  15.398  69.544  1.00  0.00    -0.233 OA 
HETATM   12  OXT UNL     1     -13.070  15.531  69.882  1.00  0.00     0.001 OA 
ENDROOT
BRANCH   4  13
HETATM   13  C   UNL     1     -13.689  13.684  71.970  1.00  0.00    -0.493 C  
BRANCH  13  14
HETATM   14  O   UNL     1     -12.847  13.952  73.103  1.00  0.00    -0.339 OA 
BRANCH  14  15
HETATM   15  C   UNL     1     -12.888  15.210  73.630  1.00  0.00    -0.483 C  
HETATM   16  C   UNL     1     -13.952  16.045  72.972  1.00  0.00    -0.265 C  
HETATM   17  O   UNL     1     -12.200  15.608  74.560  1.00  0.00    -0.626 OA 
ENDBRANCH  14  15
ENDBRANCH  13  14
ENDBRANCH   4  13
BRANCH   8  18
HETATM   18  N   UNL     1      -8.754  10.747  69.444  1.00  0.00    -0.383 N  
HETATM   19  C   UNL     1      -8.459   9.648  70.248  1.00  0.00    -0.188 C  
HETATM   20  H   UNL     1      -7.994  11.426  69.407  1.00  0.00     0.000 HD 
HETATM   21  O   UNL     1      -7.458   9.721  71.001  1.00  0.00    -0.318 OA 
BRANCH  19  22
HETATM   22  C   UNL     1      -9.189   8.306  70.203  1.00  0.00    -0.155 C  
BRANCH  22  23
HETATM   23  C   UNL     1      -9.224   7.476  68.983  1.00  0.00    -0.146 A  
HETATM   24  N   UNL     1     -10.387   6.885  68.472  1.00  0.00    -0.177 NA 
HETATM   25  H2  UNL     1     -10.978   5.779  65.474  1.00  0.00     0.000 HD 
HETATM   26  N   UNL     1     -11.175   5.996  66.451  1.00  0.00    -0.722 NA 
HETATM   27  C   UNL     1      -8.187   7.557  68.066  1.00  0.00    -0.124 A  
HETATM   28  S   UNL     1      -8.660   6.885  66.570  1.00  0.00    -0.135 SA 
HETATM   29  H1  UNL     1     -12.097   5.794  66.838  1.00  0.00     0.000 HD 
HETATM   30  C   UNL     1     -10.213   6.546  67.222  1.00  0.00    -0.188 A  
ENDBRANCH  22  23
BRANCH  22  31
HETATM   31  N   UNL     1     -10.063   7.859  71.052  1.00  0.00    -0.192 NA 
HETATM   32  H   UNL     1     -10.848   8.467  71.285  1.00  0.00     0.000 HD 
BRANCH  31  33
HETATM   33  O   UNL     1     -10.013   6.610  71.671  1.00  0.00    -0.175 OA 
HETATM   34  C   UNL     1     -11.199   6.011  72.142  1.00  0.00    -0.291 C  
ENDBRANCH  31  33
ENDBRANCH  22  31
ENDBRANCH  19  22
ENDBRANCH   8  18
TORSDOF 8
ENDMDL
MODEL      132
REMARK 921   NORMALIZED FREE ENERGY PREDICTED BY IDOCK:   -4.95 KCAL/MOL
REMARK 922        TOTAL FREE ENERGY PREDICTED BY IDOCK:   -8.43 KCAL/MOL
REMARK 923 INTER-LIGAND FREE ENERGY PREDICTED BY IDOCK:   -6.76 KCAL/MOL
REMARK 924 INTRA-LIGAND FREE ENERGY PREDICTED BY IDOCK:   -1.67 KCAL/MOL
REMARK 927      BINDING AFFINITY PREDICTED BY RF-SCORE:    0.00 PKD
ROOT
HETATM    1  C   UNL     1      -8.747   7.025  67.844  1.00  0.00    -0.125 C  
HETATM    2  S   UNL     1     -10.495   7.295  67.953  1.00  0.00    -0.202 SA 
HETATM    3  C   UNL     1     -10.745   8.839  67.026  1.00  0.00    -0.116 C  
HETATM    4  C   UNL     1      -9.553   9.491  66.384  1.00  0.00    -0.273 C  
HETATM    5  C   UNL     1      -6.812   7.717  68.035  1.00  0.00    -0.067 C  
HETATM    6  CA  UNL     1      -8.262   9.092  66.525  1.00  0.00    -0.111 C  
HETATM    7  N   UNL     1      -7.924   8.105  67.379  1.00  0.00    -0.116 N  
HETATM    8  CA  UNL     1      -7.687   6.875  69.015  1.00  0.00    -0.110 C  
HETATM    9  C   UNL     1      -7.195   9.780  65.732  1.00  0.00    -0.104 C  
HETATM   10  O   UNL     1      -5.680   8.144  68.049  1.00  0.00    -0.033 OA 
HETATM   11  O   UNL     1      -5.992   9.939  66.291  1.00  0.00    -0.060 OA 
HETATM   12  OXT UNL     1      -7.382  10.129  64.574  1.00  0.00    -0.138 OA 
ENDROOT
BRANCH   4  13
HETATM   13  C   UNL     1      -9.940  10.783  65.661  1.00  0.00    -0.260 C  
BRANCH  13  14
HETATM   14  O   UNL     1     -10.816  11.600  66.454  1.00  0.00    -0.266 OA 
BRANCH  14  15
HETATM   15  C   UNL     1     -10.875  12.930  66.155  1.00  0.00    -0.279 C  
HETATM   16  C   UNL     1     -12.158  13.545  66.643  1.00  0.00    -0.447 C  
HETATM   17  O   UNL     1      -9.983  13.571  65.615  1.00  0.00    -0.284 OA 
ENDBRANCH  14  15
ENDBRANCH  13  14
ENDBRANCH   4  13
BRANCH   8  18
HETATM   18  N   UNL     1      -7.632   7.429  70.435  1.00  0.00    -0.089 N  
HETATM   19  C   UNL     1      -8.005   8.636  71.023  1.00  0.00    -0.132 C  
HETATM   20  H   UNL     1      -7.235   6.769  71.103  1.00  0.00     0.000 HD 
HETATM   21  O   UNL     1      -7.604   8.871  72.188  1.00  0.00    -0.335 OA 
BRANCH  19  22
HETATM   22  C   UNL     1      -8.965   9.653  70.407  1.00  0.00    -0.187 C  
BRANCH  22  23
HETATM   23  C   UNL     1     -10.421   9.596  70.643  1.00  0.00    -0.312 A  
HETATM   24  N   UNL     1     -11.014   8.913  71.712  1.00  0.00    -0.339 NA 
HETATM   25  H2  UNL     1     -13.979   9.285  72.991  1.00  0.00     0.000 HD 
HETATM   26  N   UNL     1     -13.043   8.893  72.887  1.00  0.00    -0.749 NA 
HETATM   27  C   UNL     1     -11.251  10.533  70.046  1.00  0.00    -0.315 A  
HETATM   28  S   UNL     1     -12.776  10.552  70.813  1.00  0.00    -0.368 SA 
HETATM   29  H1  UNL     1     -12.724   8.170  73.532  1.00  0.00     0.000 HD 
HETATM   30  C   UNL     1     -12.238   9.335  71.898  1.00  0.00    -0.378 A  
ENDBRANCH  22  23
BRANCH  22  31
HETATM   31  N   UNL     1      -8.720  10.474  69.432  1.00  0.00    -0.328 NA 
HETATM   32  H   UNL     1      -9.458  10.622  68.745  1.00  0.00     0.000 HD 
BRANCH  31  33
HETATM   33  O   UNL     1      -7.525  11.169  69.251  1.00  0.00    -0.123 OA 
HETATM   34  C   UNL     1      -7.510  12.355  68.489  1.00  0.00    -0.112 C  
ENDBRANCH  31  33
ENDBRANCH  22  31
ENDBRANCH  19  22
ENDBRANCH   8  18
TORSDOF 8
ENDMDL
MODEL      133
REMARK 921   NORMALIZED FREE ENERGY PREDICTED BY IDOCK:   -4.95 KCAL/MOL
REMARK 922        TOTAL FREE ENERGY PREDICTED BY IDOCK:   -8.41 KCAL/MOL
REMARK 923 INTER-LIGAND FREE ENERGY PREDICTED BY IDOCK:   -7.22 KCAL/MOL
REMARK 924 INTRA-LIGAND FREE ENERGY PREDICTED BY IDOCK:   -1.20 KCAL/MOL
REMARK 927      BINDING AFFINITY PREDICTED BY RF-SCORE:    0.00 PKD
ROOT
HETATM    1  C   UNL     1      -9.320   9.865  67.888  1.00  0.00    -0.137 C  
HETATM    2  S   UNL     1     -10.735  10.343  66.933  1.00  0.00    -0.163 SA 
HETATM    3  C   UNL     1     -10.427  12.098  66.570  1.00  0.00    -0.225 C  
HETATM    4  C   UNL     1      -9.152  12.720  67.064  1.00  0.00    -0.220 C  
HETATM    5  C   UNL     1      -8.025  10.195  69.460  1.00  0.00    -0.165 C  
HETATM    6  CA  UNL     1      -8.238  12.117  67.868  1.00  0.00    -0.155 C  
HETATM    7  N   UNL     1      -8.468  10.900  68.400  1.00  0.00    -0.134 N  
HETATM    8  CA  UNL     1      -9.267   9.256  69.352  1.00  0.00    -0.159 C  
HETATM    9  C   UNL     1      -6.961  12.832  68.186  1.00  0.00    -0.096 C  
HETATM   10  O   UNL     1      -7.205  10.435  70.316  1.00  0.00    -0.215 OA 
HETATM   11  O   UNL     1      -6.422  12.661  69.396  1.00  0.00    -0.111 OA 
HETATM   12  OXT UNL     1      -6.376  13.500  67.344  1.00  0.00    -0.289 OA 
ENDROOT
BRANCH   4  13
HETATM   13  C   UNL     1      -9.064  14.200  66.685  1.00  0.00    -0.216 C  
BRANCH  13  14
HETATM   14  O   UNL     1      -9.841  15.027  67.566  1.00  0.00    -0.216 OA 
BRANCH  14  15
HETATM   15  C   UNL     1     -10.454  16.118  67.023  1.00  0.00    -0.306 C  
HETATM   16  C   UNL     1     -10.782  15.897  65.572  1.00  0.00    -0.386 C  
HETATM   17  O   UNL     1     -10.763  17.131  67.636  1.00  0.00    -0.352 OA 
ENDBRANCH  14  15
ENDBRANCH  13  14
ENDBRANCH   4  13
BRANCH   8  18
HETATM   18  N   UNL     1     -10.184   9.396  70.562  1.00  0.00    -0.251 N  
HETATM   19  C   UNL     1     -11.220   8.629  71.091  1.00  0.00    -0.272 C  
HETATM   20  H   UNL     1      -9.997  10.239  71.105  1.00  0.00     0.000 HD 
HETATM   21  O   UNL     1     -11.942   9.147  71.977  1.00  0.00    -0.367 OA 
BRANCH  19  22
HETATM   22  C   UNL     1     -11.479   7.159  70.765  1.00  0.00    -0.305 C  
BRANCH  22  23
HETATM   23  C   UNL     1     -10.974   6.068  71.622  1.00  0.00    -0.272 A  
HETATM   24  N   UNL     1      -9.621   5.725  71.734  1.00  0.00    -0.155 NA 
HETATM   25  H2  UNL     1      -8.120   4.044  74.076  1.00  0.00     0.000 HD 
HETATM   26  N   UNL     1      -8.207   4.574  73.209  1.00  0.00    -0.099 NA 
HETATM   27  C   UNL     1     -11.764   5.581  72.653  1.00  0.00    -0.175 A  
HETATM   28  S   UNL     1     -10.818   4.685  73.755  1.00  0.00    -0.299 SA 
HETATM   29  H1  UNL     1      -7.377   4.768  72.649  1.00  0.00     0.000 HD 
HETATM   30  C   UNL     1      -9.421   5.012  72.812  1.00  0.00    -0.139 A  
ENDBRANCH  22  23
BRANCH  22  31
HETATM   31  N   UNL     1     -11.888   6.665  69.636  1.00  0.00    -0.646 NA 
HETATM   32  H   UNL     1     -12.878   6.758  69.414  1.00  0.00     0.000 HD 
BRANCH  31  33
HETATM   33  O   UNL     1     -11.077   6.018  68.705  1.00  0.00    -0.315 OA 
HETATM   34  C   UNL     1     -10.992   6.510  67.387  1.00  0.00    -0.378 C  
ENDBRANCH  31  33
ENDBRANCH  22  31
ENDBRANCH  19  22
ENDBRANCH   8  18
TORSDOF 8
ENDMDL
MODEL      134
REMARK 921   NORMALIZED FREE ENERGY PREDICTED BY IDOCK:   -4.94 KCAL/MOL
REMARK 922        TOTAL FREE ENERGY PREDICTED BY IDOCK:   -8.40 KCAL/MOL
REMARK 923 INTER-LIGAND FREE ENERGY PREDICTED BY IDOCK:   -6.57 KCAL/MOL
REMARK 924 INTRA-LIGAND FREE ENERGY PREDICTED BY IDOCK:   -1.83 KCAL/MOL
REMARK 927      BINDING AFFINITY PREDICTED BY RF-SCORE:    0.00 PKD
ROOT
HETATM    1  C   UNL     1     -11.870   8.653  71.094  1.00  0.00    -0.287 C  
HETATM    2  S   UNL     1     -11.423  10.322  70.695  1.00  0.00    -0.356 SA 
HETATM    3  C   UNL     1     -10.607  10.167  69.078  1.00  0.00    -0.223 C  
HETATM    4  C   UNL     1     -10.518   8.806  68.447  1.00  0.00    -0.220 C  
HETATM    5  C   UNL     1     -11.369   6.661  71.286  1.00  0.00    -0.299 C  
HETATM    6  CA  UNL     1     -10.896   7.637  69.029  1.00  0.00    -0.040 C  
HETATM    7  N   UNL     1     -11.293   7.594  70.316  1.00  0.00    -0.230 N  
HETATM    8  CA  UNL     1     -11.464   7.789  72.361  1.00  0.00    -0.363 C  
HETATM    9  C   UNL     1     -10.846   6.374  68.228  1.00  0.00    -0.309 C  
HETATM   10  O   UNL     1     -11.109   5.479  71.306  1.00  0.00    -0.186 OA 
HETATM   11  O   UNL     1     -10.525   5.238  68.853  1.00  0.00    -0.193 OA 
HETATM   12  OXT UNL     1     -11.162   6.353  67.045  1.00  0.00    -0.373 OA 
ENDROOT
BRANCH   4  13
HETATM   13  C   UNL     1      -9.789   8.856  67.102  1.00  0.00    -0.207 C  
BRANCH  13  14
HETATM   14  O   UNL     1     -10.378   9.814  66.208  1.00  0.00    -0.235 OA 
BRANCH  14  15
HETATM   15  C   UNL     1      -9.758  10.018  65.010  1.00  0.00    -0.317 C  
HETATM   16  C   UNL     1     -10.534  10.974  64.147  1.00  0.00    -0.434 C  
HETATM   17  O   UNL     1      -8.678   9.542  64.685  1.00  0.00    -0.180 OA 
ENDBRANCH  14  15
ENDBRANCH  13  14
ENDBRANCH   4  13
BRANCH   8  18
HETATM   18  N   UNL     1     -10.240   7.803  73.271  1.00  0.00    -0.328 N  
HETATM   19  C   UNL     1      -8.936   7.325  73.154  1.00  0.00    -0.144 C  
HETATM   20  H   UNL     1     -10.414   8.265  74.163  1.00  0.00     0.000 HD 
HETATM   21  O   UNL     1      -8.229   7.286  74.190  1.00  0.00    -0.132 OA 
BRANCH  19  22
HETATM   22  C   UNL     1      -8.252   6.952  71.840  1.00  0.00    -0.104 C  
BRANCH  22  23
HETATM   23  C   UNL     1      -7.853   7.972  70.849  1.00  0.00    -0.089 A  
HETATM   24  N   UNL     1      -7.728   9.336  71.139  1.00  0.00    -0.327 NA 
HETATM   25  H2  UNL     1      -6.098  11.636  69.521  1.00  0.00     0.000 HD 
HETATM   26  N   UNL     1      -6.684  11.241  70.257  1.00  0.00    -0.490 NA 
HETATM   27  C   UNL     1      -7.204   7.584  69.687  1.00  0.00    -0.077 A  
HETATM   28  S   UNL     1      -6.450   8.926  68.948  1.00  0.00    -0.049 SA 
HETATM   29  H1  UNL     1      -7.017  11.839  71.013  1.00  0.00     0.000 HD 
HETATM   30  C   UNL     1      -7.011   9.932  70.222  1.00  0.00    -0.146 A  
ENDBRANCH  22  23
BRANCH  22  31
HETATM   31  N   UNL     1      -8.185   5.776  71.295  1.00  0.00    -0.121 NA 
HETATM   32  H   UNL     1      -8.445   5.697  70.312  1.00  0.00     0.000 HD 
BRANCH  31  33
HETATM   33  O   UNL     1      -7.785   4.611  71.950  1.00  0.00    -0.091 OA 
HETATM   34  C   UNL     1      -6.430   4.223  71.927  1.00  0.00    -0.022 C  
ENDBRANCH  31  33
ENDBRANCH  22  31
ENDBRANCH  19  22
ENDBRANCH   8  18
TORSDOF 8
ENDMDL
MODEL      135
REMARK 921   NORMALIZED FREE ENERGY PREDICTED BY IDOCK:   -4.93 KCAL/MOL
REMARK 922        TOTAL FREE ENERGY PREDICTED BY IDOCK:   -8.39 KCAL/MOL
REMARK 923 INTER-LIGAND FREE ENERGY PREDICTED BY IDOCK:   -6.90 KCAL/MOL
REMARK 924 INTRA-LIGAND FREE ENERGY PREDICTED BY IDOCK:   -1.49 KCAL/MOL
REMARK 927      BINDING AFFINITY PREDICTED BY RF-SCORE:    0.00 PKD
ROOT
HETATM    1  C   UNL     1     -12.362  10.384  70.635  1.00  0.00    -0.346 C  
HETATM    2  S   UNL     1     -12.815  11.758  71.659  1.00  0.00    -0.241 SA 
HETATM    3  C   UNL     1     -12.595  13.193  70.563  1.00  0.00    -0.165 C  
HETATM    4  C   UNL     1     -12.158  12.953  69.146  1.00  0.00    -0.216 C  
HETATM    5  C   UNL     1     -11.039   9.474  69.338  1.00  0.00    -0.110 C  
HETATM    6  CA  UNL     1     -11.796  11.752  68.622  1.00  0.00    -0.310 C  
HETATM    7  N   UNL     1     -11.688  10.655  69.397  1.00  0.00    -0.281 N  
HETATM    8  CA  UNL     1     -11.237   9.291  70.875  1.00  0.00    -0.306 C  
HETATM    9  C   UNL     1     -11.489  11.657  67.160  1.00  0.00    -0.271 C  
HETATM   10  O   UNL     1     -10.319   8.979  68.502  1.00  0.00    -0.196 OA 
HETATM   11  O   UNL     1     -10.535  10.810  66.765  1.00  0.00    -0.234 OA 
HETATM   12  OXT UNL     1     -12.139  12.277  66.328  1.00  0.00    -0.626 OA 
ENDROOT
BRANCH   4  13
HETATM   13  C   UNL     1     -12.008  14.265  68.373  1.00  0.00    -0.309 C  
BRANCH  13  14
HETATM   14  O   UNL     1     -11.142  15.190  69.050  1.00  0.00    -0.231 OA 
BRANCH  14  15
HETATM   15  C   UNL     1     -10.514  16.132  68.288  1.00  0.00    -0.276 C  
HETATM   16  C   UNL     1     -10.294  15.642  66.883  1.00  0.00    -0.293 C  
HETATM   17  O   UNL     1     -10.216  17.258  68.663  1.00  0.00    -0.309 OA 
ENDBRANCH  14  15
ENDBRANCH  13  14
ENDBRANCH   4  13
BRANCH   8  18
HETATM   18  N   UNL     1      -9.907   9.325  71.621  1.00  0.00    -0.220 N  
HETATM   19  C   UNL     1      -8.954   8.365  71.953  1.00  0.00    -0.214 C  
HETATM   20  H   UNL     1      -9.660  10.259  71.948  1.00  0.00     0.000 HD 
HETATM   21  O   UNL     1      -8.072   8.677  72.789  1.00  0.00    -0.380 OA 
BRANCH  19  22
HETATM   22  C   UNL     1      -8.821   6.994  71.292  1.00  0.00    -0.133 C  
BRANCH  22  23
HETATM   23  C   UNL     1      -8.089   6.804  70.024  1.00  0.00    -0.125 A  
HETATM   24  N   UNL     1      -8.524   5.968  68.988  1.00  0.00    -0.116 NA 
HETATM   25  H2  UNL     1      -7.674   5.980  65.851  1.00  0.00     0.000 HD 
HETATM   26  N   UNL     1      -8.165   5.671  66.690  1.00  0.00    -0.105 NA 
HETATM   27  C   UNL     1      -7.141   7.737  69.632  1.00  0.00    -0.063 A  
HETATM   28  S   UNL     1      -6.782   7.561  67.972  1.00  0.00    -0.060 SA 
HETATM   29  H1  UNL     1      -8.839   4.908  66.629  1.00  0.00     0.000 HD 
HETATM   30  C   UNL     1      -7.917   6.276  67.871  1.00  0.00    -0.111 A  
ENDBRANCH  22  23
BRANCH  22  31
HETATM   31  N   UNL     1      -9.513   5.927  71.552  1.00  0.00    -0.152 NA 
HETATM   32  H   UNL     1      -9.000   5.085  71.812  1.00  0.00     0.000 HD 
BRANCH  31  33
HETATM   33  O   UNL     1     -10.904   5.842  71.503  1.00  0.00    -0.251 OA 
HETATM   34  C   UNL     1     -11.637   5.635  72.688  1.00  0.00    -0.251 C  
ENDBRANCH  31  33
ENDBRANCH  22  31
ENDBRANCH  19  22
ENDBRANCH   8  18
TORSDOF 8
ENDMDL
MODEL      136
REMARK 921   NORMALIZED FREE ENERGY PREDICTED BY IDOCK:   -4.93 KCAL/MOL
REMARK 922        TOTAL FREE ENERGY PREDICTED BY IDOCK:   -8.38 KCAL/MOL
REMARK 923 INTER-LIGAND FREE ENERGY PREDICTED BY IDOCK:   -7.10 KCAL/MOL
REMARK 924 INTRA-LIGAND FREE ENERGY PREDICTED BY IDOCK:   -1.29 KCAL/MOL
REMARK 927      BINDING AFFINITY PREDICTED BY RF-SCORE:    0.00 PKD
ROOT
HETATM    1  C   UNL     1      -9.878  10.518  69.079  1.00  0.00    -0.212 C  
HETATM    2  S   UNL     1     -10.771   9.143  69.751  1.00  0.00    -0.216 SA 
HETATM    3  C   UNL     1      -9.756   7.709  69.284  1.00  0.00    -0.164 C  
HETATM    4  C   UNL     1      -8.476   7.949  68.535  1.00  0.00    -0.128 C  
HETATM    5  C   UNL     1      -8.917  11.430  67.497  1.00  0.00    -0.150 C  
HETATM    6  CA  UNL     1      -8.048   9.151  68.064  1.00  0.00    -0.105 C  
HETATM    7  N   UNL     1      -8.827  10.248  68.139  1.00  0.00    -0.122 N  
HETATM    8  CA  UNL     1     -10.368  11.613  68.041  1.00  0.00    -0.192 C  
HETATM    9  C   UNL     1      -6.695   9.247  67.432  1.00  0.00    -0.069 C  
HETATM   10  O   UNL     1      -8.268  11.927  66.605  1.00  0.00    -0.163 OA 
HETATM   11  O   UNL     1      -6.529  10.096  66.414  1.00  0.00    -0.073 OA 
HETATM   12  OXT UNL     1      -5.737   8.625  67.873  1.00  0.00    -0.038 OA 
ENDROOT
BRANCH   4  13
HETATM   13  C   UNL     1      -7.759   6.637  68.209  1.00  0.00    -0.105 C  
BRANCH  13  14
HETATM   14  O   UNL     1      -8.676   5.536  68.105  1.00  0.00    -0.104 OA 
BRANCH  14  15
HETATM   15  C   UNL     1      -8.835   4.968  66.875  1.00  0.00    -0.106 C  
HETATM   16  C   UNL     1     -10.290   4.828  66.521  1.00  0.00    -0.284 C  
HETATM   17  O   UNL     1      -7.925   4.662  66.116  1.00  0.00    -0.101 OA 
ENDBRANCH  14  15
ENDBRANCH  13  14
ENDBRANCH   4  13
BRANCH   8  18
HETATM   18  N   UNL     1     -11.398  11.582  66.917  1.00  0.00    -0.298 N  
HETATM   19  C   UNL     1     -11.733  12.451  65.880  1.00  0.00    -0.419 C  
HETATM   20  H   UNL     1     -11.969  10.737  66.926  1.00  0.00     0.000 HD 
HETATM   21  O   UNL     1     -12.802  12.240  65.258  1.00  0.00    -0.464 OA 
BRANCH  19  22
HETATM   22  C   UNL     1     -10.843  13.577  65.357  1.00  0.00    -0.294 C  
BRANCH  22  23
HETATM   23  C   UNL     1     -10.953  14.960  65.864  1.00  0.00    -0.338 A  
HETATM   24  N   UNL     1     -10.926  15.299  67.222  1.00  0.00    -0.323 NA 
HETATM   25  H2  UNL     1     -10.283  18.168  68.607  1.00  0.00     0.000 HD 
HETATM   26  N   UNL     1     -10.520  17.177  68.566  1.00  0.00    -0.359 NA 
HETATM   27  C   UNL     1     -10.696  16.025  65.014  1.00  0.00    -0.378 A  
HETATM   28  S   UNL     1     -10.434  17.453  65.912  1.00  0.00    -0.149 SA 
HETATM   29  H1  UNL     1     -10.652  16.653  69.431  1.00  0.00     0.000 HD 
HETATM   30  C   UNL     1     -10.656  16.570  67.368  1.00  0.00    -0.300 A  
ENDBRANCH  22  23
BRANCH  22  31
HETATM   31  N   UNL     1     -10.122  13.572  64.277  1.00  0.00    -0.771 NA 
HETATM   32  H   UNL     1      -9.410  14.295  64.184  1.00  0.00     0.000 HD 
BRANCH  31  33
HETATM   33  O   UNL     1     -10.247  12.653  63.236  1.00  0.00    -0.314 OA 
HETATM   34  C   UNL     1      -9.585  11.411  63.312  1.00  0.00    -0.357 C  
ENDBRANCH  31  33
ENDBRANCH  22  31
ENDBRANCH  19  22
ENDBRANCH   8  18
TORSDOF 8
ENDMDL
MODEL      137
REMARK 921   NORMALIZED FREE ENERGY PREDICTED BY IDOCK:   -4.91 KCAL/MOL
REMARK 922        TOTAL FREE ENERGY PREDICTED BY IDOCK:   -8.37 KCAL/MOL
REMARK 923 INTER-LIGAND FREE ENERGY PREDICTED BY IDOCK:   -7.80 KCAL/MOL
REMARK 924 INTRA-LIGAND FREE ENERGY PREDICTED BY IDOCK:   -0.56 KCAL/MOL
REMARK 927      BINDING AFFINITY PREDICTED BY RF-SCORE:    0.00 PKD
ROOT
HETATM    1  C   UNL     1     -10.640   8.649  68.457  1.00  0.00    -0.119 C  
HETATM    2  S   UNL     1      -9.314   7.654  67.828  1.00  0.00    -0.143 SA 
HETATM    3  C   UNL     1      -8.876   6.593  69.238  1.00  0.00    -0.133 C  
HETATM    4  C   UNL     1      -9.666   6.726  70.509  1.00  0.00    -0.184 C  
HETATM    5  C   UNL     1     -11.418   9.883  69.916  1.00  0.00    -0.179 C  
HETATM    6  CA  UNL     1     -10.623   7.660  70.752  1.00  0.00    -0.221 C  
HETATM    7  N   UNL     1     -10.872   8.652  69.873  1.00  0.00    -0.231 N  
HETATM    8  CA  UNL     1     -10.740  10.229  68.554  1.00  0.00    -0.227 C  
HETATM    9  C   UNL     1     -11.399   7.594  72.030  1.00  0.00    -0.278 C  
HETATM   10  O   UNL     1     -11.917  10.525  70.812  1.00  0.00    -0.311 OA 
HETATM   11  O   UNL     1     -11.776   8.740  72.604  1.00  0.00    -0.267 OA 
HETATM   12  OXT UNL     1     -11.751   6.524  72.511  1.00  0.00    -0.250 OA 
ENDROOT
BRANCH   4  13
HETATM   13  C   UNL     1      -9.154   5.774  71.592  1.00  0.00    -0.143 C  
BRANCH  13  14
HETATM   14  O   UNL     1      -7.964   6.270  72.225  1.00  0.00    -0.103 OA 
BRANCH  14  15
HETATM   15  C   UNL     1      -7.142   5.357  72.818  1.00  0.00    -0.088 C  
HETATM   16  C   UNL     1      -5.789   5.330  72.161  1.00  0.00    -0.021 C  
HETATM   17  O   UNL     1      -7.428   4.681  73.798  1.00  0.00    -0.083 OA 
ENDBRANCH  14  15
ENDBRANCH  13  14
ENDBRANCH   4  13
BRANCH   8  18
HETATM   18  N   UNL     1      -9.688  11.322  68.712  1.00  0.00    -0.294 N  
HETATM   19  C   UNL     1      -9.104  12.243  67.844  1.00  0.00    -0.190 C  
HETATM   20  H   UNL     1      -9.333  11.395  69.665  1.00  0.00     0.000 HD 
HETATM   21  O   UNL     1      -8.082  12.856  68.238  1.00  0.00    -0.143 OA 
BRANCH  19  22
HETATM   22  C   UNL     1      -9.675  12.657  66.489  1.00  0.00    -0.256 C  
BRANCH  22  23
HETATM   23  C   UNL     1      -9.840  14.074  66.110  1.00  0.00    -0.303 A  
HETATM   24  N   UNL     1     -10.450  14.501  64.924  1.00  0.00    -0.431 NA 
HETATM   25  H2  UNL     1     -11.720  17.403  64.199  1.00  0.00     0.000 HD 
HETATM   26  N   UNL     1     -11.452  16.431  64.048  1.00  0.00    -1.573 NA 
HETATM   27  C   UNL     1      -9.754  15.060  67.082  1.00  0.00    -0.226 A  
HETATM   28  S   UNL     1     -10.421  16.523  66.509  1.00  0.00    -0.230 SA 
HETATM   29  H1  UNL     1     -11.678  15.976  63.163  1.00  0.00     0.000 HD 
HETATM   30  C   UNL     1     -10.801  15.757  65.019  1.00  0.00    -0.443 A  
ENDBRANCH  22  23
BRANCH  22  31
HETATM   31  N   UNL     1     -10.324  11.910  65.649  1.00  0.00    -0.238 NA 
HETATM   32  H   UNL     1     -11.319  11.765  65.819  1.00  0.00     0.000 HD 
BRANCH  31  33
HETATM   33  O   UNL     1      -9.766  11.290  64.532  1.00  0.00    -0.237 OA 
HETATM   34  C   UNL     1      -9.239   9.987  64.641  1.00  0.00    -0.258 C  
ENDBRANCH  31  33
ENDBRANCH  22  31
ENDBRANCH  19  22
ENDBRANCH   8  18
TORSDOF 8
ENDMDL
MODEL      138
REMARK 921   NORMALIZED FREE ENERGY PREDICTED BY IDOCK:   -4.90 KCAL/MOL
REMARK 922        TOTAL FREE ENERGY PREDICTED BY IDOCK:   -8.35 KCAL/MOL
REMARK 923 INTER-LIGAND FREE ENERGY PREDICTED BY IDOCK:   -7.07 KCAL/MOL
REMARK 924 INTRA-LIGAND FREE ENERGY PREDICTED BY IDOCK:   -1.28 KCAL/MOL
REMARK 927      BINDING AFFINITY PREDICTED BY RF-SCORE:    0.00 PKD
ROOT
HETATM    1  C   UNL     1     -10.353  15.200  67.598  1.00  0.00    -0.248 C  
HETATM    2  S   UNL     1      -9.325  14.420  66.382  1.00  0.00    -0.219 SA 
HETATM    3  C   UNL     1      -9.471  12.651  66.776  1.00  0.00    -0.237 C  
HETATM    4  C   UNL     1     -10.370  12.239  67.908  1.00  0.00    -0.216 C  
HETATM    5  C   UNL     1     -10.924  15.454  69.565  1.00  0.00    -0.275 C  
HETATM    6  CA  UNL     1     -11.011  13.085  68.757  1.00  0.00    -0.258 C  
HETATM    7  N   UNL     1     -10.792  14.415  68.717  1.00  0.00    -0.243 N  
HETATM    8  CA  UNL     1      -9.964  16.302  68.672  1.00  0.00    -0.233 C  
HETATM    9  C   UNL     1     -11.960  12.523  69.768  1.00  0.00    -0.289 C  
HETATM   10  O   UNL     1     -11.330  15.535  70.701  1.00  0.00    -0.283 OA 
HETATM   11  O   UNL     1     -12.043  13.119  70.961  1.00  0.00    -0.263 OA 
HETATM   12  OXT UNL     1     -12.702  11.587  69.499  1.00  0.00     0.003 OA 
ENDROOT
BRANCH   4  13
HETATM   13  C   UNL     1     -10.362  10.723  68.110  1.00  0.00    -0.171 C  
BRANCH  13  14
HETATM   14  O   UNL     1     -10.812  10.023  66.938  1.00  0.00    -0.186 OA 
BRANCH  14  15
HETATM   15  C   UNL     1     -10.136   8.891  66.587  1.00  0.00    -0.287 C  
HETATM   16  C   UNL     1     -10.520   7.731  67.465  1.00  0.00    -0.338 C  
HETATM   17  O   UNL     1      -9.362   8.794  65.644  1.00  0.00    -0.214 OA 
ENDBRANCH  14  15
ENDBRANCH  13  14
ENDBRANCH   4  13
BRANCH   8  18
HETATM   18  N   UNL     1      -8.661  16.623  69.396  1.00  0.00     0.003 N  
HETATM   19  C   UNL     1      -7.323  16.680  69.010  1.00  0.00    -0.228 C  
HETATM   20  H   UNL     1      -8.799  16.847  70.381  1.00  0.00     0.000 HD 
HETATM   21  O   UNL     1      -6.453  16.745  69.912  1.00  0.00    -0.190 OA 
BRANCH  19  22
HETATM   22  C   UNL     1      -6.829  16.790  67.569  1.00  0.00    -0.145 C  
BRANCH  22  23
HETATM   23  C   UNL     1      -7.232  17.904  66.687  1.00  0.00    -0.219 A  
HETATM   24  N   UNL     1      -8.422  18.627  66.834  1.00  0.00    -0.265 NA 
HETATM   25  H2  UNL     1      -9.191  21.568  65.685  1.00  0.00     0.000 HD 
HETATM   26  N   UNL     1      -9.326  20.691  66.187  1.00  0.00    -0.517 NA 
HETATM   27  C   UNL     1      -6.278  18.546  65.911  1.00  0.00    -0.225 A  
HETATM   28  S   UNL     1      -6.873  20.046  65.355  1.00  0.00    -0.287 SA 
HETATM   29  H1  UNL     1     -10.202  20.523  66.683  1.00  0.00     0.000 HD 
HETATM   30  C   UNL     1      -8.347  19.762  66.190  1.00  0.00    -0.345 A  
ENDBRANCH  22  23
BRANCH  22  31
HETATM   31  N   UNL     1      -6.270  15.860  66.857  1.00  0.00    -0.253 NA 
HETATM   32  H   UNL     1      -6.523  15.806  65.871  1.00  0.00     0.000 HD 
BRANCH  31  33
HETATM   33  O   UNL     1      -5.349  14.928  67.336  1.00  0.00    -0.339 OA 
HETATM   34  C   UNL     1      -5.790  13.655  67.751  1.00  0.00    -0.106 C  
ENDBRANCH  31  33
ENDBRANCH  22  31
ENDBRANCH  19  22
ENDBRANCH   8  18
TORSDOF 8
ENDMDL
MODEL      139
REMARK 921   NORMALIZED FREE ENERGY PREDICTED BY IDOCK:   -4.89 KCAL/MOL
REMARK 922        TOTAL FREE ENERGY PREDICTED BY IDOCK:   -8.34 KCAL/MOL
REMARK 923 INTER-LIGAND FREE ENERGY PREDICTED BY IDOCK:   -5.84 KCAL/MOL
REMARK 924 INTRA-LIGAND FREE ENERGY PREDICTED BY IDOCK:   -2.50 KCAL/MOL
REMARK 927      BINDING AFFINITY PREDICTED BY RF-SCORE:    0.00 PKD
ROOT
HETATM    1  C   UNL     1      -9.233   5.913  68.823  1.00  0.00    -0.115 C  
HETATM    2  S   UNL     1     -10.897   6.417  68.478  1.00  0.00    -0.319 SA 
HETATM    3  C   UNL     1     -10.700   7.653  67.159  1.00  0.00    -0.290 C  
HETATM    4  C   UNL     1      -9.317   7.944  66.649  1.00  0.00    -0.244 C  
HETATM    5  C   UNL     1      -7.269   6.384  69.250  1.00  0.00    -0.090 C  
HETATM    6  CA  UNL     1      -8.162   7.444  67.163  1.00  0.00    -0.118 C  
HETATM    7  N   UNL     1      -8.161   6.706  68.291  1.00  0.00    -0.114 N  
HETATM    8  CA  UNL     1      -8.439   5.970  70.196  1.00  0.00    -0.127 C  
HETATM    9  C   UNL     1      -6.867   7.741  66.474  1.00  0.00    -0.066 C  
HETATM   10  O   UNL     1      -6.100   6.654  69.401  1.00  0.00    -0.024 OA 
HETATM   11  O   UNL     1      -5.772   7.901  67.222  1.00  0.00    -0.035 OA 
HETATM   12  OXT UNL     1      -6.784   7.767  65.253  1.00  0.00    -0.047 OA 
ENDROOT
BRANCH   4  13
HETATM   13  C   UNL     1      -9.333   9.015  65.557  1.00  0.00    -0.187 C  
BRANCH  13  14
HETATM   14  O   UNL     1     -10.390   9.968  65.755  1.00  0.00    -0.228 OA 
BRANCH  14  15
HETATM   15  C   UNL     1     -10.331  11.127  65.039  1.00  0.00    -0.301 C  
HETATM   16  C   UNL     1      -9.991  10.864  63.598  1.00  0.00    -0.415 C  
HETATM   17  O   UNL     1     -10.581  12.242  65.479  1.00  0.00    -0.254 OA 
ENDBRANCH  14  15
ENDBRANCH  13  14
ENDBRANCH   4  13
BRANCH   8  18
HETATM   18  N   UNL     1      -8.536   6.893  71.407  1.00  0.00    -0.119 N  
HETATM   19  C   UNL     1      -8.826   8.244  71.578  1.00  0.00    -0.168 C  
HETATM   20  H   UNL     1      -8.346   6.413  72.287  1.00  0.00     0.000 HD 
HETATM   21  O   UNL     1      -8.589   8.760  72.697  1.00  0.00    -0.411 OA 
BRANCH  19  22
HETATM   22  C   UNL     1      -9.524   9.130  70.547  1.00  0.00    -0.242 C  
BRANCH  22  23
HETATM   23  C   UNL     1      -8.768   9.990  69.615  1.00  0.00    -0.194 A  
HETATM   24  N   UNL     1      -9.345  11.011  68.850  1.00  0.00    -0.176 NA 
HETATM   25  H2  UNL     1      -7.921  13.561  67.424  1.00  0.00     0.000 HD 
HETATM   26  N   UNL     1      -8.685  12.945  67.700  1.00  0.00    -0.173 NA 
HETATM   27  C   UNL     1      -7.390  10.093  69.739  1.00  0.00    -0.158 A  
HETATM   28  S   UNL     1      -6.815  11.456  68.887  1.00  0.00    -0.097 SA 
HETATM   29  H1  UNL     1      -9.641  13.172  67.426  1.00  0.00     0.000 HD 
HETATM   30  C   UNL     1      -8.424  11.837  68.425  1.00  0.00    -0.155 A  
ENDBRANCH  22  23
BRANCH  22  31
HETATM   31  N   UNL     1     -10.777   9.468  70.521  1.00  0.00    -0.273 NA 
HETATM   32  H   UNL     1     -11.159   9.791  69.633  1.00  0.00     0.000 HD 
BRANCH  31  33
HETATM   33  O   UNL     1     -11.643   9.421  71.614  1.00  0.00    -0.362 OA 
HETATM   34  C   UNL     1     -12.617   8.407  71.695  1.00  0.00    -0.332 C  
ENDBRANCH  31  33
ENDBRANCH  22  31
ENDBRANCH  19  22
ENDBRANCH   8  18
TORSDOF 8
ENDMDL
MODEL      140
REMARK 921   NORMALIZED FREE ENERGY PREDICTED BY IDOCK:   -4.89 KCAL/MOL
REMARK 922        TOTAL FREE ENERGY PREDICTED BY IDOCK:   -8.33 KCAL/MOL
REMARK 923 INTER-LIGAND FREE ENERGY PREDICTED BY IDOCK:   -7.13 KCAL/MOL
REMARK 924 INTRA-LIGAND FREE ENERGY PREDICTED BY IDOCK:   -1.20 KCAL/MOL
REMARK 927      BINDING AFFINITY PREDICTED BY RF-SCORE:    0.00 PKD
ROOT
HETATM    1  C   UNL     1     -11.459  15.084  66.174  1.00  0.00    -0.222 C  
HETATM    2  S   UNL     1     -12.222  15.085  64.574  1.00  0.00    -0.204 SA 
HETATM    3  C   UNL     1     -11.996  13.376  63.996  1.00  0.00    -0.464 C  
HETATM    4  C   UNL     1     -11.314  12.395  64.907  1.00  0.00    -0.361 C  
HETATM    5  C   UNL     1      -9.851  14.647  67.392  1.00  0.00    -0.222 C  
HETATM    6  CA  UNL     1     -10.738  12.692  66.102  1.00  0.00    -0.267 C  
HETATM    7  N   UNL     1     -10.631  13.967  66.528  1.00  0.00    -0.277 N  
HETATM    8  CA  UNL     1     -10.269  15.987  66.710  1.00  0.00    -0.274 C  
HETATM    9  C   UNL     1     -10.194  11.583  66.946  1.00  0.00    -0.217 C  
HETATM   10  O   UNL     1      -8.955  14.304  68.128  1.00  0.00    -0.174 OA 
HETATM   11  O   UNL     1      -9.098  11.817  67.673  1.00  0.00    -0.167 OA 
HETATM   12  OXT UNL     1     -10.769  10.505  67.035  1.00  0.00    -0.262 OA 
ENDROOT
BRANCH   4  13
HETATM   13  C   UNL     1     -11.194  11.014  64.258  1.00  0.00     0.200 C  
BRANCH  13  14
HETATM   14  O   UNL     1      -9.995  10.892  63.475  1.00  0.00    -0.312 OA 
BRANCH  14  15
HETATM   15  C   UNL     1      -9.232   9.778  63.667  1.00  0.00    -0.183 C  
HETATM   16  C   UNL     1      -8.803   9.176  62.357  1.00  0.00    -0.212 C  
HETATM   17  O   UNL     1      -8.879   9.343  64.755  1.00  0.00    -0.190 OA 
ENDBRANCH  14  15
ENDBRANCH  13  14
ENDBRANCH   4  13
BRANCH   8  18
HETATM   18  N   UNL     1      -9.088  16.657  66.016  1.00  0.00    -0.271 N  
HETATM   19  C   UNL     1      -8.053  17.488  66.442  1.00  0.00    -0.274 C  
HETATM   20  H   UNL     1      -9.045  16.451  65.019  1.00  0.00     0.000 HD 
HETATM   21  O   UNL     1      -7.367  18.068  65.567  1.00  0.00    -0.539 OA 
BRANCH  19  22
HETATM   22  C   UNL     1      -7.607  17.660  67.893  1.00  0.00    -0.210 C  
BRANCH  22  23
HETATM   23  C   UNL     1      -6.718  16.686  68.558  1.00  0.00    -0.148 A  
HETATM   24  N   UNL     1      -7.037  16.025  69.751  1.00  0.00    -0.096 NA 
HETATM   25  H2  UNL     1      -5.776  13.293  70.981  1.00  0.00     0.000 HD 
HETATM   26  N   UNL     1      -6.385  14.111  70.938  1.00  0.00    -0.414 NA 
HETATM   27  C   UNL     1      -5.696  16.084  67.839  1.00  0.00    -0.136 A  
HETATM   28  S   UNL     1      -5.125  14.701  68.659  1.00  0.00    -0.102 SA 
HETATM   29  H1  UNL     1      -7.069  14.271  71.677  1.00  0.00     0.000 HD 
HETATM   30  C   UNL     1      -6.278  14.971  69.903  1.00  0.00    -0.155 A  
ENDBRANCH  22  23
BRANCH  22  31
HETATM   31  N   UNL     1      -8.121  18.451  68.785  1.00  0.00    -0.283 NA 
HETATM   32  H   UNL     1      -7.964  18.219  69.765  1.00  0.00     0.000 HD 
BRANCH  31  33
HETATM   33  O   UNL     1      -8.871  19.593  68.506  1.00  0.00    -0.345 OA 
HETATM   34  C   UNL     1     -10.265  19.586  68.714  1.00  0.00    -0.349 C  
ENDBRANCH  31  33
ENDBRANCH  22  31
ENDBRANCH  19  22
ENDBRANCH   8  18
TORSDOF 8
ENDMDL
MODEL      141
REMARK 921   NORMALIZED FREE ENERGY PREDICTED BY IDOCK:   -4.89 KCAL/MOL
REMARK 922        TOTAL FREE ENERGY PREDICTED BY IDOCK:   -8.33 KCAL/MOL
REMARK 923 INTER-LIGAND FREE ENERGY PREDICTED BY IDOCK:   -7.32 KCAL/MOL
REMARK 924 INTRA-LIGAND FREE ENERGY PREDICTED BY IDOCK:   -1.01 KCAL/MOL
REMARK 927      BINDING AFFINITY PREDICTED BY RF-SCORE:    0.00 PKD
ROOT
HETATM    1  C   UNL     1      -8.131  10.325  68.368  1.00  0.00    -0.109 C  
HETATM    2  S   UNL     1      -7.197  10.315  69.875  1.00  0.00    -0.152 SA 
HETATM    3  C   UNL     1      -7.590   8.698  70.606  1.00  0.00    -0.080 C  
HETATM    4  C   UNL     1      -8.500   7.770  69.852  1.00  0.00    -0.132 C  
HETATM    5  C   UNL     1      -9.912  10.050  67.362  1.00  0.00    -0.197 C  
HETATM    6  CA  UNL     1      -9.162   8.073  68.704  1.00  0.00    -0.143 C  
HETATM    7  N   UNL     1      -9.140   9.320  68.191  1.00  0.00    -0.128 N  
HETATM    8  CA  UNL     1      -9.237  11.356  67.889  1.00  0.00    -0.164 C  
HETATM    9  C   UNL     1      -9.947   7.003  68.011  1.00  0.00    -0.154 C  
HETATM   10  O   UNL     1     -10.925   9.796  66.752  1.00  0.00    -0.074 OA 
HETATM   11  O   UNL     1     -11.075   7.348  67.385  1.00  0.00    -0.185 OA 
HETATM   12  OXT UNL     1      -9.540   5.850  67.947  1.00  0.00    -0.113 OA 
ENDROOT
BRANCH   4  13
HETATM   13  C   UNL     1      -8.735   6.466  70.616  1.00  0.00    -0.144 C  
BRANCH  13  14
HETATM   14  O   UNL     1      -9.447   6.685  71.845  1.00  0.00    -0.152 OA 
BRANCH  14  15
HETATM   15  C   UNL     1     -10.796   6.869  71.763  1.00  0.00    -0.225 C  
HETATM   16  C   UNL     1     -11.254   7.978  72.670  1.00  0.00    -0.462 C  
HETATM   17  O   UNL     1     -11.546   6.263  71.009  1.00  0.00    -0.324 OA 
ENDBRANCH  14  15
ENDBRANCH  13  14
ENDBRANCH   4  13
BRANCH   8  18
HETATM   18  N   UNL     1     -10.228  12.233  68.647  1.00  0.00    -0.338 N  
HETATM   19  C   UNL     1     -10.701  13.533  68.480  1.00  0.00    -0.255 C  
HETATM   20  H   UNL     1     -10.635  11.764  69.455  1.00  0.00     0.000 HD 
HETATM   21  O   UNL     1     -11.343  14.051  69.426  1.00  0.00    -0.257 OA 
BRANCH  19  22
HETATM   22  C   UNL     1     -10.604  14.344  67.189  1.00  0.00    -0.277 C  
BRANCH  22  23
HETATM   23  C   UNL     1     -10.574  15.820  67.193  1.00  0.00    -0.313 A  
HETATM   24  N   UNL     1     -10.594  16.599  68.356  1.00  0.00    -0.324 NA 
HETATM   25  H2  UNL     1      -9.692  19.695  68.766  1.00  0.00     0.000 HD 
HETATM   26  N   UNL     1     -10.046  18.777  69.033  1.00  0.00    -0.487 NA 
HETATM   27  C   UNL     1     -10.132  16.501  66.069  1.00  0.00    -0.348 A  
HETATM   28  S   UNL     1      -9.754  18.119  66.462  1.00  0.00    -0.345 SA 
HETATM   29  H1  UNL     1     -10.298  18.595  70.005  1.00  0.00     0.000 HD 
HETATM   30  C   UNL     1     -10.179  17.812  68.098  1.00  0.00    -0.382 A  
ENDBRANCH  22  23
BRANCH  22  31
HETATM   31  N   UNL     1     -10.814  13.922  65.979  1.00  0.00    -0.288 NA 
HETATM   32  H   UNL     1     -10.429  14.476  65.215  1.00  0.00     0.000 HD 
BRANCH  31  33
HETATM   33  O   UNL     1     -11.525  12.770  65.644  1.00  0.00    -0.313 OA 
HETATM   34  C   UNL     1     -12.513  12.822  64.641  1.00  0.00    -0.456 C  
ENDBRANCH  31  33
ENDBRANCH  22  31
ENDBRANCH  19  22
ENDBRANCH   8  18
TORSDOF 8
ENDMDL
MODEL      142
REMARK 921   NORMALIZED FREE ENERGY PREDICTED BY IDOCK:   -4.87 KCAL/MOL
REMARK 922        TOTAL FREE ENERGY PREDICTED BY IDOCK:   -8.30 KCAL/MOL
REMARK 923 INTER-LIGAND FREE ENERGY PREDICTED BY IDOCK:   -7.21 KCAL/MOL
REMARK 924 INTRA-LIGAND FREE ENERGY PREDICTED BY IDOCK:   -1.10 KCAL/MOL
REMARK 927      BINDING AFFINITY PREDICTED BY RF-SCORE:    0.00 PKD
ROOT
HETATM    1  C   UNL     1      -9.107  10.703  68.056  1.00  0.00    -0.147 C  
HETATM    2  S   UNL     1      -8.771  11.006  66.342  1.00  0.00    -0.176 SA 
HETATM    3  C   UNL     1      -9.827  12.433  65.949  1.00  0.00    -0.252 C  
HETATM    4  C   UNL     1     -10.658  13.035  67.047  1.00  0.00    -0.262 C  
HETATM    5  C   UNL     1     -10.452  10.417  69.595  1.00  0.00    -0.243 C  
HETATM    6  CA  UNL     1     -10.785  12.538  68.306  1.00  0.00    -0.228 C  
HETATM    7  N   UNL     1     -10.241  11.353  68.648  1.00  0.00    -0.204 N  
HETATM    8  CA  UNL     1      -9.650   9.381  68.746  1.00  0.00    -0.154 C  
HETATM    9  C   UNL     1     -11.565  13.314  69.321  1.00  0.00    -0.314 C  
HETATM   10  O   UNL     1     -11.233  10.347  70.516  1.00  0.00    -0.312 OA 
HETATM   11  O   UNL     1     -12.274  12.638  70.229  1.00  0.00    -0.331 OA 
HETATM   12  OXT UNL     1     -11.506  14.536  69.376  1.00  0.00    -0.255 OA 
ENDROOT
BRANCH   4  13
HETATM   13  C   UNL     1     -11.494  14.212  66.540  1.00  0.00    -0.358 C  
BRANCH  13  14
HETATM   14  O   UNL     1     -10.932  14.797  65.354  1.00  0.00    -0.321 OA 
BRANCH  14  15
HETATM   15  C   UNL     1     -11.772  15.002  64.299  1.00  0.00    -0.233 C  
HETATM   16  C   UNL     1     -12.276  13.700  63.739  1.00  0.00    -0.413 C  
HETATM   17  O   UNL     1     -12.131  16.096  63.884  1.00  0.00    -0.956 OA 
ENDBRANCH  14  15
ENDBRANCH  13  14
ENDBRANCH   4  13
BRANCH   8  18
HETATM   18  N   UNL     1     -10.544   8.250  68.248  1.00  0.00    -0.387 N  
HETATM   19  C   UNL     1     -10.416   7.270  67.267  1.00  0.00    -0.310 C  
HETATM   20  H   UNL     1     -11.433   8.200  68.745  1.00  0.00     0.000 HD 
HETATM   21  O   UNL     1     -11.443   6.628  66.939  1.00  0.00    -0.209 OA 
BRANCH  19  22
HETATM   22  C   UNL     1      -9.098   6.827  66.635  1.00  0.00    -0.146 C  
BRANCH  22  23
HETATM   23  C   UNL     1      -7.815   6.912  67.361  1.00  0.00    -0.111 A  
HETATM   24  N   UNL     1      -7.421   6.013  68.360  1.00  0.00    -0.085 NA 
HETATM   25  H2  UNL     1      -4.443   5.393  69.504  1.00  0.00     0.000 HD 
HETATM   26  N   UNL     1      -5.456   5.304  69.423  1.00  0.00    -0.007 NA 
HETATM   27  C   UNL     1      -6.769   7.648  66.825  1.00  0.00    -0.066 A  
HETATM   28  S   UNL     1      -5.296   7.227  67.579  1.00  0.00    -0.022 SA 
HETATM   29  H1  UNL     1      -5.950   4.625  70.002  1.00  0.00     0.000 HD 
HETATM   30  C   UNL     1      -6.130   6.084  68.553  1.00  0.00    -0.021 A  
ENDBRANCH  22  23
BRANCH  22  31
HETATM   31  N   UNL     1      -8.864   6.606  65.377  1.00  0.00    -0.361 NA 
HETATM   32  H   UNL     1      -8.860   7.410  64.751  1.00  0.00     0.000 HD 
BRANCH  31  33
HETATM   33  O   UNL     1      -8.620   5.353  64.816  1.00  0.00    -0.149 OA 
HETATM   34  C   UNL     1      -9.456   4.265  65.135  1.00  0.00    -0.172 C  
ENDBRANCH  31  33
ENDBRANCH  22  31
ENDBRANCH  19  22
ENDBRANCH   8  18
TORSDOF 8
ENDMDL
MODEL      143
REMARK 921   NORMALIZED FREE ENERGY PREDICTED BY IDOCK:   -4.87 KCAL/MOL
REMARK 922        TOTAL FREE ENERGY PREDICTED BY IDOCK:   -8.30 KCAL/MOL
REMARK 923 INTER-LIGAND FREE ENERGY PREDICTED BY IDOCK:   -7.17 KCAL/MOL
REMARK 924 INTRA-LIGAND FREE ENERGY PREDICTED BY IDOCK:   -1.13 KCAL/MOL
REMARK 927      BINDING AFFINITY PREDICTED BY RF-SCORE:    0.00 PKD
ROOT
HETATM    1  C   UNL     1     -10.991  10.108  67.176  1.00  0.00    -0.134 C  
HETATM    2  S   UNL     1     -11.298  10.956  68.702  1.00  0.00    -0.316 SA 
HETATM    3  C   UNL     1     -11.737  12.639  68.170  1.00  0.00    -0.347 C  
HETATM    4  C   UNL     1     -11.788  12.936  66.698  1.00  0.00    -0.461 C  
HETATM    5  C   UNL     1     -10.064  10.010  65.335  1.00  0.00    -0.247 C  
HETATM    6  CA  UNL     1     -11.420  12.083  65.706  1.00  0.00    -0.320 C  
HETATM    7  N   UNL     1     -10.852  10.892  65.982  1.00  0.00    -0.146 N  
HETATM    8  CA  UNL     1      -9.676   9.360  66.700  1.00  0.00    -0.219 C  
HETATM    9  C   UNL     1     -11.632  12.487  64.280  1.00  0.00    -0.371 C  
HETATM   10  O   UNL     1      -9.603   9.993  64.217  1.00  0.00    -0.297 OA 
HETATM   11  O   UNL     1     -10.739  12.092  63.369  1.00  0.00    -0.415 OA 
HETATM   12  OXT UNL     1     -12.632  13.102  63.931  1.00  0.00    -0.656 OA 
ENDROOT
BRANCH   4  13
HETATM   13  C   UNL     1     -12.157  14.397  66.431  1.00  0.00    -0.369 C  
BRANCH  13  14
HETATM   14  O   UNL     1     -11.120  15.297  66.852  1.00  0.00    -0.321 OA 
BRANCH  14  15
HETATM   15  C   UNL     1     -10.326  15.836  65.882  1.00  0.00    -0.354 C  
HETATM   16  C   UNL     1     -11.083  16.023  64.595  1.00  0.00    -0.346 C  
HETATM   17  O   UNL     1      -9.163  16.187  66.036  1.00  0.00    -0.319 OA 
ENDBRANCH  14  15
ENDBRANCH  13  14
ENDBRANCH   4  13
BRANCH   8  18
HETATM   18  N   UNL     1      -8.198   9.564  67.020  1.00  0.00    -0.113 N  
HETATM   19  C   UNL     1      -7.071   8.747  66.974  1.00  0.00    -0.078 C  
HETATM   20  H   UNL     1      -7.989  10.510  67.338  1.00  0.00     0.000 HD 
HETATM   21  O   UNL     1      -6.026   9.154  67.535  1.00  0.00    -0.049 OA 
BRANCH  19  22
HETATM   22  C   UNL     1      -6.967   7.439  66.190  1.00  0.00    -0.065 C  
BRANCH  22  23
HETATM   23  C   UNL     1      -7.886   6.309  66.428  1.00  0.00    -0.104 A  
HETATM   24  N   UNL     1      -9.105   6.139  65.760  1.00  0.00    -0.096 NA 
HETATM   25  H2  UNL     1     -10.888   3.445  65.401  1.00  0.00     0.000 HD 
HETATM   26  N   UNL     1     -10.640   4.428  65.294  1.00  0.00    -0.590 NA 
HETATM   27  C   UNL     1      -7.414   5.156  67.037  1.00  0.00    -0.087 A  
HETATM   28  S   UNL     1      -8.500   3.863  66.787  1.00  0.00    -0.107 SA 
HETATM   29  H1  UNL     1     -11.243   5.045  64.750  1.00  0.00     0.000 HD 
HETATM   30  C   UNL     1      -9.516   4.902  65.873  1.00  0.00    -0.164 A  
ENDBRANCH  22  23
BRANCH  22  31
HETATM   31  N   UNL     1      -5.966   7.034  65.468  1.00  0.00    -0.035 NA 
HETATM   32  H   UNL     1      -5.096   6.815  65.951  1.00  0.00     0.000 HD 
BRANCH  31  33
HETATM   33  O   UNL     1      -5.991   6.874  64.083  1.00  0.00    -0.035 OA 
HETATM   34  C   UNL     1      -5.652   5.630  63.514  1.00  0.00    -0.014 C  
ENDBRANCH  31  33
ENDBRANCH  22  31
ENDBRANCH  19  22
ENDBRANCH   8  18
TORSDOF 8
ENDMDL
MODEL      144
REMARK 921   NORMALIZED FREE ENERGY PREDICTED BY IDOCK:   -4.87 KCAL/MOL
REMARK 922        TOTAL FREE ENERGY PREDICTED BY IDOCK:   -8.30 KCAL/MOL
REMARK 923 INTER-LIGAND FREE ENERGY PREDICTED BY IDOCK:   -7.23 KCAL/MOL
REMARK 924 INTRA-LIGAND FREE ENERGY PREDICTED BY IDOCK:   -1.07 KCAL/MOL
REMARK 927      BINDING AFFINITY PREDICTED BY RF-SCORE:    0.00 PKD
ROOT
HETATM    1  C   UNL     1     -10.908   7.761  70.083  1.00  0.00    -0.244 C  
HETATM    2  S   UNL     1     -11.102   7.087  68.455  1.00  0.00     0.079 SA 
HETATM    3  C   UNL     1      -9.946   5.683  68.436  1.00  0.00    -0.156 C  
HETATM    4  C   UNL     1      -9.167   5.379  69.685  1.00  0.00    -0.153 C  
HETATM    5  C   UNL     1      -9.695   8.449  71.604  1.00  0.00    -0.219 C  
HETATM    6  CA  UNL     1      -9.158   6.134  70.815  1.00  0.00    -0.150 C  
HETATM    7  N   UNL     1      -9.787   7.325  70.866  1.00  0.00    -0.184 N  
HETATM    8  CA  UNL     1     -10.487   9.230  70.509  1.00  0.00    -0.255 C  
HETATM    9  C   UNL     1      -8.415   5.639  72.016  1.00  0.00    -0.126 C  
HETATM   10  O   UNL     1      -8.988   8.760  72.535  1.00  0.00    -0.386 OA 
HETATM   11  O   UNL     1      -7.810   6.534  72.802  1.00  0.00    -0.101 OA 
HETATM   12  OXT UNL     1      -8.413   4.454  72.325  1.00  0.00    -0.106 OA 
ENDROOT
BRANCH   4  13
HETATM   13  C   UNL     1      -8.235   4.181  69.489  1.00  0.00    -0.058 C  
BRANCH  13  14
HETATM   14  O   UNL     1      -8.079   3.844  68.101  1.00  0.00    -0.082 OA 
BRANCH  14  15
HETATM   15  C   UNL     1      -8.090   2.520  67.773  1.00  0.00    -0.063 C  
HETATM   16  C   UNL     1      -9.299   1.826  68.337  1.00  0.00    -0.245 C  
HETATM   17  O   UNL     1      -7.265   1.963  67.062  1.00  0.00    -0.049 OA 
ENDBRANCH  14  15
ENDBRANCH  13  14
ENDBRANCH   4  13
BRANCH   8  18
HETATM   18  N   UNL     1      -9.620  10.291  69.838  1.00  0.00    -0.405 N  
HETATM   19  C   UNL     1      -9.866  11.309  68.919  1.00  0.00    -0.139 C  
HETATM   20  H   UNL     1      -8.643  10.245  70.127  1.00  0.00     0.000 HD 
HETATM   21  O   UNL     1      -8.879  11.865  68.380  1.00  0.00    -0.178 OA 
BRANCH  19  22
HETATM   22  C   UNL     1     -11.242  11.888  68.599  1.00  0.00    -0.257 C  
BRANCH  22  23
HETATM   23  C   UNL     1     -12.000  12.693  69.579  1.00  0.00    -0.270 A  
HETATM   24  N   UNL     1     -12.769  12.144  70.612  1.00  0.00    -0.137 NA 
HETATM   25  H2  UNL     1     -13.807  13.539  73.358  1.00  0.00     0.000 HD 
HETATM   26  N   UNL     1     -13.683  12.796  72.671  1.00  0.00    -0.690 NA 
HETATM   27  C   UNL     1     -11.678  14.028  69.767  1.00  0.00    -0.313 A  
HETATM   28  S   UNL     1     -12.348  14.603  71.228  1.00  0.00    -0.364 SA 
HETATM   29  H1  UNL     1     -14.073  11.871  72.851  1.00  0.00     0.000 HD 
HETATM   30  C   UNL     1     -13.004  13.045  71.531  1.00  0.00    -0.305 A  
ENDBRANCH  22  23
BRANCH  22  31
HETATM   31  N   UNL     1     -12.027  11.554  67.620  1.00  0.00    -0.634 NA 
HETATM   32  H   UNL     1     -12.775  10.892  67.822  1.00  0.00     0.000 HD 
BRANCH  31  33
HETATM   33  O   UNL     1     -11.926  12.032  66.313  1.00  0.00    -0.596 OA 
HETATM   34  C   UNL     1     -12.230  13.379  66.033  1.00  0.00    -0.437 C  
ENDBRANCH  31  33
ENDBRANCH  22  31
ENDBRANCH  19  22
ENDBRANCH   8  18
TORSDOF 8
ENDMDL
MODEL      145
REMARK 921   NORMALIZED FREE ENERGY PREDICTED BY IDOCK:   -4.86 KCAL/MOL
REMARK 922        TOTAL FREE ENERGY PREDICTED BY IDOCK:   -8.29 KCAL/MOL
REMARK 923 INTER-LIGAND FREE ENERGY PREDICTED BY IDOCK:   -7.31 KCAL/MOL
REMARK 924 INTRA-LIGAND FREE ENERGY PREDICTED BY IDOCK:   -0.98 KCAL/MOL
REMARK 927      BINDING AFFINITY PREDICTED BY RF-SCORE:    0.00 PKD
ROOT
HETATM    1  C   UNL     1     -10.405   8.074  68.346  1.00  0.00    -0.199 C  
HETATM    2  S   UNL     1      -9.389   6.645  68.602  1.00  0.00    -0.128 SA 
HETATM    3  C   UNL     1      -9.541   6.331  70.387  1.00  0.00    -0.165 C  
HETATM    4  C   UNL     1     -10.434   7.226  71.199  1.00  0.00    -0.221 C  
HETATM    5  C   UNL     1     -10.963   9.992  68.863  1.00  0.00    -0.207 C  
HETATM    6  CA  UNL     1     -11.066   8.339  70.741  1.00  0.00    -0.258 C  
HETATM    7  N   UNL     1     -10.842   8.810  69.498  1.00  0.00    -0.190 N  
HETATM    8  CA  UNL     1     -10.005   9.485  67.740  1.00  0.00    -0.174 C  
HETATM    9  C   UNL     1     -12.012   9.064  71.646  1.00  0.00    -0.356 C  
HETATM   10  O   UNL     1     -11.362  11.076  69.223  1.00  0.00    -0.232 OA 
HETATM   11  O   UNL     1     -12.085  10.395  71.553  1.00  0.00    -0.353 OA 
HETATM   12  OXT UNL     1     -12.760   8.463  72.407  1.00  0.00    -0.344 OA 
ENDROOT
BRANCH   4  13
HETATM   13  C   UNL     1     -10.433   6.831  72.677  1.00  0.00    -0.213 C  
BRANCH  13  14
HETATM   14  O   UNL     1      -9.310   5.999  73.009  1.00  0.00    -0.141 OA 
BRANCH  14  15
HETATM   15  C   UNL     1      -9.575   4.778  73.556  1.00  0.00    -0.131 C  
HETATM   16  C   UNL     1     -11.053   4.496  73.577  1.00  0.00    -0.398 C  
HETATM   17  O   UNL     1      -8.732   3.974  73.930  1.00  0.00    -0.093 OA 
ENDBRANCH  14  15
ENDBRANCH  13  14
ENDBRANCH   4  13
BRANCH   8  18
HETATM   18  N   UNL     1      -8.695  10.267  67.723  1.00  0.00    -0.122 N  
HETATM   19  C   UNL     1      -8.348  11.574  67.388  1.00  0.00    -0.148 C  
HETATM   20  H   UNL     1      -7.897   9.709  68.024  1.00  0.00     0.000 HD 
HETATM   21  O   UNL     1      -7.130  11.842  67.253  1.00  0.00    -0.121 OA 
BRANCH  19  22
HETATM   22  C   UNL     1      -9.326  12.744  67.286  1.00  0.00    -0.200 C  
BRANCH  22  23
HETATM   23  C   UNL     1     -10.497  12.708  66.387  1.00  0.00    -0.249 A  
HETATM   24  N   UNL     1     -11.707  13.359  66.655  1.00  0.00    -0.364 NA 
HETATM   25  H2  UNL     1     -14.083  14.195  64.600  1.00  0.00     0.000 HD 
HETATM   26  N   UNL     1     -13.602  14.110  65.495  1.00  0.00    -0.458 NA 
HETATM   27  C   UNL     1     -10.330  12.357  65.056  1.00  0.00    -0.293 A  
HETATM   28  S   UNL     1     -11.692  12.827  64.141  1.00  0.00    -0.438 SA 
HETATM   29  H1  UNL     1     -14.027  14.500  66.336  1.00  0.00     0.000 HD 
HETATM   30  C   UNL     1     -12.408  13.483  65.557  1.00  0.00    -0.481 A  
ENDBRANCH  22  23
BRANCH  22  31
HETATM   31  N   UNL     1      -9.143  13.959  67.706  1.00  0.00    -0.182 NA 
HETATM   32  H   UNL     1      -9.251  14.133  68.705  1.00  0.00     0.000 HD 
BRANCH  31  33
HETATM   33  O   UNL     1      -8.812  15.044  66.896  1.00  0.00    -0.226 OA 
HETATM   34  C   UNL     1      -7.617  15.755  67.130  1.00  0.00    -0.224 C  
ENDBRANCH  31  33
ENDBRANCH  22  31
ENDBRANCH  19  22
ENDBRANCH   8  18
TORSDOF 8
ENDMDL
MODEL      146
REMARK 921   NORMALIZED FREE ENERGY PREDICTED BY IDOCK:   -4.86 KCAL/MOL
REMARK 922        TOTAL FREE ENERGY PREDICTED BY IDOCK:   -8.29 KCAL/MOL
REMARK 923 INTER-LIGAND FREE ENERGY PREDICTED BY IDOCK:   -7.03 KCAL/MOL
REMARK 924 INTRA-LIGAND FREE ENERGY PREDICTED BY IDOCK:   -1.26 KCAL/MOL
REMARK 927      BINDING AFFINITY PREDICTED BY RF-SCORE:    0.00 PKD
ROOT
HETATM    1  C   UNL     1     -11.522  11.069  67.744  1.00  0.00    -0.261 C  
HETATM    2  S   UNL     1     -11.651  12.005  69.244  1.00  0.00    -0.339 SA 
HETATM    3  C   UNL     1     -11.568  13.730  68.675  1.00  0.00    -0.334 C  
HETATM    4  C   UNL     1     -11.460  13.995  67.200  1.00  0.00    -0.373 C  
HETATM    5  C   UNL     1     -10.572  10.670  65.957  1.00  0.00    -0.125 C  
HETATM    6  CA  UNL     1     -11.301  13.049  66.236  1.00  0.00    -0.317 C  
HETATM    7  N   UNL     1     -11.108  11.753  66.553  1.00  0.00    -0.299 N  
HETATM    8  CA  UNL     1     -10.451   9.968  67.346  1.00  0.00    -0.260 C  
HETATM    9  C   UNL     1     -11.319  13.463  64.798  1.00  0.00    -0.337 C  
HETATM   10  O   UNL     1     -10.081  10.497  64.865  1.00  0.00    -0.309 OA 
HETATM   11  O   UNL     1     -10.531  12.811  63.939  1.00  0.00    -0.418 OA 
HETATM   12  OXT UNL     1     -12.085  14.327  64.390  1.00  0.00    -0.450 OA 
ENDROOT
BRANCH   4  13
HETATM   13  C   UNL     1     -11.386  15.493  66.900  1.00  0.00    -0.079 C  
BRANCH  13  14
HETATM   14  O   UNL     1     -10.050  16.003  67.041  1.00  0.00    -0.259 OA 
BRANCH  14  15
HETATM   15  C   UNL     1      -9.812  16.857  68.078  1.00  0.00    -0.264 C  
HETATM   16  C   UNL     1      -8.385  16.765  68.546  1.00  0.00    -0.243 C  
HETATM   17  O   UNL     1     -10.622  17.648  68.542  1.00  0.00    -0.346 OA 
ENDBRANCH  14  15
ENDBRANCH  13  14
ENDBRANCH   4  13
BRANCH   8  18
HETATM   18  N   UNL     1      -8.994   9.754  67.743  1.00  0.00    -0.128 N  
HETATM   19  C   UNL     1      -8.360   9.241  68.872  1.00  0.00    -0.120 C  
HETATM   20  H   UNL     1      -8.339  10.054  67.022  1.00  0.00     0.000 HD 
HETATM   21  O   UNL     1      -7.124   9.423  68.986  1.00  0.00    -0.064 OA 
BRANCH  19  22
HETATM   22  C   UNL     1      -9.027   8.366  69.932  1.00  0.00    -0.142 C  
BRANCH  22  23
HETATM   23  C   UNL     1      -9.164   6.905  69.767  1.00  0.00    -0.147 A  
HETATM   24  N   UNL     1      -9.475   6.281  68.552  1.00  0.00    -0.124 NA 
HETATM   25  H2  UNL     1      -9.013   3.191  67.657  1.00  0.00     0.000 HD 
HETATM   26  N   UNL     1      -9.303   4.164  67.560  1.00  0.00    -0.158 NA 
HETATM   27  C   UNL     1      -8.612   6.052  70.711  1.00  0.00    -0.135 A  
HETATM   28  S   UNL     1      -8.494   4.468  70.085  1.00  0.00    -0.074 SA 
HETATM   29  H1  UNL     1      -9.699   4.487  66.677  1.00  0.00     0.000 HD 
HETATM   30  C   UNL     1      -9.160   5.012  68.600  1.00  0.00    -0.110 A  
ENDBRANCH  22  23
BRANCH  22  31
HETATM   31  N   UNL     1      -9.775   8.758  70.918  1.00  0.00    -0.203 NA 
HETATM   32  H   UNL     1      -9.310   9.176  71.724  1.00  0.00     0.000 HD 
BRANCH  31  33
HETATM   33  O   UNL     1     -11.165   8.654  70.959  1.00  0.00    -0.253 OA 
HETATM   34  C   UNL     1     -11.798   8.163  72.119  1.00  0.00    -0.359 C  
ENDBRANCH  31  33
ENDBRANCH  22  31
ENDBRANCH  19  22
ENDBRANCH   8  18
TORSDOF 8
ENDMDL
MODEL      147
REMARK 921   NORMALIZED FREE ENERGY PREDICTED BY IDOCK:   -4.85 KCAL/MOL
REMARK 922        TOTAL FREE ENERGY PREDICTED BY IDOCK:   -8.27 KCAL/MOL
REMARK 923 INTER-LIGAND FREE ENERGY PREDICTED BY IDOCK:   -6.91 KCAL/MOL
REMARK 924 INTRA-LIGAND FREE ENERGY PREDICTED BY IDOCK:   -1.36 KCAL/MOL
REMARK 927      BINDING AFFINITY PREDICTED BY RF-SCORE:    0.00 PKD
ROOT
HETATM    1  C   UNL     1      -9.176  10.338  68.855  1.00  0.00    -0.175 C  
HETATM    2  S   UNL     1      -8.742  10.483  67.142  1.00  0.00    -0.130 SA 
HETATM    3  C   UNL     1      -9.868  11.773  66.529  1.00  0.00    -0.206 C  
HETATM    4  C   UNL     1     -10.814  12.421  67.500  1.00  0.00    -0.271 C  
HETATM    5  C   UNL     1     -10.601  10.111  70.330  1.00  0.00    -0.264 C  
HETATM    6  CA  UNL     1     -10.994  12.051  68.796  1.00  0.00    -0.239 C  
HETATM    7  N   UNL     1     -10.392  10.955  69.300  1.00  0.00    -0.213 N  
HETATM    8  CA  UNL     1      -9.670   9.058  69.652  1.00  0.00    -0.172 C  
HETATM    9  C   UNL     1     -11.896  12.866  69.668  1.00  0.00    -0.320 C  
HETATM   10  O   UNL     1     -11.438  10.078  71.203  1.00  0.00    -0.357 OA 
HETATM   11  O   UNL     1     -12.617  12.237  70.600  1.00  0.00    -0.257 OA 
HETATM   12  OXT UNL     1     -11.928  14.088  69.592  1.00  0.00    -0.298 OA 
ENDROOT
BRANCH   4  13
HETATM   13  C   UNL     1     -11.695  13.468  66.815  1.00  0.00    -0.391 C  
BRANCH  13  14
HETATM   14  O   UNL     1     -10.932  14.598  66.364  1.00  0.00    -0.313 OA 
BRANCH  14  15
HETATM   15  C   UNL     1     -11.203  15.080  65.116  1.00  0.00    -0.388 C  
HETATM   16  C   UNL     1     -12.140  14.169  64.370  1.00  0.00    -0.486 C  
HETATM   17  O   UNL     1     -10.798  16.143  64.667  1.00  0.00    -0.650 OA 
ENDBRANCH  14  15
ENDBRANCH  13  14
ENDBRANCH   4  13
BRANCH   8  18
HETATM   18  N   UNL     1     -10.443   7.813  69.229  1.00  0.00    -0.220 N  
HETATM   19  C   UNL     1     -10.139   6.696  68.453  1.00  0.00    -0.156 C  
HETATM   20  H   UNL     1     -11.395   7.794  69.595  1.00  0.00     0.000 HD 
HETATM   21  O   UNL     1     -11.085   5.954  68.095  1.00  0.00    -0.251 OA 
BRANCH  19  22
HETATM   22  C   UNL     1      -8.728   6.231  68.099  1.00  0.00    -0.115 C  
BRANCH  22  23
HETATM   23  C   UNL     1      -8.110   6.533  66.791  1.00  0.00    -0.109 A  
HETATM   24  N   UNL     1      -8.833   6.924  65.657  1.00  0.00    -0.076 NA 
HETATM   25  H2  UNL     1      -7.786   8.449  62.985  1.00  0.00     0.000 HD 
HETATM   26  N   UNL     1      -8.457   8.003  63.610  1.00  0.00    -0.396 NA 
HETATM   27  C   UNL     1      -6.756   6.823  66.722  1.00  0.00    -0.056 A  
HETATM   28  S   UNL     1      -6.383   7.572  65.234  1.00  0.00    -0.038 SA 
HETATM   29  H1  UNL     1      -9.440   7.951  63.341  1.00  0.00     0.000 HD 
HETATM   30  C   UNL     1      -8.037   7.484  64.783  1.00  0.00    -0.112 A  
ENDBRANCH  22  23
BRANCH  22  31
HETATM   31  N   UNL     1      -8.021   5.330  68.709  1.00  0.00    -0.086 NA 
HETATM   32  H   UNL     1      -7.766   4.495  68.182  1.00  0.00     0.000 HD 
BRANCH  31  33
HETATM   33  O   UNL     1      -7.584   5.414  70.031  1.00  0.00    -0.067 OA 
HETATM   34  C   UNL     1      -8.327   4.796  71.057  1.00  0.00    -0.100 C  
ENDBRANCH  31  33
ENDBRANCH  22  31
ENDBRANCH  19  22
ENDBRANCH   8  18
TORSDOF 8
ENDMDL
MODEL      148
REMARK 921   NORMALIZED FREE ENERGY PREDICTED BY IDOCK:   -4.84 KCAL/MOL
REMARK 922        TOTAL FREE ENERGY PREDICTED BY IDOCK:   -8.25 KCAL/MOL
REMARK 923 INTER-LIGAND FREE ENERGY PREDICTED BY IDOCK:   -7.25 KCAL/MOL
REMARK 924 INTRA-LIGAND FREE ENERGY PREDICTED BY IDOCK:   -1.00 KCAL/MOL
REMARK 927      BINDING AFFINITY PREDICTED BY RF-SCORE:    0.00 PKD
ROOT
HETATM    1  C   UNL     1     -11.663  10.371  70.905  1.00  0.00    -0.360 C  
HETATM    2  S   UNL     1     -13.223   9.616  71.277  1.00  0.00    -0.310 SA 
HETATM    3  C   UNL     1     -12.800   7.862  71.508  1.00  0.00    -0.317 C  
HETATM    4  C   UNL     1     -11.360   7.450  71.390  1.00  0.00    -0.282 C  
HETATM    5  C   UNL     1      -9.908  10.419  69.820  1.00  0.00    -0.091 C  
HETATM    6  CA  UNL     1     -10.334   8.257  71.009  1.00  0.00    -0.191 C  
HETATM    7  N   UNL     1     -10.557   9.516  70.582  1.00  0.00    -0.285 N  
HETATM    8  CA  UNL     1     -11.241  11.208  69.625  1.00  0.00    -0.264 C  
HETATM    9  C   UNL     1      -8.936   7.725  71.046  1.00  0.00    -0.142 C  
HETATM   10  O   UNL     1      -8.837  10.396  69.258  1.00  0.00    -0.166 OA 
HETATM   11  O   UNL     1      -8.076   8.136  70.110  1.00  0.00    -0.108 OA 
HETATM   12  OXT UNL     1      -8.554   6.989  71.947  1.00  0.00    -0.120 OA 
ENDROOT
BRANCH   4  13
HETATM   13  C   UNL     1     -11.187   5.944  71.596  1.00  0.00    -0.237 C  
BRANCH  13  14
HETATM   14  O   UNL     1     -11.918   5.471  72.738  1.00  0.00    -0.237 OA 
BRANCH  14  15
HETATM   15  C   UNL     1     -11.227   4.758  73.674  1.00  0.00    -0.254 C  
HETATM   16  C   UNL     1     -10.350   5.653  74.507  1.00  0.00    -0.254 C  
HETATM   17  O   UNL     1     -11.338   3.555  73.868  1.00  0.00    -0.150 OA 
ENDBRANCH  14  15
ENDBRANCH  13  14
ENDBRANCH   4  13
BRANCH   8  18
HETATM   18  N   UNL     1     -11.706  11.176  68.172  1.00  0.00    -0.270 N  
HETATM   19  C   UNL     1     -11.479  11.985  67.061  1.00  0.00    -0.338 C  
HETATM   20  H   UNL     1     -12.319  10.387  67.969  1.00  0.00     0.000 HD 
HETATM   21  O   UNL     1     -12.208  11.818  66.053  1.00  0.00    -0.322 OA 
BRANCH  19  22
HETATM   22  C   UNL     1     -10.332  12.985  66.922  1.00  0.00    -0.245 C  
BRANCH  22  23
HETATM   23  C   UNL     1      -9.866  13.803  68.060  1.00  0.00    -0.239 A  
HETATM   24  N   UNL     1      -8.526  14.147  68.279  1.00  0.00    -0.163 NA 
HETATM   25  H2  UNL     1      -7.295  16.548  70.090  1.00  0.00     0.000 HD 
HETATM   26  N   UNL     1      -7.284  15.743  69.465  1.00  0.00    -0.205 NA 
HETATM   27  C   UNL     1     -10.769  14.597  68.751  1.00  0.00    -0.249 A  
HETATM   28  S   UNL     1      -9.944  15.764  69.684  1.00  0.00    -0.256 SA 
HETATM   29  H1  UNL     1      -6.393  15.385  69.119  1.00  0.00     0.000 HD 
HETATM   30  C   UNL     1      -8.446  15.160  69.101  1.00  0.00    -0.220 A  
ENDBRANCH  22  23
BRANCH  22  31
HETATM   31  N   UNL     1      -9.825  13.452  65.822  1.00  0.00    -0.428 NA 
HETATM   32  H   UNL     1      -8.941  13.054  65.506  1.00  0.00     0.000 HD 
BRANCH  31  33
HETATM   33  O   UNL     1     -10.396  14.455  65.040  1.00  0.00    -0.402 OA 
HETATM   34  C   UNL     1     -10.006  15.796  65.223  1.00  0.00    -0.141 C  
ENDBRANCH  31  33
ENDBRANCH  22  31
ENDBRANCH  19  22
ENDBRANCH   8  18
TORSDOF 8
ENDMDL
MODEL      149
REMARK 921   NORMALIZED FREE ENERGY PREDICTED BY IDOCK:   -4.83 KCAL/MOL
REMARK 922        TOTAL FREE ENERGY PREDICTED BY IDOCK:   -8.24 KCAL/MOL
REMARK 923 INTER-LIGAND FREE ENERGY PREDICTED BY IDOCK:   -7.32 KCAL/MOL
REMARK 924 INTRA-LIGAND FREE ENERGY PREDICTED BY IDOCK:   -0.91 KCAL/MOL
REMARK 927      BINDING AFFINITY PREDICTED BY RF-SCORE:    0.00 PKD
ROOT
HETATM    1  C   UNL     1      -8.808   8.828  69.248  1.00  0.00    -0.140 C  
HETATM    2  S   UNL     1      -8.016   9.126  70.806  1.00  0.00    -0.151 SA 
HETATM    3  C   UNL     1      -7.627   7.456  71.410  1.00  0.00    -0.082 C  
HETATM    4  C   UNL     1      -7.979   6.279  70.544  1.00  0.00    -0.112 C  
HETATM    5  C   UNL     1     -10.229   7.845  68.120  1.00  0.00    -0.205 C  
HETATM    6  CA  UNL     1      -8.677   6.335  69.379  1.00  0.00    -0.128 C  
HETATM    7  N   UNL     1      -9.226   7.488  68.947  1.00  0.00    -0.143 N  
HETATM    8  CA  UNL     1     -10.255   9.265  68.767  1.00  0.00    -0.205 C  
HETATM    9  C   UNL     1      -8.854   5.086  68.574  1.00  0.00    -0.101 C  
HETATM   10  O   UNL     1     -10.990   7.202  67.434  1.00  0.00    -0.274 OA 
HETATM   11  O   UNL     1      -9.997   4.920  67.903  1.00  0.00    -0.158 OA 
HETATM   12  OXT UNL     1      -7.955   4.262  68.464  1.00  0.00    -0.073 OA 
ENDROOT
BRANCH   4  13
HETATM   13  C   UNL     1      -7.598   4.955  71.210  1.00  0.00    -0.082 C  
BRANCH  13  14
HETATM   14  O   UNL     1      -8.350   4.723  72.412  1.00  0.00    -0.112 OA 
BRANCH  14  15
HETATM   15  C   UNL     1      -9.677   4.436  72.274  1.00  0.00    -0.165 C  
HETATM   16  C   UNL     1      -9.884   3.164  71.497  1.00  0.00    -0.200 C  
HETATM   17  O   UNL     1     -10.594   5.081  72.765  1.00  0.00    -0.200 OA 
ENDBRANCH  14  15
ENDBRANCH  13  14
ENDBRANCH   4  13
BRANCH   8  18
HETATM   18  N   UNL     1     -11.560   9.516  69.516  1.00  0.00    -0.433 N  
HETATM   19  C   UNL     1     -12.199  10.656  70.000  1.00  0.00    -0.298 C  
HETATM   20  H   UNL     1     -12.080   8.660  69.705  1.00  0.00     0.000 HD 
HETATM   21  O   UNL     1     -13.160  10.500  70.792  1.00  0.00    -0.364 OA 
BRANCH  19  22
HETATM   22  C   UNL     1     -11.902  12.086  69.552  1.00  0.00    -0.326 C  
BRANCH  22  23
HETATM   23  C   UNL     1     -12.381  13.259  70.311  1.00  0.00    -0.264 A  
HETATM   24  N   UNL     1     -12.680  13.236  71.678  1.00  0.00    -0.275 NA 
HETATM   25  H2  UNL     1     -12.901  15.713  73.771  1.00  0.00     0.000 HD 
HETATM   26  N   UNL     1     -12.922  14.742  73.459  1.00  0.00    -0.549 NA 
HETATM   27  C   UNL     1     -12.188  14.534  69.800  1.00  0.00    -0.312 A  
HETATM   28  S   UNL     1     -12.393  15.704  71.025  1.00  0.00    -0.431 SA 
HETATM   29  H1  UNL     1     -13.107  13.999  74.132  1.00  0.00     0.000 HD 
HETATM   30  C   UNL     1     -12.705  14.452  72.159  1.00  0.00    -0.323 A  
ENDBRANCH  22  23
BRANCH  22  31
HETATM   31  N   UNL     1     -11.479  12.472  68.387  1.00  0.00    -0.287 NA 
HETATM   32  H   UNL     1     -10.937  13.335  68.345  1.00  0.00     0.000 HD 
BRANCH  31  33
HETATM   33  O   UNL     1     -11.709  11.799  67.187  1.00  0.00    -0.547 OA 
HETATM   34  C   UNL     1     -11.462  12.447  65.960  1.00  0.00    -0.382 C  
ENDBRANCH  31  33
ENDBRANCH  22  31
ENDBRANCH  19  22
ENDBRANCH   8  18
TORSDOF 8
ENDMDL
MODEL      150
REMARK 921   NORMALIZED FREE ENERGY PREDICTED BY IDOCK:   -4.81 KCAL/MOL
REMARK 922        TOTAL FREE ENERGY PREDICTED BY IDOCK:   -8.22 KCAL/MOL
REMARK 923 INTER-LIGAND FREE ENERGY PREDICTED BY IDOCK:   -6.94 KCAL/MOL
REMARK 924 INTRA-LIGAND FREE ENERGY PREDICTED BY IDOCK:   -1.28 KCAL/MOL
REMARK 927      BINDING AFFINITY PREDICTED BY RF-SCORE:    0.00 PKD
ROOT
HETATM    1  C   UNL     1      -7.600   9.848  69.130  1.00  0.00    -0.090 C  
HETATM    2  S   UNL     1      -7.991   8.891  70.570  1.00  0.00    -0.144 SA 
HETATM    3  C   UNL     1      -7.859   7.174  69.987  1.00  0.00    -0.113 C  
HETATM    4  C   UNL     1      -7.450   6.930  68.562  1.00  0.00    -0.096 C  
HETATM    5  C   UNL     1      -7.877  10.269  67.129  1.00  0.00    -0.110 C  
HETATM    6  CA  UNL     1      -7.272   7.888  67.614  1.00  0.00    -0.088 C  
HETATM    7  N   UNL     1      -7.572   9.179  67.860  1.00  0.00    -0.085 N  
HETATM    8  CA  UNL     1      -8.475  10.951  68.399  1.00  0.00    -0.141 C  
HETATM    9  C   UNL     1      -6.755   7.493  66.266  1.00  0.00    -0.057 C  
HETATM   10  O   UNL     1      -7.962  10.456  65.936  1.00  0.00    -0.139 OA 
HETATM   11  O   UNL     1      -7.202   8.156  65.196  1.00  0.00    -0.069 OA 
HETATM   12  OXT UNL     1      -5.889   6.637  66.138  1.00  0.00    -0.024 OA 
ENDROOT
BRANCH   4  13
HETATM   13  C   UNL     1      -7.405   5.435  68.237  1.00  0.00    -0.072 C  
BRANCH  13  14
HETATM   14  O   UNL     1      -8.721   4.865  68.152  1.00  0.00    -0.102 OA 
BRANCH  14  15
HETATM   15  C   UNL     1      -9.167   4.501  66.915  1.00  0.00    -0.133 C  
HETATM   16  C   UNL     1      -9.414   3.020  66.836  1.00  0.00    -0.076 C  
HETATM   17  O   UNL     1      -9.403   5.273  65.995  1.00  0.00    -0.153 OA 
ENDBRANCH  14  15
ENDBRANCH  13  14
ENDBRANCH   4  13
BRANCH   8  18
HETATM   18  N   UNL     1      -9.981  11.156  68.270  1.00  0.00    -0.180 N  
HETATM   19  C   UNL     1     -10.791  11.907  67.421  1.00  0.00    -0.243 C  
HETATM   20  H   UNL     1     -10.513  10.625  68.959  1.00  0.00     0.000 HD 
HETATM   21  O   UNL     1     -11.999  12.047  67.732  1.00  0.00    -0.538 OA 
BRANCH  19  22
HETATM   22  C   UNL     1     -10.357  12.480  66.073  1.00  0.00    -0.256 C  
BRANCH  22  23
HETATM   23  C   UNL     1     -10.220  13.934  65.849  1.00  0.00    -0.315 A  
HETATM   24  N   UNL     1     -10.730  14.603  64.730  1.00  0.00    -0.410 NA 
HETATM   25  H2  UNL     1     -11.360  17.769  64.347  1.00  0.00     0.000 HD 
HETATM   26  N   UNL     1     -11.304  16.784  64.088  1.00  0.00    -1.400 NA 
HETATM   27  C   UNL     1      -9.924  14.768  66.916  1.00  0.00    -0.244 A  
HETATM   28  S   UNL     1     -10.269  16.392  66.517  1.00  0.00    -0.312 SA 
HETATM   29  H1  UNL     1     -11.624  16.485  63.166  1.00  0.00     0.000 HD 
HETATM   30  C   UNL     1     -10.807  15.887  64.966  1.00  0.00    -0.426 A  
ENDBRANCH  22  23
BRANCH  22  31
HETATM   31  N   UNL     1     -10.328  11.865  64.930  1.00  0.00    -0.275 NA 
HETATM   32  H   UNL     1      -9.456  11.891  64.404  1.00  0.00     0.000 HD 
BRANCH  31  33
HETATM   33  O   UNL     1     -11.399  11.172  64.367  1.00  0.00    -0.157 OA 
HETATM   34  C   UNL     1     -12.312  11.848  63.532  1.00  0.00    -0.490 C  
ENDBRANCH  31  33
ENDBRANCH  22  31
ENDBRANCH  19  22
ENDBRANCH   8  18
TORSDOF 8
ENDMDL
MODEL      151
REMARK 921   NORMALIZED FREE ENERGY PREDICTED BY IDOCK:   -4.80 KCAL/MOL
REMARK 922        TOTAL FREE ENERGY PREDICTED BY IDOCK:   -8.20 KCAL/MOL
REMARK 923 INTER-LIGAND FREE ENERGY PREDICTED BY IDOCK:   -7.03 KCAL/MOL
REMARK 924 INTRA-LIGAND FREE ENERGY PREDICTED BY IDOCK:   -1.18 KCAL/MOL
REMARK 927      BINDING AFFINITY PREDICTED BY RF-SCORE:    0.00 PKD
ROOT
HETATM    1  C   UNL     1      -9.161  10.503  69.132  1.00  0.00    -0.171 C  
HETATM    2  S   UNL     1     -10.078   9.531  70.297  1.00  0.00    -0.278 SA 
HETATM    3  C   UNL     1     -10.632   8.104  69.315  1.00  0.00    -0.182 C  
HETATM    4  C   UNL     1     -10.215   8.019  67.874  1.00  0.00    -0.267 C  
HETATM    5  C   UNL     1      -9.013  11.425  67.292  1.00  0.00    -0.159 C  
HETATM    6  CA  UNL     1      -9.543   8.980  67.187  1.00  0.00    -0.167 C  
HETATM    7  N   UNL     1      -9.285  10.183  67.738  1.00  0.00    -0.137 N  
HETATM    8  CA  UNL     1      -9.395  12.008  68.688  1.00  0.00    -0.050 C  
HETATM    9  C   UNL     1      -9.102   8.700  65.784  1.00  0.00    -0.187 C  
HETATM   10  O   UNL     1      -8.880  11.883  66.180  1.00  0.00    -0.166 OA 
HETATM   11  O   UNL     1      -9.103   9.706  64.906  1.00  0.00    -0.206 OA 
HETATM   12  OXT UNL     1      -8.678   7.600  65.454  1.00  0.00    -0.108 OA 
ENDROOT
BRANCH   4  13
HETATM   13  C   UNL     1     -10.780   6.768  67.198  1.00  0.00    -0.371 C  
BRANCH  13  14
HETATM   14  O   UNL     1     -10.610   5.596  68.010  1.00  0.00    -0.221 OA 
BRANCH  14  15
HETATM   15  C   UNL     1      -9.862   4.578  67.493  1.00  0.00    -0.140 C  
HETATM   16  C   UNL     1     -10.071   4.445  66.009  1.00  0.00    -0.260 C  
HETATM   17  O   UNL     1      -9.071   3.891  68.125  1.00  0.00    -0.119 OA 
ENDBRANCH  14  15
ENDBRANCH  13  14
ENDBRANCH   4  13
BRANCH   8  18
HETATM   18  N   UNL     1     -10.644  12.880  68.611  1.00  0.00    -0.289 N  
HETATM   19  C   UNL     1     -10.869  14.243  68.437  1.00  0.00    -0.253 C  
HETATM   20  H   UNL     1     -11.507  12.345  68.708  1.00  0.00     0.000 HD 
HETATM   21  O   UNL     1     -12.023  14.682  68.660  1.00  0.00    -0.315 OA 
BRANCH  19  22
HETATM   22  C   UNL     1      -9.851  15.237  67.881  1.00  0.00    -0.216 C  
BRANCH  22  23
HETATM   23  C   UNL     1     -10.207  16.640  67.586  1.00  0.00    -0.285 A  
HETATM   24  N   UNL     1     -10.371  17.627  68.566  1.00  0.00    -0.369 NA 
HETATM   25  H2  UNL     1     -10.289  20.861  68.251  1.00  0.00     0.000 HD 
HETATM   26  N   UNL     1     -10.378  19.966  68.732  1.00  0.00    -0.567 NA 
HETATM   27  C   UNL     1     -10.016  17.144  66.308  1.00  0.00    -0.304 A  
HETATM   28  S   UNL     1     -10.054  18.850  66.328  1.00  0.00    -0.411 SA 
HETATM   29  H1  UNL     1     -10.525  19.947  69.741  1.00  0.00     0.000 HD 
HETATM   30  C   UNL     1     -10.301  18.817  68.028  1.00  0.00    -0.387 A  
ENDBRANCH  22  23
BRANCH  22  31
HETATM   31  N   UNL     1      -8.699  14.966  67.346  1.00  0.00    -0.183 NA 
HETATM   32  H   UNL     1      -8.648  14.935  66.329  1.00  0.00     0.000 HD 
BRANCH  31  33
HETATM   33  O   UNL     1      -7.526  14.714  68.057  1.00  0.00    -0.108 OA 
HETATM   34  C   UNL     1      -7.047  15.663  68.982  1.00  0.00    -0.151 C  
ENDBRANCH  31  33
ENDBRANCH  22  31
ENDBRANCH  19  22
ENDBRANCH   8  18
TORSDOF 8
ENDMDL
MODEL      152
REMARK 921   NORMALIZED FREE ENERGY PREDICTED BY IDOCK:   -4.79 KCAL/MOL
REMARK 922        TOTAL FREE ENERGY PREDICTED BY IDOCK:   -8.19 KCAL/MOL
REMARK 923 INTER-LIGAND FREE ENERGY PREDICTED BY IDOCK:   -7.01 KCAL/MOL
REMARK 924 INTRA-LIGAND FREE ENERGY PREDICTED BY IDOCK:   -1.18 KCAL/MOL
REMARK 927      BINDING AFFINITY PREDICTED BY RF-SCORE:    0.00 PKD
ROOT
HETATM    1  C   UNL     1      -9.570  11.462  69.124  1.00  0.00     0.121 C  
HETATM    2  S   UNL     1     -11.157  10.673  69.086  1.00  0.00    -0.275 SA 
HETATM    3  C   UNL     1     -10.777   8.936  69.466  1.00  0.00    -0.199 C  
HETATM    4  C   UNL     1      -9.350   8.559  69.745  1.00  0.00    -0.161 C  
HETATM    5  C   UNL     1      -7.591  11.534  68.543  1.00  0.00    -0.130 C  
HETATM    6  CA  UNL     1      -8.276   9.385  69.631  1.00  0.00    -0.136 C  
HETATM    7  N   UNL     1      -8.401  10.629  69.128  1.00  0.00    -0.152 N  
HETATM    8  CA  UNL     1      -8.839  12.284  67.980  1.00  0.00    -0.182 C  
HETATM    9  C   UNL     1      -6.927   8.890  70.052  1.00  0.00    -0.044 C  
HETATM   10  O   UNL     1      -6.409  11.528  68.288  1.00  0.00    -0.046 OA 
HETATM   11  O   UNL     1      -5.857   9.305  69.369  1.00  0.00    -0.034 OA 
HETATM   12  OXT UNL     1      -6.785   8.182  71.041  1.00  0.00    -0.040 OA 
ENDROOT
BRANCH   4  13
HETATM   13  C   UNL     1      -9.208   7.062  70.028  1.00  0.00    -0.148 C  
BRANCH  13  14
HETATM   14  O   UNL     1     -10.483   6.431  70.228  1.00  0.00    -0.199 OA 
BRANCH  14  15
HETATM   15  C   UNL     1     -10.550   5.432  71.155  1.00  0.00    -0.206 C  
HETATM   16  C   UNL     1     -11.379   5.840  72.341  1.00  0.00    -0.348 C  
HETATM   17  O   UNL     1     -10.058   4.318  71.028  1.00  0.00    -0.178 OA 
ENDBRANCH  14  15
ENDBRANCH  13  14
ENDBRANCH   4  13
BRANCH   8  18
HETATM   18  N   UNL     1      -8.899  12.212  66.458  1.00  0.00    -0.319 N  
HETATM   19  C   UNL     1      -9.913  12.370  65.516  1.00  0.00    -0.243 C  
HETATM   20  H   UNL     1      -7.995  12.002  66.036  1.00  0.00     0.000 HD 
HETATM   21  O   UNL     1      -9.683  12.008  64.337  1.00  0.00    -0.183 OA 
BRANCH  19  22
HETATM   22  C   UNL     1     -11.252  13.059  65.775  1.00  0.00    -0.289 C  
BRANCH  22  23
HETATM   23  C   UNL     1     -11.349  14.313  66.550  1.00  0.00    -0.346 A  
HETATM   24  N   UNL     1     -11.826  14.384  67.864  1.00  0.00    -0.358 NA 
HETATM   25  H2  UNL     1     -11.380  16.715  70.084  1.00  0.00     0.000 HD 
HETATM   26  N   UNL     1     -11.725  15.835  69.704  1.00  0.00    -0.353 NA 
HETATM   27  C   UNL     1     -10.611  15.421  66.160  1.00  0.00    -0.316 A  
HETATM   28  S   UNL     1     -10.526  16.557  67.430  1.00  0.00    -0.296 SA 
HETATM   29  H1  UNL     1     -12.275  15.210  70.294  1.00  0.00     0.000 HD 
HETATM   30  C   UNL     1     -11.452  15.505  68.424  1.00  0.00    -0.363 A  
ENDBRANCH  22  23
BRANCH  22  31
HETATM   31  N   UNL     1     -12.438  12.553  65.628  1.00  0.00    -0.611 NA 
HETATM   32  H   UNL     1     -12.828  12.034  66.414  1.00  0.00     0.000 HD 
BRANCH  31  33
HETATM   33  O   UNL     1     -13.220  12.664  64.479  1.00  0.00    -0.783 OA 
HETATM   34  C   UNL     1     -12.821  12.016  63.293  1.00  0.00    -0.190 C  
ENDBRANCH  31  33
ENDBRANCH  22  31
ENDBRANCH  19  22
ENDBRANCH   8  18
TORSDOF 8
ENDMDL
MODEL      153
REMARK 921   NORMALIZED FREE ENERGY PREDICTED BY IDOCK:   -4.78 KCAL/MOL
REMARK 922        TOTAL FREE ENERGY PREDICTED BY IDOCK:   -8.16 KCAL/MOL
REMARK 923 INTER-LIGAND FREE ENERGY PREDICTED BY IDOCK:   -6.37 KCAL/MOL
REMARK 924 INTRA-LIGAND FREE ENERGY PREDICTED BY IDOCK:   -1.79 KCAL/MOL
REMARK 927      BINDING AFFINITY PREDICTED BY RF-SCORE:    0.00 PKD
ROOT
HETATM    1  C   UNL     1      -9.040  12.586  67.856  1.00  0.00    -0.199 C  
HETATM    2  S   UNL     1      -7.494  12.004  68.500  1.00  0.00    -0.115 SA 
HETATM    3  C   UNL     1      -6.917  10.841  67.227  1.00  0.00    -0.086 C  
HETATM    4  C   UNL     1      -7.754  10.653  65.994  1.00  0.00    -0.151 C  
HETATM    5  C   UNL     1     -10.896  12.210  67.038  1.00  0.00    -0.247 C  
HETATM    6  CA  UNL     1      -8.982  11.194  65.782  1.00  0.00    -0.196 C  
HETATM    7  N   UNL     1      -9.621  11.881  66.750  1.00  0.00    -0.199 N  
HETATM    8  CA  UNL     1     -10.483  12.514  68.512  1.00  0.00    -0.231 C  
HETATM    9  C   UNL     1      -9.644  11.002  64.453  1.00  0.00    -0.259 C  
HETATM   10  O   UNL     1     -11.943  12.001  66.468  1.00  0.00    -0.616 OA 
HETATM   11  O   UNL     1     -10.974  10.872  64.419  1.00  0.00    -0.231 OA 
HETATM   12  OXT UNL     1      -9.006  11.035  63.409  1.00  0.00    -0.191 OA 
ENDROOT
BRANCH   4  13
HETATM   13  C   UNL     1      -7.130   9.631  65.040  1.00  0.00    -0.116 C  
BRANCH  13  14
HETATM   14  O   UNL     1      -7.620   8.303  65.283  1.00  0.00    -0.086 OA 
BRANCH  14  15
HETATM   15  C   UNL     1      -7.810   7.497  64.198  1.00  0.00    -0.130 C  
HETATM   16  C   UNL     1      -8.029   6.067  64.609  1.00  0.00    -0.130 C  
HETATM   17  O   UNL     1      -7.862   7.879  63.036  1.00  0.00    -0.129 OA 
ENDBRANCH  14  15
ENDBRANCH  13  14
ENDBRANCH   4  13
BRANCH   8  18
HETATM   18  N   UNL     1     -11.124  11.535  69.489  1.00  0.00    -0.407 N  
HETATM   19  C   UNL     1     -11.067  10.153  69.659  1.00  0.00    -0.263 C  
HETATM   20  H   UNL     1     -11.730  11.993  70.170  1.00  0.00     0.000 HD 
HETATM   21  O   UNL     1     -11.910   9.618  70.419  1.00  0.00    -0.240 OA 
BRANCH  19  22
HETATM   22  C   UNL     1      -9.982   9.242  69.087  1.00  0.00    -0.179 C  
BRANCH  22  23
HETATM   23  C   UNL     1      -8.763   8.904  69.849  1.00  0.00    -0.139 A  
HETATM   24  N   UNL     1      -8.520   9.324  71.162  1.00  0.00    -0.319 NA 
HETATM   25  H2  UNL     1      -6.458   8.103  73.357  1.00  0.00     0.000 HD 
HETATM   26  N   UNL     1      -7.172   8.730  72.986  1.00  0.00    -0.348 NA 
HETATM   27  C   UNL     1      -7.977   7.834  69.447  1.00  0.00    -0.124 A  
HETATM   28  S   UNL     1      -6.925   7.362  70.706  1.00  0.00    -0.056 SA 
HETATM   29  H1  UNL     1      -7.565   9.458  73.582  1.00  0.00     0.000 HD 
HETATM   30  C   UNL     1      -7.587   8.588  71.709  1.00  0.00    -0.114 A  
ENDBRANCH  22  23
BRANCH  22  31
HETATM   31  N   UNL     1      -9.825   8.891  67.847  1.00  0.00    -0.161 NA 
HETATM   32  H   UNL     1      -8.956   9.164  67.388  1.00  0.00     0.000 HD 
BRANCH  31  33
HETATM   33  O   UNL     1     -10.751   8.170  67.095  1.00  0.00    -0.316 OA 
HETATM   34  C   UNL     1     -10.802   6.765  67.203  1.00  0.00    -0.392 C  
ENDBRANCH  31  33
ENDBRANCH  22  31
ENDBRANCH  19  22
ENDBRANCH   8  18
TORSDOF 8
ENDMDL
MODEL      154
REMARK 921   NORMALIZED FREE ENERGY PREDICTED BY IDOCK:   -4.78 KCAL/MOL
REMARK 922        TOTAL FREE ENERGY PREDICTED BY IDOCK:   -8.16 KCAL/MOL
REMARK 923 INTER-LIGAND FREE ENERGY PREDICTED BY IDOCK:   -7.24 KCAL/MOL
REMARK 924 INTRA-LIGAND FREE ENERGY PREDICTED BY IDOCK:   -0.93 KCAL/MOL
REMARK 927      BINDING AFFINITY PREDICTED BY RF-SCORE:    0.00 PKD
ROOT
HETATM    1  C   UNL     1      -9.346  10.219  66.323  1.00  0.00    -0.167 C  
HETATM    2  S   UNL     1      -9.612  10.175  64.571  1.00  0.00    -0.284 SA 
HETATM    3  C   UNL     1     -10.895  11.436  64.305  1.00  0.00    -0.349 C  
HETATM    4  C   UNL     1     -11.395  12.212  65.491  1.00  0.00    -0.393 C  
HETATM    5  C   UNL     1     -10.087  10.193  68.249  1.00  0.00    -0.156 C  
HETATM    6  CA  UNL     1     -11.056  11.981  66.787  1.00  0.00    -0.305 C  
HETATM    7  N   UNL     1     -10.299  10.922  67.134  1.00  0.00    -0.210 N  
HETATM    8  CA  UNL     1      -9.485   9.044  67.381  1.00  0.00    -0.144 C  
HETATM    9  C   UNL     1     -11.554  12.912  67.848  1.00  0.00    -0.345 C  
HETATM   10  O   UNL     1     -10.520  10.279  69.375  1.00  0.00    -0.206 OA 
HETATM   11  O   UNL     1     -11.854  12.407  69.047  1.00  0.00    -0.302 OA 
HETATM   12  OXT UNL     1     -11.621  14.121  67.659  1.00  0.00    -0.323 OA 
ENDROOT
BRANCH   4  13
HETATM   13  C   UNL     1     -12.479  13.215  65.091  1.00  0.00    -0.483 C  
BRANCH  13  14
HETATM   14  O   UNL     1     -12.044  14.079  64.029  1.00  0.00    -0.473 OA 
BRANCH  14  15
HETATM   15  C   UNL     1     -11.782  15.379  64.346  1.00  0.00    -0.258 C  
HETATM   16  C   UNL     1     -10.568  15.493  65.228  1.00  0.00    -0.446 C  
HETATM   17  O   UNL     1     -12.402  16.347  63.928  1.00  0.00    -0.786 OA 
ENDBRANCH  14  15
ENDBRANCH  13  14
ENDBRANCH   4  13
BRANCH   8  18
HETATM   18  N   UNL     1     -10.355   7.792  67.425  1.00  0.00    -0.257 N  
HETATM   19  C   UNL     1     -10.112   6.449  67.705  1.00  0.00    -0.146 C  
HETATM   20  H   UNL     1     -11.331   7.980  67.199  1.00  0.00     0.000 HD 
HETATM   21  O   UNL     1     -11.007   5.618  67.420  1.00  0.00    -0.199 OA 
BRANCH  19  22
HETATM   22  C   UNL     1      -8.886   5.914  68.444  1.00  0.00    -0.111 C  
BRANCH  22  23
HETATM   23  C   UNL     1      -8.555   6.339  69.819  1.00  0.00    -0.137 A  
HETATM   24  N   UNL     1      -7.420   7.087  70.154  1.00  0.00    -0.084 NA 
HETATM   25  H2  UNL     1      -6.849   8.871  72.811  1.00  0.00     0.000 HD 
HETATM   26  N   UNL     1      -6.657   8.454  71.900  1.00  0.00    -0.067 NA 
HETATM   27  C   UNL     1      -9.545   6.357  70.790  1.00  0.00    -0.179 A  
HETATM   28  S   UNL     1      -9.052   7.297  72.127  1.00  0.00    -0.132 SA 
HETATM   29  H1  UNL     1      -5.776   8.656  71.428  1.00  0.00     0.000 HD 
HETATM   30  C   UNL     1      -7.569   7.638  71.331  1.00  0.00    -0.080 A  
ENDBRANCH  22  23
BRANCH  22  31
HETATM   31  N   UNL     1      -7.870   5.291  67.932  1.00  0.00    -0.091 NA 
HETATM   32  H   UNL     1      -7.485   4.506  68.457  1.00  0.00     0.000 HD 
BRANCH  31  33
HETATM   33  O   UNL     1      -7.264   5.610  66.717  1.00  0.00    -0.072 OA 
HETATM   34  C   UNL     1      -6.671   6.875  66.539  1.00  0.00    -0.052 C  
ENDBRANCH  31  33
ENDBRANCH  22  31
ENDBRANCH  19  22
ENDBRANCH   8  18
TORSDOF 8
ENDMDL
MODEL      155
REMARK 921   NORMALIZED FREE ENERGY PREDICTED BY IDOCK:   -4.77 KCAL/MOL
REMARK 922        TOTAL FREE ENERGY PREDICTED BY IDOCK:   -8.16 KCAL/MOL
REMARK 923 INTER-LIGAND FREE ENERGY PREDICTED BY IDOCK:   -6.89 KCAL/MOL
REMARK 924 INTRA-LIGAND FREE ENERGY PREDICTED BY IDOCK:   -1.27 KCAL/MOL
REMARK 927      BINDING AFFINITY PREDICTED BY RF-SCORE:    0.00 PKD
ROOT
HETATM    1  C   UNL     1      -9.802  12.488  68.766  1.00  0.00     0.021 C  
HETATM    2  S   UNL     1      -9.886  14.221  68.401  1.00  0.00    -0.234 SA 
HETATM    3  C   UNL     1     -11.408  14.757  69.239  1.00  0.00    -0.294 C  
HETATM    4  C   UNL     1     -12.190  13.743  70.024  1.00  0.00    -0.407 C  
HETATM    5  C   UNL     1     -10.689  10.626  68.831  1.00  0.00    -0.219 C  
HETATM    6  CA  UNL     1     -11.927  12.411  70.079  1.00  0.00    -0.299 C  
HETATM    7  N   UNL     1     -10.968  11.855  69.311  1.00  0.00    -0.193 N  
HETATM    8  CA  UNL     1      -9.746  11.261  67.762  1.00  0.00    -0.173 C  
HETATM    9  C   UNL     1     -12.733  11.545  70.996  1.00  0.00    -0.328 C  
HETATM   10  O   UNL     1     -11.232   9.553  68.966  1.00  0.00    -0.090 OA 
HETATM   11  O   UNL     1     -13.009  10.296  70.610  1.00  0.00    -0.354 OA 
HETATM   12  OXT UNL     1     -13.076  11.932  72.106  1.00  0.00    -0.443 OA 
ENDROOT
BRANCH   4  13
HETATM   13  C   UNL     1     -13.445  14.359  70.647  1.00  0.00     0.048 C  
BRANCH  13  14
HETATM   14  O   UNL     1     -13.157  15.592  71.325  1.00  0.00    -0.484 OA 
BRANCH  14  15
HETATM   15  C   UNL     1     -12.953  15.534  72.672  1.00  0.00    -0.445 C  
HETATM   16  C   UNL     1     -11.972  16.582  73.124  1.00  0.00    -0.469 C  
HETATM   17  O   UNL     1     -13.529  14.776  73.441  1.00  0.00    -0.513 OA 
ENDBRANCH  14  15
ENDBRANCH  13  14
ENDBRANCH   4  13
BRANCH   8  18
HETATM   18  N   UNL     1     -10.283  11.058  66.349  1.00  0.00    -0.229 N  
HETATM   19  C   UNL     1      -9.878  10.297  65.254  1.00  0.00    -0.306 C  
HETATM   20  H   UNL     1     -11.127  11.600  66.163  1.00  0.00     0.000 HD 
HETATM   21  O   UNL     1     -10.408  10.536  64.143  1.00  0.00    -0.313 OA 
BRANCH  19  22
HETATM   22  C   UNL     1      -8.921   9.108  65.319  1.00  0.00    -0.198 C  
BRANCH  22  23
HETATM   23  C   UNL     1      -9.105   8.006  66.285  1.00  0.00    -0.186 A  
HETATM   24  N   UNL     1      -9.763   6.807  65.987  1.00  0.00     0.112 NA 
HETATM   25  H2  UNL     1      -9.597   3.942  67.513  1.00  0.00     0.000 HD 
HETATM   26  N   UNL     1      -9.900   4.615  66.809  1.00  0.00    -0.200 NA 
HETATM   27  C   UNL     1      -8.301   7.940  67.413  1.00  0.00    -0.123 A  
HETATM   28  S   UNL     1      -8.378   6.383  68.109  1.00  0.00    -0.115 SA 
HETATM   29  H1  UNL     1     -10.539   4.321  66.070  1.00  0.00     0.000 HD 
HETATM   30  C   UNL     1      -9.453   5.888  66.864  1.00  0.00    -0.135 A  
ENDBRANCH  22  23
BRANCH  22  31
HETATM   31  N   UNL     1      -7.737   9.023  64.792  1.00  0.00    -0.105 NA 
HETATM   32  H   UNL     1      -7.406   8.096  64.525  1.00  0.00     0.000 HD 
BRANCH  31  33
HETATM   33  O   UNL     1      -6.882  10.101  64.564  1.00  0.00    -0.129 OA 
HETATM   34  C   UNL     1      -5.553  10.054  65.030  1.00  0.00    -0.091 C  
ENDBRANCH  31  33
ENDBRANCH  22  31
ENDBRANCH  19  22
ENDBRANCH   8  18
TORSDOF 8
ENDMDL
MODEL      156
REMARK 921   NORMALIZED FREE ENERGY PREDICTED BY IDOCK:   -4.76 KCAL/MOL
REMARK 922        TOTAL FREE ENERGY PREDICTED BY IDOCK:   -8.14 KCAL/MOL
REMARK 923 INTER-LIGAND FREE ENERGY PREDICTED BY IDOCK:   -6.98 KCAL/MOL
REMARK 924 INTRA-LIGAND FREE ENERGY PREDICTED BY IDOCK:   -1.16 KCAL/MOL
REMARK 927      BINDING AFFINITY PREDICTED BY RF-SCORE:    0.00 PKD
ROOT
HETATM    1  C   UNL     1      -9.483  10.590  65.436  1.00  0.00    -0.223 C  
HETATM    2  S   UNL     1     -11.013  11.329  64.931  1.00  0.00    -0.106 SA 
HETATM    3  C   UNL     1     -11.241  12.685  66.121  1.00  0.00    -0.309 C  
HETATM    4  C   UNL     1     -10.182  12.912  67.162  1.00  0.00    -0.239 C  
HETATM    5  C   UNL     1      -8.275   9.800  66.910  1.00  0.00    -0.117 C  
HETATM    6  CA  UNL     1      -9.100  12.118  67.376  1.00  0.00    -0.181 C  
HETATM    7  N   UNL     1      -8.946  10.952  66.717  1.00  0.00    -0.148 N  
HETATM    8  CA  UNL     1      -9.195   9.091  65.868  1.00  0.00    -0.230 C  
HETATM    9  C   UNL     1      -8.073  12.539  68.380  1.00  0.00    -0.136 C  
HETATM   10  O   UNL     1      -7.525   9.427  67.784  1.00  0.00    -0.086 OA 
HETATM   11  O   UNL     1      -7.459  11.593  69.095  1.00  0.00    -0.089 OA 
HETATM   12  OXT UNL     1      -7.741  13.711  68.503  1.00  0.00    -0.126 OA 
ENDROOT
BRANCH   4  13
HETATM   13  C   UNL     1     -10.541  14.078  68.086  1.00  0.00    -0.248 C  
BRANCH  13  14
HETATM   14  O   UNL     1     -10.906  15.255  67.348  1.00  0.00    -0.291 OA 
BRANCH  14  15
HETATM   15  C   UNL     1     -10.003  16.277  67.312  1.00  0.00    -0.250 C  
HETATM   16  C   UNL     1      -9.314  16.352  65.977  1.00  0.00    -0.335 C  
HETATM   17  O   UNL     1      -9.809  17.079  68.216  1.00  0.00    -0.256 OA 
ENDBRANCH  14  15
ENDBRANCH  13  14
ENDBRANCH   4  13
BRANCH   8  18
HETATM   18  N   UNL     1     -10.063   8.021  66.521  1.00  0.00    -0.441 N  
HETATM   19  C   UNL     1     -10.553   7.819  67.810  1.00  0.00    -0.185 C  
HETATM   20  H   UNL     1     -10.349   7.290  65.870  1.00  0.00     0.000 HD 
HETATM   21  O   UNL     1     -11.049   6.699  68.082  1.00  0.00    -0.257 OA 
BRANCH  19  22
HETATM   22  C   UNL     1     -10.645   8.893  68.892  1.00  0.00    -0.165 C  
BRANCH  22  23
HETATM   23  C   UNL     1     -10.231   8.636  70.286  1.00  0.00    -0.194 A  
HETATM   24  N   UNL     1     -11.123   8.337  71.324  1.00  0.00    -0.244 NA 
HETATM   25  H2  UNL     1     -10.537   6.913  74.186  1.00  0.00     0.000 HD 
HETATM   26  N   UNL     1     -11.091   7.355  73.452  1.00  0.00    -0.569 NA 
HETATM   27  C   UNL     1      -8.916   8.291  70.561  1.00  0.00    -0.147 A  
HETATM   28  S   UNL     1      -8.792   7.607  72.120  1.00  0.00    -0.133 SA 
HETATM   29  H1  UNL     1     -12.098   7.463  73.576  1.00  0.00     0.000 HD 
HETATM   30  C   UNL     1     -10.487   7.791  72.327  1.00  0.00    -0.246 A  
ENDBRANCH  22  23
BRANCH  22  31
HETATM   31  N   UNL     1     -11.313  10.005  68.841  1.00  0.00    -0.463 NA 
HETATM   32  H   UNL     1     -11.990  10.112  68.087  1.00  0.00     0.000 HD 
BRANCH  31  33
HETATM   33  O   UNL     1     -11.175  11.064  69.738  1.00  0.00    -0.258 OA 
HETATM   34  C   UNL     1     -12.300  11.539  70.442  1.00  0.00    -0.305 C  
ENDBRANCH  31  33
ENDBRANCH  22  31
ENDBRANCH  19  22
ENDBRANCH   8  18
TORSDOF 8
ENDMDL
MODEL      157
REMARK 921   NORMALIZED FREE ENERGY PREDICTED BY IDOCK:   -4.75 KCAL/MOL
REMARK 922        TOTAL FREE ENERGY PREDICTED BY IDOCK:   -8.13 KCAL/MOL
REMARK 923 INTER-LIGAND FREE ENERGY PREDICTED BY IDOCK:   -7.23 KCAL/MOL
REMARK 924 INTRA-LIGAND FREE ENERGY PREDICTED BY IDOCK:   -0.90 KCAL/MOL
REMARK 927      BINDING AFFINITY PREDICTED BY RF-SCORE:    0.00 PKD
ROOT
HETATM    1  C   UNL     1      -9.165  10.882  68.265  1.00  0.00    -0.161 C  
HETATM    2  S   UNL     1      -8.731  11.269  66.590  1.00  0.00    -0.178 SA 
HETATM    3  C   UNL     1      -9.718  12.754  66.230  1.00  0.00    -0.262 C  
HETATM    4  C   UNL     1     -10.583  13.322  67.318  1.00  0.00    -0.250 C  
HETATM    5  C   UNL     1     -10.595  10.559  69.717  1.00  0.00    -0.227 C  
HETATM    6  CA  UNL     1     -10.792  12.760  68.538  1.00  0.00    -0.253 C  
HETATM    7  N   UNL     1     -10.305  11.539  68.838  1.00  0.00    -0.199 N  
HETATM    8  CA  UNL     1      -9.786   9.544  68.849  1.00  0.00    -0.164 C  
HETATM    9  C   UNL     1     -11.596  13.505  69.557  1.00  0.00    -0.294 C  
HETATM   10  O   UNL     1     -11.424  10.465  70.593  1.00  0.00    -0.317 OA 
HETATM   11  O   UNL     1     -12.372  12.805  70.389  1.00  0.00    -0.318 OA 
HETATM   12  OXT UNL     1     -11.499  14.719  69.687  1.00  0.00    -0.262 OA 
ENDROOT
BRANCH   4  13
HETATM   13  C   UNL     1     -11.353  14.555  66.840  1.00  0.00    -0.348 C  
BRANCH  13  14
HETATM   14  O   UNL     1     -10.545  15.742  66.885  1.00  0.00    -0.312 OA 
BRANCH  14  15
HETATM   15  C   UNL     1     -10.596  16.575  65.806  1.00  0.00    -0.296 C  
HETATM   16  C   UNL     1     -10.298  17.997  66.197  1.00  0.00    -0.368 C  
HETATM   17  O   UNL     1     -10.794  16.223  64.651  1.00  0.00    -0.687 OA 
ENDBRANCH  14  15
ENDBRANCH  13  14
ENDBRANCH   4  13
BRANCH   8  18
HETATM   18  N   UNL     1     -10.690   8.476  68.244  1.00  0.00    -0.434 N  
HETATM   19  C   UNL     1     -10.511   7.476  67.290  1.00  0.00    -0.321 C  
HETATM   20  H   UNL     1     -11.637   8.498  68.622  1.00  0.00     0.000 HD 
HETATM   21  O   UNL     1     -11.532   6.908  66.834  1.00  0.00    -0.107 OA 
BRANCH  19  22
HETATM   22  C   UNL     1      -9.158   6.929  66.836  1.00  0.00    -0.139 C  
BRANCH  22  23
HETATM   23  C   UNL     1      -8.943   5.491  66.578  1.00  0.00    -0.123 A  
HETATM   24  N   UNL     1      -9.133   4.488  67.537  1.00  0.00    -0.115 NA 
HETATM   25  H2  UNL     1      -9.589   1.299  67.106  1.00  0.00     0.000 HD 
HETATM   26  N   UNL     1      -9.484   2.172  67.624  1.00  0.00    -0.389 NA 
HETATM   27  C   UNL     1      -8.919   5.023  65.273  1.00  0.00    -0.151 A  
HETATM   28  S   UNL     1      -9.122   3.328  65.245  1.00  0.00    -0.151 SA 
HETATM   29  H1  UNL     1      -9.559   2.168  68.641  1.00  0.00     0.000 HD 
HETATM   30  C   UNL     1      -9.248   3.322  66.958  1.00  0.00    -0.180 A  
ENDBRANCH  22  23
BRANCH  22  31
HETATM   31  N   UNL     1      -8.010   7.533  66.884  1.00  0.00    -0.114 NA 
HETATM   32  H   UNL     1      -7.500   7.504  67.767  1.00  0.00     0.000 HD 
BRANCH  31  33
HETATM   33  O   UNL     1      -7.420   8.218  65.823  1.00  0.00    -0.078 OA 
HETATM   34  C   UNL     1      -6.066   7.990  65.506  1.00  0.00    -0.038 C  
ENDBRANCH  31  33
ENDBRANCH  22  31
ENDBRANCH  19  22
ENDBRANCH   8  18
TORSDOF 8
ENDMDL
MODEL      158
REMARK 921   NORMALIZED FREE ENERGY PREDICTED BY IDOCK:   -4.75 KCAL/MOL
REMARK 922        TOTAL FREE ENERGY PREDICTED BY IDOCK:   -8.13 KCAL/MOL
REMARK 923 INTER-LIGAND FREE ENERGY PREDICTED BY IDOCK:   -6.26 KCAL/MOL
REMARK 924 INTRA-LIGAND FREE ENERGY PREDICTED BY IDOCK:   -1.87 KCAL/MOL
REMARK 927      BINDING AFFINITY PREDICTED BY RF-SCORE:    0.00 PKD
ROOT
HETATM    1  C   UNL     1     -10.976   6.208  68.667  1.00  0.00    -0.336 C  
HETATM    2  S   UNL     1     -10.657   7.243  67.264  1.00  0.00    -0.327 SA 
HETATM    3  C   UNL     1      -8.849   7.427  67.275  1.00  0.00    -0.124 C  
HETATM    4  C   UNL     1      -8.061   6.710  68.335  1.00  0.00    -0.115 C  
HETATM    5  C   UNL     1     -10.720   5.773  70.668  1.00  0.00    -0.281 C  
HETATM    6  CA  UNL     1      -8.588   6.012  69.376  1.00  0.00    -0.122 C  
HETATM    7  N   UNL     1      -9.915   6.002  69.611  1.00  0.00    -0.161 N  
HETATM    8  CA  UNL     1     -11.889   6.499  69.931  1.00  0.00    -0.156 C  
HETATM    9  C   UNL     1      -7.670   5.260  70.288  1.00  0.00    -0.072 C  
HETATM   10  O   UNL     1     -10.494   5.458  71.814  1.00  0.00    -0.215 OA 
HETATM   11  O   UNL     1      -7.987   5.181  71.583  1.00  0.00    -0.108 OA 
HETATM   12  OXT UNL     1      -6.690   4.664  69.861  1.00  0.00    -0.035 OA 
ENDROOT
BRANCH   4  13
HETATM   13  C   UNL     1      -6.562   6.987  68.207  1.00  0.00    -0.059 C  
BRANCH  13  14
HETATM   14  O   UNL     1      -6.133   8.037  69.089  1.00  0.00    -0.037 OA 
BRANCH  14  15
HETATM   15  C   UNL     1      -5.950   9.275  68.546  1.00  0.00    -0.044 C  
HETATM   16  C   UNL     1      -5.713  10.310  69.612  1.00  0.00    -0.039 C  
HETATM   17  O   UNL     1      -5.918   9.523  67.349  1.00  0.00    -0.048 OA 
ENDBRANCH  14  15
ENDBRANCH  13  14
ENDBRANCH   4  13
BRANCH   8  18
HETATM   18  N   UNL     1     -12.288   7.788  70.643  1.00  0.00    -0.508 N  
HETATM   19  C   UNL     1     -11.621   8.969  70.961  1.00  0.00    -0.300 C  
HETATM   20  H   UNL     1     -13.258   7.784  70.956  1.00  0.00     0.000 HD 
HETATM   21  O   UNL     1     -12.169   9.754  71.771  1.00  0.00    -0.382 OA 
BRANCH  19  22
HETATM   22  C   UNL     1     -10.324   9.447  70.310  1.00  0.00    -0.245 C  
BRANCH  22  23
HETATM   23  C   UNL     1     -10.318  10.200  69.040  1.00  0.00    -0.212 A  
HETATM   24  N   UNL     1     -11.476  10.596  68.360  1.00  0.00    -0.336 NA 
HETATM   25  H2  UNL     1     -11.843  12.915  66.112  1.00  0.00     0.000 HD 
HETATM   26  N   UNL     1     -12.125  12.160  66.739  1.00  0.00    -0.565 NA 
HETATM   27  C   UNL     1      -9.178  10.892  68.657  1.00  0.00    -0.187 A  
HETATM   28  S   UNL     1      -9.552  12.027  67.438  1.00  0.00    -0.178 SA 
HETATM   29  H1  UNL     1     -13.103  11.876  66.779  1.00  0.00     0.000 HD 
HETATM   30  C   UNL     1     -11.199  11.547  67.507  1.00  0.00    -0.298 A  
ENDBRANCH  22  23
BRANCH  22  31
HETATM   31  N   UNL     1      -9.117   9.052  70.581  1.00  0.00    -0.214 NA 
HETATM   32  H   UNL     1      -8.589   8.606  69.832  1.00  0.00     0.000 HD 
BRANCH  31  33
HETATM   33  O   UNL     1      -8.487   9.191  71.817  1.00  0.00    -0.340 OA 
HETATM   34  C   UNL     1      -8.707   8.235  72.829  1.00  0.00    -0.219 C  
ENDBRANCH  31  33
ENDBRANCH  22  31
ENDBRANCH  19  22
ENDBRANCH   8  18
TORSDOF 8
ENDMDL
MODEL      159
REMARK 921   NORMALIZED FREE ENERGY PREDICTED BY IDOCK:   -4.74 KCAL/MOL
REMARK 922        TOTAL FREE ENERGY PREDICTED BY IDOCK:   -8.12 KCAL/MOL
REMARK 923 INTER-LIGAND FREE ENERGY PREDICTED BY IDOCK:   -7.56 KCAL/MOL
REMARK 924 INTRA-LIGAND FREE ENERGY PREDICTED BY IDOCK:   -0.55 KCAL/MOL
REMARK 927      BINDING AFFINITY PREDICTED BY RF-SCORE:    0.00 PKD
ROOT
HETATM    1  C   UNL     1     -11.659  14.783  68.617  1.00  0.00    -0.319 C  
HETATM    2  S   UNL     1     -10.244  15.362  69.513  1.00  0.00    -0.275 SA 
HETATM    3  C   UNL     1      -9.169  16.043  68.214  1.00  0.00    -0.191 C  
HETATM    4  C   UNL     1      -9.657  16.019  66.793  1.00  0.00    -0.248 C  
HETATM    5  C   UNL     1     -12.475  13.700  67.062  1.00  0.00    -0.084 C  
HETATM    6  CA  UNL     1     -10.800  15.425  66.359  1.00  0.00    -0.303 C  
HETATM    7  N   UNL     1     -11.561  14.683  67.189  1.00  0.00    -0.375 N  
HETATM    8  CA  UNL     1     -12.273  13.321  68.562  1.00  0.00    -0.068 C  
HETATM    9  C   UNL     1     -11.206  15.582  64.927  1.00  0.00    -0.389 C  
HETATM   10  O   UNL     1     -12.955  13.150  66.097  1.00  0.00    -0.100 OA 
HETATM   11  O   UNL     1     -11.820  14.559  64.325  1.00  0.00    -0.408 OA 
HETATM   12  OXT UNL     1     -11.053  16.640  64.331  1.00  0.00    -0.985 OA 
ENDROOT
BRANCH   4  13
HETATM   13  C   UNL     1      -8.625  16.613  65.832  1.00  0.00    -0.036 C  
BRANCH  13  14
HETATM   14  O   UNL     1      -7.658  17.424  66.519  1.00  0.00    -0.228 OA 
BRANCH  14  15
HETATM   15  C   UNL     1      -7.388  18.655  65.996  1.00  0.00    -0.241 C  
HETATM   16  C   UNL     1      -5.974  18.735  65.488  1.00  0.00    -0.255 C  
HETATM   17  O   UNL     1      -8.195  19.568  65.888  1.00  0.00    -0.411 OA 
ENDBRANCH  14  15
ENDBRANCH  13  14
ENDBRANCH   4  13
BRANCH   8  18
HETATM   18  N   UNL     1     -11.655  11.935  68.714  1.00  0.00    -0.283 N  
HETATM   19  C   UNL     1     -10.753  11.186  67.962  1.00  0.00    -0.211 C  
HETATM   20  H   UNL     1     -11.972  11.450  69.552  1.00  0.00     0.000 HD 
HETATM   21  O   UNL     1     -10.627   9.968  68.237  1.00  0.00    -0.200 OA 
BRANCH  19  22
HETATM   22  C   UNL     1      -9.812  11.752  66.900  1.00  0.00    -0.203 C  
BRANCH  22  23
HETATM   23  C   UNL     1      -8.352  11.829  67.110  1.00  0.00    -0.168 A  
HETATM   24  N   UNL     1      -7.410  11.193  66.292  1.00  0.00    -0.099 NA 
HETATM   25  H2  UNL     1      -4.242  11.826  65.938  1.00  0.00     0.000 HD 
HETATM   26  N   UNL     1      -5.129  11.349  65.774  1.00  0.00    -0.423 NA 
HETATM   27  C   UNL     1      -7.823  12.848  67.888  1.00  0.00    -0.151 A  
HETATM   28  S   UNL     1      -6.146  13.001  67.608  1.00  0.00    -0.128 SA 
HETATM   29  H1  UNL     1      -5.177  10.592  65.093  1.00  0.00     0.000 HD 
HETATM   30  C   UNL     1      -6.228  11.726  66.461  1.00  0.00     0.079 A  
ENDBRANCH  22  23
BRANCH  22  31
HETATM   31  N   UNL     1     -10.135  12.463  65.863  1.00  0.00    -0.249 NA 
HETATM   32  H   UNL     1     -10.570  13.369  66.031  1.00  0.00     0.000 HD 
BRANCH  31  33
HETATM   33  O   UNL     1      -9.932  12.083  64.536  1.00  0.00    -0.257 OA 
HETATM   34  C   UNL     1     -10.904  11.310  63.871  1.00  0.00    -0.354 C  
ENDBRANCH  31  33
ENDBRANCH  22  31
ENDBRANCH  19  22
ENDBRANCH   8  18
TORSDOF 8
ENDMDL
MODEL      160
REMARK 921   NORMALIZED FREE ENERGY PREDICTED BY IDOCK:   -4.72 KCAL/MOL
REMARK 922        TOTAL FREE ENERGY PREDICTED BY IDOCK:   -8.07 KCAL/MOL
REMARK 923 INTER-LIGAND FREE ENERGY PREDICTED BY IDOCK:   -6.82 KCAL/MOL
REMARK 924 INTRA-LIGAND FREE ENERGY PREDICTED BY IDOCK:   -1.26 KCAL/MOL
REMARK 927      BINDING AFFINITY PREDICTED BY RF-SCORE:    0.00 PKD
ROOT
HETATM    1  C   UNL     1     -11.015   9.699  68.587  1.00  0.00    -0.111 C  
HETATM    2  S   UNL     1     -11.609   9.723  70.257  1.00  0.00    -0.184 SA 
HETATM    3  C   UNL     1     -11.977  11.479  70.551  1.00  0.00    -0.344 C  
HETATM    4  C   UNL     1     -11.765  12.454  69.428  1.00  0.00    -0.384 C  
HETATM    5  C   UNL     1      -9.768  10.439  67.118  1.00  0.00    -0.172 C  
HETATM    6  CA  UNL     1     -11.208  12.164  68.222  1.00  0.00    -0.268 C  
HETATM    7  N   UNL     1     -10.677  10.951  67.971  1.00  0.00    -0.202 N  
HETATM    8  CA  UNL     1      -9.621   9.183  68.033  1.00  0.00    -0.147 C  
HETATM    9  C   UNL     1     -11.166  13.223  67.165  1.00  0.00    -0.299 C  
HETATM   10  O   UNL     1      -9.112  10.932  66.229  1.00  0.00    -0.166 OA 
HETATM   11  O   UNL     1     -10.115  13.255  66.340  1.00  0.00    -0.276 OA 
HETATM   12  OXT UNL     1     -12.098  14.000  66.999  1.00  0.00    -0.427 OA 
ENDROOT
BRANCH   4  13
HETATM   13  C   UNL     1     -12.108  13.884  69.852  1.00  0.00    -0.344 C  
BRANCH  13  14
HETATM   14  O   UNL     1     -12.891  13.913  71.056  1.00  0.00    -0.328 OA 
BRANCH  14  15
HETATM   15  C   UNL     1     -12.770  15.013  71.855  1.00  0.00    -0.337 C  
HETATM   16  C   UNL     1     -11.327  15.390  72.052  1.00  0.00    -0.466 C  
HETATM   17  O   UNL     1     -13.703  15.660  72.311  1.00  0.00    -0.482 OA 
ENDBRANCH  14  15
ENDBRANCH  13  14
ENDBRANCH   4  13
BRANCH   8  18
HETATM   18  N   UNL     1      -8.230   9.099  68.653  1.00  0.00    -0.113 N  
HETATM   19  C   UNL     1      -7.609   8.216  69.534  1.00  0.00    -0.100 C  
HETATM   20  H   UNL     1      -7.618   9.860  68.358  1.00  0.00     0.000 HD 
HETATM   21  O   UNL     1      -6.516   8.563  70.042  1.00  0.00    -0.037 OA 
BRANCH  19  22
HETATM   22  C   UNL     1      -8.094   6.800  69.843  1.00  0.00    -0.126 C  
BRANCH  22  23
HETATM   23  C   UNL     1      -9.003   6.514  70.971  1.00  0.00    -0.146 A  
HETATM   24  N   UNL     1      -8.793   6.967  72.279  1.00  0.00    -0.132 NA 
HETATM   25  H2  UNL     1     -10.926   7.266  74.713  1.00  0.00     0.000 HD 
HETATM   26  N   UNL     1     -10.021   7.318  74.245  1.00  0.00    -0.425 NA 
HETATM   27  C   UNL     1     -10.307   6.114  70.718  1.00  0.00    -0.213 A  
HETATM   28  S   UNL     1     -11.267   6.292  72.119  1.00  0.00    -0.296 SA 
HETATM   29  H1  UNL     1      -9.212   7.682  74.749  1.00  0.00     0.000 HD 
HETATM   30  C   UNL     1      -9.904   6.905  72.966  1.00  0.00    -0.179 A  
ENDBRANCH  22  23
BRANCH  22  31
HETATM   31  N   UNL     1      -7.600   5.686  69.397  1.00  0.00    -0.081 NA 
HETATM   32  H   UNL     1      -8.015   5.292  68.553  1.00  0.00     0.000 HD 
BRANCH  31  33
HETATM   33  O   UNL     1      -6.545   4.985  69.981  1.00  0.00    -0.033 OA 
HETATM   34  C   UNL     1      -5.251   5.079  69.433  1.00  0.00     0.000 C  
ENDBRANCH  31  33
ENDBRANCH  22  31
ENDBRANCH  19  22
ENDBRANCH   8  18
TORSDOF 8
ENDMDL
MODEL      161
REMARK 921   NORMALIZED FREE ENERGY PREDICTED BY IDOCK:   -4.71 KCAL/MOL
REMARK 922        TOTAL FREE ENERGY PREDICTED BY IDOCK:   -8.07 KCAL/MOL
REMARK 923 INTER-LIGAND FREE ENERGY PREDICTED BY IDOCK:   -6.94 KCAL/MOL
REMARK 924 INTRA-LIGAND FREE ENERGY PREDICTED BY IDOCK:   -1.13 KCAL/MOL
REMARK 927      BINDING AFFINITY PREDICTED BY RF-SCORE:    0.00 PKD
ROOT
HETATM    1  C   UNL     1     -11.208  10.437  68.080  1.00  0.00    -0.272 C  
HETATM    2  S   UNL     1     -11.525  11.570  69.405  1.00  0.00    -0.331 SA 
HETATM    3  C   UNL     1     -11.924  13.124  68.547  1.00  0.00    -0.289 C  
HETATM    4  C   UNL     1     -11.942  13.129  67.045  1.00  0.00    -0.412 C  
HETATM    5  C   UNL     1     -10.250   9.968  66.313  1.00  0.00    -0.215 C  
HETATM    6  CA  UNL     1     -11.574  12.094  66.245  1.00  0.00    -0.360 C  
HETATM    7  N   UNL     1     -11.033  10.971  66.759  1.00  0.00    -0.251 N  
HETATM    8  CA  UNL     1      -9.899   9.590  67.785  1.00  0.00    -0.160 C  
HETATM    9  C   UNL     1     -11.753  12.216  64.764  1.00  0.00    -0.327 C  
HETATM   10  O   UNL     1      -9.771   9.727  65.229  1.00  0.00    -0.294 OA 
HETATM   11  O   UNL     1     -10.851  11.637  63.965  1.00  0.00    -0.334 OA 
HETATM   12  OXT UNL     1     -12.734  12.766  64.281  1.00  0.00    -0.654 OA 
ENDROOT
BRANCH   4  13
HETATM   13  C   UNL     1     -12.279  14.515  66.491  1.00  0.00    -0.244 C  
BRANCH  13  14
HETATM   14  O   UNL     1     -11.242  15.470  66.770  1.00  0.00    -0.265 OA 
BRANCH  14  15
HETATM   15  C   UNL     1     -10.518  15.936  65.711  1.00  0.00    -0.370 C  
HETATM   16  C   UNL     1      -9.040  15.807  65.961  1.00  0.00    -0.361 C  
HETATM   17  O   UNL     1     -10.990  16.349  64.661  1.00  0.00    -0.707 OA 
ENDBRANCH  14  15
ENDBRANCH  13  14
ENDBRANCH   4  13
BRANCH   8  18
HETATM   18  N   UNL     1      -8.424   9.831  68.090  1.00  0.00    -0.114 N  
HETATM   19  C   UNL     1      -7.394   9.040  68.596  1.00  0.00    -0.077 C  
HETATM   20  H   UNL     1      -8.125  10.782  67.876  1.00  0.00     0.000 HD 
HETATM   21  O   UNL     1      -6.336   9.611  68.955  1.00  0.00    -0.042 OA 
BRANCH  19  22
HETATM   22  C   UNL     1      -7.401   7.513  68.642  1.00  0.00    -0.095 C  
BRANCH  22  23
HETATM   23  C   UNL     1      -7.128   6.767  69.887  1.00  0.00    -0.071 A  
HETATM   24  N   UNL     1      -8.116   6.390  70.805  1.00  0.00    -0.118 NA 
HETATM   25  H2  UNL     1      -8.013   4.088  73.097  1.00  0.00     0.000 HD 
HETATM   26  N   UNL     1      -8.415   4.842  72.540  1.00  0.00    -0.119 NA 
HETATM   27  C   UNL     1      -5.940   6.063  70.019  1.00  0.00    -0.025 A  
HETATM   28  S   UNL     1      -6.054   4.939  71.299  1.00  0.00    -0.019 SA 
HETATM   29  H1  UNL     1      -9.376   5.139  72.711  1.00  0.00     0.000 HD 
HETATM   30  C   UNL     1      -7.671   5.439  71.585  1.00  0.00    -0.106 A  
ENDBRANCH  22  23
BRANCH  22  31
HETATM   31  N   UNL     1      -7.356   6.697  67.633  1.00  0.00    -0.093 NA 
HETATM   32  H   UNL     1      -6.580   6.799  66.980  1.00  0.00     0.000 HD 
BRANCH  31  33
HETATM   33  O   UNL     1      -8.286   5.690  67.375  1.00  0.00    -0.102 OA 
HETATM   34  C   UNL     1      -9.662   5.948  67.536  1.00  0.00    -0.115 C  
ENDBRANCH  31  33
ENDBRANCH  22  31
ENDBRANCH  19  22
ENDBRANCH   8  18
TORSDOF 8
ENDMDL
MODEL      162
REMARK 921   NORMALIZED FREE ENERGY PREDICTED BY IDOCK:   -4.71 KCAL/MOL
REMARK 922        TOTAL FREE ENERGY PREDICTED BY IDOCK:   -8.06 KCAL/MOL
REMARK 923 INTER-LIGAND FREE ENERGY PREDICTED BY IDOCK:   -6.82 KCAL/MOL
REMARK 924 INTRA-LIGAND FREE ENERGY PREDICTED BY IDOCK:   -1.24 KCAL/MOL
REMARK 927      BINDING AFFINITY PREDICTED BY RF-SCORE:    0.00 PKD
ROOT
HETATM    1  C   UNL     1      -8.621   8.852  68.074  1.00  0.00    -0.130 C  
HETATM    2  S   UNL     1      -7.676   9.454  69.447  1.00  0.00    -0.092 SA 
HETATM    3  C   UNL     1      -7.334   7.954  70.416  1.00  0.00    -0.068 C  
HETATM    4  C   UNL     1      -7.832   6.635  69.896  1.00  0.00    -0.115 C  
HETATM    5  C   UNL     1     -10.193   7.741  67.329  1.00  0.00    -0.273 C  
HETATM    6  CA  UNL     1      -8.626   6.462  68.807  1.00  0.00    -0.123 C  
HETATM    7  N   UNL     1      -9.143   7.517  68.145  1.00  0.00    -0.129 N  
HETATM    8  CA  UNL     1     -10.077   9.273  67.605  1.00  0.00    -0.214 C  
HETATM    9  C   UNL     1      -8.948   5.074  68.351  1.00  0.00    -0.107 C  
HETATM   10  O   UNL     1     -11.050   7.014  66.881  1.00  0.00    -0.359 OA 
HETATM   11  O   UNL     1     -10.155   4.841  67.827  1.00  0.00    -0.139 OA 
HETATM   12  OXT UNL     1      -8.113   4.179  68.384  1.00  0.00    -0.079 OA 
ENDROOT
BRANCH   4  13
HETATM   13  C   UNL     1      -7.471   5.485  70.840  1.00  0.00    -0.089 C  
BRANCH  13  14
HETATM   14  O   UNL     1      -8.171   5.579  72.091  1.00  0.00    -0.110 OA 
BRANCH  14  15
HETATM   15  C   UNL     1      -9.511   5.324  72.079  1.00  0.00    -0.145 C  
HETATM   16  C   UNL     1      -9.791   3.879  71.771  1.00  0.00    -0.249 C  
HETATM   17  O   UNL     1     -10.386   6.138  72.345  1.00  0.00    -0.187 OA 
ENDBRANCH  14  15
ENDBRANCH  13  14
ENDBRANCH   4  13
BRANCH   8  18
HETATM   18  N   UNL     1     -11.292   9.800  68.361  1.00  0.00    -0.517 N  
HETATM   19  C   UNL     1     -11.888  11.053  68.491  1.00  0.00    -0.216 C  
HETATM   20  H   UNL     1     -11.777   9.075  68.889  1.00  0.00     0.000 HD 
HETATM   21  O   UNL     1     -12.751  11.204  69.389  1.00  0.00    -0.240 OA 
BRANCH  19  22
HETATM   22  C   UNL     1     -11.662  12.235  67.549  1.00  0.00    -0.332 C  
BRANCH  22  23
HETATM   23  C   UNL     1     -11.201  13.549  68.040  1.00  0.00    -0.271 A  
HETATM   24  N   UNL     1      -9.929  13.781  68.579  1.00  0.00    -0.232 NA 
HETATM   25  H2  UNL     1      -8.331  16.589  68.929  1.00  0.00     0.000 HD 
HETATM   26  N   UNL     1      -8.486  15.583  68.987  1.00  0.00    -0.210 NA 
HETATM   27  C   UNL     1     -11.858  14.702  67.637  1.00  0.00    -0.337 A  
HETATM   28  S   UNL     1     -10.893  16.076  67.943  1.00  0.00    -0.325 SA 
HETATM   29  H1  UNL     1      -7.752  14.980  69.360  1.00  0.00     0.000 HD 
HETATM   30  C   UNL     1      -9.659  15.060  68.571  1.00  0.00    -0.210 A  
ENDBRANCH  22  23
BRANCH  22  31
HETATM   31  N   UNL     1     -12.081  12.356  66.327  1.00  0.00    -0.630 NA 
HETATM   32  H   UNL     1     -12.937  12.889  66.174  1.00  0.00     0.000 HD 
BRANCH  31  33
HETATM   33  O   UNL     1     -11.451  11.815  65.206  1.00  0.00    -0.284 OA 
HETATM   34  C   UNL     1     -11.260  12.608  64.057  1.00  0.00    -0.406 C  
ENDBRANCH  31  33
ENDBRANCH  22  31
ENDBRANCH  19  22
ENDBRANCH   8  18
TORSDOF 8
ENDMDL
MODEL      163
REMARK 921   NORMALIZED FREE ENERGY PREDICTED BY IDOCK:   -4.69 KCAL/MOL
REMARK 922        TOTAL FREE ENERGY PREDICTED BY IDOCK:   -8.03 KCAL/MOL
REMARK 923 INTER-LIGAND FREE ENERGY PREDICTED BY IDOCK:   -7.02 KCAL/MOL
REMARK 924 INTRA-LIGAND FREE ENERGY PREDICTED BY IDOCK:   -1.02 KCAL/MOL
REMARK 927      BINDING AFFINITY PREDICTED BY RF-SCORE:    0.00 PKD
ROOT
HETATM    1  C   UNL     1      -8.434  10.810  67.666  1.00  0.00    -0.119 C  
HETATM    2  S   UNL     1      -7.346  11.836  68.618  1.00  0.00    -0.115 SA 
HETATM    3  C   UNL     1      -6.937  10.800  70.055  1.00  0.00    -0.084 C  
HETATM    4  C   UNL     1      -7.509   9.413  70.126  1.00  0.00    -0.120 C  
HETATM    5  C   UNL     1     -10.092   9.589  67.541  1.00  0.00    -0.204 C  
HETATM    6  CA  UNL     1      -8.411   8.883  69.258  1.00  0.00    -0.119 C  
HETATM    7  N   UNL     1      -8.971   9.634  68.288  1.00  0.00    -0.123 N  
HETATM    8  CA  UNL     1      -9.921  11.101  67.197  1.00  0.00    -0.186 C  
HETATM    9  C   UNL     1      -8.803   7.446  69.399  1.00  0.00    -0.137 C  
HETATM   10  O   UNL     1     -11.003   8.794  67.481  1.00  0.00    -0.120 OA 
HETATM   11  O   UNL     1     -10.059   7.099  69.108  1.00  0.00    -0.174 OA 
HETATM   12  OXT UNL     1      -7.985   6.586  69.701  1.00  0.00    -0.115 OA 
ENDROOT
BRANCH   4  13
HETATM   13  C   UNL     1      -7.078   8.690  71.404  1.00  0.00    -0.088 C  
BRANCH  13  14
HETATM   14  O   UNL     1      -8.006   8.904  72.480  1.00  0.00    -0.374 OA 
BRANCH  14  15
HETATM   15  C   UNL     1      -8.110   7.922  73.421  1.00  0.00    -0.177 C  
HETATM   16  C   UNL     1      -9.542   7.508  73.626  1.00  0.00    -0.347 C  
HETATM   17  O   UNL     1      -7.167   7.388  73.992  1.00  0.00    -0.089 OA 
ENDBRANCH  14  15
ENDBRANCH  13  14
ENDBRANCH   4  13
BRANCH   8  18
HETATM   18  N   UNL     1     -11.045  11.943  67.793  1.00  0.00    -0.223 N  
HETATM   19  C   UNL     1     -11.411  13.284  67.697  1.00  0.00    -0.296 C  
HETATM   20  H   UNL     1     -11.667  11.405  68.395  1.00  0.00     0.000 HD 
HETATM   21  O   UNL     1     -12.260  13.722  68.510  1.00  0.00    -0.348 OA 
BRANCH  19  22
HETATM   22  C   UNL     1     -10.949  14.244  66.601  1.00  0.00    -0.310 C  
BRANCH  22  23
HETATM   23  C   UNL     1     -10.135  15.439  66.901  1.00  0.00    -0.257 A  
HETATM   24  N   UNL     1      -8.975  15.791  66.201  1.00  0.00    -0.340 NA 
HETATM   25  H2  UNL     1      -7.489  18.675  66.009  1.00  0.00     0.000 HD 
HETATM   26  N   UNL     1      -7.644  17.684  65.825  1.00  0.00    -0.527 NA 
HETATM   27  C   UNL     1     -10.687  16.482  67.630  1.00  0.00    -0.311 A  
HETATM   28  S   UNL     1      -9.750  17.897  67.452  1.00  0.00    -0.298 SA 
HETATM   29  H1  UNL     1      -7.010  17.181  65.204  1.00  0.00     0.000 HD 
HETATM   30  C   UNL     1      -8.683  17.049  66.406  1.00  0.00    -0.273 A  
ENDBRANCH  22  23
BRANCH  22  31
HETATM   31  N   UNL     1     -11.399  14.326  65.387  1.00  0.00    -0.319 NA 
HETATM   32  H   UNL     1     -12.214  14.917  65.226  1.00  0.00     0.000 HD 
BRANCH  31  33
HETATM   33  O   UNL     1     -10.856  13.667  64.284  1.00  0.00    -0.388 OA 
HETATM   34  C   UNL     1     -11.413  12.448  63.849  1.00  0.00    -0.436 C  
ENDBRANCH  31  33
ENDBRANCH  22  31
ENDBRANCH  19  22
ENDBRANCH   8  18
TORSDOF 8
ENDMDL
MODEL      164
REMARK 921   NORMALIZED FREE ENERGY PREDICTED BY IDOCK:   -4.69 KCAL/MOL
REMARK 922        TOTAL FREE ENERGY PREDICTED BY IDOCK:   -8.03 KCAL/MOL
REMARK 923 INTER-LIGAND FREE ENERGY PREDICTED BY IDOCK:   -6.23 KCAL/MOL
REMARK 924 INTRA-LIGAND FREE ENERGY PREDICTED BY IDOCK:   -1.80 KCAL/MOL
REMARK 927      BINDING AFFINITY PREDICTED BY RF-SCORE:    0.00 PKD
ROOT
HETATM    1  C   UNL     1     -11.935   8.269  71.337  1.00  0.00    -0.299 C  
HETATM    2  S   UNL     1     -11.657   9.963  70.896  1.00  0.00    -0.399 SA 
HETATM    3  C   UNL     1     -10.768   9.849  69.313  1.00  0.00    -0.224 C  
HETATM    4  C   UNL     1     -10.507   8.487  68.734  1.00  0.00    -0.208 C  
HETATM    5  C   UNL     1     -11.226   6.351  71.616  1.00  0.00    -0.278 C  
HETATM    6  CA  UNL     1     -10.777   7.303  69.343  1.00  0.00    -0.225 C  
HETATM    7  N   UNL     1     -11.217   7.256  70.617  1.00  0.00    -0.268 N  
HETATM    8  CA  UNL     1     -11.485   7.494  72.646  1.00  0.00    -0.319 C  
HETATM    9  C   UNL     1     -10.560   6.028  68.590  1.00  0.00    -0.266 C  
HETATM   10  O   UNL     1     -10.840   5.206  71.686  1.00  0.00    -0.169 OA 
HETATM   11  O   UNL     1     -10.140   4.955  69.265  1.00  0.00    -0.209 OA 
HETATM   12  OXT UNL     1     -10.826   5.936  67.398  1.00  0.00    -0.276 OA 
ENDROOT
BRANCH   4  13
HETATM   13  C   UNL     1      -9.738   8.575  67.414  1.00  0.00    -0.170 C  
BRANCH  13  14
HETATM   14  O   UNL     1     -10.524   9.182  66.375  1.00  0.00    -0.213 OA 
BRANCH  14  15
HETATM   15  C   UNL     1      -9.852   9.824  65.376  1.00  0.00    -0.295 C  
HETATM   16  C   UNL     1      -8.363   9.715  65.559  1.00  0.00    -0.143 C  
HETATM   17  O   UNL     1     -10.374  10.370  64.413  1.00  0.00    -0.304 OA 
ENDBRANCH  14  15
ENDBRANCH  13  14
ENDBRANCH   4  13
BRANCH   8  18
HETATM   18  N   UNL     1     -10.305   7.672  73.597  1.00  0.00    -0.335 N  
HETATM   19  C   UNL     1      -8.923   7.731  73.430  1.00  0.00    -0.256 C  
HETATM   20  H   UNL     1     -10.592   7.769  74.570  1.00  0.00     0.000 HD 
HETATM   21  O   UNL     1      -8.203   7.645  74.454  1.00  0.00    -0.191 OA 
BRANCH  19  22
HETATM   22  C   UNL     1      -8.209   8.011  72.109  1.00  0.00    -0.137 C  
BRANCH  22  23
HETATM   23  C   UNL     1      -7.470   6.960  71.381  1.00  0.00    -0.082 A  
HETATM   24  N   UNL     1      -7.315   6.935  69.989  1.00  0.00    -0.080 NA 
HETATM   25  H2  UNL     1      -5.119   5.343  68.200  1.00  0.00     0.000 HD 
HETATM   26  N   UNL     1      -5.913   5.954  68.386  1.00  0.00    -0.019 NA 
HETATM   27  C   UNL     1      -6.565   6.160  72.061  1.00  0.00    -0.059 A  
HETATM   28  S   UNL     1      -5.528   5.365  70.961  1.00  0.00    -0.009 SA 
HETATM   29  H1  UNL     1      -6.388   6.416  67.611  1.00  0.00     0.000 HD 
HETATM   30  C   UNL     1      -6.328   6.144  69.656  1.00  0.00    -0.034 A  
ENDBRANCH  22  23
BRANCH  22  31
HETATM   31  N   UNL     1      -7.910   9.171  71.608  1.00  0.00    -0.331 NA 
HETATM   32  H   UNL     1      -8.679   9.759  71.290  1.00  0.00     0.000 HD 
BRANCH  31  33
HETATM   33  O   UNL     1      -6.617   9.675  71.472  1.00  0.00    -0.306 OA 
HETATM   34  C   UNL     1      -6.277  10.441  70.339  1.00  0.00    -0.126 C  
ENDBRANCH  31  33
ENDBRANCH  22  31
ENDBRANCH  19  22
ENDBRANCH   8  18
TORSDOF 8
ENDMDL
MODEL      165
REMARK 921   NORMALIZED FREE ENERGY PREDICTED BY IDOCK:   -4.65 KCAL/MOL
REMARK 922        TOTAL FREE ENERGY PREDICTED BY IDOCK:   -7.98 KCAL/MOL
REMARK 923 INTER-LIGAND FREE ENERGY PREDICTED BY IDOCK:   -6.81 KCAL/MOL
REMARK 924 INTRA-LIGAND FREE ENERGY PREDICTED BY IDOCK:   -1.17 KCAL/MOL
REMARK 927      BINDING AFFINITY PREDICTED BY RF-SCORE:    0.00 PKD
ROOT
HETATM    1  C   UNL     1      -9.159  10.561  68.744  1.00  0.00    -0.166 C  
HETATM    2  S   UNL     1      -8.423  10.430  67.137  1.00  0.00    -0.126 SA 
HETATM    3  C   UNL     1      -9.222  11.764  66.195  1.00  0.00    -0.210 C  
HETATM    4  C   UNL     1     -10.214  12.646  66.900  1.00  0.00    -0.242 C  
HETATM    5  C   UNL     1     -10.833  10.710  69.942  1.00  0.00    -0.241 C  
HETATM    6  CA  UNL     1     -10.665  12.472  68.170  1.00  0.00    -0.227 C  
HETATM    7  N   UNL     1     -10.328  11.382  68.888  1.00  0.00    -0.204 N  
HETATM    8  CA  UNL     1      -9.967   9.468  69.562  1.00  0.00    -0.194 C  
HETATM    9  C   UNL     1     -11.571  13.501  68.770  1.00  0.00    -0.325 C  
HETATM   10  O   UNL     1     -11.802  10.896  70.642  1.00  0.00    -0.327 OA 
HETATM   11  O   UNL     1     -12.526  13.093  69.611  1.00  0.00    -0.125 OA 
HETATM   12  OXT UNL     1     -11.407  14.696  68.563  1.00  0.00    -0.258 OA 
ENDROOT
BRANCH   4  13
HETATM   13  C   UNL     1     -10.798  13.701  65.958  1.00  0.00    -0.275 C  
BRANCH  13  14
HETATM   14  O   UNL     1     -12.023  13.258  65.351  1.00  0.00    -0.352 OA 
BRANCH  14  15
HETATM   15  C   UNL     1     -12.097  13.297  63.989  1.00  0.00    -0.447 C  
HETATM   16  C   UNL     1     -11.432  12.099  63.370  1.00  0.00    -0.501 C  
HETATM   17  O   UNL     1     -12.679  14.155  63.339  1.00  0.00    -0.767 OA 
ENDBRANCH  14  15
ENDBRANCH  13  14
ENDBRANCH   4  13
BRANCH   8  18
HETATM   18  N   UNL     1     -10.834   8.289  69.132  1.00  0.00    -0.416 N  
HETATM   19  C   UNL     1     -10.568   7.033  68.591  1.00  0.00    -0.210 C  
HETATM   20  H   UNL     1     -11.830   8.457  69.272  1.00  0.00     0.000 HD 
HETATM   21  O   UNL     1     -11.530   6.379  68.122  1.00  0.00    -0.169 OA 
BRANCH  19  22
HETATM   22  C   UNL     1      -9.211   6.330  68.628  1.00  0.00    -0.124 C  
BRANCH  22  23
HETATM   23  C   UNL     1      -8.432   6.199  69.875  1.00  0.00    -0.129 A  
HETATM   24  N   UNL     1      -7.341   7.013  70.205  1.00  0.00    -0.079 NA 
HETATM   25  H2  UNL     1      -6.003   7.569  73.114  1.00  0.00     0.000 HD 
HETATM   26  N   UNL     1      -6.126   7.653  72.105  1.00  0.00    -0.039 NA 
HETATM   27  C   UNL     1      -8.977   5.525  70.958  1.00  0.00    -0.140 A  
HETATM   28  S   UNL     1      -8.118   5.898  72.385  1.00  0.00    -0.110 SA 
HETATM   29  H1  UNL     1      -5.516   8.273  71.572  1.00  0.00     0.000 HD 
HETATM   30  C   UNL     1      -7.092   6.942  71.487  1.00  0.00    -0.075 A  
ENDBRANCH  22  23
BRANCH  22  31
HETATM   31  N   UNL     1      -8.456   6.027  67.616  1.00  0.00    -0.108 NA 
HETATM   32  H   UNL     1      -7.953   6.787  67.160  1.00  0.00     0.000 HD 
BRANCH  31  33
HETATM   33  O   UNL     1      -8.281   4.741  67.105  1.00  0.00    -0.106 OA 
HETATM   34  C   UNL     1      -8.769   4.423  65.822  1.00  0.00    -0.120 C  
ENDBRANCH  31  33
ENDBRANCH  22  31
ENDBRANCH  19  22
ENDBRANCH   8  18
TORSDOF 8
ENDMDL
MODEL      166
REMARK 921   NORMALIZED FREE ENERGY PREDICTED BY IDOCK:   -4.65 KCAL/MOL
REMARK 922        TOTAL FREE ENERGY PREDICTED BY IDOCK:   -7.98 KCAL/MOL
REMARK 923 INTER-LIGAND FREE ENERGY PREDICTED BY IDOCK:   -7.20 KCAL/MOL
REMARK 924 INTRA-LIGAND FREE ENERGY PREDICTED BY IDOCK:   -0.78 KCAL/MOL
REMARK 927      BINDING AFFINITY PREDICTED BY RF-SCORE:    0.00 PKD
ROOT
HETATM    1  C   UNL     1      -9.394  10.541  68.462  1.00  0.00    -0.168 C  
HETATM    2  S   UNL     1      -9.195  10.515  66.700  1.00  0.00    -0.158 SA 
HETATM    3  C   UNL     1     -10.350  11.796  66.125  1.00  0.00    -0.230 C  
HETATM    4  C   UNL     1     -11.132  12.570  67.148  1.00  0.00    -0.321 C  
HETATM    5  C   UNL     1     -10.610  10.512  70.128  1.00  0.00    -0.105 C  
HETATM    6  CA  UNL     1     -11.144  12.325  68.485  1.00  0.00    -0.249 C  
HETATM    7  N   UNL     1     -10.516  11.252  69.006  1.00  0.00    -0.212 N  
HETATM    8  CA  UNL     1      -9.817   9.361  69.434  1.00  0.00    -0.178 C  
HETATM    9  C   UNL     1     -11.890  13.255  69.390  1.00  0.00    -0.329 C  
HETATM   10  O   UNL     1     -11.320  10.595  71.105  1.00  0.00    -0.101 OA 
HETATM   11  O   UNL     1     -12.497  12.744  70.465  1.00  0.00    -0.289 OA 
HETATM   12  OXT UNL     1     -11.891  14.465  69.204  1.00  0.00    -0.291 OA 
ENDROOT
BRANCH   4  13
HETATM   13  C   UNL     1     -12.063  13.592  66.492  1.00  0.00    -0.408 C  
BRANCH  13  14
HETATM   14  O   UNL     1     -11.409  14.854  66.281  1.00  0.00    -0.343 OA 
BRANCH  14  15
HETATM   15  C   UNL     1     -11.395  15.346  65.008  1.00  0.00    -0.333 C  
HETATM   16  C   UNL     1     -12.385  14.629  64.132  1.00  0.00    -0.294 C  
HETATM   17  O   UNL     1     -10.718  16.291  64.625  1.00  0.00    -0.670 OA 
ENDBRANCH  14  15
ENDBRANCH  13  14
ENDBRANCH   4  13
BRANCH   8  18
HETATM   18  N   UNL     1     -10.683   8.121  69.237  1.00  0.00    -0.369 N  
HETATM   19  C   UNL     1     -10.722   6.859  69.825  1.00  0.00    -0.244 C  
HETATM   20  H   UNL     1     -11.391   8.243  68.514  1.00  0.00     0.000 HD 
HETATM   21  O   UNL     1     -11.409   5.971  69.267  1.00  0.00    -0.384 OA 
BRANCH  19  22
HETATM   22  C   UNL     1     -10.088   6.496  71.167  1.00  0.00    -0.183 C  
BRANCH  22  23
HETATM   23  C   UNL     1     -10.489   5.291  71.921  1.00  0.00    -0.219 A  
HETATM   24  N   UNL     1     -10.091   3.991  71.586  1.00  0.00    -0.154 NA 
HETATM   25  H2  UNL     1     -10.054   1.318  73.434  1.00  0.00     0.000 HD 
HETATM   26  N   UNL     1      -9.920   1.881  72.595  1.00  0.00    -0.113 NA 
HETATM   27  C   UNL     1     -10.956   5.417  73.221  1.00  0.00    -0.307 A  
HETATM   28  S   UNL     1     -10.911   3.910  74.019  1.00  0.00    -0.084 SA 
HETATM   29  H1  UNL     1      -9.532   1.452  71.754  1.00  0.00     0.000 HD 
HETATM   30  C   UNL     1     -10.258   3.188  72.604  1.00  0.00    -0.154 A  
ENDBRANCH  22  23
BRANCH  22  31
HETATM   31  N   UNL     1      -9.378   7.266  71.935  1.00  0.00    -0.138 NA 
HETATM   32  H   UNL     1      -9.871   7.975  72.475  1.00  0.00     0.000 HD 
BRANCH  31  33
HETATM   33  O   UNL     1      -7.992   7.197  72.077  1.00  0.00    -0.092 OA 
HETATM   34  C   UNL     1      -7.433   6.716  73.278  1.00  0.00    -0.084 C  
ENDBRANCH  31  33
ENDBRANCH  22  31
ENDBRANCH  19  22
ENDBRANCH   8  18
TORSDOF 8
ENDMDL
MODEL      167
REMARK 921   NORMALIZED FREE ENERGY PREDICTED BY IDOCK:   -4.63 KCAL/MOL
REMARK 922        TOTAL FREE ENERGY PREDICTED BY IDOCK:   -7.95 KCAL/MOL
REMARK 923 INTER-LIGAND FREE ENERGY PREDICTED BY IDOCK:   -6.84 KCAL/MOL
REMARK 924 INTRA-LIGAND FREE ENERGY PREDICTED BY IDOCK:   -1.11 KCAL/MOL
REMARK 927      BINDING AFFINITY PREDICTED BY RF-SCORE:    0.00 PKD
ROOT
HETATM    1  C   UNL     1      -8.635  10.280  66.235  1.00  0.00    -0.137 C  
HETATM    2  S   UNL     1      -9.313   9.735  67.780  1.00  0.00    -0.133 SA 
HETATM    3  C   UNL     1      -9.375   7.927  67.601  1.00  0.00    -0.143 C  
HETATM    4  C   UNL     1      -8.859   7.313  66.330  1.00  0.00    -0.167 C  
HETATM    5  C   UNL     1      -8.636  10.258  64.171  1.00  0.00    -0.192 C  
HETATM    6  CA  UNL     1      -8.444   7.998  65.233  1.00  0.00    -0.117 C  
HETATM    7  N   UNL     1      -8.573   9.338  65.154  1.00  0.00    -0.161 N  
HETATM    8  CA  UNL     1      -9.256  11.282  65.173  1.00  0.00    -0.149 C  
HETATM    9  C   UNL     1      -7.852   7.244  64.083  1.00  0.00    -0.118 C  
HETATM   10  O   UNL     1      -8.566  10.174  62.966  1.00  0.00    -0.158 OA 
HETATM   11  O   UNL     1      -8.082   7.691  62.845  1.00  0.00    -0.142 OA 
HETATM   12  OXT UNL     1      -7.113   6.284  64.259  1.00  0.00    -0.049 OA 
ENDROOT
BRANCH   4  13
HETATM   13  C   UNL     1      -9.002   5.789  66.343  1.00  0.00    -0.137 C  
BRANCH  13  14
HETATM   14  O   UNL     1      -9.457   5.304  67.615  1.00  0.00    -0.115 OA 
BRANCH  14  15
HETATM   15  C   UNL     1      -8.633   4.452  68.292  1.00  0.00    -0.094 C  
HETATM   16  C   UNL     1      -9.404   3.310  68.897  1.00  0.00    -0.232 C  
HETATM   17  O   UNL     1      -7.416   4.551  68.357  1.00  0.00    -0.064 OA 
ENDBRANCH  14  15
ENDBRANCH  13  14
ENDBRANCH   4  13
BRANCH   8  18
HETATM   18  N   UNL     1     -10.694  11.631  64.801  1.00  0.00    -0.296 N  
HETATM   19  C   UNL     1     -11.682  12.425  65.379  1.00  0.00    -0.402 C  
HETATM   20  H   UNL     1     -10.999  11.185  63.936  1.00  0.00     0.000 HD 
HETATM   21  O   UNL     1     -12.854  12.314  64.945  1.00  0.00    -0.628 OA 
BRANCH  19  22
HETATM   22  C   UNL     1     -11.436  13.511  66.424  1.00  0.00    -0.331 C  
BRANCH  22  23
HETATM   23  C   UNL     1     -11.869  13.359  67.828  1.00  0.00    -0.358 A  
HETATM   24  N   UNL     1     -11.895  12.136  68.509  1.00  0.00    -0.327 NA 
HETATM   25  H2  UNL     1     -11.944  11.572  71.710  1.00  0.00     0.000 HD 
HETATM   26  N   UNL     1     -11.932  11.344  70.716  1.00  0.00    -0.395 NA 
HETATM   27  C   UNL     1     -11.900  14.466  68.662  1.00  0.00    -0.331 A  
HETATM   28  S   UNL     1     -11.976  13.980  70.296  1.00  0.00    -0.335 SA 
HETATM   29  H1  UNL     1     -11.912  10.367  70.422  1.00  0.00     0.000 HD 
HETATM   30  C   UNL     1     -11.942  12.336  69.801  1.00  0.00    -0.295 A  
ENDBRANCH  22  23
BRANCH  22  31
HETATM   31  N   UNL     1     -11.106  14.748  66.209  1.00  0.00    -0.338 NA 
HETATM   32  H   UNL     1     -11.181  15.398  66.992  1.00  0.00     0.000 HD 
BRANCH  31  33
HETATM   33  O   UNL     1     -10.658  15.258  64.991  1.00  0.00    -0.405 OA 
HETATM   34  C   UNL     1     -11.483  16.123  64.246  1.00  0.00    -0.094 C  
ENDBRANCH  31  33
ENDBRANCH  22  31
ENDBRANCH  19  22
ENDBRANCH   8  18
TORSDOF 8
ENDMDL
MODEL      168
REMARK 921   NORMALIZED FREE ENERGY PREDICTED BY IDOCK:   -4.62 KCAL/MOL
REMARK 922        TOTAL FREE ENERGY PREDICTED BY IDOCK:   -7.93 KCAL/MOL
REMARK 923 INTER-LIGAND FREE ENERGY PREDICTED BY IDOCK:   -6.52 KCAL/MOL
REMARK 924 INTRA-LIGAND FREE ENERGY PREDICTED BY IDOCK:   -1.42 KCAL/MOL
REMARK 927      BINDING AFFINITY PREDICTED BY RF-SCORE:    0.00 PKD
ROOT
HETATM    1  C   UNL     1      -8.498  12.560  67.408  1.00  0.00    -0.181 C  
HETATM    2  S   UNL     1      -7.473  13.976  67.696  1.00  0.00    -0.175 SA 
HETATM    3  C   UNL     1      -8.354  15.318  66.842  1.00  0.00    -0.243 C  
HETATM    4  C   UNL     1      -9.659  15.003  66.167  1.00  0.00    -0.345 C  
HETATM    5  C   UNL     1      -9.557  11.346  66.118  1.00  0.00    -0.218 C  
HETATM    6  CA  UNL     1     -10.202  13.765  66.033  1.00  0.00    -0.308 C  
HETATM    7  N   UNL     1      -9.529  12.661  66.414  1.00  0.00    -0.244 N  
HETATM    8  CA  UNL     1      -8.124  11.183  66.713  1.00  0.00    -0.155 C  
HETATM    9  C   UNL     1     -11.565  13.627  65.430  1.00  0.00    -0.321 C  
HETATM   10  O   UNL     1     -10.259  10.689  65.384  1.00  0.00    -0.274 OA 
HETATM   11  O   UNL     1     -11.821  12.553  64.678  1.00  0.00    -0.343 OA 
HETATM   12  OXT UNL     1     -12.456  14.431  65.671  1.00  0.00    -0.401 OA 
ENDROOT
BRANCH   4  13
HETATM   13  C   UNL     1     -10.254  16.239  65.488  1.00  0.00    -0.298 C  
BRANCH  13  14
HETATM   14  O   UNL     1      -9.412  17.392  65.640  1.00  0.00    -0.509 OA 
BRANCH  14  15
HETATM   15  C   UNL     1      -9.990  18.531  66.120  1.00  0.00    -0.322 C  
HETATM   16  C   UNL     1      -9.647  18.750  67.569  1.00  0.00    -0.333 C  
HETATM   17  O   UNL     1     -10.653  19.319  65.459  1.00  0.00    -0.520 OA 
ENDBRANCH  14  15
ENDBRANCH  13  14
ENDBRANCH   4  13
BRANCH   8  18
HETATM   18  N   UNL     1      -7.107  10.813  65.638  1.00  0.00    -0.330 N  
HETATM   19  C   UNL     1      -6.637   9.609  65.118  1.00  0.00    -0.093 C  
HETATM   20  H   UNL     1      -6.676  11.628  65.203  1.00  0.00     0.000 HD 
HETATM   21  O   UNL     1      -5.612   9.640  64.396  1.00  0.00    -0.067 OA 
BRANCH  19  22
HETATM   22  C   UNL     1      -7.338   8.258  65.259  1.00  0.00    -0.081 C  
BRANCH  22  23
HETATM   23  C   UNL     1      -6.584   6.992  65.357  1.00  0.00    -0.047 A  
HETATM   24  N   UNL     1      -5.977   6.533  66.532  1.00  0.00    -0.027 NA 
HETATM   25  H2  UNL     1      -5.035   3.521  67.311  1.00  0.00     0.000 HD 
HETATM   26  N   UNL     1      -5.182   4.522  67.440  1.00  0.00    -0.011 NA 
HETATM   27  C   UNL     1      -6.767   6.008  64.398  1.00  0.00    -0.042 A  
HETATM   28  S   UNL     1      -6.169   4.511  64.959  1.00  0.00    -0.035 SA 
HETATM   29  H1  UNL     1      -4.917   4.963  68.321  1.00  0.00     0.000 HD 
HETATM   30  C   UNL     1      -5.724   5.253  66.442  1.00  0.00    -0.018 A  
ENDBRANCH  22  23
BRANCH  22  31
HETATM   31  N   UNL     1      -8.590   7.996  65.037  1.00  0.00    -0.356 NA 
HETATM   32  H   UNL     1      -8.964   8.231  64.118  1.00  0.00     0.000 HD 
BRANCH  31  33
HETATM   33  O   UNL     1      -9.463   7.419  65.958  1.00  0.00    -0.071 OA 
HETATM   34  C   UNL     1      -9.443   7.838  67.303  1.00  0.00    -0.148 C  
ENDBRANCH  31  33
ENDBRANCH  22  31
ENDBRANCH  19  22
ENDBRANCH   8  18
TORSDOF 8
ENDMDL
MODEL      169
REMARK 921   NORMALIZED FREE ENERGY PREDICTED BY IDOCK:   -4.62 KCAL/MOL
REMARK 922        TOTAL FREE ENERGY PREDICTED BY IDOCK:   -7.93 KCAL/MOL
REMARK 923 INTER-LIGAND FREE ENERGY PREDICTED BY IDOCK:   -6.87 KCAL/MOL
REMARK 924 INTRA-LIGAND FREE ENERGY PREDICTED BY IDOCK:   -1.06 KCAL/MOL
REMARK 927      BINDING AFFINITY PREDICTED BY RF-SCORE:    0.00 PKD
ROOT
HETATM    1  C   UNL     1     -10.650   7.339  68.380  1.00  0.00    -0.170 C  
HETATM    2  S   UNL     1      -9.672   5.919  67.969  1.00  0.00    -0.125 SA 
HETATM    3  C   UNL     1      -9.431   5.092  69.570  1.00  0.00    -0.143 C  
HETATM    4  C   UNL     1     -10.073   5.689  70.790  1.00  0.00    -0.270 C  
HETATM    5  C   UNL     1     -10.982   9.008  69.547  1.00  0.00    -0.106 C  
HETATM    6  CA  UNL     1     -10.737   6.874  70.834  1.00  0.00    -0.230 C  
HETATM    7  N   UNL     1     -10.778   7.694  69.765  1.00  0.00    -0.245 N  
HETATM    8  CA  UNL     1     -10.329   8.873  68.135  1.00  0.00    -0.212 C  
HETATM    9  C   UNL     1     -11.417   7.282  72.104  1.00  0.00    -0.273 C  
HETATM   10  O   UNL     1     -11.236   9.930  70.288  1.00  0.00    -0.260 OA 
HETATM   11  O   UNL     1     -11.445   8.580  72.420  1.00  0.00    -0.369 OA 
HETATM   12  OXT UNL     1     -12.002   6.468  72.808  1.00  0.00    -0.034 OA 
ENDROOT
BRANCH   4  13
HETATM   13  C   UNL     1      -9.755   4.878  72.048  1.00  0.00    -0.166 C  
BRANCH  13  14
HETATM   14  O   UNL     1     -10.601   3.723  72.169  1.00  0.00    -0.038 OA 
BRANCH  14  15
HETATM   15  C   UNL     1      -9.990   2.509  72.288  1.00  0.00    -0.160 C  
HETATM   16  C   UNL     1      -9.369   2.341  73.648  1.00  0.00    -0.097 C  
HETATM   17  O   UNL     1      -9.989   1.632  71.435  1.00  0.00    -0.141 OA 
ENDBRANCH  14  15
ENDBRANCH  13  14
ENDBRANCH   4  13
BRANCH   8  18
HETATM   18  N   UNL     1      -9.022   9.653  68.044  1.00  0.00    -0.123 N  
HETATM   19  C   UNL     1      -8.694  10.967  67.717  1.00  0.00    -0.129 C  
HETATM   20  H   UNL     1      -8.206   9.087  68.275  1.00  0.00     0.000 HD 
HETATM   21  O   UNL     1      -7.487  11.236  67.502  1.00  0.00    -0.097 OA 
BRANCH  19  22
HETATM   22  C   UNL     1      -9.672  12.141  67.711  1.00  0.00    -0.197 C  
BRANCH  22  23
HETATM   23  C   UNL     1     -10.426  12.525  66.501  1.00  0.00    -0.238 A  
HETATM   24  N   UNL     1     -10.256  11.920  65.250  1.00  0.00    -0.263 NA 
HETATM   25  H2  UNL     1     -12.263  11.901  62.693  1.00  0.00     0.000 HD 
HETATM   26  N   UNL     1     -11.423  11.685  63.229  1.00  0.00    -0.815 NA 
HETATM   27  C   UNL     1     -11.611  13.234  66.626  1.00  0.00    -0.365 A  
HETATM   28  S   UNL     1     -12.508  13.156  65.175  1.00  0.00    -0.467 SA 
HETATM   29  H1  UNL     1     -10.695  11.102  62.816  1.00  0.00     0.000 HD 
HETATM   30  C   UNL     1     -11.283  12.173  64.480  1.00  0.00    -0.331 A  
ENDBRANCH  22  23
BRANCH  22  31
HETATM   31  N   UNL     1      -9.770  13.086  68.596  1.00  0.00    -0.403 NA 
HETATM   32  H   UNL     1     -10.408  12.934  69.377  1.00  0.00     0.000 HD 
BRANCH  31  33
HETATM   33  O   UNL     1      -9.071  14.292  68.561  1.00  0.00    -0.194 OA 
HETATM   34  C   UNL     1      -9.747  15.503  68.810  1.00  0.00    -0.213 C  
ENDBRANCH  31  33
ENDBRANCH  22  31
ENDBRANCH  19  22
ENDBRANCH   8  18
TORSDOF 8
ENDMDL
MODEL      170
REMARK 921   NORMALIZED FREE ENERGY PREDICTED BY IDOCK:   -4.59 KCAL/MOL
REMARK 922        TOTAL FREE ENERGY PREDICTED BY IDOCK:   -7.89 KCAL/MOL
REMARK 923 INTER-LIGAND FREE ENERGY PREDICTED BY IDOCK:   -5.36 KCAL/MOL
REMARK 924 INTRA-LIGAND FREE ENERGY PREDICTED BY IDOCK:   -2.54 KCAL/MOL
REMARK 927      BINDING AFFINITY PREDICTED BY RF-SCORE:    0.00 PKD
ROOT
HETATM    1  C   UNL     1      -9.244   7.034  67.088  1.00  0.00    -0.137 C  
HETATM    2  S   UNL     1     -10.660   7.548  68.024  1.00  0.00    -0.113 SA 
HETATM    3  C   UNL     1     -11.010   9.212  67.381  1.00  0.00     0.079 C  
HETATM    4  C   UNL     1     -10.147   9.751  66.275  1.00  0.00    -0.313 C  
HETATM    5  C   UNL     1      -7.347   7.398  66.363  1.00  0.00    -0.083 C  
HETATM    6  CA  UNL     1      -9.038   9.148  65.772  1.00  0.00    -0.213 C  
HETATM    7  N   UNL     1      -8.539   8.025  66.328  1.00  0.00    -0.135 N  
HETATM    8  CA  UNL     1      -7.815   6.584  67.611  1.00  0.00    -0.110 C  
HETATM    9  C   UNL     1      -8.347   9.759  64.594  1.00  0.00    -0.162 C  
HETATM   10  O   UNL     1      -6.278   7.645  65.854  1.00  0.00    -0.040 OA 
HETATM   11  O   UNL     1      -7.016   9.666  64.519  1.00  0.00    -0.105 OA 
HETATM   12  OXT UNL     1      -8.976  10.269  63.676  1.00  0.00    -0.196 OA 
ENDROOT
BRANCH   4  13
HETATM   13  C   UNL     1     -10.570  11.164  65.869  1.00  0.00    -0.234 C  
BRANCH  13  14
HETATM   14  O   UNL     1     -11.664  11.646  66.665  1.00  0.00    -0.523 OA 
BRANCH  14  15
HETATM   15  C   UNL     1     -11.590  12.930  67.120  1.00  0.00    -0.363 C  
HETATM   16  C   UNL     1     -12.190  13.896  66.135  1.00  0.00    -0.498 C  
HETATM   17  O   UNL     1     -11.152  13.268  68.212  1.00  0.00    -0.243 OA 
ENDBRANCH  14  15
ENDBRANCH  13  14
ENDBRANCH   4  13
BRANCH   8  18
HETATM   18  N   UNL     1      -7.009   6.948  68.853  1.00  0.00    -0.079 N  
HETATM   19  C   UNL     1      -6.785   8.130  69.556  1.00  0.00    -0.038 C  
HETATM   20  H   UNL     1      -6.527   6.147  69.261  1.00  0.00     0.000 HD 
HETATM   21  O   UNL     1      -5.868   8.141  70.412  1.00  0.00    -0.029 OA 
BRANCH  19  22
HETATM   22  C   UNL     1      -7.646   9.389  69.453  1.00  0.00    -0.083 C  
BRANCH  22  23
HETATM   23  C   UNL     1      -7.213  10.571  68.682  1.00  0.00    -0.087 A  
HETATM   24  N   UNL     1      -6.140  10.568  67.782  1.00  0.00    -0.048 NA 
HETATM   25  H2  UNL     1      -5.483  12.642  65.367  1.00  0.00     0.000 HD 
HETATM   26  N   UNL     1      -5.347  11.834  65.974  1.00  0.00    -0.473 NA 
HETATM   27  C   UNL     1      -8.083  11.638  68.514  1.00  0.00    -0.145 A  
HETATM   28  S   UNL     1      -7.553  12.644  67.241  1.00  0.00    -0.076 SA 
HETATM   29  H1  UNL     1      -4.554  11.212  65.818  1.00  0.00     0.000 HD 
HETATM   30  C   UNL     1      -6.218  11.597  66.978  1.00  0.00    -0.144 A  
ENDBRANCH  22  23
BRANCH  22  31
HETATM   31  N   UNL     1      -8.661   9.709  70.196  1.00  0.00    -0.208 NA 
HETATM   32  H   UNL     1      -9.062  10.637  70.069  1.00  0.00     0.000 HD 
BRANCH  31  33
HETATM   33  O   UNL     1      -9.245   8.881  71.155  1.00  0.00    -0.211 OA 
HETATM   34  C   UNL     1     -10.594   9.069  71.517  1.00  0.00    -0.345 C  
ENDBRANCH  31  33
ENDBRANCH  22  31
ENDBRANCH  19  22
ENDBRANCH   8  18
TORSDOF 8
ENDMDL
MODEL      171
REMARK 921   NORMALIZED FREE ENERGY PREDICTED BY IDOCK:   -4.59 KCAL/MOL
REMARK 922        TOTAL FREE ENERGY PREDICTED BY IDOCK:   -7.89 KCAL/MOL
REMARK 923 INTER-LIGAND FREE ENERGY PREDICTED BY IDOCK:   -7.18 KCAL/MOL
REMARK 924 INTRA-LIGAND FREE ENERGY PREDICTED BY IDOCK:   -0.71 KCAL/MOL
REMARK 927      BINDING AFFINITY PREDICTED BY RF-SCORE:    0.00 PKD
ROOT
HETATM    1  C   UNL     1      -9.379  10.178  66.353  1.00  0.00    -0.169 C  
HETATM    2  S   UNL     1      -9.608  10.224  64.596  1.00  0.00    -0.326 SA 
HETATM    3  C   UNL     1     -10.935  11.448  64.374  1.00  0.00    -0.302 C  
HETATM    4  C   UNL     1     -11.488  12.135  65.590  1.00  0.00    -0.408 C  
HETATM    5  C   UNL     1     -10.157  10.014  68.258  1.00  0.00    -0.158 C  
HETATM    6  CA  UNL     1     -11.166  11.844  66.878  1.00  0.00    -0.325 C  
HETATM    7  N   UNL     1     -10.375  10.796  67.182  1.00  0.00    -0.213 N  
HETATM    8  CA  UNL     1      -9.492   8.941  67.340  1.00  0.00    -0.145 C  
HETATM    9  C   UNL     1     -11.722  12.694  67.978  1.00  0.00    -0.350 C  
HETATM   10  O   UNL     1     -10.614  10.019  69.378  1.00  0.00    -0.204 OA 
HETATM   11  O   UNL     1     -12.024  12.109  69.141  1.00  0.00    -0.299 OA 
HETATM   12  OXT UNL     1     -11.833  13.907  67.857  1.00  0.00    -0.343 OA 
ENDROOT
BRANCH   4  13
HETATM   13  C   UNL     1     -12.603  13.117  65.224  1.00  0.00    -0.472 C  
BRANCH  13  14
HETATM   14  O   UNL     1     -12.247  13.936  64.098  1.00  0.00    -0.540 OA 
BRANCH  14  15
HETATM   15  C   UNL     1     -11.910  15.234  64.350  1.00  0.00    -0.281 C  
HETATM   16  C   UNL     1     -10.657  15.323  65.179  1.00  0.00    -0.453 C  
HETATM   17  O   UNL     1     -12.500  16.214  63.915  1.00  0.00    -0.824 OA 
ENDBRANCH  14  15
ENDBRANCH  13  14
ENDBRANCH   4  13
BRANCH   8  18
HETATM   18  N   UNL     1     -10.312   7.655  67.295  1.00  0.00    -0.267 N  
HETATM   19  C   UNL     1     -10.031   6.313  67.542  1.00  0.00    -0.134 C  
HETATM   20  H   UNL     1     -11.283   7.814  67.024  1.00  0.00     0.000 HD 
HETATM   21  O   UNL     1     -10.876   5.459  67.181  1.00  0.00    -0.196 OA 
BRANCH  19  22
HETATM   22  C   UNL     1      -8.825   5.799  68.326  1.00  0.00    -0.109 C  
BRANCH  22  23
HETATM   23  C   UNL     1      -8.963   4.804  69.409  1.00  0.00    -0.094 A  
HETATM   24  N   UNL     1      -8.835   3.422  69.222  1.00  0.00    -0.090 NA 
HETATM   25  H2  UNL     1      -8.227   1.104  71.417  1.00  0.00     0.000 HD 
HETATM   26  N   UNL     1      -8.413   1.500  70.496  1.00  0.00    -0.041 NA 
HETATM   27  C   UNL     1      -8.839   5.206  70.731  1.00  0.00    -0.133 A  
HETATM   28  S   UNL     1      -8.576   3.855  71.741  1.00  0.00    -0.096 SA 
HETATM   29  H1  UNL     1      -8.441   0.888  69.680  1.00  0.00     0.000 HD 
HETATM   30  C   UNL     1      -8.622   2.827  70.367  1.00  0.00    -0.063 A  
ENDBRANCH  22  23
BRANCH  22  31
HETATM   31  N   UNL     1      -7.637   6.319  68.370  1.00  0.00    -0.094 NA 
HETATM   32  H   UNL     1      -7.530   7.208  68.858  1.00  0.00     0.000 HD 
BRANCH  31  33
HETATM   33  O   UNL     1      -6.494   5.757  67.802  1.00  0.00    -0.043 OA 
HETATM   34  C   UNL     1      -5.295   5.704  68.541  1.00  0.00    -0.003 C  
ENDBRANCH  31  33
ENDBRANCH  22  31
ENDBRANCH  19  22
ENDBRANCH   8  18
TORSDOF 8
ENDMDL
MODEL      172
REMARK 921   NORMALIZED FREE ENERGY PREDICTED BY IDOCK:   -4.58 KCAL/MOL
REMARK 922        TOTAL FREE ENERGY PREDICTED BY IDOCK:   -7.88 KCAL/MOL
REMARK 923 INTER-LIGAND FREE ENERGY PREDICTED BY IDOCK:   -5.29 KCAL/MOL
REMARK 924 INTRA-LIGAND FREE ENERGY PREDICTED BY IDOCK:   -2.59 KCAL/MOL
REMARK 927      BINDING AFFINITY PREDICTED BY RF-SCORE:    0.00 PKD
ROOT
HETATM    1  C   UNL     1     -11.371   6.022  69.997  1.00  0.00    -0.284 C  
HETATM    2  S   UNL     1     -10.760   6.036  68.334  1.00  0.00    -0.273 SA 
HETATM    3  C   UNL     1      -8.978   5.739  68.534  1.00  0.00    -0.112 C  
HETATM    4  C   UNL     1      -8.438   5.522  69.920  1.00  0.00    -0.116 C  
HETATM    5  C   UNL     1     -11.256   6.666  71.954  1.00  0.00    -0.264 C  
HETATM    6  CA  UNL     1      -9.148   5.641  71.073  1.00  0.00    -0.145 C  
HETATM    7  N   UNL     1     -10.419   6.090  71.069  1.00  0.00    -0.219 N  
HETATM    8  CA  UNL     1     -12.158   7.156  70.779  1.00  0.00    -0.288 C  
HETATM    9  C   UNL     1      -8.494   5.286  72.372  1.00  0.00    -0.122 C  
HETATM   10  O   UNL     1     -11.134   6.962  73.121  1.00  0.00    -0.268 OA 
HETATM   11  O   UNL     1      -8.821   5.988  73.460  1.00  0.00    -0.126 OA 
HETATM   12  OXT UNL     1      -7.733   4.331  72.465  1.00  0.00    -0.076 OA 
ENDROOT
BRANCH   4  13
HETATM   13  C   UNL     1      -6.924   5.303  69.906  1.00  0.00    -0.057 C  
BRANCH  13  14
HETATM   14  O   UNL     1      -6.524   4.387  68.875  1.00  0.00    -0.038 OA 
BRANCH  14  15
HETATM   15  C   UNL     1      -6.619   3.054  69.150  1.00  0.00    -0.033 C  
HETATM   16  C   UNL     1      -7.215   2.297  67.994  1.00  0.00    -0.048 C  
HETATM   17  O   UNL     1      -6.220   2.514  70.173  1.00  0.00    -0.023 OA 
ENDBRANCH  14  15
ENDBRANCH  13  14
ENDBRANCH   4  13
BRANCH   8  18
HETATM   18  N   UNL     1     -12.158   8.677  70.667  1.00  0.00    -0.482 N  
HETATM   19  C   UNL     1     -11.177   9.633  70.413  1.00  0.00    -0.283 C  
HETATM   20  H   UNL     1     -13.082   9.085  70.810  1.00  0.00     0.000 HD 
HETATM   21  O   UNL     1     -11.460  10.837  70.625  1.00  0.00    -0.325 OA 
BRANCH  19  22
HETATM   22  C   UNL     1      -9.816   9.348  69.781  1.00  0.00    -0.201 C  
BRANCH  22  23
HETATM   23  C   UNL     1      -8.571   9.337  70.576  1.00  0.00    -0.233 A  
HETATM   24  N   UNL     1      -8.519   9.035  71.942  1.00  0.00    -0.346 NA 
HETATM   25  H2  UNL     1      -5.980   8.094  73.739  1.00  0.00     0.000 HD 
HETATM   26  N   UNL     1      -6.948   8.346  73.540  1.00  0.00    -0.229 NA 
HETATM   27  C   UNL     1      -7.346   9.242  69.933  1.00  0.00    -0.074 A  
HETATM   28  S   UNL     1      -6.127   8.789  71.038  1.00  0.00    -0.050 SA 
HETATM   29  H1  UNL     1      -7.643   8.309  74.285  1.00  0.00     0.000 HD 
HETATM   30  C   UNL     1      -7.298   8.727  72.293  1.00  0.00     0.083 A  
ENDBRANCH  22  23
BRANCH  22  31
HETATM   31  N   UNL     1      -9.518   9.362  68.517  1.00  0.00    -0.145 NA 
HETATM   32  H   UNL     1      -8.538   9.236  68.264  1.00  0.00     0.000 HD 
BRANCH  31  33
HETATM   33  O   UNL     1     -10.433   9.535  67.480  1.00  0.00    -0.241 OA 
HETATM   34  C   UNL     1     -10.034   9.315  66.146  1.00  0.00    -0.277 C  
ENDBRANCH  31  33
ENDBRANCH  22  31
ENDBRANCH  19  22
ENDBRANCH   8  18
TORSDOF 8
ENDMDL
MODEL      173
REMARK 921   NORMALIZED FREE ENERGY PREDICTED BY IDOCK:   -4.58 KCAL/MOL
REMARK 922        TOTAL FREE ENERGY PREDICTED BY IDOCK:   -7.88 KCAL/MOL
REMARK 923 INTER-LIGAND FREE ENERGY PREDICTED BY IDOCK:   -6.64 KCAL/MOL
REMARK 924 INTRA-LIGAND FREE ENERGY PREDICTED BY IDOCK:   -1.24 KCAL/MOL
REMARK 927      BINDING AFFINITY PREDICTED BY RF-SCORE:    0.00 PKD
ROOT
HETATM    1  C   UNL     1      -7.855   9.478  68.656  1.00  0.00    -0.084 C  
HETATM    2  S   UNL     1      -7.548   9.415  70.400  1.00  0.00    -0.155 SA 
HETATM    3  C   UNL     1      -7.391   7.635  70.738  1.00  0.00    -0.067 C  
HETATM    4  C   UNL     1      -7.501   6.674  69.589  1.00  0.00    -0.096 C  
HETATM    5  C   UNL     1      -8.904   8.842  66.996  1.00  0.00    -0.127 C  
HETATM    6  CA  UNL     1      -7.824   7.003  68.310  1.00  0.00    -0.118 C  
HETATM    7  N   UNL     1      -8.197   8.257  67.984  1.00  0.00    -0.127 N  
HETATM    8  CA  UNL     1      -9.087  10.113  67.884  1.00  0.00    -0.131 C  
HETATM    9  C   UNL     1      -7.785   5.945  67.252  1.00  0.00    -0.101 C  
HETATM   10  O   UNL     1      -9.445   8.402  66.008  1.00  0.00    -0.209 OA 
HETATM   11  O   UNL     1      -8.685   6.000  66.266  1.00  0.00    -0.128 OA 
HETATM   12  OXT UNL     1      -6.912   5.087  67.237  1.00  0.00    -0.062 OA 
ENDROOT
BRANCH   4  13
HETATM   13  C   UNL     1      -7.362   5.222  70.053  1.00  0.00    -0.064 C  
BRANCH  13  14
HETATM   14  O   UNL     1      -8.561   4.743  70.682  1.00  0.00    -0.097 OA 
BRANCH  14  15
HETATM   15  C   UNL     1      -8.420   4.026  71.834  1.00  0.00    -0.099 C  
HETATM   16  C   UNL     1      -9.465   2.948  71.939  1.00  0.00    -0.203 C  
HETATM   17  O   UNL     1      -7.529   4.181  72.657  1.00  0.00    -0.069 OA 
ENDBRANCH  14  15
ENDBRANCH  13  14
ENDBRANCH   4  13
BRANCH   8  18
HETATM   18  N   UNL     1     -10.548  10.324  68.267  1.00  0.00    -0.206 N  
HETATM   19  C   UNL     1     -11.436  11.392  68.163  1.00  0.00    -0.305 C  
HETATM   20  H   UNL     1     -10.968   9.499  68.696  1.00  0.00     0.000 HD 
HETATM   21  O   UNL     1     -12.517  11.323  68.797  1.00  0.00    -0.444 OA 
BRANCH  19  22
HETATM   22  C   UNL     1     -11.256  12.596  67.240  1.00  0.00    -0.298 C  
BRANCH  22  23
HETATM   23  C   UNL     1     -11.254  12.462  65.769  1.00  0.00    -0.333 A  
HETATM   24  N   UNL     1     -10.376  11.632  65.062  1.00  0.00    -0.267 NA 
HETATM   25  H2  UNL     1     -10.645  10.464  62.041  1.00  0.00     0.000 HD 
HETATM   26  N   UNL     1     -10.221  10.612  62.956  1.00  0.00    -0.678 NA 
HETATM   27  C   UNL     1     -12.371  12.847  65.043  1.00  0.00    -0.485 A  
HETATM   28  S   UNL     1     -12.317  12.183  63.471  1.00  0.00    -0.509 SA 
HETATM   29  H1  UNL     1      -9.338  10.154  63.184  1.00  0.00     0.000 HD 
HETATM   30  C   UNL     1     -10.831  11.413  63.855  1.00  0.00    -0.393 A  
ENDBRANCH  22  23
BRANCH  22  31
HETATM   31  N   UNL     1     -10.819  13.775  67.564  1.00  0.00    -0.263 NA 
HETATM   32  H   UNL     1     -11.358  14.305  68.248  1.00  0.00     0.000 HD 
BRANCH  31  33
HETATM   33  O   UNL     1      -9.670  14.373  67.048  1.00  0.00    -0.241 OA 
HETATM   34  C   UNL     1      -9.748  15.648  66.452  1.00  0.00    -0.279 C  
ENDBRANCH  31  33
ENDBRANCH  22  31
ENDBRANCH  19  22
ENDBRANCH   8  18
TORSDOF 8
ENDMDL
MODEL      174
REMARK 921   NORMALIZED FREE ENERGY PREDICTED BY IDOCK:   -4.57 KCAL/MOL
REMARK 922        TOTAL FREE ENERGY PREDICTED BY IDOCK:   -7.86 KCAL/MOL
REMARK 923 INTER-LIGAND FREE ENERGY PREDICTED BY IDOCK:   -6.98 KCAL/MOL
REMARK 924 INTRA-LIGAND FREE ENERGY PREDICTED BY IDOCK:   -0.88 KCAL/MOL
REMARK 927      BINDING AFFINITY PREDICTED BY RF-SCORE:    0.00 PKD
ROOT
HETATM    1  C   UNL     1     -12.153   9.614  70.766  1.00  0.00    -0.248 C  
HETATM    2  S   UNL     1     -13.151  10.574  71.873  1.00  0.00    -0.381 SA 
HETATM    3  C   UNL     1     -12.961  12.272  71.250  1.00  0.00    -0.204 C  
HETATM    4  C   UNL     1     -12.118  12.497  70.027  1.00  0.00    -0.337 C  
HETATM    5  C   UNL     1     -10.366   9.294  69.785  1.00  0.00    -0.218 C  
HETATM    6  CA  UNL     1     -11.377  11.552  69.391  1.00  0.00    -0.289 C  
HETATM    7  N   UNL     1     -11.246  10.309  69.897  1.00  0.00    -0.279 N  
HETATM    8  CA  UNL     1     -10.925   8.667  71.100  1.00  0.00    -0.260 C  
HETATM    9  C   UNL     1     -10.676  11.908  68.118  1.00  0.00    -0.215 C  
HETATM   10  O   UNL     1      -9.357   9.156  69.131  1.00  0.00    -0.149 OA 
HETATM   11  O   UNL     1      -9.490  11.346  67.867  1.00  0.00    -0.164 OA 
HETATM   12  OXT UNL     1     -11.196  12.637  67.283  1.00  0.00    -0.268 OA 
ENDROOT
BRANCH   4  13
HETATM   13  C   UNL     1     -12.054  13.980  69.652  1.00  0.00    -0.355 C  
BRANCH  13  14
HETATM   14  O   UNL     1     -11.627  14.794  70.756  1.00  0.00    -0.280 OA 
BRANCH  14  15
HETATM   15  C   UNL     1     -12.588  15.485  71.433  1.00  0.00    -0.431 C  
HETATM   16  C   UNL     1     -12.041  16.084  72.700  1.00  0.00    -0.640 C  
HETATM   17  O   UNL     1     -13.736  15.660  71.047  1.00  0.00    -0.582 OA 
ENDBRANCH  14  15
ENDBRANCH  13  14
ENDBRANCH   4  13
BRANCH   8  18
HETATM   18  N   UNL     1      -9.884   8.680  72.215  1.00  0.00    -0.309 N  
HETATM   19  C   UNL     1      -9.042   7.719  72.771  1.00  0.00    -0.186 C  
HETATM   20  H   UNL     1      -9.782   9.596  72.651  1.00  0.00     0.000 HD 
HETATM   21  O   UNL     1      -8.466   7.995  73.851  1.00  0.00    -0.232 OA 
BRANCH  19  22
HETATM   22  C   UNL     1      -8.667   6.393  72.111  1.00  0.00    -0.132 C  
BRANCH  22  23
HETATM   23  C   UNL     1      -8.574   5.136  72.880  1.00  0.00    -0.115 A  
HETATM   24  N   UNL     1      -9.612   4.201  72.978  1.00  0.00    -0.124 NA 
HETATM   25  H2  UNL     1      -9.472   1.062  73.810  1.00  0.00     0.000 HD 
HETATM   26  N   UNL     1      -9.905   1.938  73.520  1.00  0.00    -0.082 NA 
HETATM   27  C   UNL     1      -7.329   4.630  73.221  1.00  0.00    -0.082 A  
HETATM   28  S   UNL     1      -7.456   2.990  73.677  1.00  0.00    -0.052 SA 
HETATM   29  H1  UNL     1     -10.909   1.971  73.341  1.00  0.00     0.000 HD 
HETATM   30  C   UNL     1      -9.146   3.045  73.376  1.00  0.00    -0.085 A  
ENDBRANCH  22  23
BRANCH  22  31
HETATM   31  N   UNL     1      -8.131   6.222  70.941  1.00  0.00    -0.122 NA 
HETATM   32  H   UNL     1      -7.277   6.740  70.735  1.00  0.00     0.000 HD 
BRANCH  31  33
HETATM   33  O   UNL     1      -8.631   5.384  69.945  1.00  0.00    -0.104 OA 
HETATM   34  C   UNL     1      -7.766   4.495  69.276  1.00  0.00    -0.055 C  
ENDBRANCH  31  33
ENDBRANCH  22  31
ENDBRANCH  19  22
ENDBRANCH   8  18
TORSDOF 8
ENDMDL
MODEL      175
REMARK 921   NORMALIZED FREE ENERGY PREDICTED BY IDOCK:   -4.57 KCAL/MOL
REMARK 922        TOTAL FREE ENERGY PREDICTED BY IDOCK:   -7.86 KCAL/MOL
REMARK 923 INTER-LIGAND FREE ENERGY PREDICTED BY IDOCK:   -6.61 KCAL/MOL
REMARK 924 INTRA-LIGAND FREE ENERGY PREDICTED BY IDOCK:   -1.25 KCAL/MOL
REMARK 927      BINDING AFFINITY PREDICTED BY RF-SCORE:    0.00 PKD
ROOT
HETATM    1  C   UNL     1      -8.717   8.255  71.516  1.00  0.00    -0.163 C  
HETATM    2  S   UNL     1      -9.170   8.410  73.222  1.00  0.00     0.041 SA 
HETATM    3  C   UNL     1     -10.236   6.966  73.510  1.00  0.00    -0.315 C  
HETATM    4  C   UNL     1     -10.466   6.006  72.377  1.00  0.00    -0.234 C  
HETATM    5  C   UNL     1      -9.242   7.968  69.541  1.00  0.00    -0.152 C  
HETATM    6  CA  UNL     1     -10.037   6.175  71.098  1.00  0.00    -0.190 C  
HETATM    7  N   UNL     1      -9.441   7.319  70.705  1.00  0.00    -0.164 N  
HETATM    8  CA  UNL     1      -8.943   9.283  70.328  1.00  0.00    -0.229 C  
HETATM    9  C   UNL     1     -10.251   5.075  70.106  1.00  0.00    -0.259 C  
HETATM   10  O   UNL     1      -9.532   7.703  68.397  1.00  0.00    -0.148 OA 
HETATM   11  O   UNL     1     -10.505   5.406  68.836  1.00  0.00    -0.211 OA 
HETATM   12  OXT UNL     1     -10.128   3.898  70.418  1.00  0.00    -0.084 OA 
ENDROOT
BRANCH   4  13
HETATM   13  C   UNL     1     -11.396   4.863  72.787  1.00  0.00    -0.148 C  
BRANCH  13  14
HETATM   14  O   UNL     1     -11.035   4.309  74.062  1.00  0.00    -0.242 OA 
BRANCH  14  15
HETATM   15  C   UNL     1     -10.256   3.189  74.060  1.00  0.00    -0.144 C  
HETATM   16  C   UNL     1     -11.070   1.955  73.779  1.00  0.00    -0.279 C  
HETATM   17  O   UNL     1      -9.041   3.174  74.204  1.00  0.00    -0.082 OA 
ENDBRANCH  14  15
ENDBRANCH  13  14
ENDBRANCH   4  13
BRANCH   8  18
HETATM   18  N   UNL     1     -10.007  10.346  70.071  1.00  0.00    -0.421 N  
HETATM   19  C   UNL     1     -10.240  11.260  69.047  1.00  0.00    -0.150 C  
HETATM   20  H   UNL     1     -10.702  10.398  70.815  1.00  0.00     0.000 HD 
HETATM   21  O   UNL     1     -11.078  12.171  69.251  1.00  0.00    -0.226 OA 
BRANCH  19  22
HETATM   22  C   UNL     1      -9.643  11.176  67.643  1.00  0.00    -0.170 C  
BRANCH  22  23
HETATM   23  C   UNL     1     -10.267  11.849  66.486  1.00  0.00    -0.203 A  
HETATM   24  N   UNL     1     -11.549  11.552  66.007  1.00  0.00    -0.281 NA 
HETATM   25  H2  UNL     1     -13.504  13.346  64.130  1.00  0.00     0.000 HD 
HETATM   26  N   UNL     1     -13.214  12.542  64.686  1.00  0.00    -0.785 NA 
HETATM   27  C   UNL     1      -9.778  13.074  66.057  1.00  0.00    -0.216 A  
HETATM   28  S   UNL     1     -10.914  13.848  65.045  1.00  0.00    -0.391 SA 
HETATM   29  H1  UNL     1     -13.853  11.756  64.809  1.00  0.00     0.000 HD 
HETATM   30  C   UNL     1     -11.989  12.525  65.253  1.00  0.00    -0.438 A  
ENDBRANCH  22  23
BRANCH  22  31
HETATM   31  N   UNL     1      -8.746  10.339  67.219  1.00  0.00    -0.126 NA 
HETATM   32  H   UNL     1      -9.058   9.586  66.607  1.00  0.00     0.000 HD 
BRANCH  31  33
HETATM   33  O   UNL     1      -7.389  10.390  67.536  1.00  0.00    -0.090 OA 
HETATM   34  C   UNL     1      -6.676  11.596  67.382  1.00  0.00    -0.108 C  
ENDBRANCH  31  33
ENDBRANCH  22  31
ENDBRANCH  19  22
ENDBRANCH   8  18
TORSDOF 8
ENDMDL
MODEL      176
REMARK 921   NORMALIZED FREE ENERGY PREDICTED BY IDOCK:   -4.56 KCAL/MOL
REMARK 922        TOTAL FREE ENERGY PREDICTED BY IDOCK:   -7.85 KCAL/MOL
REMARK 923 INTER-LIGAND FREE ENERGY PREDICTED BY IDOCK:   -7.00 KCAL/MOL
REMARK 924 INTRA-LIGAND FREE ENERGY PREDICTED BY IDOCK:   -0.85 KCAL/MOL
REMARK 927      BINDING AFFINITY PREDICTED BY RF-SCORE:    0.00 PKD
ROOT
HETATM    1  C   UNL     1     -10.626   8.313  68.859  1.00  0.00    -0.139 C  
HETATM    2  S   UNL     1      -9.285   7.487  68.045  1.00  0.00    -0.136 SA 
HETATM    3  C   UNL     1      -8.609   6.401  69.337  1.00  0.00    -0.130 C  
HETATM    4  C   UNL     1      -9.274   6.389  70.684  1.00  0.00    -0.162 C  
HETATM    5  C   UNL     1     -11.361   9.386  70.461  1.00  0.00    -0.274 C  
HETATM    6  CA  UNL     1     -10.284   7.210  71.075  1.00  0.00    -0.196 C  
HETATM    7  N   UNL     1     -10.711   8.218  70.288  1.00  0.00    -0.232 N  
HETATM    8  CA  UNL     1     -10.860   9.869  69.064  1.00  0.00    -0.215 C  
HETATM    9  C   UNL     1     -10.916   7.002  72.416  1.00  0.00    -0.248 C  
HETATM   10  O   UNL     1     -11.823   9.928  71.439  1.00  0.00    -0.369 OA 
HETATM   11  O   UNL     1     -11.336   8.073  73.094  1.00  0.00    -0.317 OA 
HETATM   12  OXT UNL     1     -11.117   5.879  72.861  1.00  0.00    -0.255 OA 
ENDROOT
BRANCH   4  13
HETATM   13  C   UNL     1      -8.569   5.435  71.651  1.00  0.00    -0.131 C  
BRANCH  13  14
HETATM   14  O   UNL     1      -7.163   5.712  71.748  1.00  0.00    -0.084 OA 
BRANCH  14  15
HETATM   15  C   UNL     1      -6.520   5.302  72.879  1.00  0.00    -0.060 C  
HETATM   16  C   UNL     1      -7.445   5.306  74.066  1.00  0.00    -0.087 C  
HETATM   17  O   UNL     1      -5.360   4.916  72.932  1.00  0.00    -0.008 OA 
ENDBRANCH  14  15
ENDBRANCH  13  14
ENDBRANCH   4  13
BRANCH   8  18
HETATM   18  N   UNL     1      -9.902  11.049  69.187  1.00  0.00    -0.377 N  
HETATM   19  C   UNL     1      -9.890  12.348  68.684  1.00  0.00    -0.077 C  
HETATM   20  H   UNL     1      -9.091  10.842  69.768  1.00  0.00     0.000 HD 
HETATM   21  O   UNL     1      -8.826  13.006  68.778  1.00  0.00     0.000 OA 
BRANCH  19  22
HETATM   22  C   UNL     1     -11.108  13.086  68.128  1.00  0.00    -0.256 C  
BRANCH  22  23
HETATM   23  C   UNL     1     -11.056  13.832  66.855  1.00  0.00    -0.302 A  
HETATM   24  N   UNL     1     -11.865  13.545  65.748  1.00  0.00    -0.354 NA 
HETATM   25  H2  UNL     1     -12.616  15.436  63.213  1.00  0.00     0.000 HD 
HETATM   26  N   UNL     1     -12.622  14.598  63.794  1.00  0.00    -0.988 NA 
HETATM   27  C   UNL     1     -10.486  15.095  66.821  1.00  0.00    -0.283 A  
HETATM   28  S   UNL     1     -10.948  15.920  65.400  1.00  0.00    -0.237 SA 
HETATM   29  H1  UNL     1     -13.182  13.792  63.514  1.00  0.00     0.000 HD 
HETATM   30  C   UNL     1     -11.890  14.564  64.928  1.00  0.00    -0.416 A  
ENDBRANCH  22  23
BRANCH  22  31
HETATM   31  N   UNL     1     -12.194  13.400  68.765  1.00  0.00    -0.224 NA 
HETATM   32  H   UNL     1     -13.035  12.863  68.553  1.00  0.00     0.000 HD 
BRANCH  31  33
HETATM   33  O   UNL     1     -12.301  14.413  69.717  1.00  0.00    -0.323 OA 
HETATM   34  C   UNL     1     -13.295  14.339  70.713  1.00  0.00    -0.119 C  
ENDBRANCH  31  33
ENDBRANCH  22  31
ENDBRANCH  19  22
ENDBRANCH   8  18
TORSDOF 8
ENDMDL
MODEL      177
REMARK 921   NORMALIZED FREE ENERGY PREDICTED BY IDOCK:   -4.56 KCAL/MOL
REMARK 922        TOTAL FREE ENERGY PREDICTED BY IDOCK:   -7.84 KCAL/MOL
REMARK 923 INTER-LIGAND FREE ENERGY PREDICTED BY IDOCK:   -6.80 KCAL/MOL
REMARK 924 INTRA-LIGAND FREE ENERGY PREDICTED BY IDOCK:   -1.04 KCAL/MOL
REMARK 927      BINDING AFFINITY PREDICTED BY RF-SCORE:    0.00 PKD
ROOT
HETATM    1  C   UNL     1      -9.914   7.494  67.625  1.00  0.00    -0.171 C  
HETATM    2  S   UNL     1      -9.014   6.718  66.310  1.00  0.00    -0.134 SA 
HETATM    3  C   UNL     1      -7.668   5.851  67.172  1.00  0.00    -0.101 C  
HETATM    4  C   UNL     1      -7.614   5.921  68.672  1.00  0.00    -0.090 C  
HETATM    5  C   UNL     1      -9.951   8.659  69.328  1.00  0.00    -0.195 C  
HETATM    6  CA  UNL     1      -8.424   6.679  69.458  1.00  0.00    -0.132 C  
HETATM    7  N   UNL     1      -9.304   7.548  68.923  1.00  0.00    -0.143 N  
HETATM    8  CA  UNL     1     -10.236   9.033  67.840  1.00  0.00    -0.221 C  
HETATM    9  C   UNL     1      -8.317   6.557  70.946  1.00  0.00    -0.126 C  
HETATM   10  O   UNL     1      -9.969   9.258  70.379  1.00  0.00    -0.202 OA 
HETATM   11  O   UNL     1      -8.513   7.651  71.688  1.00  0.00    -0.105 OA 
HETATM   12  OXT UNL     1      -8.129   5.476  71.489  1.00  0.00    -0.113 OA 
ENDROOT
BRANCH   4  13
HETATM   13  C   UNL     1      -6.414   5.152  69.229  1.00  0.00    -0.035 C  
BRANCH  13  14
HETATM   14  O   UNL     1      -6.149   3.956  68.479  1.00  0.00    -0.029 OA 
BRANCH  14  15
HETATM   15  C   UNL     1      -6.510   2.768  69.044  1.00  0.00    -0.029 C  
HETATM   16  C   UNL     1      -5.839   1.609  68.361  1.00  0.00    -0.023 C  
HETATM   17  O   UNL     1      -7.236   2.644  70.022  1.00  0.00    -0.039 OA 
ENDBRANCH  14  15
ENDBRANCH  13  14
ENDBRANCH   4  13
BRANCH   8  18
HETATM   18  N   UNL     1      -9.505  10.307  67.430  1.00  0.00    -0.152 N  
HETATM   19  C   UNL     1      -9.904  11.522  66.876  1.00  0.00    -0.197 C  
HETATM   20  H   UNL     1      -8.501  10.260  67.600  1.00  0.00     0.000 HD 
HETATM   21  O   UNL     1      -9.014  12.287  66.433  1.00  0.00    -0.195 OA 
BRANCH  19  22
HETATM   22  C   UNL     1     -11.336  12.056  66.870  1.00  0.00    -0.341 C  
BRANCH  22  23
HETATM   23  C   UNL     1     -11.892  12.790  65.716  1.00  0.00    -0.434 A  
HETATM   24  N   UNL     1     -11.894  14.186  65.604  1.00  0.00    -0.362 NA 
HETATM   25  H2  UNL     1     -12.214  16.030  62.948  1.00  0.00     0.000 HD 
HETATM   26  N   UNL     1     -12.088  15.824  63.939  1.00  0.00    -1.125 NA 
HETATM   27  C   UNL     1     -12.085  12.131  64.511  1.00  0.00    -0.334 A  
HETATM   28  S   UNL     1     -12.284  13.255  63.242  1.00  0.00    -0.047 SA 
HETATM   29  H1  UNL     1     -11.968  16.589  64.603  1.00  0.00     0.000 HD 
HETATM   30  C   UNL     1     -12.082  14.542  64.360  1.00  0.00    -0.472 A  
ENDBRANCH  22  23
BRANCH  22  31
HETATM   31  N   UNL     1     -12.124  12.201  67.891  1.00  0.00    -0.466 NA 
HETATM   32  H   UNL     1     -12.556  13.115  68.026  1.00  0.00     0.000 HD 
BRANCH  31  33
HETATM   33  O   UNL     1     -12.427  11.204  68.818  1.00  0.00    -0.468 OA 
HETATM   34  C   UNL     1     -12.283  11.460  70.196  1.00  0.00    -0.321 C  
ENDBRANCH  31  33
ENDBRANCH  22  31
ENDBRANCH  19  22
ENDBRANCH   8  18
TORSDOF 8
ENDMDL
MODEL      178
REMARK 921   NORMALIZED FREE ENERGY PREDICTED BY IDOCK:   -4.55 KCAL/MOL
REMARK 922        TOTAL FREE ENERGY PREDICTED BY IDOCK:   -7.83 KCAL/MOL
REMARK 923 INTER-LIGAND FREE ENERGY PREDICTED BY IDOCK:   -7.38 KCAL/MOL
REMARK 924 INTRA-LIGAND FREE ENERGY PREDICTED BY IDOCK:   -0.45 KCAL/MOL
REMARK 927      BINDING AFFINITY PREDICTED BY RF-SCORE:    0.00 PKD
ROOT
HETATM    1  C   UNL     1     -11.137  12.248  69.901  1.00  0.00     0.267 C  
HETATM    2  S   UNL     1     -12.614  12.144  70.877  1.00  0.00    -0.152 SA 
HETATM    3  C   UNL     1     -12.788  10.361  71.192  1.00  0.00    -0.414 C  
HETATM    4  C   UNL     1     -11.736   9.432  70.655  1.00  0.00    -0.302 C  
HETATM    5  C   UNL     1     -10.004  11.625  68.293  1.00  0.00    -0.201 C  
HETATM    6  CA  UNL     1     -10.705   9.787  69.844  1.00  0.00    -0.268 C  
HETATM    7  N   UNL     1     -10.605  11.036  69.346  1.00  0.00    -0.207 N  
HETATM    8  CA  UNL     1     -10.943  12.861  68.451  1.00  0.00    -0.258 C  
HETATM    9  C   UNL     1      -9.675   8.764  69.482  1.00  0.00    -0.172 C  
HETATM   10  O   UNL     1      -9.293  11.196  67.413  1.00  0.00    -0.162 OA 
HETATM   11  O   UNL     1      -9.129   8.816  68.264  1.00  0.00    -0.140 OA 
HETATM   12  OXT UNL     1      -9.280   7.938  70.295  1.00  0.00    -0.151 OA 
ENDROOT
BRANCH   4  13
HETATM   13  C   UNL     1     -12.047   7.973  70.997  1.00  0.00    -0.217 C  
BRANCH  13  14
HETATM   14  O   UNL     1     -12.072   7.749  72.416  1.00  0.00    -0.304 OA 
BRANCH  14  15
HETATM   15  C   UNL     1     -10.990   7.131  72.972  1.00  0.00    -0.317 C  
HETATM   16  C   UNL     1     -10.903   5.691  72.544  1.00  0.00    -0.299 C  
HETATM   17  O   UNL     1     -10.153   7.675  73.679  1.00  0.00    -0.321 OA 
ENDBRANCH  14  15
ENDBRANCH  13  14
ENDBRANCH   4  13
BRANCH   8  18
HETATM   18  N   UNL     1     -11.882  13.009  67.258  1.00  0.00    -0.372 N  
HETATM   19  C   UNL     1     -12.051  13.973  66.266  1.00  0.00    -0.456 C  
HETATM   20  H   UNL     1     -12.531  12.228  67.166  1.00  0.00     0.000 HD 
HETATM   21  O   UNL     1     -13.084  13.913  65.558  1.00  0.00    -0.699 OA 
BRANCH  19  22
HETATM   22  C   UNL     1     -11.018  15.033  65.889  1.00  0.00    -0.343 C  
BRANCH  22  23
HETATM   23  C   UNL     1     -10.216  15.742  66.907  1.00  0.00    -0.280 A  
HETATM   24  N   UNL     1      -8.920  16.223  66.685  1.00  0.00    -0.227 NA 
HETATM   25  H2  UNL     1      -7.268  18.493  68.322  1.00  0.00     0.000 HD 
HETATM   26  N   UNL     1      -7.437  17.790  67.604  1.00  0.00    -0.199 NA 
HETATM   27  C   UNL     1     -10.846  16.310  68.004  1.00  0.00    -0.339 A  
HETATM   28  S   UNL     1      -9.813  17.435  68.767  1.00  0.00    -0.299 SA 
HETATM   29  H1  UNL     1      -6.720  17.601  66.903  1.00  0.00     0.000 HD 
HETATM   30  C   UNL     1      -8.607  17.117  67.587  1.00  0.00    -0.212 A  
ENDBRANCH  22  23
BRANCH  22  31
HETATM   31  N   UNL     1     -10.898  15.642  64.748  1.00  0.00    -0.639 NA 
HETATM   32  H   UNL     1     -10.313  15.201  64.039  1.00  0.00     0.000 HD 
BRANCH  31  33
HETATM   33  O   UNL     1     -11.506  16.852  64.418  1.00  0.00    -1.052 OA 
HETATM   34  C   UNL     1     -10.934  18.066  64.848  1.00  0.00     1.359 C  
ENDBRANCH  31  33
ENDBRANCH  22  31
ENDBRANCH  19  22
ENDBRANCH   8  18
TORSDOF 8
ENDMDL
MODEL      179
REMARK 921   NORMALIZED FREE ENERGY PREDICTED BY IDOCK:   -4.52 KCAL/MOL
REMARK 922        TOTAL FREE ENERGY PREDICTED BY IDOCK:   -7.78 KCAL/MOL
REMARK 923 INTER-LIGAND FREE ENERGY PREDICTED BY IDOCK:   -5.99 KCAL/MOL
REMARK 924 INTRA-LIGAND FREE ENERGY PREDICTED BY IDOCK:   -1.79 KCAL/MOL
REMARK 927      BINDING AFFINITY PREDICTED BY RF-SCORE:    0.00 PKD
ROOT
HETATM    1  C   UNL     1      -7.004  10.415  69.895  1.00  0.00    -0.149 C  
HETATM    2  S   UNL     1      -6.896  11.220  68.319  1.00  0.00    -0.068 SA 
HETATM    3  C   UNL     1      -8.624  11.281  67.755  1.00  0.00    -0.126 C  
HETATM    4  C   UNL     1      -9.693  10.732  68.657  1.00  0.00    -0.187 C  
HETATM    5  C   UNL     1      -7.678   8.857  71.068  1.00  0.00    -0.132 C  
HETATM    6  CA  UNL     1      -9.480  10.079  69.830  1.00  0.00    -0.207 C  
HETATM    7  N   UNL     1      -8.235   9.761  70.237  1.00  0.00    -0.185 N  
HETATM    8  CA  UNL     1      -6.294   9.083  70.383  1.00  0.00    -0.044 C  
HETATM    9  C   UNL     1     -10.654   9.688  70.671  1.00  0.00    -0.319 C  
HETATM   10  O   UNL     1      -8.151   8.002  71.781  1.00  0.00    -0.100 OA 
HETATM   11  O   UNL     1     -10.589   8.546  71.361  1.00  0.00    -0.215 OA 
HETATM   12  OXT UNL     1     -11.628  10.420  70.791  1.00  0.00    -0.327 OA 
ENDROOT
BRANCH   4  13
HETATM   13  C   UNL     1     -11.080  10.849  68.022  1.00  0.00    -0.293 C  
BRANCH  13  14
HETATM   14  O   UNL     1     -11.623  12.172  68.160  1.00  0.00    -0.295 OA 
BRANCH  14  15
HETATM   15  C   UNL     1     -11.785  12.904  67.020  1.00  0.00    -0.385 C  
HETATM   16  C   UNL     1     -11.321  14.323  67.209  1.00  0.00    -0.350 C  
HETATM   17  O   UNL     1     -12.194  12.467  65.952  1.00  0.00    -0.629 OA 
ENDBRANCH  14  15
ENDBRANCH  13  14
ENDBRANCH   4  13
BRANCH   8  18
HETATM   18  N   UNL     1      -5.822   7.834  69.645  1.00  0.00    -0.023 N  
HETATM   19  C   UNL     1      -6.314   7.096  68.571  1.00  0.00    -0.036 C  
HETATM   20  H   UNL     1      -4.953   7.456  70.021  1.00  0.00     0.000 HD 
HETATM   21  O   UNL     1      -5.811   5.968  68.353  1.00  0.00    -0.011 OA 
BRANCH  19  22
HETATM   22  C   UNL     1      -7.342   7.598  67.558  1.00  0.00    -0.095 C  
BRANCH  22  23
HETATM   23  C   UNL     1      -8.738   7.116  67.556  1.00  0.00    -0.121 A  
HETATM   24  N   UNL     1      -9.399   6.638  66.418  1.00  0.00    -0.159 NA 
HETATM   25  H2  UNL     1     -12.047   4.763  66.221  1.00  0.00     0.000 HD 
HETATM   26  N   UNL     1     -11.258   5.314  65.881  1.00  0.00    -0.792 NA 
HETATM   27  C   UNL     1      -9.339   6.748  68.751  1.00  0.00    -0.132 A  
HETATM   28  S   UNL     1     -10.737   5.815  68.451  1.00  0.00    -0.160 SA 
HETATM   29  H1  UNL     1     -11.088   5.388  64.878  1.00  0.00     0.000 HD 
HETATM   30  C   UNL     1     -10.449   5.939  66.763  1.00  0.00    -0.281 A  
ENDBRANCH  22  23
BRANCH  22  31
HETATM   31  N   UNL     1      -7.108   8.240  66.454  1.00  0.00    -0.070 NA 
HETATM   32  H   UNL     1      -7.617   9.109  66.299  1.00  0.00     0.000 HD 
BRANCH  31  33
HETATM   33  O   UNL     1      -6.215   7.832  65.464  1.00  0.00    -0.038 OA 
HETATM   34  C   UNL     1      -6.390   8.271  64.136  1.00  0.00    -0.067 C  
ENDBRANCH  31  33
ENDBRANCH  22  31
ENDBRANCH  19  22
ENDBRANCH   8  18
TORSDOF 8
ENDMDL
MODEL      180
REMARK 921   NORMALIZED FREE ENERGY PREDICTED BY IDOCK:   -4.50 KCAL/MOL
REMARK 922        TOTAL FREE ENERGY PREDICTED BY IDOCK:   -7.76 KCAL/MOL
REMARK 923 INTER-LIGAND FREE ENERGY PREDICTED BY IDOCK:   -6.74 KCAL/MOL
REMARK 924 INTRA-LIGAND FREE ENERGY PREDICTED BY IDOCK:   -1.02 KCAL/MOL
REMARK 927      BINDING AFFINITY PREDICTED BY RF-SCORE:    0.00 PKD
ROOT
HETATM    1  C   UNL     1      -9.040   9.033  68.925  1.00  0.00    -0.140 C  
HETATM    2  S   UNL     1      -9.364   9.528  70.596  1.00  0.00    -0.115 SA 
HETATM    3  C   UNL     1     -10.174   8.071  71.321  1.00  0.00    -0.192 C  
HETATM    4  C   UNL     1     -10.354   6.849  70.464  1.00  0.00    -0.224 C  
HETATM    5  C   UNL     1      -9.683   8.223  67.140  1.00  0.00    -0.195 C  
HETATM    6  CA  UNL     1     -10.065   6.763  69.139  1.00  0.00    -0.171 C  
HETATM    7  N   UNL     1      -9.683   7.848  68.434  1.00  0.00    -0.157 N  
HETATM    8  CA  UNL     1      -9.518   9.713  67.574  1.00  0.00    -0.134 C  
HETATM    9  C   UNL     1     -10.196   5.442  68.448  1.00  0.00    -0.163 C  
HETATM   10  O   UNL     1     -10.026   7.660  66.125  1.00  0.00    -0.035 OA 
HETATM   11  O   UNL     1     -10.603   5.429  67.176  1.00  0.00    -0.242 OA 
HETATM   12  OXT UNL     1      -9.872   4.397  68.997  1.00  0.00    -0.173 OA 
ENDROOT
BRANCH   4  13
HETATM   13  C   UNL     1     -11.064   5.727  71.225  1.00  0.00    -0.197 C  
BRANCH  13  14
HETATM   14  O   UNL     1     -10.326   5.317  72.387  1.00  0.00    -0.194 OA 
BRANCH  14  15
HETATM   15  C   UNL     1     -10.559   4.061  72.865  1.00  0.00    -0.156 C  
HETATM   16  C   UNL     1      -9.618   3.058  72.255  1.00  0.00    -0.204 C  
HETATM   17  O   UNL     1     -11.381   3.775  73.726  1.00  0.00    -0.197 OA 
ENDBRANCH  14  15
ENDBRANCH  13  14
ENDBRANCH   4  13
BRANCH   8  18
HETATM   18  N   UNL     1     -10.747  10.542  67.214  1.00  0.00    -0.269 N  
HETATM   19  C   UNL     1     -10.953  11.878  66.876  1.00  0.00    -0.289 C  
HETATM   20  H   UNL     1     -11.609   9.998  67.223  1.00  0.00     0.000 HD 
HETATM   21  O   UNL     1     -12.132  12.308  66.868  1.00  0.00    -0.583 OA 
BRANCH  19  22
HETATM   22  C   UNL     1      -9.867  12.840  66.397  1.00  0.00    -0.269 C  
BRANCH  22  23
HETATM   23  C   UNL     1      -8.825  13.358  67.306  1.00  0.00    -0.220 A  
HETATM   24  N   UNL     1      -7.450  13.210  67.084  1.00  0.00    -0.048 NA 
HETATM   25  H2  UNL     1      -4.975  14.899  68.344  1.00  0.00     0.000 HD 
HETATM   26  N   UNL     1      -5.434  14.190  67.772  1.00  0.00    -0.302 NA 
HETATM   27  C   UNL     1      -9.141  14.353  68.219  1.00  0.00    -0.193 A  
HETATM   28  S   UNL     1      -7.721  15.093  68.810  1.00  0.00    -0.156 SA 
HETATM   29  H1  UNL     1      -4.873  13.580  67.176  1.00  0.00     0.000 HD 
HETATM   30  C   UNL     1      -6.778  14.067  67.808  1.00  0.00    -0.177 A  
ENDBRANCH  22  23
BRANCH  22  31
HETATM   31  N   UNL     1      -9.857  13.528  65.296  1.00  0.00    -0.538 NA 
HETATM   32  H   UNL     1      -9.060  13.406  64.673  1.00  0.00     0.000 HD 
BRANCH  31  33
HETATM   33  O   UNL     1     -10.852  14.422  64.901  1.00  0.00    -0.376 OA 
HETATM   34  C   UNL     1     -10.670  15.806  65.093  1.00  0.00    -0.435 C  
ENDBRANCH  31  33
ENDBRANCH  22  31
ENDBRANCH  19  22
ENDBRANCH   8  18
TORSDOF 8
ENDMDL
MODEL      181
REMARK 921   NORMALIZED FREE ENERGY PREDICTED BY IDOCK:   -4.50 KCAL/MOL
REMARK 922        TOTAL FREE ENERGY PREDICTED BY IDOCK:   -7.76 KCAL/MOL
REMARK 923 INTER-LIGAND FREE ENERGY PREDICTED BY IDOCK:   -6.88 KCAL/MOL
REMARK 924 INTRA-LIGAND FREE ENERGY PREDICTED BY IDOCK:   -0.88 KCAL/MOL
REMARK 927      BINDING AFFINITY PREDICTED BY RF-SCORE:    0.00 PKD
ROOT
HETATM    1  C   UNL     1      -8.755   9.565  68.298  1.00  0.00    -0.120 C  
HETATM    2  S   UNL     1      -7.995  10.708  69.420  1.00  0.00    -0.060 SA 
HETATM    3  C   UNL     1      -7.266   9.632  70.692  1.00  0.00    -0.103 C  
HETATM    4  C   UNL     1      -7.403   8.143  70.537  1.00  0.00    -0.056 C  
HETATM    5  C   UNL     1      -9.983   7.943  67.950  1.00  0.00    -0.178 C  
HETATM    6  CA  UNL     1      -8.129   7.511  69.578  1.00  0.00    -0.128 C  
HETATM    7  N   UNL     1      -8.908   8.202  68.721  1.00  0.00    -0.138 N  
HETATM    8  CA  UNL     1     -10.272   9.473  67.845  1.00  0.00    -0.205 C  
HETATM    9  C   UNL     1      -8.077   6.018  69.489  1.00  0.00    -0.107 C  
HETATM   10  O   UNL     1     -10.621   6.935  67.749  1.00  0.00    -0.199 OA 
HETATM   11  O   UNL     1      -9.183   5.365  69.120  1.00  0.00    -0.112 OA 
HETATM   12  OXT UNL     1      -7.036   5.401  69.676  1.00  0.00    -0.057 OA 
ENDROOT
BRANCH   4  13
HETATM   13  C   UNL     1      -6.749   7.394  71.700  1.00  0.00    -0.050 C  
BRANCH  13  14
HETATM   14  O   UNL     1      -7.720   6.915  72.643  1.00  0.00    -0.093 OA 
BRANCH  14  15
HETATM   15  C   UNL     1      -8.222   7.815  73.538  1.00  0.00    -0.183 C  
HETATM   16  C   UNL     1      -9.708   7.652  73.704  1.00  0.00    -0.314 C  
HETATM   17  O   UNL     1      -7.557   8.617  74.179  1.00  0.00    -0.383 OA 
ENDBRANCH  14  15
ENDBRANCH  13  14
ENDBRANCH   4  13
BRANCH   8  18
HETATM   18  N   UNL     1     -11.580   9.846  68.536  1.00  0.00    -0.462 N  
HETATM   19  C   UNL     1     -12.160  11.049  68.935  1.00  0.00    -0.169 C  
HETATM   20  H   UNL     1     -12.158   9.036  68.754  1.00  0.00     0.000 HD 
HETATM   21  O   UNL     1     -13.151  10.997  69.702  1.00  0.00    -0.000 OA 
BRANCH  19  22
HETATM   22  C   UNL     1     -11.760  12.430  68.420  1.00  0.00    -0.336 C  
BRANCH  22  23
HETATM   23  C   UNL     1     -11.861  13.639  69.263  1.00  0.00    -0.346 A  
HETATM   24  N   UNL     1     -12.396  13.646  70.557  1.00  0.00    -0.355 NA 
HETATM   25  H2  UNL     1     -11.993  15.832  72.928  1.00  0.00     0.000 HD 
HETATM   26  N   UNL     1     -12.342  14.985  72.481  1.00  0.00    -0.348 NA 
HETATM   27  C   UNL     1     -11.081  14.747  68.971  1.00  0.00    -0.256 A  
HETATM   28  S   UNL     1     -11.025  15.806  70.309  1.00  0.00    -0.369 SA 
HETATM   29  H1  UNL     1     -12.933  14.342  73.009  1.00  0.00     0.000 HD 
HETATM   30  C   UNL     1     -12.020  14.723  71.197  1.00  0.00    -0.335 A  
ENDBRANCH  22  23
BRANCH  22  31
HETATM   31  N   UNL     1     -11.568  12.783  67.185  1.00  0.00    -0.344 NA 
HETATM   32  H   UNL     1     -11.018  13.625  67.017  1.00  0.00     0.000 HD 
BRANCH  31  33
HETATM   33  O   UNL     1     -12.054  12.099  66.072  1.00  0.00    -0.612 OA 
HETATM   34  C   UNL     1     -12.260  12.788  64.860  1.00  0.00    -0.463 C  
ENDBRANCH  31  33
ENDBRANCH  22  31
ENDBRANCH  19  22
ENDBRANCH   8  18
TORSDOF 8
ENDMDL
MODEL      182
REMARK 921   NORMALIZED FREE ENERGY PREDICTED BY IDOCK:   -4.49 KCAL/MOL
REMARK 922        TOTAL FREE ENERGY PREDICTED BY IDOCK:   -7.75 KCAL/MOL
REMARK 923 INTER-LIGAND FREE ENERGY PREDICTED BY IDOCK:   -5.31 KCAL/MOL
REMARK 924 INTRA-LIGAND FREE ENERGY PREDICTED BY IDOCK:   -2.44 KCAL/MOL
REMARK 927      BINDING AFFINITY PREDICTED BY RF-SCORE:    0.00 PKD
ROOT
HETATM    1  C   UNL     1      -7.578   8.987  70.080  1.00  0.00    -0.082 C  
HETATM    2  S   UNL     1      -9.086   9.317  70.951  1.00  0.00    -0.161 SA 
HETATM    3  C   UNL     1      -9.938   7.711  70.948  1.00  0.00    -0.180 C  
HETATM    4  C   UNL     1      -9.252   6.536  70.311  1.00  0.00    -0.156 C  
HETATM    5  C   UNL     1      -6.586   8.210  68.446  1.00  0.00    -0.059 C  
HETATM    6  CA  UNL     1      -8.080   6.581  69.623  1.00  0.00    -0.125 C  
HETATM    7  N   UNL     1      -7.473   7.754  69.352  1.00  0.00    -0.086 N  
HETATM    8  CA  UNL     1      -7.014   9.676  68.767  1.00  0.00    -0.066 C  
HETATM    9  C   UNL     1      -7.468   5.304  69.141  1.00  0.00    -0.069 C  
HETATM   10  O   UNL     1      -5.992   7.670  67.541  1.00  0.00    -0.041 OA 
HETATM   11  O   UNL     1      -6.811   5.314  67.978  1.00  0.00    -0.057 OA 
HETATM   12  OXT UNL     1      -7.496   4.284  69.819  1.00  0.00    -0.049 OA 
ENDROOT
BRANCH   4  13
HETATM   13  C   UNL     1     -10.114   5.274  70.383  1.00  0.00    -0.254 C  
BRANCH  13  14
HETATM   14  O   UNL     1     -11.066   5.335  71.456  1.00  0.00    -0.107 OA 
BRANCH  14  15
HETATM   15  C   UNL     1     -10.753   4.679  72.611  1.00  0.00    -0.181 C  
HETATM   16  C   UNL     1      -9.913   3.461  72.338  1.00  0.00    -0.235 C  
HETATM   17  O   UNL     1     -11.052   5.052  73.737  1.00  0.00    -0.308 OA 
ENDBRANCH  14  15
ENDBRANCH  13  14
ENDBRANCH   4  13
BRANCH   8  18
HETATM   18  N   UNL     1      -7.697  10.336  67.573  1.00  0.00    -0.094 N  
HETATM   19  C   UNL     1      -8.802  10.019  66.787  1.00  0.00    -0.132 C  
HETATM   20  H   UNL     1      -7.243  11.203  67.287  1.00  0.00     0.000 HD 
HETATM   21  O   UNL     1      -8.965  10.653  65.717  1.00  0.00    -0.169 OA 
BRANCH  19  22
HETATM   22  C   UNL     1      -9.905   9.037  67.180  1.00  0.00    -0.203 C  
BRANCH  22  23
HETATM   23  C   UNL     1      -9.991   7.683  66.597  1.00  0.00    -0.214 A  
HETATM   24  N   UNL     1      -8.977   7.096  65.831  1.00  0.00    -0.114 NA 
HETATM   25  H2  UNL     1      -8.469   3.957  65.159  1.00  0.00     0.000 HD 
HETATM   26  N   UNL     1      -8.294   4.962  65.142  1.00  0.00    -0.127 NA 
HETATM   27  C   UNL     1     -10.910   6.775  67.101  1.00  0.00    -0.392 A  
HETATM   28  S   UNL     1     -10.515   5.190  66.605  1.00  0.00    -0.233 SA 
HETATM   29  H1  UNL     1      -7.478   5.324  64.647  1.00  0.00     0.000 HD 
HETATM   30  C   UNL     1      -9.142   5.800  65.773  1.00  0.00    -0.109 A  
ENDBRANCH  22  23
BRANCH  22  31
HETATM   31  N   UNL     1     -11.012   9.307  67.802  1.00  0.00    -0.493 NA 
HETATM   32  H   UNL     1     -11.447   8.555  68.336  1.00  0.00     0.000 HD 
BRANCH  31  33
HETATM   33  O   UNL     1     -11.652  10.546  67.798  1.00  0.00    -0.462 OA 
HETATM   34  C   UNL     1     -11.875  11.225  69.013  1.00  0.00    -0.352 C  
ENDBRANCH  31  33
ENDBRANCH  22  31
ENDBRANCH  19  22
ENDBRANCH   8  18
TORSDOF 8
ENDMDL
MODEL      183
REMARK 921   NORMALIZED FREE ENERGY PREDICTED BY IDOCK:   -4.49 KCAL/MOL
REMARK 922        TOTAL FREE ENERGY PREDICTED BY IDOCK:   -7.74 KCAL/MOL
REMARK 923 INTER-LIGAND FREE ENERGY PREDICTED BY IDOCK:   -5.56 KCAL/MOL
REMARK 924 INTRA-LIGAND FREE ENERGY PREDICTED BY IDOCK:   -2.18 KCAL/MOL
REMARK 927      BINDING AFFINITY PREDICTED BY RF-SCORE:    0.00 PKD
ROOT
HETATM    1  C   UNL     1      -8.195  10.279  69.236  1.00  0.00    -0.162 C  
HETATM    2  S   UNL     1      -9.888  10.688  68.904  1.00  0.00    -0.204 SA 
HETATM    3  C   UNL     1     -10.763   9.116  69.166  1.00  0.00    -0.172 C  
HETATM    4  C   UNL     1      -9.970   7.917  69.605  1.00  0.00    -0.191 C  
HETATM    5  C   UNL     1      -6.556   9.059  68.945  1.00  0.00    -0.052 C  
HETATM    6  CA  UNL     1      -8.616   7.863  69.719  1.00  0.00    -0.133 C  
HETATM    7  N   UNL     1      -7.839   8.891  69.324  1.00  0.00    -0.094 N  
HETATM    8  CA  UNL     1      -6.931  10.424  68.288  1.00  0.00    -0.070 C  
HETATM    9  C   UNL     1      -7.980   6.627  70.275  1.00  0.00    -0.115 C  
HETATM   10  O   UNL     1      -5.624   8.293  68.857  1.00  0.00    -0.037 OA 
HETATM   11  O   UNL     1      -6.794   6.250  69.790  1.00  0.00    -0.060 OA 
HETATM   12  OXT UNL     1      -8.486   6.009  71.203  1.00  0.00    -0.122 OA 
ENDROOT
BRANCH   4  13
HETATM   13  C   UNL     1     -10.857   6.681  69.762  1.00  0.00    -0.286 C  
BRANCH  13  14
HETATM   14  O   UNL     1     -12.001   6.944  70.592  1.00  0.00    -0.369 OA 
BRANCH  14  15
HETATM   15  C   UNL     1     -11.786   7.062  71.934  1.00  0.00    -0.305 C  
HETATM   16  C   UNL     1     -11.584   5.718  72.577  1.00  0.00    -0.321 C  
HETATM   17  O   UNL     1     -11.703   8.120  72.544  1.00  0.00    -0.378 OA 
ENDBRANCH  14  15
ENDBRANCH  13  14
ENDBRANCH   4  13
BRANCH   8  18
HETATM   18  N   UNL     1      -6.767  10.382  66.772  1.00  0.00    -0.082 N  
HETATM   19  C   UNL     1      -7.374   9.658  65.749  1.00  0.00    -0.100 C  
HETATM   20  H   UNL     1      -6.055  11.027  66.433  1.00  0.00     0.000 HD 
HETATM   21  O   UNL     1      -6.840   9.683  64.613  1.00  0.00    -0.097 OA 
BRANCH  19  22
HETATM   22  C   UNL     1      -8.709   8.924  65.864  1.00  0.00    -0.170 C  
BRANCH  22  23
HETATM   23  C   UNL     1      -8.788   7.493  66.220  1.00  0.00    -0.160 A  
HETATM   24  N   UNL     1      -9.977   6.755  66.233  1.00  0.00     0.014 NA 
HETATM   25  H2  UNL     1     -10.393   3.534  66.112  1.00  0.00     0.000 HD 
HETATM   26  N   UNL     1     -10.667   4.515  66.161  1.00  0.00    -0.500 NA 
HETATM   27  C   UNL     1      -7.643   6.712  66.180  1.00  0.00    -0.086 A  
HETATM   28  S   UNL     1      -8.052   5.055  66.173  1.00  0.00    -0.109 SA 
HETATM   29  H1  UNL     1     -11.656   4.763  66.178  1.00  0.00     0.000 HD 
HETATM   30  C   UNL     1      -9.717   5.474  66.203  1.00  0.00    -0.123 A  
ENDBRANCH  22  23
BRANCH  22  31
HETATM   31  N   UNL     1      -9.864   9.320  65.421  1.00  0.00    -0.444 NA 
HETATM   32  H   UNL     1     -10.696   8.930  65.863  1.00  0.00     0.000 HD 
BRANCH  31  33
HETATM   33  O   UNL     1     -10.054  10.238  64.389  1.00  0.00    -0.324 OA 
HETATM   34  C   UNL     1     -10.735  11.446  64.640  1.00  0.00    -0.314 C  
ENDBRANCH  31  33
ENDBRANCH  22  31
ENDBRANCH  19  22
ENDBRANCH   8  18
TORSDOF 8
ENDMDL
MODEL      184
REMARK 921   NORMALIZED FREE ENERGY PREDICTED BY IDOCK:   -4.45 KCAL/MOL
REMARK 922        TOTAL FREE ENERGY PREDICTED BY IDOCK:   -7.69 KCAL/MOL
REMARK 923 INTER-LIGAND FREE ENERGY PREDICTED BY IDOCK:   -6.98 KCAL/MOL
REMARK 924 INTRA-LIGAND FREE ENERGY PREDICTED BY IDOCK:   -0.71 KCAL/MOL
REMARK 927      BINDING AFFINITY PREDICTED BY RF-SCORE:    0.00 PKD
ROOT
HETATM    1  C   UNL     1      -9.802  15.786  65.603  1.00  0.00    -0.322 C  
HETATM    2  S   UNL     1     -10.828  17.215  65.823  1.00  0.00     0.107 SA 
HETATM    3  C   UNL     1     -10.902  17.410  67.629  1.00  0.00    -0.233 C  
HETATM    4  C   UNL     1     -10.129  16.448  68.487  1.00  0.00    -0.248 C  
HETATM    5  C   UNL     1      -9.335  13.828  66.059  1.00  0.00    -0.015 C  
HETATM    6  CA  UNL     1      -9.455  15.355  68.040  1.00  0.00    -0.201 C  
HETATM    7  N   UNL     1      -9.524  14.970  66.750  1.00  0.00    -0.232 N  
HETATM    8  CA  UNL     1     -10.137  14.425  64.859  1.00  0.00    -0.218 C  
HETATM    9  C   UNL     1      -8.640  14.555  69.007  1.00  0.00    -0.041 C  
HETATM   10  O   UNL     1      -8.996  12.716  66.393  1.00  0.00    -0.167 OA 
HETATM   11  O   UNL     1      -8.570  13.232  68.836  1.00  0.00     0.066 OA 
HETATM   12  OXT UNL     1      -7.989  15.092  69.895  1.00  0.00    -0.124 OA 
ENDROOT
BRANCH   4  13
HETATM   13  C   UNL     1     -10.315  16.746  69.976  1.00  0.00     0.163 C  
BRANCH  13  14
HETATM   14  O   UNL     1     -11.624  16.375  70.438  1.00  0.00    -0.256 OA 
BRANCH  14  15
HETATM   15  C   UNL     1     -11.723  15.247  71.198  1.00  0.00    -0.360 C  
HETATM   16  C   UNL     1     -12.154  14.066  70.372  1.00  0.00    -0.426 C  
HETATM   17  O   UNL     1     -11.442  15.170  72.387  1.00  0.00    -0.425 OA 
ENDBRANCH  14  15
ENDBRANCH  13  14
ENDBRANCH   4  13
BRANCH   8  18
HETATM   18  N   UNL     1     -11.441  13.670  64.625  1.00  0.00    -0.350 N  
HETATM   19  C   UNL     1     -11.757  12.401  64.146  1.00  0.00    -0.400 C  
HETATM   20  H   UNL     1     -12.265  14.216  64.874  1.00  0.00     0.000 HD 
HETATM   21  O   UNL     1     -12.953  12.166  63.847  1.00  0.00    -0.726 OA 
BRANCH  19  22
HETATM   22  C   UNL     1     -10.784  11.225  64.065  1.00  0.00    -0.377 C  
BRANCH  22  23
HETATM   23  C   UNL     1     -10.356  10.481  65.267  1.00  0.00    -0.229 A  
HETATM   24  N   UNL     1     -10.939  10.633  66.530  1.00  0.00    -0.100 NA 
HETATM   25  H2  UNL     1     -10.856   8.624  69.084  1.00  0.00     0.000 HD 
HETATM   26  N   UNL     1     -11.104   9.459  68.553  1.00  0.00    -0.470 NA 
HETATM   27  C   UNL     1      -9.620   9.313  65.126  1.00  0.00    -0.033 A  
HETATM   28  S   UNL     1      -9.647   8.414  66.576  1.00  0.00    -0.243 SA 
HETATM   29  H1  UNL     1     -11.697  10.171  68.980  1.00  0.00     0.000 HD 
HETATM   30  C   UNL     1     -10.645   9.613  67.293  1.00  0.00    -0.247 A  
ENDBRANCH  22  23
BRANCH  22  31
HETATM   31  N   UNL     1     -10.017  10.908  63.068  1.00  0.00    -0.558 NA 
HETATM   32  H   UNL     1     -10.289  10.105  62.501  1.00  0.00     0.000 HD 
BRANCH  31  33
HETATM   33  O   UNL     1      -8.848  11.580  62.710  1.00  0.00    -0.223 OA 
HETATM   34  C   UNL     1      -7.695  10.848  62.363  1.00  0.00    -0.091 C  
ENDBRANCH  31  33
ENDBRANCH  22  31
ENDBRANCH  19  22
ENDBRANCH   8  18
TORSDOF 8
ENDMDL
MODEL      185
REMARK 921   NORMALIZED FREE ENERGY PREDICTED BY IDOCK:   -4.45 KCAL/MOL
REMARK 922        TOTAL FREE ENERGY PREDICTED BY IDOCK:   -7.68 KCAL/MOL
REMARK 923 INTER-LIGAND FREE ENERGY PREDICTED BY IDOCK:   -6.68 KCAL/MOL
REMARK 924 INTRA-LIGAND FREE ENERGY PREDICTED BY IDOCK:   -1.00 KCAL/MOL
REMARK 927      BINDING AFFINITY PREDICTED BY RF-SCORE:    0.00 PKD
ROOT
HETATM    1  C   UNL     1      -8.016  10.255  68.136  1.00  0.00    -0.109 C  
HETATM    2  S   UNL     1      -7.445   8.848  69.050  1.00  0.00    -0.075 SA 
HETATM    3  C   UNL     1      -7.600   7.480  67.862  1.00  0.00    -0.110 C  
HETATM    4  C   UNL     1      -8.092   7.786  66.475  1.00  0.00    -0.111 C  
HETATM    5  C   UNL     1      -9.433  11.159  66.938  1.00  0.00    -0.185 C  
HETATM    6  CA  UNL     1      -8.548   8.992  66.046  1.00  0.00    -0.142 C  
HETATM    7  N   UNL     1      -8.706  10.024  66.899  1.00  0.00    -0.129 N  
HETATM    8  CA  UNL     1      -9.204  11.250  68.479  1.00  0.00    -0.181 C  
HETATM    9  C   UNL     1      -8.901   9.167  64.602  1.00  0.00    -0.142 C  
HETATM   10  O   UNL     1     -10.208  11.660  66.156  1.00  0.00    -0.213 OA 
HETATM   11  O   UNL     1      -9.921   9.972  64.291  1.00  0.00    -0.235 OA 
HETATM   12  OXT UNL     1      -8.236   8.650  63.713  1.00  0.00    -0.161 OA 
ENDROOT
BRANCH   4  13
HETATM   13  C   UNL     1      -8.176   6.523  65.616  1.00  0.00    -0.137 C  
BRANCH  13  14
HETATM   14  O   UNL     1      -8.544   5.371  66.391  1.00  0.00    -0.116 OA 
BRANCH  14  15
HETATM   15  C   UNL     1      -7.847   4.219  66.170  1.00  0.00    -0.095 C  
HETATM   16  C   UNL     1      -8.679   3.006  66.487  1.00  0.00    -0.136 C  
HETATM   17  O   UNL     1      -6.713   4.156  65.714  1.00  0.00    -0.046 OA 
ENDBRANCH  14  15
ENDBRANCH  13  14
ENDBRANCH   4  13
BRANCH   8  18
HETATM   18  N   UNL     1     -10.507  11.074  69.252  1.00  0.00    -0.332 N  
HETATM   19  C   UNL     1     -11.524  11.938  69.654  1.00  0.00    -0.266 C  
HETATM   20  H   UNL     1     -10.672  10.109  69.537  1.00  0.00     0.000 HD 
HETATM   21  O   UNL     1     -12.356  11.517  70.493  1.00  0.00    -0.350 OA 
BRANCH  19  22
HETATM   22  C   UNL     1     -11.780  13.325  69.066  1.00  0.00    -0.322 C  
BRANCH  22  23
HETATM   23  C   UNL     1     -12.113  14.485  69.917  1.00  0.00    -0.336 A  
HETATM   24  N   UNL     1     -13.280  14.582  70.685  1.00  0.00    -0.270 NA 
HETATM   25  H2  UNL     1     -13.903  16.496  73.237  1.00  0.00     0.000 HD 
HETATM   26  N   UNL     1     -14.087  15.786  72.528  1.00  0.00    -0.517 NA 
HETATM   27  C   UNL     1     -11.112  15.363  70.305  1.00  0.00    -0.311 A  
HETATM   28  S   UNL     1     -11.634  16.319  71.619  1.00  0.00    -0.220 SA 
HETATM   29  H1  UNL     1     -14.983  15.299  72.522  1.00  0.00     0.000 HD 
HETATM   30  C   UNL     1     -13.143  15.499  71.607  1.00  0.00    -0.481 A  
ENDBRANCH  22  23
BRANCH  22  31
HETATM   31  N   UNL     1     -12.018  13.621  67.825  1.00  0.00    -0.367 NA 
HETATM   32  H   UNL     1     -12.663  13.018  67.313  1.00  0.00     0.000 HD 
BRANCH  31  33
HETATM   33  O   UNL     1     -11.462  14.698  67.137  1.00  0.00    -0.344 OA 
HETATM   34  C   UNL     1     -10.066  14.775  66.963  1.00  0.00    -0.245 C  
ENDBRANCH  31  33
ENDBRANCH  22  31
ENDBRANCH  19  22
ENDBRANCH   8  18
TORSDOF 8
ENDMDL
MODEL      186
REMARK 921   NORMALIZED FREE ENERGY PREDICTED BY IDOCK:   -4.42 KCAL/MOL
REMARK 922        TOTAL FREE ENERGY PREDICTED BY IDOCK:   -7.64 KCAL/MOL
REMARK 923 INTER-LIGAND FREE ENERGY PREDICTED BY IDOCK:   -6.63 KCAL/MOL
REMARK 924 INTRA-LIGAND FREE ENERGY PREDICTED BY IDOCK:   -1.02 KCAL/MOL
REMARK 927      BINDING AFFINITY PREDICTED BY RF-SCORE:    0.00 PKD
ROOT
HETATM    1  C   UNL     1      -8.830  12.941  67.059  1.00  0.00    -0.208 C  
HETATM    2  S   UNL     1      -8.899  12.251  68.690  1.00  0.00     0.113 SA 
HETATM    3  C   UNL     1      -9.490  10.555  68.408  1.00  0.00    -0.157 C  
HETATM    4  C   UNL     1      -9.739  10.108  66.995  1.00  0.00    -0.224 C  
HETATM    5  C   UNL     1      -9.716  13.314  65.232  1.00  0.00     0.033 C  
HETATM    6  CA  UNL     1      -9.672  10.898  65.891  1.00  0.00    -0.224 C  
HETATM    7  N   UNL     1      -9.477  12.228  65.994  1.00  0.00    -0.223 N  
HETATM    8  CA  UNL     1      -9.567  14.227  66.490  1.00  0.00    -0.297 C  
HETATM    9  C   UNL     1      -9.840  10.279  64.539  1.00  0.00    -0.315 C  
HETATM   10  O   UNL     1     -10.190  13.449  64.128  1.00  0.00    -0.363 OA 
HETATM   11  O   UNL     1     -10.453  10.989  63.588  1.00  0.00    -0.363 OA 
HETATM   12  OXT UNL     1      -9.369   9.181  64.275  1.00  0.00     0.044 OA 
ENDROOT
BRANCH   4  13
HETATM   13  C   UNL     1     -10.246   8.665  66.942  1.00  0.00    -0.296 C  
BRANCH  13  14
HETATM   14  O   UNL     1      -9.342   7.755  67.589  1.00  0.00    -0.141 OA 
BRANCH  14  15
HETATM   15  C   UNL     1      -9.527   6.422  67.363  1.00  0.00    -0.116 C  
HETATM   16  C   UNL     1     -10.797   6.167  66.599  1.00  0.00    -0.279 C  
HETATM   17  O   UNL     1      -8.741   5.538  67.678  1.00  0.00    -0.109 OA 
ENDBRANCH  14  15
ENDBRANCH  13  14
ENDBRANCH   4  13
BRANCH   8  18
HETATM   18  N   UNL     1     -10.884  14.906  66.850  1.00  0.00    -0.313 N  
HETATM   19  C   UNL     1     -11.576  15.116  68.041  1.00  0.00    -0.328 C  
HETATM   20  H   UNL     1     -11.365  15.293  66.039  1.00  0.00     0.000 HD 
HETATM   21  O   UNL     1     -12.766  15.507  67.969  1.00  0.00     0.951 OA 
BRANCH  19  22
HETATM   22  C   UNL     1     -10.966  15.021  69.439  1.00  0.00    -0.266 C  
BRANCH  22  23
HETATM   23  C   UNL     1     -11.801  15.004  70.657  1.00  0.00    -0.313 A  
HETATM   24  N   UNL     1     -12.732  14.001  70.953  1.00  0.00    -0.345 NA 
HETATM   25  H2  UNL     1     -14.048  13.205  73.816  1.00  0.00     0.000 HD 
HETATM   26  N   UNL     1     -13.875  13.145  72.812  1.00  0.00    -0.706 NA 
HETATM   27  C   UNL     1     -11.432  15.768  71.754  1.00  0.00    -0.398 A  
HETATM   28  S   UNL     1     -12.258  15.242  73.152  1.00  0.00    -0.457 SA 
HETATM   29  H1  UNL     1     -14.338  12.422  72.262  1.00  0.00     0.000 HD 
HETATM   30  C   UNL     1     -13.037  14.024  72.224  1.00  0.00    -0.423 A  
ENDBRANCH  22  23
BRANCH  22  31
HETATM   31  N   UNL     1      -9.727  15.222  69.771  1.00  0.00    -0.441 NA 
HETATM   32  H   UNL     1      -9.359  14.689  70.559  1.00  0.00     0.000 HD 
BRANCH  31  33
HETATM   33  O   UNL     1      -8.861  16.109  69.134  1.00  0.00    -0.246 OA 
HETATM   34  C   UNL     1      -7.467  15.952  69.273  1.00  0.00    -0.219 C  
ENDBRANCH  31  33
ENDBRANCH  22  31
ENDBRANCH  19  22
ENDBRANCH   8  18
TORSDOF 8
ENDMDL
MODEL      187
REMARK 921   NORMALIZED FREE ENERGY PREDICTED BY IDOCK:   -4.42 KCAL/MOL
REMARK 922        TOTAL FREE ENERGY PREDICTED BY IDOCK:   -7.64 KCAL/MOL
REMARK 923 INTER-LIGAND FREE ENERGY PREDICTED BY IDOCK:   -6.31 KCAL/MOL
REMARK 924 INTRA-LIGAND FREE ENERGY PREDICTED BY IDOCK:   -1.33 KCAL/MOL
REMARK 927      BINDING AFFINITY PREDICTED BY RF-SCORE:    0.00 PKD
ROOT
HETATM    1  C   UNL     1      -8.758   7.435  67.704  1.00  0.00    -0.125 C  
HETATM    2  S   UNL     1     -10.502   7.621  67.452  1.00  0.00    -0.297 SA 
HETATM    3  C   UNL     1     -10.620   9.064  66.352  1.00  0.00     0.113 C  
HETATM    4  C   UNL     1      -9.350   9.720  65.891  1.00  0.00    -0.260 C  
HETATM    5  C   UNL     1      -6.922   8.241  68.194  1.00  0.00    -0.077 C  
HETATM    6  CA  UNL     1      -8.097   9.403  66.313  1.00  0.00    -0.111 C  
HETATM    7  N   UNL     1      -7.898   8.512  67.305  1.00  0.00    -0.097 N  
HETATM    8  CA  UNL     1      -7.941   7.441  69.065  1.00  0.00    -0.122 C  
HETATM    9  C   UNL     1      -6.921  10.075  65.676  1.00  0.00    -0.115 C  
HETATM   10  O   UNL     1      -5.830   8.726  68.383  1.00  0.00    -0.040 OA 
HETATM   11  O   UNL     1      -5.856  10.345  66.435  1.00  0.00    -0.060 OA 
HETATM   12  OXT UNL     1      -6.892  10.312  64.475  1.00  0.00    -0.127 OA 
ENDROOT
BRANCH   4  13
HETATM   13  C   UNL     1      -9.633  10.923  64.988  1.00  0.00    -0.251 C  
BRANCH  13  14
HETATM   14  O   UNL     1     -10.007  12.085  65.746  1.00  0.00    -0.232 OA 
BRANCH  14  15
HETATM   15  C   UNL     1     -11.296  12.519  65.632  1.00  0.00    -0.335 C  
HETATM   16  C   UNL     1     -11.632  12.870  64.208  1.00  0.00    -0.434 C  
HETATM   17  O   UNL     1     -12.109  12.564  66.546  1.00  0.00    -0.572 OA 
ENDBRANCH  14  15
ENDBRANCH  13  14
ENDBRANCH   4  13
BRANCH   8  18
HETATM   18  N   UNL     1      -8.183   8.118  70.410  1.00  0.00    -0.111 N  
HETATM   19  C   UNL     1      -9.290   8.256  71.244  1.00  0.00    -0.173 C  
HETATM   20  H   UNL     1      -7.348   8.570  70.782  1.00  0.00     0.000 HD 
HETATM   21  O   UNL     1      -9.220   9.086  72.183  1.00  0.00    -0.365 OA 
BRANCH  19  22
HETATM   22  C   UNL     1     -10.549   7.392  71.183  1.00  0.00    -0.222 C  
BRANCH  22  23
HETATM   23  C   UNL     1     -10.495   5.922  71.317  1.00  0.00    -0.233 A  
HETATM   24  N   UNL     1     -10.111   5.056  70.286  1.00  0.00    -0.256 NA 
HETATM   25  H2  UNL     1      -9.075   1.981  70.470  1.00  0.00     0.000 HD 
HETATM   26  N   UNL     1      -9.334   2.860  70.022  1.00  0.00    -0.148 NA 
HETATM   27  C   UNL     1     -10.446   5.349  72.579  1.00  0.00    -0.214 A  
HETATM   28  S   UNL     1      -9.932   3.724  72.476  1.00  0.00    -0.168 SA 
HETATM   29  H1  UNL     1      -9.248   2.955  69.010  1.00  0.00     0.000 HD 
HETATM   30  C   UNL     1      -9.788   3.886  70.772  1.00  0.00    -0.141 A  
ENDBRANCH  22  23
BRANCH  22  31
HETATM   31  N   UNL     1     -11.721   7.740  70.747  1.00  0.00    -0.393 NA 
HETATM   32  H   UNL     1     -11.843   7.821  69.738  1.00  0.00     0.000 HD 
BRANCH  31  33
HETATM   33  O   UNL     1     -12.827   8.013  71.552  1.00  0.00    -0.319 OA 
HETATM   34  C   UNL     1     -12.950   9.272  72.173  1.00  0.00    -0.424 C  
ENDBRANCH  31  33
ENDBRANCH  22  31
ENDBRANCH  19  22
ENDBRANCH   8  18
TORSDOF 8
ENDMDL
MODEL      188
REMARK 921   NORMALIZED FREE ENERGY PREDICTED BY IDOCK:   -4.39 KCAL/MOL
REMARK 922        TOTAL FREE ENERGY PREDICTED BY IDOCK:   -7.59 KCAL/MOL
REMARK 923 INTER-LIGAND FREE ENERGY PREDICTED BY IDOCK:   -6.37 KCAL/MOL
REMARK 924 INTRA-LIGAND FREE ENERGY PREDICTED BY IDOCK:   -1.22 KCAL/MOL
REMARK 927      BINDING AFFINITY PREDICTED BY RF-SCORE:    0.00 PKD
ROOT
HETATM    1  C   UNL     1      -9.893   9.110  70.830  1.00  0.00    -0.291 C  
HETATM    2  S   UNL     1     -11.290   8.260  71.514  1.00  0.00    -0.284 SA 
HETATM    3  C   UNL     1     -10.912   6.508  71.208  1.00  0.00    -0.262 C  
HETATM    4  C   UNL     1      -9.611   6.160  70.542  1.00  0.00    -0.192 C  
HETATM    5  C   UNL     1      -8.580   9.433  69.272  1.00  0.00    -0.143 C  
HETATM    6  CA  UNL     1      -8.719   7.052  70.034  1.00  0.00    -0.142 C  
HETATM    7  N   UNL     1      -8.998   8.370  69.987  1.00  0.00    -0.137 N  
HETATM    8  CA  UNL     1      -9.860  10.219  69.697  1.00  0.00    -0.198 C  
HETATM    9  C   UNL     1      -7.414   6.553  69.498  1.00  0.00    -0.093 C  
HETATM   10  O   UNL     1      -7.748   9.558  68.402  1.00  0.00    -0.084 OA 
HETATM   11  O   UNL     1      -6.878   7.180  68.447  1.00  0.00    -0.068 OA 
HETATM   12  OXT UNL     1      -6.804   5.642  70.044  1.00  0.00    -0.055 OA 
ENDROOT
BRANCH   4  13
HETATM   13  C   UNL     1      -9.464   4.650  70.347  1.00  0.00    -0.171 C  
BRANCH  13  14
HETATM   14  O   UNL     1     -10.153   4.190  69.173  1.00  0.00    -0.034 OA 
BRANCH  14  15
HETATM   15  C   UNL     1      -9.428   4.089  68.022  1.00  0.00    -0.165 C  
HETATM   16  C   UNL     1     -10.098   4.816  66.888  1.00  0.00    -0.246 C  
HETATM   17  O   UNL     1      -8.341   3.537  67.918  1.00  0.00    -0.083 OA 
ENDBRANCH  14  15
ENDBRANCH  13  14
ENDBRANCH   4  13
BRANCH   8  18
HETATM   18  N   UNL     1     -10.766  10.504  68.504  1.00  0.00    -0.208 N  
HETATM   19  C   UNL     1     -10.830  11.519  67.552  1.00  0.00    -0.237 C  
HETATM   20  H   UNL     1     -11.485   9.793  68.374  1.00  0.00     0.000 HD 
HETATM   21  O   UNL     1     -11.857  11.588  66.833  1.00  0.00    -0.542 OA 
BRANCH  19  22
HETATM   22  C   UNL     1      -9.697  12.491  67.227  1.00  0.00    -0.202 C  
BRANCH  22  23
HETATM   23  C   UNL     1      -9.876  13.955  67.305  1.00  0.00    -0.244 A  
HETATM   24  N   UNL     1      -9.629  14.830  66.240  1.00  0.00    -0.297 NA 
HETATM   25  H2  UNL     1     -10.702  17.865  65.789  1.00  0.00     0.000 HD 
HETATM   26  N   UNL     1     -10.197  17.005  65.574  1.00  0.00    -0.617 NA 
HETATM   27  C   UNL     1     -10.668  14.498  68.306  1.00  0.00    -0.240 A  
HETATM   28  S   UNL     1     -11.091  16.107  67.923  1.00  0.00    -0.244 SA 
HETATM   29  H1  UNL     1      -9.679  16.929  64.698  1.00  0.00     0.000 HD 
HETATM   30  C   UNL     1     -10.219  15.978  66.449  1.00  0.00    -0.305 A  
ENDBRANCH  22  23
BRANCH  22  31
HETATM   31  N   UNL     1      -8.590  12.227  66.603  1.00  0.00    -0.351 NA 
HETATM   32  H   UNL     1      -8.661  11.815  65.673  1.00  0.00     0.000 HD 
BRANCH  31  33
HETATM   33  O   UNL     1      -7.311  12.463  67.106  1.00  0.00    -0.139 OA 
HETATM   34  C   UNL     1      -7.142  12.806  68.463  1.00  0.00    -0.101 C  
ENDBRANCH  31  33
ENDBRANCH  22  31
ENDBRANCH  19  22
ENDBRANCH   8  18
TORSDOF 8
ENDMDL
MODEL      189
REMARK 921   NORMALIZED FREE ENERGY PREDICTED BY IDOCK:   -4.35 KCAL/MOL
REMARK 922        TOTAL FREE ENERGY PREDICTED BY IDOCK:   -7.54 KCAL/MOL
REMARK 923 INTER-LIGAND FREE ENERGY PREDICTED BY IDOCK:   -6.19 KCAL/MOL
REMARK 924 INTRA-LIGAND FREE ENERGY PREDICTED BY IDOCK:   -1.36 KCAL/MOL
REMARK 927      BINDING AFFINITY PREDICTED BY RF-SCORE:    0.00 PKD
ROOT
HETATM    1  C   UNL     1      -8.467   9.540  69.324  1.00  0.00    -0.139 C  
HETATM    2  S   UNL     1      -8.891   8.440  70.648  1.00  0.00    -0.157 SA 
HETATM    3  C   UNL     1      -9.322   6.894  69.792  1.00  0.00    -0.146 C  
HETATM    4  C   UNL     1      -9.208   6.847  68.295  1.00  0.00    -0.123 C  
HETATM    5  C   UNL     1      -8.907  10.407  67.504  1.00  0.00    -0.134 C  
HETATM    6  CA  UNL     1      -8.915   7.902  67.490  1.00  0.00    -0.127 C  
HETATM    7  N   UNL     1      -8.809   9.152  67.986  1.00  0.00    -0.129 N  
HETATM    8  CA  UNL     1      -9.103  10.946  68.956  1.00  0.00    -0.098 C  
HETATM    9  C   UNL     1      -8.728   7.672  66.023  1.00  0.00    -0.156 C  
HETATM   10  O   UNL     1      -9.111  10.843  66.394  1.00  0.00    -0.163 OA 
HETATM   11  O   UNL     1      -9.128   8.623  65.175  1.00  0.00    -0.124 OA 
HETATM   12  OXT UNL     1      -8.158   6.674  65.599  1.00  0.00    -0.112 OA 
ENDROOT
BRANCH   4  13
HETATM   13  C   UNL     1      -9.622   5.482  67.741  1.00  0.00    -0.123 C  
BRANCH  13  14
HETATM   14  O   UNL     1      -8.938   4.405  68.401  1.00  0.00    -0.104 OA 
BRANCH  14  15
HETATM   15  C   UNL     1      -8.337   3.468  67.612  1.00  0.00    -0.089 C  
HETATM   16  C   UNL     1      -7.390   2.610  68.406  1.00  0.00    -0.048 C  
HETATM   17  O   UNL     1      -8.572   3.290  66.424  1.00  0.00    -0.110 OA 
ENDBRANCH  14  15
ENDBRANCH  13  14
ENDBRANCH   4  13
BRANCH   8  18
HETATM   18  N   UNL     1     -10.497  11.532  69.154  1.00  0.00    -0.394 N  
HETATM   19  C   UNL     1     -11.116  12.721  68.772  1.00  0.00    -0.260 C  
HETATM   20  H   UNL     1     -11.114  10.917  69.684  1.00  0.00     0.000 HD 
HETATM   21  O   UNL     1     -12.215  13.009  69.302  1.00  0.00    -0.231 OA 
BRANCH  19  22
HETATM   22  C   UNL     1     -10.620  13.652  67.666  1.00  0.00    -0.241 C  
BRANCH  22  23
HETATM   23  C   UNL     1     -11.135  13.569  66.284  1.00  0.00    -0.300 A  
HETATM   24  N   UNL     1     -11.894  12.498  65.796  1.00  0.00    -0.430 NA 
HETATM   25  H2  UNL     1     -13.850  12.385  63.203  1.00  0.00     0.000 HD 
HETATM   26  N   UNL     1     -13.370  12.038  64.033  1.00  0.00    -0.625 NA 
HETATM   27  C   UNL     1     -11.227  14.719  65.515  1.00  0.00    -0.346 A  
HETATM   28  S   UNL     1     -12.251  14.458  64.174  1.00  0.00    -0.221 SA 
HETATM   29  H1  UNL     1     -13.533  11.082  64.349  1.00  0.00     0.000 HD 
HETATM   30  C   UNL     1     -12.525  12.848  64.706  1.00  0.00    -0.455 A  
ENDBRANCH  22  23
BRANCH  22  31
HETATM   31  N   UNL     1      -9.557  14.396  67.684  1.00  0.00    -0.211 NA 
HETATM   32  H   UNL     1      -9.656  15.350  68.032  1.00  0.00     0.000 HD 
BRANCH  31  33
HETATM   33  O   UNL     1      -8.290  13.993  67.264  1.00  0.00    -0.191 OA 
HETATM   34  C   UNL     1      -7.171  14.808  67.527  1.00  0.00    -0.197 C  
ENDBRANCH  31  33
ENDBRANCH  22  31
ENDBRANCH  19  22
ENDBRANCH   8  18
TORSDOF 8
ENDMDL
MODEL      190
REMARK 921   NORMALIZED FREE ENERGY PREDICTED BY IDOCK:   -4.31 KCAL/MOL
REMARK 922        TOTAL FREE ENERGY PREDICTED BY IDOCK:   -7.48 KCAL/MOL
REMARK 923 INTER-LIGAND FREE ENERGY PREDICTED BY IDOCK:   -6.36 KCAL/MOL
REMARK 924 INTRA-LIGAND FREE ENERGY PREDICTED BY IDOCK:   -1.12 KCAL/MOL
REMARK 927      BINDING AFFINITY PREDICTED BY RF-SCORE:    0.00 PKD
ROOT
HETATM    1  C   UNL     1      -7.526  13.547  67.992  1.00  0.00    -0.140 C  
HETATM    2  S   UNL     1      -6.593  15.051  67.894  1.00  0.00    -0.170 SA 
HETATM    3  C   UNL     1      -7.721  16.195  67.044  1.00  0.00    -0.221 C  
HETATM    4  C   UNL     1      -9.091  15.705  66.668  1.00  0.00    -0.313 C  
HETATM    5  C   UNL     1      -8.683  12.094  67.092  1.00  0.00    -0.190 C  
HETATM    6  CA  UNL     1      -9.540  14.430  66.803  1.00  0.00    -0.268 C  
HETATM    7  N   UNL     1      -8.718  13.437  67.200  1.00  0.00    -0.218 N  
HETATM    8  CA  UNL     1      -7.159  12.109  67.432  1.00  0.00    -0.146 C  
HETATM    9  C   UNL     1     -10.969  14.121  66.484  1.00  0.00    -0.309 C  
HETATM   10  O   UNL     1      -9.441  11.294  66.595  1.00  0.00    -0.179 OA 
HETATM   11  O   UNL     1     -11.257  12.935  65.943  1.00  0.00    -0.282 OA 
HETATM   12  OXT UNL     1     -11.871  14.897  66.774  1.00  0.00    -0.304 OA 
ENDROOT
BRANCH   4  13
HETATM   13  C   UNL     1      -9.899  16.788  65.949  1.00  0.00    -0.249 C  
BRANCH  13  14
HETATM   14  O   UNL     1      -9.167  18.020  65.841  1.00  0.00    -0.520 OA 
BRANCH  14  15
HETATM   15  C   UNL     1      -9.771  19.150  66.311  1.00  0.00    -0.365 C  
HETATM   16  C   UNL     1      -8.929  19.826  67.358  1.00  0.00    -0.402 C  
HETATM   17  O   UNL     1     -10.830  19.606  65.902  1.00  0.00    -0.446 OA 
ENDBRANCH  14  15
ENDBRANCH  13  14
ENDBRANCH   4  13
BRANCH   8  18
HETATM   18  N   UNL     1      -6.316  11.646  66.249  1.00  0.00    -0.353 N  
HETATM   19  C   UNL     1      -6.205  10.451  65.542  1.00  0.00    -0.125 C  
HETATM   20  H   UNL     1      -5.694  12.374  65.896  1.00  0.00     0.000 HD 
HETATM   21  O   UNL     1      -5.233  10.318  64.759  1.00  0.00    -0.085 OA 
BRANCH  19  22
HETATM   22  C   UNL     1      -7.239   9.327  65.550  1.00  0.00    -0.086 C  
BRANCH  22  23
HETATM   23  C   UNL     1      -7.205   8.240  66.550  1.00  0.00    -0.076 A  
HETATM   24  N   UNL     1      -7.418   8.432  67.921  1.00  0.00    -0.096 NA 
HETATM   25  H2  UNL     1      -8.253   6.260  70.190  1.00  0.00     0.000 HD 
HETATM   26  N   UNL     1      -8.009   7.174  69.809  1.00  0.00    -0.121 NA 
HETATM   27  C   UNL     1      -7.347   6.923  66.139  1.00  0.00    -0.076 A  
HETATM   28  S   UNL     1      -7.734   5.923  67.467  1.00  0.00    -0.098 SA 
HETATM   29  H1  UNL     1      -7.994   7.989  70.422  1.00  0.00     0.000 HD 
HETATM   30  C   UNL     1      -7.709   7.295  68.499  1.00  0.00    -0.120 A  
ENDBRANCH  22  23
BRANCH  22  31
HETATM   31  N   UNL     1      -8.060   9.006  64.597  1.00  0.00    -0.135 NA 
HETATM   32  H   UNL     1      -8.983   8.668  64.864  1.00  0.00     0.000 HD 
BRANCH  31  33
HETATM   33  O   UNL     1      -7.775   9.089  63.234  1.00  0.00    -0.110 OA 
HETATM   34  C   UNL     1      -7.994   7.972  62.402  1.00  0.00    -0.156 C  
ENDBRANCH  31  33
ENDBRANCH  22  31
ENDBRANCH  19  22
ENDBRANCH   8  18
TORSDOF 8
ENDMDL
MODEL      191
REMARK 921   NORMALIZED FREE ENERGY PREDICTED BY IDOCK:   -4.31 KCAL/MOL
REMARK 922        TOTAL FREE ENERGY PREDICTED BY IDOCK:   -7.48 KCAL/MOL
REMARK 923 INTER-LIGAND FREE ENERGY PREDICTED BY IDOCK:   -7.33 KCAL/MOL
REMARK 924 INTRA-LIGAND FREE ENERGY PREDICTED BY IDOCK:   -0.14 KCAL/MOL
REMARK 927      BINDING AFFINITY PREDICTED BY RF-SCORE:    0.00 PKD
ROOT
HETATM    1  C   UNL     1     -10.458  13.162  66.983  1.00  0.00    -0.248 C  
HETATM    2  S   UNL     1      -9.096  13.151  68.118  1.00  0.00    -0.189 SA 
HETATM    3  C   UNL     1      -8.403  14.825  67.965  1.00  0.00    -0.143 C  
HETATM    4  C   UNL     1      -9.073  15.797  67.035  1.00  0.00    -0.240 C  
HETATM    5  C   UNL     1     -11.222  13.550  65.106  1.00  0.00    -0.309 C  
HETATM    6  CA  UNL     1     -10.102  15.507  66.195  1.00  0.00    -0.309 C  
HETATM    7  N   UNL     1     -10.547  14.243  66.043  1.00  0.00    -0.293 N  
HETATM    8  CA  UNL     1     -10.725  12.213  65.740  1.00  0.00    -0.267 C  
HETATM    9  C   UNL     1     -10.735  16.612  65.410  1.00  0.00    -0.215 C  
HETATM   10  O   UNL     1     -11.699  13.867  64.040  1.00  0.00    -0.370 OA 
HETATM   11  O   UNL     1     -11.181  16.342  64.180  1.00  0.00    -0.882 OA 
HETATM   12  OXT UNL     1     -10.914  17.722  65.895  1.00  0.00    -0.077 OA 
ENDROOT
BRANCH   4  13
HETATM   13  C   UNL     1      -8.353  17.146  67.017  1.00  0.00    -0.207 C  
BRANCH  13  14
HETATM   14  O   UNL     1      -7.585  17.328  65.816  1.00  0.00    -0.440 OA 
BRANCH  14  15
HETATM   15  C   UNL     1      -6.247  17.556  65.957  1.00  0.00    -0.164 C  
HETATM   16  C   UNL     1      -5.923  19.018  65.819  1.00  0.00    -0.221 C  
HETATM   17  O   UNL     1      -5.411  16.703  66.223  1.00  0.00    -0.277 OA 
ENDBRANCH  14  15
ENDBRANCH  13  14
ENDBRANCH   4  13
BRANCH   8  18
HETATM   18  N   UNL     1      -9.793  11.457  64.798  1.00  0.00    -0.250 N  
HETATM   19  C   UNL     1      -8.653  10.678  64.978  1.00  0.00    -0.160 C  
HETATM   20  H   UNL     1     -10.066  11.540  63.819  1.00  0.00     0.000 HD 
HETATM   21  O   UNL     1      -7.972  10.389  63.965  1.00  0.00    -0.147 OA 
BRANCH  19  22
HETATM   22  C   UNL     1      -8.222  10.043  66.300  1.00  0.00    -0.124 C  
BRANCH  22  23
HETATM   23  C   UNL     1      -9.168   9.295  67.153  1.00  0.00    -0.130 A  
HETATM   24  N   UNL     1     -10.219   8.515  66.656  1.00  0.00    -0.297 NA 
HETATM   25  H2  UNL     1     -11.878   6.136  68.123  1.00  0.00     0.000 HD 
HETATM   26  N   UNL     1     -11.616   6.773  67.370  1.00  0.00    -0.616 NA 
HETATM   27  C   UNL     1      -8.830   9.010  68.467  1.00  0.00    -0.134 A  
HETATM   28  S   UNL     1      -9.835   7.777  69.087  1.00  0.00    -0.177 SA 
HETATM   29  H1  UNL     1     -12.095   6.717  66.471  1.00  0.00     0.000 HD 
HETATM   30  C   UNL     1     -10.640   7.683  67.573  1.00  0.00    -0.252 A  
ENDBRANCH  22  23
BRANCH  22  31
HETATM   31  N   UNL     1      -7.138  10.286  66.972  1.00  0.00    -0.088 NA 
HETATM   32  H   UNL     1      -6.270   9.876  66.628  1.00  0.00     0.000 HD 
BRANCH  31  33
HETATM   33  O   UNL     1      -7.069  11.064  68.127  1.00  0.00    -0.071 OA 
HETATM   34  C   UNL     1      -5.896  11.059  68.908  1.00  0.00    -0.040 C  
ENDBRANCH  31  33
ENDBRANCH  22  31
ENDBRANCH  19  22
ENDBRANCH   8  18
TORSDOF 8
ENDMDL
MODEL      192
REMARK 921   NORMALIZED FREE ENERGY PREDICTED BY IDOCK:   -4.30 KCAL/MOL
REMARK 922        TOTAL FREE ENERGY PREDICTED BY IDOCK:   -7.47 KCAL/MOL
REMARK 923 INTER-LIGAND FREE ENERGY PREDICTED BY IDOCK:   -6.76 KCAL/MOL
REMARK 924 INTRA-LIGAND FREE ENERGY PREDICTED BY IDOCK:   -0.70 KCAL/MOL
REMARK 927      BINDING AFFINITY PREDICTED BY RF-SCORE:    0.00 PKD
ROOT
HETATM    1  C   UNL     1      -8.571  14.575  68.958  1.00  0.00    -0.041 C  
HETATM    2  S   UNL     1      -9.911  14.451  67.805  1.00  0.00    -0.228 SA 
HETATM    3  C   UNL     1      -9.751  12.763  67.149  1.00  0.00    -0.216 C  
HETATM    4  C   UNL     1      -8.655  11.886  67.685  1.00  0.00    -0.156 C  
HETATM    5  C   UNL     1      -6.570  14.348  69.412  1.00  0.00    -0.137 C  
HETATM    6  CA  UNL     1      -7.682  12.275  68.550  1.00  0.00    -0.118 C  
HETATM    7  N   UNL     1      -7.552  13.564  68.924  1.00  0.00    -0.057 N  
HETATM    8  CA  UNL     1      -7.374  15.616  68.986  1.00  0.00    -0.169 C  
HETATM    9  C   UNL     1      -6.724  11.254  69.078  1.00  0.00    -0.089 C  
HETATM   10  O   UNL     1      -5.421  14.124  69.714  1.00  0.00    -0.092 OA 
HETATM   11  O   UNL     1      -5.461  11.625  69.304  1.00  0.00    -0.047 OA 
HETATM   12  OXT UNL     1      -7.091  10.123  69.370  1.00  0.00    -0.065 OA 
ENDROOT
BRANCH   4  13
HETATM   13  C   UNL     1      -8.656  10.511  67.014  1.00  0.00    -0.127 C  
BRANCH  13  14
HETATM   14  O   UNL     1      -9.815   9.741  67.371  1.00  0.00    -0.160 OA 
BRANCH  14  15
HETATM   15  C   UNL     1      -9.980   8.535  66.754  1.00  0.00    -0.281 C  
HETATM   16  C   UNL     1      -8.868   8.262  65.778  1.00  0.00    -0.194 C  
HETATM   17  O   UNL     1     -10.875   7.736  66.995  1.00  0.00    -0.316 OA 
ENDBRANCH  14  15
ENDBRANCH  13  14
ENDBRANCH   4  13
BRANCH   8  18
HETATM   18  N   UNL     1      -6.656  16.393  67.887  1.00  0.00    -0.125 N  
HETATM   19  C   UNL     1      -7.051  16.951  66.673  1.00  0.00    -0.254 C  
HETATM   20  H   UNL     1      -5.666  16.537  68.085  1.00  0.00     0.000 HD 
HETATM   21  O   UNL     1      -6.156  17.324  65.878  1.00  0.00    -0.166 OA 
BRANCH  19  22
HETATM   22  C   UNL     1      -8.495  17.255  66.276  1.00  0.00    -0.243 C  
BRANCH  22  23
HETATM   23  C   UNL     1      -9.250  18.377  66.870  1.00  0.00    -0.287 A  
HETATM   24  N   UNL     1      -9.707  18.397  68.193  1.00  0.00    -0.315 NA 
HETATM   25  H2  UNL     1     -10.588  20.938  70.019  1.00  0.00     0.000 HD 
HETATM   26  N   UNL     1     -10.410  19.959  69.795  1.00  0.00    -0.478 NA 
HETATM   27  C   UNL     1      -9.206  19.628  66.272  1.00  0.00    -0.375 A  
HETATM   28  S   UNL     1      -9.750  20.827  67.358  1.00  0.00    -0.159 SA 
HETATM   29  H1  UNL     1     -10.553  19.243  70.508  1.00  0.00     0.000 HD 
HETATM   30  C   UNL     1      -9.990  19.621  68.558  1.00  0.00    -0.443 A  
ENDBRANCH  22  23
BRANCH  22  31
HETATM   31  N   UNL     1      -9.315  16.477  65.637  1.00  0.00    -0.468 NA 
HETATM   32  H   UNL     1      -9.024  15.513  65.482  1.00  0.00     0.000 HD 
BRANCH  31  33
HETATM   33  O   UNL     1     -10.563  16.859  65.147  1.00  0.00    -0.679 OA 
HETATM   34  C   UNL     1     -11.411  15.897  64.561  1.00  0.00    -0.283 C  
ENDBRANCH  31  33
ENDBRANCH  22  31
ENDBRANCH  19  22
ENDBRANCH   8  18
TORSDOF 8
ENDMDL
MODEL      193
REMARK 921   NORMALIZED FREE ENERGY PREDICTED BY IDOCK:   -4.29 KCAL/MOL
REMARK 922        TOTAL FREE ENERGY PREDICTED BY IDOCK:   -7.45 KCAL/MOL
REMARK 923 INTER-LIGAND FREE ENERGY PREDICTED BY IDOCK:   -5.42 KCAL/MOL
REMARK 924 INTRA-LIGAND FREE ENERGY PREDICTED BY IDOCK:   -2.03 KCAL/MOL
REMARK 927      BINDING AFFINITY PREDICTED BY RF-SCORE:    0.00 PKD
ROOT
HETATM    1  C   UNL     1      -8.666   6.976  67.695  1.00  0.00    -0.121 C  
HETATM    2  S   UNL     1     -10.413   6.695  67.580  1.00  0.00    -0.265 SA 
HETATM    3  C   UNL     1     -11.132   8.289  68.078  1.00  0.00     0.388 C  
HETATM    4  C   UNL     1     -10.203   9.422  68.414  1.00  0.00    -0.224 C  
HETATM    5  C   UNL     1      -7.024   7.643  68.752  1.00  0.00    -0.071 C  
HETATM    6  CA  UNL     1      -8.849   9.338  68.492  1.00  0.00    -0.129 C  
HETATM    7  N   UNL     1      -8.214   8.154  68.379  1.00  0.00    -0.128 N  
HETATM    8  CA  UNL     1      -7.587   6.199  68.560  1.00  0.00    -0.092 C  
HETATM    9  C   UNL     1      -8.053  10.583  68.731  1.00  0.00    -0.131 C  
HETATM   10  O   UNL     1      -6.072   8.121  69.325  1.00  0.00    -0.036 OA 
HETATM   11  O   UNL     1      -6.942  10.495  69.467  1.00  0.00    -0.083 OA 
HETATM   12  OXT UNL     1      -8.360  11.648  68.210  1.00  0.00    -0.145 OA 
ENDROOT
BRANCH   4  13
HETATM   13  C   UNL     1     -10.973  10.678  68.826  1.00  0.00    -0.246 C  
BRANCH  13  14
HETATM   14  O   UNL     1     -11.748  11.213  67.740  1.00  0.00    -0.560 OA 
BRANCH  14  15
HETATM   15  C   UNL     1     -11.909  12.567  67.693  1.00  0.00    -0.317 C  
HETATM   16  C   UNL     1     -11.825  13.177  69.065  1.00  0.00    -0.358 C  
HETATM   17  O   UNL     1     -12.042  13.226  66.671  1.00  0.00    -0.392 OA 
ENDBRANCH  14  15
ENDBRANCH  13  14
ENDBRANCH   4  13
BRANCH   8  18
HETATM   18  N   UNL     1      -7.672   5.449  69.885  1.00  0.00    -0.079 N  
HETATM   19  C   UNL     1      -7.905   5.830  71.205  1.00  0.00    -0.111 C  
HETATM   20  H   UNL     1      -7.526   4.445  69.782  1.00  0.00     0.000 HD 
HETATM   21  O   UNL     1      -7.673   4.991  72.109  1.00  0.00    -0.093 OA 
BRANCH  19  22
HETATM   22  C   UNL     1      -8.536   7.152  71.639  1.00  0.00    -0.114 C  
BRANCH  22  23
HETATM   23  C   UNL     1      -9.997   7.312  71.781  1.00  0.00    -0.171 A  
HETATM   24  N   UNL     1     -10.634   8.546  71.957  1.00  0.00    -0.311 NA 
HETATM   25  H2  UNL     1     -13.745   9.338  71.447  1.00  0.00     0.000 HD 
HETATM   26  N   UNL     1     -12.769   9.483  71.707  1.00  0.00    -0.373 NA 
HETATM   27  C   UNL     1     -10.843   6.298  71.359  1.00  0.00    -0.261 A  
HETATM   28  S   UNL     1     -12.439   6.883  71.195  1.00  0.00    -0.278 SA 
HETATM   29  H1  UNL     1     -12.454  10.410  71.991  1.00  0.00     0.000 HD 
HETATM   30  C   UNL     1     -11.907   8.445  71.673  1.00  0.00    -0.304 A  
ENDBRANCH  22  23
BRANCH  22  31
HETATM   31  N   UNL     1      -7.972   8.321  71.663  1.00  0.00    -0.117 NA 
HETATM   32  H   UNL     1      -8.369   9.047  71.068  1.00  0.00     0.000 HD 
BRANCH  31  33
HETATM   33  O   UNL     1      -6.864   8.660  72.439  1.00  0.00    -0.174 OA 
HETATM   34  C   UNL     1      -6.810   8.275  73.793  1.00  0.00    -0.127 C  
ENDBRANCH  31  33
ENDBRANCH  22  31
ENDBRANCH  19  22
ENDBRANCH   8  18
TORSDOF 8
ENDMDL
MODEL      194
REMARK 921   NORMALIZED FREE ENERGY PREDICTED BY IDOCK:   -4.27 KCAL/MOL
REMARK 922        TOTAL FREE ENERGY PREDICTED BY IDOCK:   -7.41 KCAL/MOL
REMARK 923 INTER-LIGAND FREE ENERGY PREDICTED BY IDOCK:   -6.14 KCAL/MOL
REMARK 924 INTRA-LIGAND FREE ENERGY PREDICTED BY IDOCK:   -1.28 KCAL/MOL
REMARK 927      BINDING AFFINITY PREDICTED BY RF-SCORE:    0.00 PKD
ROOT
HETATM    1  C   UNL     1      -8.310   9.845  64.177  1.00  0.00    -0.168 C  
HETATM    2  S   UNL     1      -9.349  10.269  62.805  1.00  0.00    -0.301 SA 
HETATM    3  C   UNL     1     -10.471  11.523  63.493  1.00  0.00    -0.428 C  
HETATM    4  C   UNL     1     -10.290  11.938  64.926  1.00  0.00    -0.328 C  
HETATM    5  C   UNL     1      -8.090   9.284  66.151  1.00  0.00    -0.110 C  
HETATM    6  CA  UNL     1      -9.424  11.375  65.810  1.00  0.00    -0.233 C  
HETATM    7  N   UNL     1      -8.708  10.280  65.486  1.00  0.00    -0.155 N  
HETATM    8  CA  UNL     1      -8.074   8.426  64.847  1.00  0.00    -0.149 C  
HETATM    9  C   UNL     1      -9.282  11.974  67.174  1.00  0.00    -0.190 C  
HETATM   10  O   UNL     1      -7.949   9.052  67.330  1.00  0.00    -0.099 OA 
HETATM   11  O   UNL     1      -9.053  11.156  68.205  1.00  0.00    -0.149 OA 
HETATM   12  OXT UNL     1      -9.300  13.186  67.347  1.00  0.00    -0.198 OA 
ENDROOT
BRANCH   4  13
HETATM   13  C   UNL     1     -11.325  12.985  65.344  1.00  0.00    -0.297 C  
BRANCH  13  14
HETATM   14  O   UNL     1     -11.554  13.955  64.309  1.00  0.00    -0.390 OA 
BRANCH  14  15
HETATM   15  C   UNL     1     -11.660  15.261  64.686  1.00  0.00    -0.333 C  
HETATM   16  C   UNL     1     -11.517  15.414  66.176  1.00  0.00     0.001 C  
HETATM   17  O   UNL     1     -11.791  16.208  63.922  1.00  0.00    -0.921 OA 
ENDBRANCH  14  15
ENDBRANCH  13  14
ENDBRANCH   4  13
BRANCH   8  18
HETATM   18  N   UNL     1      -8.955   7.187  64.978  1.00  0.00    -0.232 N  
HETATM   19  C   UNL     1      -8.859   5.999  65.699  1.00  0.00    -0.109 C  
HETATM   20  H   UNL     1      -9.802   7.241  64.413  1.00  0.00     0.000 HD 
HETATM   21  O   UNL     1      -9.645   5.067  65.403  1.00  0.00    -0.138 OA 
BRANCH  19  22
HETATM   22  C   UNL     1      -7.951   5.776  66.908  1.00  0.00    -0.102 C  
BRANCH  22  23
HETATM   23  C   UNL     1      -8.492   5.447  68.242  1.00  0.00    -0.097 A  
HETATM   24  N   UNL     1      -9.410   6.247  68.932  1.00  0.00    -0.129 NA 
HETATM   25  H2  UNL     1     -11.396   5.447  71.377  1.00  0.00     0.000 HD 
HETATM   26  N   UNL     1     -10.963   6.050  70.678  1.00  0.00    -0.302 NA 
HETATM   27  C   UNL     1      -8.420   4.143  68.710  1.00  0.00    -0.083 A  
HETATM   28  S   UNL     1      -9.491   3.922  70.021  1.00  0.00    -0.197 SA 
HETATM   29  H1  UNL     1     -11.263   7.021  70.592  1.00  0.00     0.000 HD 
HETATM   30  C   UNL     1      -9.996   5.556  69.875  1.00  0.00    -0.215 A  
ENDBRANCH  22  23
BRANCH  22  31
HETATM   31  N   UNL     1      -6.699   6.099  67.020  1.00  0.00    -0.059 NA 
HETATM   32  H   UNL     1      -6.480   7.082  67.181  1.00  0.00     0.000 HD 
BRANCH  31  33
HETATM   33  O   UNL     1      -5.630   5.207  66.937  1.00  0.00    -0.012 OA 
HETATM   34  C   UNL     1      -5.743   4.047  66.145  1.00  0.00    -0.018 C  
ENDBRANCH  31  33
ENDBRANCH  22  31
ENDBRANCH  19  22
ENDBRANCH   8  18
TORSDOF 8
ENDMDL
MODEL      195
REMARK 921   NORMALIZED FREE ENERGY PREDICTED BY IDOCK:   -4.26 KCAL/MOL
REMARK 922        TOTAL FREE ENERGY PREDICTED BY IDOCK:   -7.40 KCAL/MOL
REMARK 923 INTER-LIGAND FREE ENERGY PREDICTED BY IDOCK:   -7.13 KCAL/MOL
REMARK 924 INTRA-LIGAND FREE ENERGY PREDICTED BY IDOCK:   -0.27 KCAL/MOL
REMARK 927      BINDING AFFINITY PREDICTED BY RF-SCORE:    0.00 PKD
ROOT
HETATM    1  C   UNL     1      -9.247  14.670  65.876  1.00  0.00    -0.000 C  
HETATM    2  S   UNL     1      -8.488  13.655  67.116  1.00  0.00    -0.132 SA 
HETATM    3  C   UNL     1      -9.108  11.988  66.737  1.00  0.00    -0.197 C  
HETATM    4  C   UNL     1     -10.013  11.812  65.550  1.00  0.00    -0.273 C  
HETATM    5  C   UNL     1     -10.925  15.285  64.845  1.00  0.00    -0.430 C  
HETATM    6  CA  UNL     1     -10.515  12.815  64.782  1.00  0.00    -0.335 C  
HETATM    7  N   UNL     1     -10.320  14.109  65.106  1.00  0.00    -0.388 N  
HETATM    8  CA  UNL     1     -10.193  15.930  66.063  1.00  0.00    -0.334 C  
HETATM    9  C   UNL     1     -11.316  12.471  63.566  1.00  0.00    -0.486 C  
HETATM   10  O   UNL     1     -11.885  15.578  64.170  1.00  0.00    -0.463 OA 
HETATM   11  O   UNL     1     -12.332  13.269  63.228  1.00  0.00    -0.721 OA 
HETATM   12  OXT UNL     1     -11.015  11.527  62.846  1.00  0.00    -0.070 OA 
ENDROOT
BRANCH   4  13
HETATM   13  C   UNL     1     -10.452  10.355  65.388  1.00  0.00    -0.117 C  
BRANCH  13  14
HETATM   14  O   UNL     1      -9.432   9.554  64.770  1.00  0.00    -0.242 OA 
BRANCH  14  15
HETATM   15  C   UNL     1      -8.862   8.573  65.528  1.00  0.00    -0.154 C  
HETATM   16  C   UNL     1      -9.884   7.879  66.386  1.00  0.00    -0.217 C  
HETATM   17  O   UNL     1      -7.684   8.242  65.483  1.00  0.00    -0.092 OA 
ENDBRANCH  14  15
ENDBRANCH  13  14
ENDBRANCH   4  13
BRANCH   8  18
HETATM   18  N   UNL     1     -11.174  16.330  67.160  1.00  0.00    -0.001 N  
HETATM   19  C   UNL     1     -11.478  15.828  68.423  1.00  0.00    -0.365 C  
HETATM   20  H   UNL     1     -11.731  17.148  66.914  1.00  0.00     0.000 HD 
HETATM   21  O   UNL     1     -12.516  16.248  68.989  1.00  0.00     0.202 OA 
BRANCH  19  22
HETATM   22  C   UNL     1     -10.584  14.891  69.234  1.00  0.00    -0.243 C  
BRANCH  22  23
HETATM   23  C   UNL     1     -11.114  13.678  69.889  1.00  0.00     0.145 A  
HETATM   24  N   UNL     1     -11.883  13.694  71.059  1.00  0.00    -0.055 NA 
HETATM   25  H2  UNL     1     -13.866  11.407  72.242  1.00  0.00     0.000 HD 
HETATM   26  N   UNL     1     -13.379  12.303  72.209  1.00  0.00    -0.538 NA 
HETATM   27  C   UNL     1     -11.209  12.495  69.172  1.00  0.00    -0.239 A  
HETATM   28  S   UNL     1     -12.248  11.398  69.966  1.00  0.00    -0.279 SA 
HETATM   29  H1  UNL     1     -13.543  12.994  72.941  1.00  0.00     0.000 HD 
HETATM   30  C   UNL     1     -12.524  12.563  71.198  1.00  0.00    -0.223 A  
ENDBRANCH  22  23
BRANCH  22  31
HETATM   31  N   UNL     1      -9.392  15.137  69.686  1.00  0.00    -0.443 NA 
HETATM   32  H   UNL     1      -8.997  14.476  70.353  1.00  0.00     0.000 HD 
BRANCH  31  33
HETATM   33  O   UNL     1      -8.612  16.236  69.330  1.00  0.00    -0.237 OA 
HETATM   34  C   UNL     1      -7.225  16.078  69.134  1.00  0.00    -0.208 C  
ENDBRANCH  31  33
ENDBRANCH  22  31
ENDBRANCH  19  22
ENDBRANCH   8  18
TORSDOF 8
ENDMDL
MODEL      196
REMARK 921   NORMALIZED FREE ENERGY PREDICTED BY IDOCK:   -4.23 KCAL/MOL
REMARK 922        TOTAL FREE ENERGY PREDICTED BY IDOCK:   -7.36 KCAL/MOL
REMARK 923 INTER-LIGAND FREE ENERGY PREDICTED BY IDOCK:   -6.07 KCAL/MOL
REMARK 924 INTRA-LIGAND FREE ENERGY PREDICTED BY IDOCK:   -1.29 KCAL/MOL
REMARK 927      BINDING AFFINITY PREDICTED BY RF-SCORE:    0.00 PKD
ROOT
HETATM    1  C   UNL     1      -8.917   8.799  67.009  1.00  0.00    -0.131 C  
HETATM    2  S   UNL     1      -7.306   9.284  67.570  1.00  0.00    -0.087 SA 
HETATM    3  C   UNL     1      -6.358   7.733  67.524  1.00  0.00    -0.055 C  
HETATM    4  C   UNL     1      -7.041   6.488  67.035  1.00  0.00    -0.073 C  
HETATM    5  C   UNL     1     -10.546   7.536  67.113  1.00  0.00    -0.345 C  
HETATM    6  CA  UNL     1      -8.359   6.380  66.721  1.00  0.00    -0.111 C  
HETATM    7  N   UNL     1      -9.216   7.397  66.941  1.00  0.00    -0.145 N  
HETATM    8  CA  UNL     1     -10.314   8.944  67.747  1.00  0.00    -0.242 C  
HETATM    9  C   UNL     1      -8.868   5.098  66.141  1.00  0.00    -0.132 C  
HETATM   10  O   UNL     1     -11.459   6.743  67.099  1.00  0.00    -0.210 OA 
HETATM   11  O   UNL     1     -10.103   4.702  66.461  1.00  0.00    -0.219 OA 
HETATM   12  OXT UNL     1      -8.210   4.454  65.333  1.00  0.00    -0.107 OA 
ENDROOT
BRANCH   4  13
HETATM   13  C   UNL     1      -6.105   5.278  67.077  1.00  0.00    -0.030 C  
BRANCH  13  14
HETATM   14  O   UNL     1      -5.655   4.995  68.412  1.00  0.00    -0.014 OA 
BRANCH  14  15
HETATM   15  C   UNL     1      -6.528   4.359  69.246  1.00  0.00    -0.036 C  
HETATM   16  C   UNL     1      -6.850   2.976  68.750  1.00  0.00    -0.044 C  
HETATM   17  O   UNL     1      -6.956   4.814  70.298  1.00  0.00    -0.045 OA 
ENDBRANCH  14  15
ENDBRANCH  13  14
ENDBRANCH   4  13
BRANCH   8  18
HETATM   18  N   UNL     1     -10.705   8.967  69.221  1.00  0.00    -0.331 N  
HETATM   19  C   UNL     1     -11.043   9.976  70.121  1.00  0.00    -0.310 C  
HETATM   20  H   UNL     1     -10.724   8.038  69.641  1.00  0.00     0.000 HD 
HETATM   21  O   UNL     1     -11.083   9.686  71.341  1.00  0.00    -0.365 OA 
BRANCH  19  22
HETATM   22  C   UNL     1     -11.486  11.386  69.734  1.00  0.00    -0.300 C  
BRANCH  22  23
HETATM   23  C   UNL     1     -10.908  12.097  68.576  1.00  0.00    -0.236 A  
HETATM   24  N   UNL     1      -9.533  12.218  68.340  1.00  0.00    -0.203 NA 
HETATM   25  H2  UNL     1      -7.982  12.915  65.571  1.00  0.00     0.000 HD 
HETATM   26  N   UNL     1      -8.081  12.686  66.559  1.00  0.00    -0.377 NA 
HETATM   27  C   UNL     1     -11.693  12.345  67.461  1.00  0.00    -0.357 A  
HETATM   28  S   UNL     1     -10.714  12.743  66.120  1.00  0.00    -0.280 SA 
HETATM   29  H1  UNL     1      -7.249  12.567  67.137  1.00  0.00     0.000 HD 
HETATM   30  C   UNL     1      -9.313  12.543  67.093  1.00  0.00    -0.201 A  
ENDBRANCH  22  23
BRANCH  22  31
HETATM   31  N   UNL     1     -12.159  12.225  70.461  1.00  0.00    -0.474 NA 
HETATM   32  H   UNL     1     -13.021  11.889  70.891  1.00  0.00     0.000 HD 
BRANCH  31  33
HETATM   33  O   UNL     1     -11.795  13.550  70.700  1.00  0.00    -0.264 OA 
HETATM   34  C   UNL     1     -12.632  14.380  71.472  1.00  0.00    -0.350 C  
ENDBRANCH  31  33
ENDBRANCH  22  31
ENDBRANCH  19  22
ENDBRANCH   8  18
TORSDOF 8
ENDMDL
MODEL      197
REMARK 921   NORMALIZED FREE ENERGY PREDICTED BY IDOCK:   -4.22 KCAL/MOL
REMARK 922        TOTAL FREE ENERGY PREDICTED BY IDOCK:   -7.35 KCAL/MOL
REMARK 923 INTER-LIGAND FREE ENERGY PREDICTED BY IDOCK:   -6.74 KCAL/MOL
REMARK 924 INTRA-LIGAND FREE ENERGY PREDICTED BY IDOCK:   -0.61 KCAL/MOL
REMARK 927      BINDING AFFINITY PREDICTED BY RF-SCORE:    0.00 PKD
ROOT
HETATM    1  C   UNL     1     -10.075  17.668  69.382  1.00  0.00    -0.033 C  
HETATM    2  S   UNL     1     -10.545  15.964  69.254  1.00  0.00    -0.276 SA 
HETATM    3  C   UNL     1      -8.970  15.113  68.935  1.00  0.00    -0.206 C  
HETATM    4  C   UNL     1      -7.710  15.930  68.888  1.00  0.00    -0.194 C  
HETATM    5  C   UNL     1      -9.079  19.314  68.635  1.00  0.00    -0.380 C  
HETATM    6  CA  UNL     1      -7.643  17.286  68.951  1.00  0.00    -0.235 C  
HETATM    7  N   UNL     1      -8.759  18.042  68.948  1.00  0.00    -0.180 N  
HETATM    8  CA  UNL     1     -10.583  18.908  68.533  1.00  0.00     0.029 C  
HETATM    9  C   UNL     1      -6.302  17.949  69.002  1.00  0.00    -0.232 C  
HETATM   10  O   UNL     1      -8.418  20.253  68.255  1.00  0.00    -0.112 OA 
HETATM   11  O   UNL     1      -6.153  19.128  68.391  1.00  0.00    -0.214 OA 
HETATM   12  OXT UNL     1      -5.376  17.472  69.646  1.00  0.00    -0.177 OA 
ENDROOT
BRANCH   4  13
HETATM   13  C   UNL     1      -6.485  15.060  68.595  1.00  0.00    -0.087 C  
BRANCH  13  14
HETATM   14  O   UNL     1      -6.840  13.848  67.910  1.00  0.00    -0.124 OA 
BRANCH  14  15
HETATM   15  C   UNL     1      -6.637  12.673  68.572  1.00  0.00    -0.081 C  
HETATM   16  C   UNL     1      -6.860  11.490  67.668  1.00  0.00    -0.083 C  
HETATM   17  O   UNL     1      -6.261  12.571  69.732  1.00  0.00    -0.127 OA 
ENDBRANCH  14  15
ENDBRANCH  13  14
ENDBRANCH   4  13
BRANCH   8  18
HETATM   18  N   UNL     1     -11.104  19.037  67.105  1.00  0.00    -0.237 N  
HETATM   19  C   UNL     1     -10.734  18.483  65.881  1.00  0.00    -0.198 C  
HETATM   20  H   UNL     1     -11.900  19.670  67.029  1.00  0.00     0.000 HD 
HETATM   21  O   UNL     1     -11.221  18.982  64.838  1.00  0.00    -0.213 OA 
BRANCH  19  22
HETATM   22  C   UNL     1      -9.871  17.234  65.708  1.00  0.00    -0.027 C  
BRANCH  22  23
HETATM   23  C   UNL     1     -10.462  15.897  65.505  1.00  0.00    -0.404 A  
HETATM   24  N   UNL     1     -11.517  15.635  64.622  1.00  0.00    -0.368 NA 
HETATM   25  H2  UNL     1     -12.446  12.805  63.319  1.00  0.00     0.000 HD 
HETATM   26  N   UNL     1     -12.469  13.809  63.500  1.00  0.00    -1.020 NA 
HETATM   27  C   UNL     1      -9.752  14.767  65.882  1.00  0.00    -0.323 A  
HETATM   28  S   UNL     1     -10.411  13.375  65.144  1.00  0.00    -0.356 SA 
HETATM   29  H1  UNL     1     -13.164  14.391  63.032  1.00  0.00     0.000 HD 
HETATM   30  C   UNL     1     -11.581  14.356  64.357  1.00  0.00    -0.334 A  
ENDBRANCH  22  23
BRANCH  22  31
HETATM   31  N   UNL     1      -8.608  17.108  65.982  1.00  0.00    -0.520 NA 
HETATM   32  H   UNL     1      -8.354  16.498  66.759  1.00  0.00     0.000 HD 
BRANCH  31  33
HETATM   33  O   UNL     1      -7.572  17.742  65.297  1.00  0.00    -0.015 OA 
HETATM   34  C   UNL     1      -7.368  19.127  65.458  1.00  0.00    -0.019 C  
ENDBRANCH  31  33
ENDBRANCH  22  31
ENDBRANCH  19  22
ENDBRANCH   8  18
TORSDOF 8
ENDMDL
MODEL      198
REMARK 921   NORMALIZED FREE ENERGY PREDICTED BY IDOCK:   -4.18 KCAL/MOL
REMARK 922        TOTAL FREE ENERGY PREDICTED BY IDOCK:   -7.28 KCAL/MOL
REMARK 923 INTER-LIGAND FREE ENERGY PREDICTED BY IDOCK:   -5.23 KCAL/MOL
REMARK 924 INTRA-LIGAND FREE ENERGY PREDICTED BY IDOCK:   -2.05 KCAL/MOL
REMARK 927      BINDING AFFINITY PREDICTED BY RF-SCORE:    0.00 PKD
ROOT
HETATM    1  C   UNL     1     -10.791   5.364  71.739  1.00  0.00    -0.174 C  
HETATM    2  S   UNL     1     -10.717   6.826  72.739  1.00  0.00    -0.262 SA 
HETATM    3  C   UNL     1     -10.492   8.160  71.524  1.00  0.00    -0.221 C  
HETATM    4  C   UNL     1     -10.457   7.803  70.065  1.00  0.00    -0.230 C  
HETATM    5  C   UNL     1     -10.012   4.175  70.243  1.00  0.00    -0.083 C  
HETATM    6  CA  UNL     1     -10.466   6.541  69.558  1.00  0.00    -0.222 C  
HETATM    7  N   UNL     1     -10.390   5.463  70.365  1.00  0.00    -0.269 N  
HETATM    8  CA  UNL     1      -9.872   4.072  71.794  1.00  0.00    -0.179 C  
HETATM    9  C   UNL     1     -10.538   6.351  68.076  1.00  0.00    -0.254 C  
HETATM   10  O   UNL     1      -9.618   3.524  69.302  1.00  0.00    -0.180 OA 
HETATM   11  O   UNL     1      -9.884   5.319  67.535  1.00  0.00    -0.138 OA 
HETATM   12  OXT UNL     1     -11.235   7.070  67.371  1.00  0.00    -0.241 OA 
ENDROOT
BRANCH   4  13
HETATM   13  C   UNL     1     -10.246   9.039  69.188  1.00  0.00    -0.205 C  
BRANCH  13  14
HETATM   14  O   UNL     1     -10.593  10.251  69.876  1.00  0.00    -0.258 OA 
BRANCH  14  15
HETATM   15  C   UNL     1     -11.715  10.907  69.461  1.00  0.00    -0.328 C  
HETATM   16  C   UNL     1     -12.389  11.616  70.604  1.00  0.00    -0.437 C  
HETATM   17  O   UNL     1     -12.105  10.976  68.303  1.00  0.00    -0.604 OA 
ENDBRANCH  14  15
ENDBRANCH  13  14
ENDBRANCH   4  13
BRANCH   8  18
HETATM   18  N   UNL     1      -8.422   3.854  72.213  1.00  0.00    -0.092 N  
HETATM   19  C   UNL     1      -7.191   4.259  71.703  1.00  0.00    -0.054 C  
HETATM   20  H   UNL     1      -8.334   3.284  73.055  1.00  0.00     0.000 HD 
HETATM   21  O   UNL     1      -6.157   3.707  72.152  1.00  0.00    -0.012 OA 
BRANCH  19  22
HETATM   22  C   UNL     1      -6.984   5.411  70.721  1.00  0.00    -0.056 C  
BRANCH  22  23
HETATM   23  C   UNL     1      -7.022   6.823  71.153  1.00  0.00    -0.070 A  
HETATM   24  N   UNL     1      -7.034   7.231  72.492  1.00  0.00    -0.067 NA 
HETATM   25  H2  UNL     1      -6.262  10.122  73.762  1.00  0.00     0.000 HD 
HETATM   26  N   UNL     1      -6.563   9.148  73.759  1.00  0.00    -0.318 NA 
HETATM   27  C   UNL     1      -6.656   7.823  70.265  1.00  0.00    -0.038 A  
HETATM   28  S   UNL     1      -6.339   9.277  71.102  1.00  0.00    -0.070 SA 
HETATM   29  H1  UNL     1      -6.769   8.680  74.641  1.00  0.00     0.000 HD 
HETATM   30  C   UNL     1      -6.686   8.488  72.587  1.00  0.00    -0.058 A  
ENDBRANCH  22  23
BRANCH  22  31
HETATM   31  N   UNL     1      -7.033   5.357  69.425  1.00  0.00    -0.057 NA 
HETATM   32  H   UNL     1      -7.719   5.948  68.955  1.00  0.00     0.000 HD 
BRANCH  31  33
HETATM   33  O   UNL     1      -6.221   4.554  68.625  1.00  0.00    -0.030 OA 
HETATM   34  C   UNL     1      -5.884   4.973  67.322  1.00  0.00    -0.022 C  
ENDBRANCH  31  33
ENDBRANCH  22  31
ENDBRANCH  19  22
ENDBRANCH   8  18
TORSDOF 8
ENDMDL
MODEL      199
REMARK 921   NORMALIZED FREE ENERGY PREDICTED BY IDOCK:   -4.17 KCAL/MOL
REMARK 922        TOTAL FREE ENERGY PREDICTED BY IDOCK:   -7.28 KCAL/MOL
REMARK 923 INTER-LIGAND FREE ENERGY PREDICTED BY IDOCK:   -6.27 KCAL/MOL
REMARK 924 INTRA-LIGAND FREE ENERGY PREDICTED BY IDOCK:   -1.01 KCAL/MOL
REMARK 927      BINDING AFFINITY PREDICTED BY RF-SCORE:    0.00 PKD
ROOT
HETATM    1  C   UNL     1     -12.127   9.910  70.213  1.00  0.00    -0.096 C  
HETATM    2  S   UNL     1     -12.611  10.996  71.528  1.00  0.00    -0.310 SA 
HETATM    3  C   UNL     1     -12.512  12.647  70.772  1.00  0.00    -0.270 C  
HETATM    4  C   UNL     1     -12.121  12.751  69.325  1.00  0.00    -0.224 C  
HETATM    5  C   UNL     1     -10.811   9.390  68.711  1.00  0.00    -0.114 C  
HETATM    6  CA  UNL     1     -11.716  11.719  68.539  1.00  0.00    -0.330 C  
HETATM    7  N   UNL     1     -11.518  10.487  69.048  1.00  0.00    -0.254 N  
HETATM    8  CA  UNL     1     -10.937   8.862  70.174  1.00  0.00    -0.227 C  
HETATM    9  C   UNL     1     -11.464  11.966  67.084  1.00  0.00    -0.319 C  
HETATM   10  O   UNL     1     -10.099   9.135  67.767  1.00  0.00    -0.178 OA 
HETATM   11  O   UNL     1     -10.482  11.286  66.486  1.00  0.00    -0.235 OA 
HETATM   12  OXT UNL     1     -12.178  12.713  66.428  1.00  0.00    -0.550 OA 
ENDROOT
BRANCH   4  13
HETATM   13  C   UNL     1     -12.072  14.208  68.858  1.00  0.00    -0.304 C  
BRANCH  13  14
HETATM   14  O   UNL     1     -12.532  15.112  69.875  1.00  0.00    -0.300 OA 
BRANCH  14  15
HETATM   15  C   UNL     1     -11.606  15.932  70.450  1.00  0.00    -0.371 C  
HETATM   16  C   UNL     1     -11.541  15.726  71.939  1.00  0.00    -0.545 C  
HETATM   17  O   UNL     1     -10.869  16.699  69.844  1.00  0.00    -0.333 OA 
ENDBRANCH  14  15
ENDBRANCH  13  14
ENDBRANCH   4  13
BRANCH   8  18
HETATM   18  N   UNL     1      -9.582   8.813  70.872  1.00  0.00    -0.201 N  
HETATM   19  C   UNL     1      -8.646   7.808  71.110  1.00  0.00    -0.131 C  
HETATM   20  H   UNL     1      -9.297   9.716  71.249  1.00  0.00     0.000 HD 
HETATM   21  O   UNL     1      -7.728   8.042  71.932  1.00  0.00    -0.082 OA 
BRANCH  19  22
HETATM   22  C   UNL     1      -8.577   6.478  70.360  1.00  0.00    -0.146 C  
BRANCH  22  23
HETATM   23  C   UNL     1      -8.045   6.383  68.985  1.00  0.00    -0.111 A  
HETATM   24  N   UNL     1      -6.688   6.504  68.662  1.00  0.00    -0.065 NA 
HETATM   25  H2  UNL     1      -5.121   5.518  65.991  1.00  0.00     0.000 HD 
HETATM   26  N   UNL     1      -5.233   5.943  66.911  1.00  0.00    -0.005 NA 
HETATM   27  C   UNL     1      -8.807   5.782  67.994  1.00  0.00    -0.109 A  
HETATM   28  S   UNL     1      -7.830   5.380  66.653  1.00  0.00    -0.101 SA 
HETATM   29  H1  UNL     1      -4.418   6.315  67.398  1.00  0.00     0.000 HD 
HETATM   30  C   UNL     1      -6.458   6.007  67.474  1.00  0.00    -0.047 A  
ENDBRANCH  22  23
BRANCH  22  31
HETATM   31  N   UNL     1      -9.187   5.373  70.662  1.00  0.00    -0.145 NA 
HETATM   32  H   UNL     1     -10.130   5.242  70.297  1.00  0.00     0.000 HD 
BRANCH  31  33
HETATM   33  O   UNL     1      -8.654   4.352  71.446  1.00  0.00    -0.103 OA 
HETATM   34  C   UNL     1      -8.488   3.062  70.902  1.00  0.00    -0.065 C  
ENDBRANCH  31  33
ENDBRANCH  22  31
ENDBRANCH  19  22
ENDBRANCH   8  18
TORSDOF 8
ENDMDL
MODEL      200
REMARK 921   NORMALIZED FREE ENERGY PREDICTED BY IDOCK:   -4.17 KCAL/MOL
REMARK 922        TOTAL FREE ENERGY PREDICTED BY IDOCK:   -7.28 KCAL/MOL
REMARK 923 INTER-LIGAND FREE ENERGY PREDICTED BY IDOCK:   -6.08 KCAL/MOL
REMARK 924 INTRA-LIGAND FREE ENERGY PREDICTED BY IDOCK:   -1.20 KCAL/MOL
REMARK 927      BINDING AFFINITY PREDICTED BY RF-SCORE:    0.00 PKD
ROOT
HETATM    1  C   UNL     1      -9.314   9.474  67.080  1.00  0.00    -0.148 C  
HETATM    2  S   UNL     1      -9.331  10.298  65.511  1.00  0.00    -0.220 SA 
HETATM    3  C   UNL     1     -10.527  11.646  65.753  1.00  0.00    -0.263 C  
HETATM    4  C   UNL     1     -11.167  11.803  67.103  1.00  0.00    -0.375 C  
HETATM    5  C   UNL     1     -10.320   8.600  68.656  1.00  0.00    -0.193 C  
HETATM    6  CA  UNL     1     -11.021  10.951  68.152  1.00  0.00    -0.249 C  
HETATM    7  N   UNL     1     -10.351   9.789  68.021  1.00  0.00    -0.194 N  
HETATM    8  CA  UNL     1      -9.634   7.955  67.411  1.00  0.00    -0.152 C  
HETATM    9  C   UNL     1     -11.637  11.304  69.470  1.00  0.00    -0.328 C  
HETATM   10  O   UNL     1     -10.904   8.177  69.627  1.00  0.00    -0.232 OA 
HETATM   11  O   UNL     1     -12.117  10.317  70.231  1.00  0.00    -0.272 OA 
HETATM   12  OXT UNL     1     -11.642  12.455  69.887  1.00  0.00    -0.266 OA 
ENDROOT
BRANCH   4  13
HETATM   13  C   UNL     1     -12.154  12.972  67.126  1.00  0.00    -0.264 C  
BRANCH  13  14
HETATM   14  O   UNL     1     -11.528  14.210  66.754  1.00  0.00    -0.337 OA 
BRANCH  14  15
HETATM   15  C   UNL     1     -11.208  15.077  67.758  1.00  0.00    -0.321 C  
HETATM   16  C   UNL     1      -9.722  15.291  67.844  1.00  0.00    -0.211 C  
HETATM   17  O   UNL     1     -12.015  15.664  68.467  1.00  0.00    -0.313 OA 
ENDBRANCH  14  15
ENDBRANCH  13  14
ENDBRANCH   4  13
BRANCH   8  18
HETATM   18  N   UNL     1     -10.537   6.922  66.745  1.00  0.00    -0.483 N  
HETATM   19  C   UNL     1     -10.394   5.577  66.412  1.00  0.00    -0.219 C  
HETATM   20  H   UNL     1     -11.448   7.299  66.487  1.00  0.00     0.000 HD 
HETATM   21  O   UNL     1     -11.247   5.066  65.646  1.00  0.00    -0.025 OA 
BRANCH  19  22
HETATM   22  C   UNL     1      -9.344   4.634  66.997  1.00  0.00    -0.141 C  
BRANCH  22  23
HETATM   23  C   UNL     1      -9.406   4.167  68.397  1.00  0.00    -0.155 A  
HETATM   24  N   UNL     1      -8.400   3.415  69.016  1.00  0.00    -0.060 NA 
HETATM   25  H2  UNL     1      -7.817   2.983  72.184  1.00  0.00     0.000 HD 
HETATM   26  N   UNL     1      -7.674   2.878  71.179  1.00  0.00    -0.043 NA 
HETATM   27  C   UNL     1     -10.279   4.775  69.286  1.00  0.00    -0.074 A  
HETATM   28  S   UNL     1      -9.851   4.396  70.895  1.00  0.00    -0.176 SA 
HETATM   29  H1  UNL     1      -6.887   2.328  70.836  1.00  0.00     0.000 HD 
HETATM   30  C   UNL     1      -8.526   3.469  70.316  1.00  0.00    -0.056 A  
ENDBRANCH  22  23
BRANCH  22  31
HETATM   31  N   UNL     1      -8.176   4.354  66.503  1.00  0.00    -0.102 NA 
HETATM   32  H   UNL     1      -7.358   4.646  67.035  1.00  0.00     0.000 HD 
BRANCH  31  33
HETATM   33  O   UNL     1      -7.956   3.684  65.300  1.00  0.00    -0.088 OA 
HETATM   34  C   UNL     1      -8.749   2.570  64.961  1.00  0.00    -0.112 C  
ENDBRANCH  31  33
ENDBRANCH  22  31
ENDBRANCH  19  22
ENDBRANCH   8  18
TORSDOF 8
ENDMDL
MODEL      201
REMARK 921   NORMALIZED FREE ENERGY PREDICTED BY IDOCK:   -4.17 KCAL/MOL
REMARK 922        TOTAL FREE ENERGY PREDICTED BY IDOCK:   -7.28 KCAL/MOL
REMARK 923 INTER-LIGAND FREE ENERGY PREDICTED BY IDOCK:   -6.24 KCAL/MOL
REMARK 924 INTRA-LIGAND FREE ENERGY PREDICTED BY IDOCK:   -1.04 KCAL/MOL
REMARK 927      BINDING AFFINITY PREDICTED BY RF-SCORE:    0.00 PKD
ROOT
HETATM    1  C   UNL     1     -11.469   9.578  69.847  1.00  0.00    -0.062 C  
HETATM    2  S   UNL     1     -12.019  11.221  70.221  1.00  0.00    -0.393 SA 
HETATM    3  C   UNL     1     -11.472  12.189  68.782  1.00  0.00    -0.307 C  
HETATM    4  C   UNL     1     -10.771  11.475  67.661  1.00  0.00    -0.255 C  
HETATM    5  C   UNL     1      -9.978   8.279  69.256  1.00  0.00    -0.192 C  
HETATM    6  CA  UNL     1     -10.399  10.168  67.666  1.00  0.00    -0.219 C  
HETATM    7  N   UNL     1     -10.535   9.406  68.770  1.00  0.00    -0.210 N  
HETATM    8  CA  UNL     1     -10.502   8.637  70.682  1.00  0.00    -0.204 C  
HETATM    9  C   UNL     1      -9.805   9.574  66.428  1.00  0.00    -0.253 C  
HETATM   10  O   UNL     1      -9.139   7.526  68.816  1.00  0.00    -0.136 OA 
HETATM   11  O   UNL     1      -8.855   8.644  66.561  1.00  0.00    -0.126 OA 
HETATM   12  OXT UNL     1     -10.221   9.868  65.314  1.00  0.00    -0.269 OA 
ENDROOT
BRANCH   4  13
HETATM   13  C   UNL     1     -10.368  12.440  66.544  1.00  0.00    -0.228 C  
BRANCH  13  14
HETATM   14  O   UNL     1     -11.512  13.009  65.888  1.00  0.00    -0.313 OA 
BRANCH  14  15
HETATM   15  C   UNL     1     -11.524  14.362  65.712  1.00  0.00    -0.335 C  
HETATM   16  C   UNL     1     -11.660  15.084  67.025  1.00  0.00    -0.248 C  
HETATM   17  O   UNL     1     -11.381  14.936  64.641  1.00  0.00    -0.386 OA 
ENDBRANCH  14  15
ENDBRANCH  13  14
ENDBRANCH   4  13
BRANCH   8  18
HETATM   18  N   UNL     1      -9.356   8.929  71.645  1.00  0.00    -0.276 N  
HETATM   19  C   UNL     1      -8.552   8.141  72.466  1.00  0.00    -0.194 C  
HETATM   20  H   UNL     1      -9.127   9.921  71.699  1.00  0.00     0.000 HD 
HETATM   21  O   UNL     1      -7.845   8.720  73.327  1.00  0.00    -0.400 OA 
BRANCH  19  22
HETATM   22  C   UNL     1      -8.368   6.631  72.327  1.00  0.00    -0.107 C  
BRANCH  22  23
HETATM   23  C   UNL     1      -9.347   5.670  72.876  1.00  0.00    -0.141 A  
HETATM   24  N   UNL     1     -10.708   5.952  73.045  1.00  0.00    -0.241 NA 
HETATM   25  H2  UNL     1     -13.201   3.893  73.378  1.00  0.00     0.000 HD 
HETATM   26  N   UNL     1     -12.731   4.796  73.308  1.00  0.00    -0.004 NA 
HETATM   27  C   UNL     1      -9.048   4.316  72.888  1.00  0.00    -0.112 A  
HETATM   28  S   UNL     1     -10.465   3.395  73.124  1.00  0.00    -0.172 SA 
HETATM   29  H1  UNL     1     -13.279   5.655  73.338  1.00  0.00     0.000 HD 
HETATM   30  C   UNL     1     -11.388   4.843  73.175  1.00  0.00    -0.315 A  
ENDBRANCH  22  23
BRANCH  22  31
HETATM   31  N   UNL     1      -7.283   5.998  72.001  1.00  0.00    -0.090 NA 
HETATM   32  H   UNL     1      -7.293   5.463  71.133  1.00  0.00     0.000 HD 
BRANCH  31  33
HETATM   33  O   UNL     1      -6.103   5.994  72.745  1.00  0.00    -0.046 OA 
HETATM   34  C   UNL     1      -5.213   4.906  72.644  1.00  0.00    -0.008 C  
ENDBRANCH  31  33
ENDBRANCH  22  31
ENDBRANCH  19  22
ENDBRANCH   8  18
TORSDOF 8
ENDMDL
MODEL      202
REMARK 921   NORMALIZED FREE ENERGY PREDICTED BY IDOCK:   -4.16 KCAL/MOL
REMARK 922        TOTAL FREE ENERGY PREDICTED BY IDOCK:   -7.27 KCAL/MOL
REMARK 923 INTER-LIGAND FREE ENERGY PREDICTED BY IDOCK:   -6.13 KCAL/MOL
REMARK 924 INTRA-LIGAND FREE ENERGY PREDICTED BY IDOCK:   -1.14 KCAL/MOL
REMARK 927      BINDING AFFINITY PREDICTED BY RF-SCORE:    0.00 PKD
ROOT
HETATM    1  C   UNL     1      -9.241  10.192  69.138  1.00  0.00    -0.197 C  
HETATM    2  S   UNL     1      -7.875   9.203  68.590  1.00  0.00    -0.097 SA 
HETATM    3  C   UNL     1      -7.853   9.471  66.792  1.00  0.00    -0.101 C  
HETATM    4  C   UNL     1      -8.863  10.409  66.194  1.00  0.00    -0.172 C  
HETATM    5  C   UNL     1     -11.215  10.769  68.973  1.00  0.00    -0.262 C  
HETATM    6  CA  UNL     1      -9.885  11.003  66.864  1.00  0.00    -0.191 C  
HETATM    7  N   UNL     1     -10.150  10.697  68.150  1.00  0.00    -0.155 N  
HETATM    8  CA  UNL     1     -10.537   9.745  69.936  1.00  0.00    -0.265 C  
HETATM    9  C   UNL     1     -10.743  12.000  66.150  1.00  0.00    -0.275 C  
HETATM   10  O   UNL     1     -12.341  11.184  68.819  1.00  0.00    -0.539 OA 
HETATM   11  O   UNL     1     -12.041  12.058  66.461  1.00  0.00    -0.617 OA 
HETATM   12  OXT UNL     1     -10.269  12.799  65.352  1.00  0.00    -0.283 OA 
ENDROOT
BRANCH   4  13
HETATM   13  C   UNL     1      -8.712  10.504  64.674  1.00  0.00    -0.183 C  
BRANCH  13  14
HETATM   14  O   UNL     1      -8.864   9.225  64.039  1.00  0.00    -0.205 OA 
BRANCH  14  15
HETATM   15  C   UNL     1      -7.738   8.631  63.548  1.00  0.00    -0.136 C  
HETATM   16  C   UNL     1      -7.910   7.141  63.431  1.00  0.00    -0.104 C  
HETATM   17  O   UNL     1      -6.729   9.222  63.185  1.00  0.00    -0.091 OA 
ENDBRANCH  14  15
ENDBRANCH  13  14
ENDBRANCH   4  13
BRANCH   8  18
HETATM   18  N   UNL     1     -11.311   8.432  69.995  1.00  0.00    -0.452 N  
HETATM   19  C   UNL     1     -10.950   7.097  70.160  1.00  0.00    -0.267 C  
HETATM   20  H   UNL     1     -12.317   8.560  69.890  1.00  0.00     0.000 HD 
HETATM   21  O   UNL     1     -11.815   6.220  69.922  1.00  0.00    -0.340 OA 
BRANCH  19  22
HETATM   22  C   UNL     1      -9.615   6.612  70.725  1.00  0.00    -0.175 C  
BRANCH  22  23
HETATM   23  C   UNL     1      -8.806   5.582  70.043  1.00  0.00    -0.128 A  
HETATM   24  N   UNL     1      -8.324   4.426  70.669  1.00  0.00    -0.073 NA 
HETATM   25  H2  UNL     1      -7.310   1.642  69.333  1.00  0.00     0.000 HD 
HETATM   26  N   UNL     1      -7.530   2.299  70.081  1.00  0.00    -0.043 NA 
HETATM   27  C   UNL     1      -8.811   5.510  68.658  1.00  0.00    -0.107 A  
HETATM   28  S   UNL     1      -8.200   4.003  68.137  1.00  0.00    -0.092 SA 
HETATM   29  H1  UNL     1      -7.403   2.020  71.053  1.00  0.00     0.000 HD 
HETATM   30  C   UNL     1      -7.986   3.532  69.775  1.00  0.00    -0.049 A  
ENDBRANCH  22  23
BRANCH  22  31
HETATM   31  N   UNL     1      -9.160   6.788  71.928  1.00  0.00    -0.143 NA 
HETATM   32  H   UNL     1      -9.105   5.970  72.534  1.00  0.00     0.000 HD 
BRANCH  31  33
HETATM   33  O   UNL     1      -8.741   8.009  72.455  1.00  0.00    -0.133 OA 
HETATM   34  C   UNL     1      -8.325   8.088  73.799  1.00  0.00    -0.252 C  
ENDBRANCH  31  33
ENDBRANCH  22  31
ENDBRANCH  19  22
ENDBRANCH   8  18
TORSDOF 8
ENDMDL
MODEL      203
REMARK 921   NORMALIZED FREE ENERGY PREDICTED BY IDOCK:   -4.15 KCAL/MOL
REMARK 922        TOTAL FREE ENERGY PREDICTED BY IDOCK:   -7.25 KCAL/MOL
REMARK 923 INTER-LIGAND FREE ENERGY PREDICTED BY IDOCK:   -6.15 KCAL/MOL
REMARK 924 INTRA-LIGAND FREE ENERGY PREDICTED BY IDOCK:   -1.09 KCAL/MOL
REMARK 927      BINDING AFFINITY PREDICTED BY RF-SCORE:    0.00 PKD
ROOT
HETATM    1  C   UNL     1     -11.073   9.834  67.399  1.00  0.00     0.022 C  
HETATM    2  S   UNL     1     -11.021   9.793  69.170  1.00  0.00    -0.130 SA 
HETATM    3  C   UNL     1     -11.112  11.548  69.638  1.00  0.00    -0.143 C  
HETATM    4  C   UNL     1     -11.239  12.575  68.548  1.00  0.00    -0.322 C  
HETATM    5  C   UNL     1     -10.382  10.580  65.603  1.00  0.00    -0.204 C  
HETATM    6  CA  UNL     1     -11.180  12.324  67.214  1.00  0.00    -0.300 C  
HETATM    7  N   UNL     1     -10.877  11.096  66.745  1.00  0.00    -0.274 N  
HETATM    8  CA  UNL     1     -10.020   9.263  66.359  1.00  0.00    -0.286 C  
HETATM    9  C   UNL     1     -11.435  13.440  66.249  1.00  0.00    -0.325 C  
HETATM   10  O   UNL     1     -10.053  11.083  64.554  1.00  0.00    -0.270 OA 
HETATM   11  O   UNL     1     -10.753  13.455  65.101  1.00  0.00    -0.302 OA 
HETATM   12  OXT UNL     1     -12.296  14.285  66.461  1.00  0.00    -0.445 OA 
ENDROOT
BRANCH   4  13
HETATM   13  C   UNL     1     -11.286  13.995  69.115  1.00  0.00    -0.281 C  
BRANCH  13  14
HETATM   14  O   UNL     1     -12.423  14.193  69.971  1.00  0.00    -0.340 OA 
BRANCH  14  15
HETATM   15  C   UNL     1     -12.391  15.262  70.819  1.00  0.00    -0.380 C  
HETATM   16  C   UNL     1     -11.049  15.942  70.791  1.00  0.00    -0.352 C  
HETATM   17  O   UNL     1     -13.338  15.669  71.478  1.00  0.00    -0.494 OA 
ENDBRANCH  14  15
ENDBRANCH  13  14
ENDBRANCH   4  13
BRANCH   8  18
HETATM   18  N   UNL     1      -8.511   9.052  66.427  1.00  0.00    -0.118 N  
HETATM   19  C   UNL     1      -7.685   8.142  67.084  1.00  0.00    -0.097 C  
HETATM   20  H   UNL     1      -7.990   9.727  65.868  1.00  0.00     0.000 HD 
HETATM   21  O   UNL     1      -6.455   8.386  67.125  1.00  0.00    -0.056 OA 
BRANCH  19  22
HETATM   22  C   UNL     1      -8.140   6.802  67.661  1.00  0.00    -0.116 C  
BRANCH  22  23
HETATM   23  C   UNL     1      -8.049   6.501  69.104  1.00  0.00    -0.112 A  
HETATM   24  N   UNL     1      -9.160   6.382  69.949  1.00  0.00    -0.141 NA 
HETATM   25  H2  UNL     1      -9.386   4.929  72.847  1.00  0.00     0.000 HD 
HETATM   26  N   UNL     1      -9.705   5.448  72.029  1.00  0.00    -0.159 NA 
HETATM   27  C   UNL     1      -6.891   5.936  69.617  1.00  0.00    -0.061 A  
HETATM   28  S   UNL     1      -7.187   5.270  71.160  1.00  0.00    -0.075 SA 
HETATM   29  H1  UNL     1     -10.682   5.733  71.961  1.00  0.00     0.000 HD 
HETATM   30  C   UNL     1      -8.831   5.751  71.045  1.00  0.00    -0.138 A  
ENDBRANCH  22  23
BRANCH  22  31
HETATM   31  N   UNL     1      -8.377   5.705  67.008  1.00  0.00    -0.108 NA 
HETATM   32  H   UNL     1      -9.318   5.316  67.069  1.00  0.00     0.000 HD 
BRANCH  31  33
HETATM   33  O   UNL     1      -7.446   5.018  66.230  1.00  0.00    -0.084 OA 
HETATM   34  C   UNL     1      -7.107   3.689  66.551  1.00  0.00    -0.063 C  
ENDBRANCH  31  33
ENDBRANCH  22  31
ENDBRANCH  19  22
ENDBRANCH   8  18
TORSDOF 8
ENDMDL
MODEL      204
REMARK 921   NORMALIZED FREE ENERGY PREDICTED BY IDOCK:   -4.11 KCAL/MOL
REMARK 922        TOTAL FREE ENERGY PREDICTED BY IDOCK:   -7.18 KCAL/MOL
REMARK 923 INTER-LIGAND FREE ENERGY PREDICTED BY IDOCK:   -6.64 KCAL/MOL
REMARK 924 INTRA-LIGAND FREE ENERGY PREDICTED BY IDOCK:   -0.54 KCAL/MOL
REMARK 927      BINDING AFFINITY PREDICTED BY RF-SCORE:    0.00 PKD
ROOT
HETATM    1  C   UNL     1      -9.263  17.875  67.020  1.00  0.00    -0.260 C  
HETATM    2  S   UNL     1      -8.254  16.762  66.081  1.00  0.00    -0.152 SA 
HETATM    3  C   UNL     1      -8.671  15.130  66.767  1.00  0.00    -0.273 C  
HETATM    4  C   UNL     1      -9.708  15.052  67.852  1.00  0.00    -0.212 C  
HETATM    5  C   UNL     1      -9.956  18.567  68.837  1.00  0.00    -0.347 C  
HETATM    6  CA  UNL     1     -10.297  16.115  68.462  1.00  0.00    -0.254 C  
HETATM    7  N   UNL     1      -9.897  17.377  68.208  1.00  0.00    -0.293 N  
HETATM    8  CA  UNL     1      -8.820  19.109  67.914  1.00  0.00    -0.304 C  
HETATM    9  C   UNL     1     -11.394  15.872  69.450  1.00  0.00    -0.349 C  
HETATM   10  O   UNL     1     -10.441  18.912  69.890  1.00  0.00     0.557 OA 
HETATM   11  O   UNL     1     -11.495  16.691  70.501  1.00  0.00    -0.152 OA 
HETATM   12  OXT UNL     1     -12.232  14.996  69.275  1.00  0.00    -0.261 OA 
ENDROOT
BRANCH   4  13
HETATM   13  C   UNL     1      -9.923  13.612  68.323  1.00  0.00    -0.236 C  
BRANCH  13  14
HETATM   14  O   UNL     1      -9.970  12.690  67.222  1.00  0.00    -0.209 OA 
BRANCH  14  15
HETATM   15  C   UNL     1     -11.025  11.827  67.172  1.00  0.00    -0.276 C  
HETATM   16  C   UNL     1     -10.938  10.791  68.260  1.00  0.00    -0.307 C  
HETATM   17  O   UNL     1     -11.964  11.905  66.391  1.00  0.00    -0.572 OA 
ENDBRANCH  14  15
ENDBRANCH  13  14
ENDBRANCH   4  13
BRANCH   8  18
HETATM   18  N   UNL     1      -7.549  19.407  68.704  1.00  0.00    -0.352 N  
HETATM   19  C   UNL     1      -6.221  19.002  68.598  1.00  0.00    -0.226 C  
HETATM   20  H   UNL     1      -7.708  20.046  69.483  1.00  0.00     0.000 HD 
HETATM   21  O   UNL     1      -5.454  19.243  69.561  1.00  0.00    -0.198 OA 
BRANCH  19  22
HETATM   22  C   UNL     1      -5.587  18.388  67.351  1.00  0.00    -0.141 C  
BRANCH  22  23
HETATM   23  C   UNL     1      -5.508  19.122  66.072  1.00  0.00    -0.155 A  
HETATM   24  N   UNL     1      -5.311  18.508  64.829  1.00  0.00    -0.166 NA 
HETATM   25  H2  UNL     1      -5.936  19.656  61.853  1.00  0.00     0.000 HD 
HETATM   26  N   UNL     1      -5.624  18.984  62.554  1.00  0.00    -0.408 NA 
HETATM   27  C   UNL     1      -6.012  20.411  65.987  1.00  0.00    -0.188 A  
HETATM   28  S   UNL     1      -6.227  20.861  64.355  1.00  0.00    -0.267 SA 
HETATM   29  H1  UNL     1      -5.287  18.067  62.261  1.00  0.00     0.000 HD 
HETATM   30  C   UNL     1      -5.660  19.317  63.862  1.00  0.00    -0.308 A  
ENDBRANCH  22  23
BRANCH  22  31
HETATM   31  N   UNL     1      -5.311  17.136  67.145  1.00  0.00    -0.139 NA 
HETATM   32  H   UNL     1      -5.203  16.831  66.178  1.00  0.00     0.000 HD 
BRANCH  31  33
HETATM   33  O   UNL     1      -5.149  16.177  68.144  1.00  0.00    -0.095 OA 
HETATM   34  C   UNL     1      -5.490  14.833  67.888  1.00  0.00    -0.095 C  
ENDBRANCH  31  33
ENDBRANCH  22  31
ENDBRANCH  19  22
ENDBRANCH   8  18
TORSDOF 8
ENDMDL
MODEL      205
REMARK 921   NORMALIZED FREE ENERGY PREDICTED BY IDOCK:   -4.06 KCAL/MOL
REMARK 922        TOTAL FREE ENERGY PREDICTED BY IDOCK:   -7.11 KCAL/MOL
REMARK 923 INTER-LIGAND FREE ENERGY PREDICTED BY IDOCK:   -6.45 KCAL/MOL
REMARK 924 INTRA-LIGAND FREE ENERGY PREDICTED BY IDOCK:   -0.66 KCAL/MOL
REMARK 927      BINDING AFFINITY PREDICTED BY RF-SCORE:    0.00 PKD
ROOT
HETATM    1  C   UNL     1      -8.981  11.771  66.036  1.00  0.00    -0.107 C  
HETATM    2  S   UNL     1      -9.867  12.866  64.960  1.00  0.00     0.036 SA 
HETATM    3  C   UNL     1      -9.434  14.518  65.586  1.00  0.00    -0.036 C  
HETATM    4  C   UNL     1      -8.482  14.619  66.743  1.00  0.00    -0.145 C  
HETATM    5  C   UNL     1      -8.460  11.161  67.937  1.00  0.00    -0.131 C  
HETATM    6  CA  UNL     1      -7.987  13.573  67.456  1.00  0.00    -0.181 C  
HETATM    7  N   UNL     1      -8.420  12.314  67.241  1.00  0.00    -0.174 N  
HETATM    8  CA  UNL     1      -9.545  10.610  66.959  1.00  0.00    -0.169 C  
HETATM    9  C   UNL     1      -6.960  13.830  68.513  1.00  0.00    -0.103 C  
HETATM   10  O   UNL     1      -8.073  10.860  69.043  1.00  0.00    -0.142 OA 
HETATM   11  O   UNL     1      -6.976  13.071  69.612  1.00  0.00     0.082 OA 
HETATM   12  OXT UNL     1      -6.075  14.662  68.357  1.00  0.00    -0.086 OA 
ENDROOT
BRANCH   4  13
HETATM   13  C   UNL     1      -8.242  16.075  67.149  1.00  0.00    -0.195 C  
BRANCH  13  14
HETATM   14  O   UNL     1      -7.391  16.759  66.215  1.00  0.00    -0.261 OA 
BRANCH  14  15
HETATM   15  C   UNL     1      -7.721  18.042  65.891  1.00  0.00    -0.095 C  
HETATM   16  C   UNL     1      -9.057  18.426  66.465  1.00  0.00    -0.297 C  
HETATM   17  O   UNL     1      -7.009  18.818  65.268  1.00  0.00    -0.509 OA 
ENDBRANCH  14  15
ENDBRANCH  13  14
ENDBRANCH   4  13
BRANCH   8  18
HETATM   18  N   UNL     1     -10.884  10.407  67.661  1.00  0.00    -0.287 N  
HETATM   19  C   UNL     1     -11.734  11.235  68.391  1.00  0.00    -0.294 C  
HETATM   20  H   UNL     1     -11.234   9.453  67.577  1.00  0.00     0.000 HD 
HETATM   21  O   UNL     1     -12.658  10.697  69.047  1.00  0.00    -0.232 OA 
BRANCH  19  22
HETATM   22  C   UNL     1     -11.707  12.762  68.365  1.00  0.00    -0.339 C  
BRANCH  22  23
HETATM   23  C   UNL     1     -11.665  13.565  69.605  1.00  0.00    -0.314 A  
HETATM   24  N   UNL     1     -11.316  14.920  69.647  1.00  0.00    -0.268 NA 
HETATM   25  H2  UNL     1     -11.936  17.126  71.951  1.00  0.00     0.000 HD 
HETATM   26  N   UNL     1     -11.570  16.766  71.070  1.00  0.00    -0.363 NA 
HETATM   27  C   UNL     1     -12.343  13.124  70.731  1.00  0.00    -0.321 A  
HETATM   28  S   UNL     1     -12.532  14.400  71.849  1.00  0.00    -0.273 SA 
HETATM   29  H1  UNL     1     -11.090  17.395  70.427  1.00  0.00     0.000 HD 
HETATM   30  C   UNL     1     -11.724  15.460  70.766  1.00  0.00    -0.348 A  
ENDBRANCH  22  23
BRANCH  22  31
HETATM   31  N   UNL     1     -11.991  13.537  67.363  1.00  0.00    -0.371 NA 
HETATM   32  H   UNL     1     -11.633  14.491  67.389  1.00  0.00     0.000 HD 
BRANCH  31  33
HETATM   33  O   UNL     1     -12.749  13.164  66.252  1.00  0.00    -0.293 OA 
HETATM   34  C   UNL     1     -13.002  14.100  65.230  1.00  0.00    -0.237 C  
ENDBRANCH  31  33
ENDBRANCH  22  31
ENDBRANCH  19  22
ENDBRANCH   8  18
TORSDOF 8
ENDMDL
MODEL      206
REMARK 921   NORMALIZED FREE ENERGY PREDICTED BY IDOCK:   -4.06 KCAL/MOL
REMARK 922        TOTAL FREE ENERGY PREDICTED BY IDOCK:   -7.11 KCAL/MOL
REMARK 923 INTER-LIGAND FREE ENERGY PREDICTED BY IDOCK:   -4.96 KCAL/MOL
REMARK 924 INTRA-LIGAND FREE ENERGY PREDICTED BY IDOCK:   -2.15 KCAL/MOL
REMARK 927      BINDING AFFINITY PREDICTED BY RF-SCORE:    0.00 PKD
ROOT
HETATM    1  C   UNL     1      -6.751   9.959  70.318  1.00  0.00    -0.126 C  
HETATM    2  S   UNL     1      -6.669  11.003  68.888  1.00  0.00    -0.082 SA 
HETATM    3  C   UNL     1      -8.406  11.153  68.372  1.00  0.00    -0.149 C  
HETATM    4  C   UNL     1      -9.460  10.468  69.195  1.00  0.00    -0.205 C  
HETATM    5  C   UNL     1      -7.408   8.235  71.243  1.00  0.00    -0.078 C  
HETATM    6  CA  UNL     1      -9.228   9.637  70.246  1.00  0.00    -0.236 C  
HETATM    7  N   UNL     1      -7.977   9.259  70.575  1.00  0.00    -0.153 N  
HETATM    8  CA  UNL     1      -6.036   8.566  70.577  1.00  0.00    -0.031 C  
HETATM    9  C   UNL     1     -10.389   9.118  71.036  1.00  0.00    -0.293 C  
HETATM   10  O   UNL     1      -7.871   7.278  71.820  1.00  0.00    -0.090 OA 
HETATM   11  O   UNL     1     -10.314   7.881  71.536  1.00  0.00    -0.197 OA 
HETATM   12  OXT UNL     1     -11.358   9.822  71.288  1.00  0.00    -0.361 OA 
ENDROOT
BRANCH   4  13
HETATM   13  C   UNL     1     -10.859  10.683  68.612  1.00  0.00    -0.227 C  
BRANCH  13  14
HETATM   14  O   UNL     1     -11.089  12.059  68.267  1.00  0.00    -0.211 OA 
BRANCH  14  15
HETATM   15  C   UNL     1     -11.437  12.331  66.976  1.00  0.00    -0.354 C  
HETATM   16  C   UNL     1     -10.796  13.603  66.493  1.00  0.00    -0.283 C  
HETATM   17  O   UNL     1     -12.128  11.614  66.265  1.00  0.00    -0.333 OA 
ENDBRANCH  14  15
ENDBRANCH  13  14
ENDBRANCH   4  13
BRANCH   8  18
HETATM   18  N   UNL     1      -5.581   7.450  69.642  1.00  0.00    -0.023 N  
HETATM   19  C   UNL     1      -6.235   6.599  68.754  1.00  0.00    -0.027 C  
HETATM   20  H   UNL     1      -4.574   7.292  69.674  1.00  0.00     0.000 HD 
HETATM   21  O   UNL     1      -5.598   5.616  68.304  1.00  0.00    -0.010 OA 
BRANCH  19  22
HETATM   22  C   UNL     1      -7.635   6.829  68.187  1.00  0.00    -0.107 C  
BRANCH  22  23
HETATM   23  C   UNL     1      -7.859   7.587  66.940  1.00  0.00    -0.111 A  
HETATM   24  N   UNL     1      -9.115   8.034  66.511  1.00  0.00    -0.164 NA 
HETATM   25  H2  UNL     1      -9.839  10.377  64.378  1.00  0.00     0.000 HD 
HETATM   26  N   UNL     1     -10.017   9.633  65.052  1.00  0.00    -0.391 NA 
HETATM   27  C   UNL     1      -6.795   8.232  66.327  1.00  0.00    -0.065 A  
HETATM   28  S   UNL     1      -7.363   9.387  65.206  1.00  0.00    -0.100 SA 
HETATM   29  H1  UNL     1     -10.977   9.390  65.295  1.00  0.00     0.000 HD 
HETATM   30  C   UNL     1      -8.980   8.977  65.615  1.00  0.00    -0.202 A  
ENDBRANCH  22  23
BRANCH  22  31
HETATM   31  N   UNL     1      -8.768   6.670  68.802  1.00  0.00    -0.128 NA 
HETATM   32  H   UNL     1      -9.221   7.504  69.175  1.00  0.00     0.000 HD 
BRANCH  31  33
HETATM   33  O   UNL     1      -9.412   5.448  68.991  1.00  0.00    -0.121 OA 
HETATM   34  C   UNL     1      -9.070   4.637  70.092  1.00  0.00    -0.098 C  
ENDBRANCH  31  33
ENDBRANCH  22  31
ENDBRANCH  19  22
ENDBRANCH   8  18
TORSDOF 8
ENDMDL
MODEL      207
REMARK 921   NORMALIZED FREE ENERGY PREDICTED BY IDOCK:   -4.05 KCAL/MOL
REMARK 922        TOTAL FREE ENERGY PREDICTED BY IDOCK:   -7.10 KCAL/MOL
REMARK 923 INTER-LIGAND FREE ENERGY PREDICTED BY IDOCK:   -5.80 KCAL/MOL
REMARK 924 INTRA-LIGAND FREE ENERGY PREDICTED BY IDOCK:   -1.30 KCAL/MOL
REMARK 927      BINDING AFFINITY PREDICTED BY RF-SCORE:    0.00 PKD
ROOT
HETATM    1  C   UNL     1     -11.768   9.887  70.334  1.00  0.00    -0.258 C  
HETATM    2  S   UNL     1     -12.441  11.080  71.459  1.00  0.00    -0.215 SA 
HETATM    3  C   UNL     1     -12.483  12.611  70.479  1.00  0.00    -0.193 C  
HETATM    4  C   UNL     1     -12.025  12.560  69.049  1.00  0.00    -0.280 C  
HETATM    5  C   UNL     1     -10.320   9.323  68.976  1.00  0.00    -0.214 C  
HETATM    6  CA  UNL     1     -11.465  11.484  68.435  1.00  0.00    -0.298 C  
HETATM    7  N   UNL     1     -11.162  10.365  69.124  1.00  0.00    -0.244 N  
HETATM    8  CA  UNL     1     -10.469   8.990  70.494  1.00  0.00    -0.223 C  
HETATM    9  C   UNL     1     -11.160  11.555  66.972  1.00  0.00    -0.307 C  
HETATM   10  O   UNL     1      -9.532   9.026  68.107  1.00  0.00    -0.141 OA 
HETATM   11  O   UNL     1     -10.077  10.919  66.517  1.00  0.00    -0.207 OA 
HETATM   12  OXT UNL     1     -11.915  12.116  66.187  1.00  0.00    -0.593 OA 
ENDROOT
BRANCH   4  13
HETATM   13  C   UNL     1     -12.111  13.933  68.381  1.00  0.00    -0.291 C  
BRANCH  13  14
HETATM   14  O   UNL     1     -11.352  14.924  69.091  1.00  0.00    -0.260 OA 
BRANCH  14  15
HETATM   15  C   UNL     1     -10.193  15.357  68.516  1.00  0.00    -0.219 C  
HETATM   16  C   UNL     1     -10.197  16.850  68.332  1.00  0.00    -0.322 C  
HETATM   17  O   UNL     1      -9.236  14.647  68.237  1.00  0.00    -0.185 OA 
ENDBRANCH  14  15
ENDBRANCH  13  14
ENDBRANCH   4  13
BRANCH   8  18
HETATM   18  N   UNL     1      -9.158   9.197  71.245  1.00  0.00    -0.217 N  
HETATM   19  C   UNL     1      -7.984   8.457  71.375  1.00  0.00    -0.126 C  
HETATM   20  H   UNL     1      -9.135  10.071  71.769  1.00  0.00     0.000 HD 
HETATM   21  O   UNL     1      -7.172   8.794  72.269  1.00  0.00    -0.281 OA 
BRANCH  19  22
HETATM   22  C   UNL     1      -7.547   7.333  70.436  1.00  0.00    -0.088 C  
BRANCH  22  23
HETATM   23  C   UNL     1      -7.781   5.911  70.756  1.00  0.00    -0.097 A  
HETATM   24  N   UNL     1      -8.862   5.168  70.266  1.00  0.00    -0.118 NA 
HETATM   25  H2  UNL     1      -9.204   1.943  70.052  1.00  0.00     0.000 HD 
HETATM   26  N   UNL     1      -9.466   2.924  69.954  1.00  0.00    -0.137 NA 
HETATM   27  C   UNL     1      -6.739   5.134  71.238  1.00  0.00    -0.043 A  
HETATM   28  S   UNL     1      -7.115   3.475  71.093  1.00  0.00    -0.033 SA 
HETATM   29  H1  UNL     1     -10.362   3.168  69.532  1.00  0.00     0.000 HD 
HETATM   30  C   UNL     1      -8.624   3.887  70.383  1.00  0.00    -0.072 A  
ENDBRANCH  22  23
BRANCH  22  31
HETATM   31  N   UNL     1      -6.713   7.418  69.444  1.00  0.00    -0.040 NA 
HETATM   32  H   UNL     1      -5.827   7.893  69.614  1.00  0.00     0.000 HD 
BRANCH  31  33
HETATM   33  O   UNL     1      -6.936   6.911  68.165  1.00  0.00    -0.074 OA 
HETATM   34  C   UNL     1      -5.867   6.357  67.433  1.00  0.00    -0.016 C  
ENDBRANCH  31  33
ENDBRANCH  22  31
ENDBRANCH  19  22
ENDBRANCH   8  18
TORSDOF 8
ENDMDL
MODEL      208
REMARK 921   NORMALIZED FREE ENERGY PREDICTED BY IDOCK:   -4.02 KCAL/MOL
REMARK 922        TOTAL FREE ENERGY PREDICTED BY IDOCK:   -7.05 KCAL/MOL
REMARK 923 INTER-LIGAND FREE ENERGY PREDICTED BY IDOCK:   -5.97 KCAL/MOL
REMARK 924 INTRA-LIGAND FREE ENERGY PREDICTED BY IDOCK:   -1.08 KCAL/MOL
REMARK 927      BINDING AFFINITY PREDICTED BY RF-SCORE:    0.00 PKD
ROOT
HETATM    1  C   UNL     1      -8.916   8.607  68.155  1.00  0.00    -0.141 C  
HETATM    2  S   UNL     1     -10.329   8.398  67.105  1.00  0.00    -0.308 SA 
HETATM    3  C   UNL     1     -10.591  10.058  66.413  1.00  0.00    -0.068 C  
HETATM    4  C   UNL     1      -9.637  11.154  66.795  1.00  0.00    -0.215 C  
HETATM    5  C   UNL     1      -7.931   9.632  69.651  1.00  0.00    -0.137 C  
HETATM    6  CA  UNL     1      -8.641  11.051  67.714  1.00  0.00    -0.130 C  
HETATM    7  N   UNL     1      -8.497   9.943  68.469  1.00  0.00    -0.110 N  
HETATM    8  CA  UNL     1      -8.780   8.323  69.710  1.00  0.00    -0.134 C  
HETATM    9  C   UNL     1      -7.702  12.201  67.905  1.00  0.00    -0.134 C  
HETATM   10  O   UNL     1      -7.307  10.285  70.456  1.00  0.00    -0.281 OA 
HETATM   11  O   UNL     1      -7.235  12.443  69.133  1.00  0.00    -0.053 OA 
HETATM   12  OXT UNL     1      -7.305  12.868  66.957  1.00  0.00    -0.043 OA 
ENDROOT
BRANCH   4  13
HETATM   13  C   UNL     1     -10.013  12.484  66.137  1.00  0.00    -0.255 C  
BRANCH  13  14
HETATM   14  O   UNL     1     -10.985  12.309  65.094  1.00  0.00    -0.286 OA 
BRANCH  14  15
HETATM   15  C   UNL     1     -12.152  13.009  65.202  1.00  0.00    -0.433 C  
HETATM   16  C   UNL     1     -11.902  14.424  65.645  1.00  0.00    -0.355 C  
HETATM   17  O   UNL     1     -13.261  12.578  64.918  1.00  0.00    -0.787 OA 
ENDBRANCH  14  15
ENDBRANCH  13  14
ENDBRANCH   4  13
BRANCH   8  18
HETATM   18  N   UNL     1      -9.785   8.357  70.857  1.00  0.00    -0.168 N  
HETATM   19  C   UNL     1     -10.667   7.428  71.405  1.00  0.00    -0.219 C  
HETATM   20  H   UNL     1      -9.818   9.260  71.329  1.00  0.00     0.000 HD 
HETATM   21  O   UNL     1     -11.540   7.845  72.203  1.00  0.00    -0.288 OA 
BRANCH  19  22
HETATM   22  C   UNL     1     -10.585   5.915  71.204  1.00  0.00    -0.246 C  
BRANCH  22  23
HETATM   23  C   UNL     1      -9.967   5.025  72.208  1.00  0.00    -0.182 A  
HETATM   24  N   UNL     1     -10.480   3.771  72.561  1.00  0.00    -0.132 NA 
HETATM   25  H2  UNL     1      -8.981   1.278  74.011  1.00  0.00     0.000 HD 
HETATM   26  N   UNL     1      -9.750   1.787  73.575  1.00  0.00    -0.072 NA 
HETATM   27  C   UNL     1      -8.640   5.211  72.567  1.00  0.00    -0.121 A  
HETATM   28  S   UNL     1      -8.038   3.824  73.358  1.00  0.00    -0.088 SA 
HETATM   29  H1  UNL     1     -10.655   1.331  73.457  1.00  0.00     0.000 HD 
HETATM   30  C   UNL     1      -9.562   3.057  73.159  1.00  0.00    -0.096 A  
ENDBRANCH  22  23
BRANCH  22  31
HETATM   31  N   UNL     1     -10.757   5.259  70.097  1.00  0.00    -0.233 NA 
HETATM   32  H   UNL     1     -11.710   4.995  69.850  1.00  0.00     0.000 HD 
BRANCH  31  33
HETATM   33  O   UNL     1      -9.739   4.889  69.219  1.00  0.00    -0.156 OA 
HETATM   34  C   UNL     1      -9.991   4.837  67.833  1.00  0.00    -0.102 C  
ENDBRANCH  31  33
ENDBRANCH  22  31
ENDBRANCH  19  22
ENDBRANCH   8  18
TORSDOF 8
ENDMDL
MODEL      209
REMARK 921   NORMALIZED FREE ENERGY PREDICTED BY IDOCK:   -4.02 KCAL/MOL
REMARK 922        TOTAL FREE ENERGY PREDICTED BY IDOCK:   -7.05 KCAL/MOL
REMARK 923 INTER-LIGAND FREE ENERGY PREDICTED BY IDOCK:   -5.77 KCAL/MOL
REMARK 924 INTRA-LIGAND FREE ENERGY PREDICTED BY IDOCK:   -1.28 KCAL/MOL
REMARK 927      BINDING AFFINITY PREDICTED BY RF-SCORE:    0.00 PKD
ROOT
HETATM    1  C   UNL     1      -9.578   8.673  70.088  1.00  0.00    -0.172 C  
HETATM    2  S   UNL     1      -8.639   9.413  68.779  1.00  0.00    -0.129 SA 
HETATM    3  C   UNL     1      -9.572  10.925  68.391  1.00  0.00    -0.177 C  
HETATM    4  C   UNL     1     -10.801  11.237  69.197  1.00  0.00    -0.269 C  
HETATM    5  C   UNL     1     -11.380   8.028  70.858  1.00  0.00    -0.276 C  
HETATM    6  CA  UNL     1     -11.359  10.426  70.135  1.00  0.00    -0.323 C  
HETATM    7  N   UNL     1     -10.897   9.176  70.343  1.00  0.00    -0.230 N  
HETATM    8  CA  UNL     1     -10.240   7.233  70.148  1.00  0.00    -0.203 C  
HETATM    9  C   UNL     1     -12.522  10.926  70.933  1.00  0.00    -0.408 C  
HETATM   10  O   UNL     1     -12.445   7.739  71.354  1.00  0.00    -0.316 OA 
HETATM   11  O   UNL     1     -13.469  10.054  71.289  1.00  0.00    -0.349 OA 
HETATM   12  OXT UNL     1     -12.581  12.086  71.320  1.00  0.00    -0.347 OA 
ENDROOT
BRANCH   4  13
HETATM   13  C   UNL     1     -11.468  12.531  68.729  1.00  0.00    -0.310 C  
BRANCH  13  14
HETATM   14  O   UNL     1     -10.510  13.477  68.226  1.00  0.00    -0.239 OA 
BRANCH  14  15
HETATM   15  C   UNL     1     -10.898  14.266  67.183  1.00  0.00    -0.296 C  
HETATM   16  C   UNL     1     -10.454  13.689  65.866  1.00  0.00    -0.297 C  
HETATM   17  O   UNL     1     -11.573  15.282  67.279  1.00  0.00    -0.286 OA 
ENDBRANCH  14  15
ENDBRANCH  13  14
ENDBRANCH   4  13
BRANCH   8  18
HETATM   18  N   UNL     1     -10.789   6.303  69.071  1.00  0.00    -0.302 N  
HETATM   19  C   UNL     1     -10.220   5.598  68.013  1.00  0.00    -0.186 C  
HETATM   20  H   UNL     1     -11.798   6.168  69.141  1.00  0.00     0.000 HD 
HETATM   21  O   UNL     1     -10.990   5.105  67.153  1.00  0.00     0.021 OA 
BRANCH  19  22
HETATM   22  C   UNL     1      -8.734   5.272  67.873  1.00  0.00    -0.102 C  
BRANCH  22  23
HETATM   23  C   UNL     1      -7.900   4.910  69.037  1.00  0.00    -0.076 A  
HETATM   24  N   UNL     1      -6.985   5.779  69.644  1.00  0.00    -0.061 NA 
HETATM   25  H2  UNL     1      -5.684   5.634  72.619  1.00  0.00     0.000 HD 
HETATM   26  N   UNL     1      -5.857   6.009  71.687  1.00  0.00    -0.026 NA 
HETATM   27  C   UNL     1      -8.259   3.829  69.829  1.00  0.00    -0.053 A  
HETATM   28  S   UNL     1      -7.442   3.892  71.327  1.00  0.00    -0.045 SA 
HETATM   29  H1  UNL     1      -5.405   6.877  71.400  1.00  0.00     0.000 HD 
HETATM   30  C   UNL     1      -6.682   5.353  70.843  1.00  0.00    -0.044 A  
ENDBRANCH  22  23
BRANCH  22  31
HETATM   31  N   UNL     1      -7.966   5.526  66.858  1.00  0.00    -0.101 NA 
HETATM   32  H   UNL     1      -7.223   4.859  66.652  1.00  0.00     0.000 HD 
BRANCH  31  33
HETATM   33  O   UNL     1      -8.079   6.640  66.026  1.00  0.00    -0.110 OA 
HETATM   34  C   UNL     1      -6.927   7.369  65.670  1.00  0.00    -0.060 C  
ENDBRANCH  31  33
ENDBRANCH  22  31
ENDBRANCH  19  22
ENDBRANCH   8  18
TORSDOF 8
ENDMDL
MODEL      210
REMARK 921   NORMALIZED FREE ENERGY PREDICTED BY IDOCK:   -4.02 KCAL/MOL
REMARK 922        TOTAL FREE ENERGY PREDICTED BY IDOCK:   -7.05 KCAL/MOL
REMARK 923 INTER-LIGAND FREE ENERGY PREDICTED BY IDOCK:   -4.58 KCAL/MOL
REMARK 924 INTRA-LIGAND FREE ENERGY PREDICTED BY IDOCK:   -2.47 KCAL/MOL
REMARK 927      BINDING AFFINITY PREDICTED BY RF-SCORE:    0.00 PKD
ROOT
HETATM    1  C   UNL     1     -11.202   7.115  70.254  1.00  0.00    -0.276 C  
HETATM    2  S   UNL     1     -10.511   8.182  69.018  1.00  0.00    -0.160 SA 
HETATM    3  C   UNL     1      -9.299   7.122  68.173  1.00  0.00    -0.129 C  
HETATM    4  C   UNL     1      -9.164   5.692  68.615  1.00  0.00    -0.134 C  
HETATM    5  C   UNL     1     -10.958   5.774  71.803  1.00  0.00    -0.256 C  
HETATM    6  CA  UNL     1      -9.793   5.131  69.681  1.00  0.00    -0.216 C  
HETATM    7  N   UNL     1     -10.533   5.875  70.528  1.00  0.00    -0.236 N  
HETATM    8  CA  UNL     1     -11.242   7.309  71.828  1.00  0.00    -0.247 C  
HETATM    9  C   UNL     1      -9.641   3.663  69.928  1.00  0.00    -0.168 C  
HETATM   10  O   UNL     1     -10.823   4.915  72.644  1.00  0.00    -0.213 OA 
HETATM   11  O   UNL     1      -9.610   3.231  71.192  1.00  0.00    -0.146 OA 
HETATM   12  OXT UNL     1      -9.619   2.857  69.006  1.00  0.00    -0.141 OA 
ENDROOT
BRANCH   4  13
HETATM   13  C   UNL     1      -8.092   4.953  67.812  1.00  0.00    -0.094 C  
BRANCH  13  14
HETATM   14  O   UNL     1      -8.583   4.522  66.532  1.00  0.00    -0.112 OA 
BRANCH  14  15
HETATM   15  C   UNL     1      -7.726   4.599  65.474  1.00  0.00    -0.090 C  
HETATM   16  C   UNL     1      -7.759   5.962  64.840  1.00  0.00    -0.097 C  
HETATM   17  O   UNL     1      -6.972   3.706  65.110  1.00  0.00    -0.054 OA 
ENDBRANCH  14  15
ENDBRANCH  13  14
ENDBRANCH   4  13
BRANCH   8  18
HETATM   18  N   UNL     1     -10.320   8.035  72.802  1.00  0.00    -0.323 N  
HETATM   19  C   UNL     1      -8.938   8.105  72.965  1.00  0.00    -0.266 C  
HETATM   20  H   UNL     1     -10.829   8.594  73.486  1.00  0.00     0.000 HD 
HETATM   21  O   UNL     1      -8.495   8.609  74.025  1.00  0.00    -0.279 OA 
BRANCH  19  22
HETATM   22  C   UNL     1      -7.909   7.723  71.902  1.00  0.00    -0.095 C  
BRANCH  22  23
HETATM   23  C   UNL     1      -7.131   6.471  71.981  1.00  0.00    -0.081 A  
HETATM   24  N   UNL     1      -7.423   5.423  72.863  1.00  0.00    -0.095 NA 
HETATM   25  H2  UNL     1      -6.516   2.306  72.717  1.00  0.00     0.000 HD 
HETATM   26  N   UNL     1      -6.978   3.133  73.095  1.00  0.00    -0.038 NA 
HETATM   27  C   UNL     1      -6.312   6.102  70.924  1.00  0.00    -0.040 A  
HETATM   28  S   UNL     1      -5.897   4.451  71.040  1.00  0.00    -0.017 SA 
HETATM   29  H1  UNL     1      -7.538   3.055  73.943  1.00  0.00     0.000 HD 
HETATM   30  C   UNL     1      -6.841   4.321  72.468  1.00  0.00    -0.054 A  
ENDBRANCH  22  23
BRANCH  22  31
HETATM   31  N   UNL     1      -7.384   8.498  71.003  1.00  0.00    -0.065 NA 
HETATM   32  H   UNL     1      -6.651   8.106  70.413  1.00  0.00     0.000 HD 
BRANCH  31  33
HETATM   33  O   UNL     1      -7.745   9.827  70.780  1.00  0.00    -0.308 OA 
HETATM   34  C   UNL     1      -7.417  10.448  69.559  1.00  0.00    -0.148 C  
ENDBRANCH  31  33
ENDBRANCH  22  31
ENDBRANCH  19  22
ENDBRANCH   8  18
TORSDOF 8
ENDMDL
MODEL      211
REMARK 921   NORMALIZED FREE ENERGY PREDICTED BY IDOCK:   -4.02 KCAL/MOL
REMARK 922        TOTAL FREE ENERGY PREDICTED BY IDOCK:   -7.05 KCAL/MOL
REMARK 923 INTER-LIGAND FREE ENERGY PREDICTED BY IDOCK:   -5.88 KCAL/MOL
REMARK 924 INTRA-LIGAND FREE ENERGY PREDICTED BY IDOCK:   -1.17 KCAL/MOL
REMARK 927      BINDING AFFINITY PREDICTED BY RF-SCORE:    0.00 PKD
ROOT
HETATM    1  C   UNL     1      -7.645   9.960  67.607  1.00  0.00    -0.091 C  
HETATM    2  S   UNL     1      -7.979  10.157  69.336  1.00  0.00    -0.165 SA 
HETATM    3  C   UNL     1      -8.350   8.466  69.891  1.00  0.00    -0.124 C  
HETATM    4  C   UNL     1      -8.270   7.348  68.890  1.00  0.00    -0.129 C  
HETATM    5  C   UNL     1      -8.173   9.226  65.752  1.00  0.00    -0.117 C  
HETATM    6  CA  UNL     1      -8.051   7.495  67.557  1.00  0.00    -0.113 C  
HETATM    7  N   UNL     1      -7.998   8.715  66.986  1.00  0.00    -0.096 N  
HETATM    8  CA  UNL     1      -8.361  10.647  66.369  1.00  0.00    -0.151 C  
HETATM    9  C   UNL     1      -7.888   6.274  66.706  1.00  0.00    -0.104 C  
HETATM   10  O   UNL     1      -8.425   8.716  64.684  1.00  0.00    -0.171 OA 
HETATM   11  O   UNL     1      -8.357   6.305  65.455  1.00  0.00    -0.139 OA 
HETATM   12  OXT UNL     1      -7.278   5.291  67.107  1.00  0.00    -0.075 OA 
ENDROOT
BRANCH   4  13
HETATM   13  C   UNL     1      -8.626   6.000  69.521  1.00  0.00    -0.119 C  
BRANCH  13  14
HETATM   14  O   UNL     1      -7.809   5.711  70.666  1.00  0.00    -0.095 OA 
BRANCH  14  15
HETATM   15  C   UNL     1      -8.178   4.656  71.449  1.00  0.00    -0.102 C  
HETATM   16  C   UNL     1      -8.949   5.114  72.657  1.00  0.00    -0.129 C  
HETATM   17  O   UNL     1      -7.973   3.478  71.188  1.00  0.00    -0.057 OA 
ENDBRANCH  14  15
ENDBRANCH  13  14
ENDBRANCH   4  13
BRANCH   8  18
HETATM   18  N   UNL     1      -9.779  11.169  66.156  1.00  0.00    -0.210 N  
HETATM   19  C   UNL     1     -10.683  11.877  66.945  1.00  0.00    -0.246 C  
HETATM   20  H   UNL     1     -10.146  10.952  65.230  1.00  0.00     0.000 HD 
HETATM   21  O   UNL     1     -11.874  11.947  66.555  1.00  0.00    -0.579 OA 
BRANCH  19  22
HETATM   22  C   UNL     1     -10.319  12.679  68.193  1.00  0.00    -0.234 C  
BRANCH  22  23
HETATM   23  C   UNL     1     -11.341  13.126  69.161  1.00  0.00    -0.281 A  
HETATM   24  N   UNL     1     -12.062  12.260  69.992  1.00  0.00    -0.303 NA 
HETATM   25  H2  UNL     1     -13.676  12.922  72.735  1.00  0.00     0.000 HD 
HETATM   26  N   UNL     1     -13.310  12.348  71.975  1.00  0.00    -0.486 NA 
HETATM   27  C   UNL     1     -11.363  14.449  69.575  1.00  0.00    -0.276 A  
HETATM   28  S   UNL     1     -12.295  14.614  70.995  1.00  0.00    -0.361 SA 
HETATM   29  H1  UNL     1     -13.489  11.344  71.970  1.00  0.00     0.000 HD 
HETATM   30  C   UNL     1     -12.595  12.923  70.986  1.00  0.00    -0.287 A  
ENDBRANCH  22  23
BRANCH  22  31
HETATM   31  N   UNL     1      -9.202  13.296  68.432  1.00  0.00    -0.303 NA 
HETATM   32  H   UNL     1      -8.890  13.345  69.402  1.00  0.00     0.000 HD 
BRANCH  31  33
HETATM   33  O   UNL     1      -8.396  13.898  67.466  1.00  0.00    -0.170 OA 
HETATM   34  C   UNL     1      -8.168  15.288  67.508  1.00  0.00    -0.173 C  
ENDBRANCH  31  33
ENDBRANCH  22  31
ENDBRANCH  19  22
ENDBRANCH   8  18
TORSDOF 8
ENDMDL
MODEL      212
REMARK 921   NORMALIZED FREE ENERGY PREDICTED BY IDOCK:   -4.01 KCAL/MOL
REMARK 922        TOTAL FREE ENERGY PREDICTED BY IDOCK:   -7.05 KCAL/MOL
REMARK 923 INTER-LIGAND FREE ENERGY PREDICTED BY IDOCK:   -6.36 KCAL/MOL
REMARK 924 INTRA-LIGAND FREE ENERGY PREDICTED BY IDOCK:   -0.68 KCAL/MOL
REMARK 927      BINDING AFFINITY PREDICTED BY RF-SCORE:    0.00 PKD
ROOT
HETATM    1  C   UNL     1     -11.536  11.185  67.820  1.00  0.00    -0.272 C  
HETATM    2  S   UNL     1     -11.803  11.885  69.427  1.00  0.00    -0.314 SA 
HETATM    3  C   UNL     1     -11.906  13.670  69.099  1.00  0.00    -0.348 C  
HETATM    4  C   UNL     1     -11.796  14.146  67.678  1.00  0.00    -0.427 C  
HETATM    5  C   UNL     1     -10.506  11.144  66.032  1.00  0.00    -0.256 C  
HETATM    6  CA  UNL     1     -11.509  13.367  66.602  1.00  0.00    -0.344 C  
HETATM    7  N   UNL     1     -11.177  12.068  66.748  1.00  0.00    -0.305 N  
HETATM    8  CA  UNL     1     -10.337  10.274  67.318  1.00  0.00    -0.232 C  
HETATM    9  C   UNL     1     -11.543  13.971  65.233  1.00  0.00    -0.337 C  
HETATM   10  O   UNL     1      -9.975  11.178  64.946  1.00  0.00    -0.241 OA 
HETATM   11  O   UNL     1     -10.667  13.534  64.325  1.00  0.00    -0.403 OA 
HETATM   12  OXT UNL     1     -12.394  14.793  64.917  1.00  0.00    -0.357 OA 
ENDROOT
BRANCH   4  13
HETATM   13  C   UNL     1     -11.887  15.671  67.586  1.00  0.00     0.165 C  
BRANCH  13  14
HETATM   14  O   UNL     1     -10.589  16.284  67.531  1.00  0.00    -0.304 OA 
BRANCH  14  15
HETATM   15  C   UNL     1      -9.990  16.590  68.718  1.00  0.00    -0.255 C  
HETATM   16  C   UNL     1      -8.491  16.528  68.607  1.00  0.00    -0.243 C  
HETATM   17  O   UNL     1     -10.575  16.934  69.736  1.00  0.00    -0.265 OA 
ENDBRANCH  14  15
ENDBRANCH  13  14
ENDBRANCH   4  13
BRANCH   8  18
HETATM   18  N   UNL     1      -8.875  10.170  67.737  1.00  0.00    -0.125 N  
HETATM   19  C   UNL     1      -8.214   9.618  68.832  1.00  0.00    -0.110 C  
HETATM   20  H   UNL     1      -8.238  10.598  67.065  1.00  0.00     0.000 HD 
HETATM   21  O   UNL     1      -7.006   9.911  68.999  1.00  0.00    -0.056 OA 
BRANCH  19  22
HETATM   22  C   UNL     1      -8.810   8.586  69.789  1.00  0.00    -0.137 C  
BRANCH  22  23
HETATM   23  C   UNL     1      -8.120   8.179  71.029  1.00  0.00    -0.100 A  
HETATM   24  N   UNL     1      -8.769   7.972  72.253  1.00  0.00    -0.147 NA 
HETATM   25  H2  UNL     1      -7.761   6.298  74.850  1.00  0.00     0.000 HD 
HETATM   26  N   UNL     1      -8.391   6.870  74.288  1.00  0.00    -0.135 NA 
HETATM   27  C   UNL     1      -6.860   7.604  70.957  1.00  0.00    -0.049 A  
HETATM   28  S   UNL     1      -6.481   6.816  72.423  1.00  0.00    -0.058 SA 
HETATM   29  H1  UNL     1      -9.301   7.138  74.663  1.00  0.00     0.000 HD 
HETATM   30  C   UNL     1      -8.013   7.266  73.054  1.00  0.00    -0.098 A  
ENDBRANCH  22  23
BRANCH  22  31
HETATM   31  N   UNL     1      -9.781   7.759  69.546  1.00  0.00    -0.164 NA 
HETATM   32  H   UNL     1     -10.721   8.146  69.468  1.00  0.00     0.000 HD 
BRANCH  31  33
HETATM   33  O   UNL     1      -9.637   6.381  69.384  1.00  0.00    -0.142 OA 
HETATM   34  C   UNL     1     -10.478   5.500  70.092  1.00  0.00    -0.300 C  
ENDBRANCH  31  33
ENDBRANCH  22  31
ENDBRANCH  19  22
ENDBRANCH   8  18
TORSDOF 8
ENDMDL
MODEL      213
REMARK 921   NORMALIZED FREE ENERGY PREDICTED BY IDOCK:   -4.00 KCAL/MOL
REMARK 922        TOTAL FREE ENERGY PREDICTED BY IDOCK:   -7.03 KCAL/MOL
REMARK 923 INTER-LIGAND FREE ENERGY PREDICTED BY IDOCK:   -5.97 KCAL/MOL
REMARK 924 INTRA-LIGAND FREE ENERGY PREDICTED BY IDOCK:   -1.05 KCAL/MOL
REMARK 927      BINDING AFFINITY PREDICTED BY RF-SCORE:    0.00 PKD
ROOT
HETATM    1  C   UNL     1      -8.714  10.721  68.678  1.00  0.00    -0.152 C  
HETATM    2  S   UNL     1     -10.291  10.026  69.092  1.00  0.00    -0.231 SA 
HETATM    3  C   UNL     1      -9.897   8.302  69.513  1.00  0.00    -0.181 C  
HETATM    4  C   UNL     1      -8.461   7.864  69.471  1.00  0.00    -0.133 C  
HETATM    5  C   UNL     1      -6.937  10.636  67.632  1.00  0.00    -0.079 C  
HETATM    6  CA  UNL     1      -7.417   8.615  69.031  1.00  0.00    -0.089 C  
HETATM    7  N   UNL     1      -7.613   9.825  68.470  1.00  0.00    -0.079 N  
HETATM    8  CA  UNL     1      -8.255  11.415  67.326  1.00  0.00    -0.150 C  
HETATM    9  C   UNL     1      -6.026   8.075  69.154  1.00  0.00    -0.038 C  
HETATM   10  O   UNL     1      -5.855  10.543  67.100  1.00  0.00    -0.048 OA 
HETATM   11  O   UNL     1      -5.141   8.376  68.200  1.00  0.00    -0.032 OA 
HETATM   12  OXT UNL     1      -5.673   7.433  70.135  1.00  0.00    -0.023 OA 
ENDROOT
BRANCH   4  13
HETATM   13  C   UNL     1      -8.312   6.385  69.837  1.00  0.00    -0.130 C  
BRANCH  13  14
HETATM   14  O   UNL     1      -8.322   5.541  68.674  1.00  0.00    -0.101 OA 
BRANCH  14  15
HETATM   15  C   UNL     1      -8.357   4.193  68.879  1.00  0.00    -0.078 C  
HETATM   16  C   UNL     1      -7.949   3.440  67.643  1.00  0.00    -0.080 C  
HETATM   17  O   UNL     1      -8.623   3.648  69.942  1.00  0.00    -0.058 OA 
ENDBRANCH  14  15
ENDBRANCH  13  14
ENDBRANCH   4  13
BRANCH   8  18
HETATM   18  N   UNL     1      -8.689  11.236  65.875  1.00  0.00    -0.292 N  
HETATM   19  C   UNL     1      -9.848  11.539  65.163  1.00  0.00    -0.257 C  
HETATM   20  H   UNL     1      -7.972  10.798  65.298  1.00  0.00     0.000 HD 
HETATM   21  O   UNL     1      -9.981  11.042  64.019  1.00  0.00    -0.274 OA 
BRANCH  19  22
HETATM   22  C   UNL     1     -10.923  12.526  65.614  1.00  0.00    -0.288 C  
BRANCH  22  23
HETATM   23  C   UNL     1     -10.590  13.765  66.346  1.00  0.00    -0.284 A  
HETATM   24  N   UNL     1     -10.692  13.903  67.735  1.00  0.00    -0.244 NA 
HETATM   25  H2  UNL     1      -9.277  16.082  69.689  1.00  0.00     0.000 HD 
HETATM   26  N   UNL     1      -9.862  15.284  69.439  1.00  0.00    -0.258 NA 
HETATM   27  C   UNL     1      -9.791  14.725  65.744  1.00  0.00    -0.342 A  
HETATM   28  S   UNL     1      -9.178  15.808  66.912  1.00  0.00    -0.246 SA 
HETATM   29  H1  UNL     1     -10.345  14.762  70.170  1.00  0.00     0.000 HD 
HETATM   30  C   UNL     1      -9.991  14.929  68.143  1.00  0.00    -0.222 A  
ENDBRANCH  22  23
BRANCH  22  31
HETATM   31  N   UNL     1     -12.202  12.316  65.686  1.00  0.00    -0.597 NA 
HETATM   32  H   UNL     1     -12.585  12.050  66.592  1.00  0.00     0.000 HD 
BRANCH  31  33
HETATM   33  O   UNL     1     -13.094  12.427  64.619  1.00  0.00    -0.825 OA 
HETATM   34  C   UNL     1     -12.648  12.933  63.382  1.00  0.00    -0.166 C  
ENDBRANCH  31  33
ENDBRANCH  22  31
ENDBRANCH  19  22
ENDBRANCH   8  18
TORSDOF 8
ENDMDL
MODEL      214
REMARK 921   NORMALIZED FREE ENERGY PREDICTED BY IDOCK:   -3.98 KCAL/MOL
REMARK 922        TOTAL FREE ENERGY PREDICTED BY IDOCK:   -7.00 KCAL/MOL
REMARK 923 INTER-LIGAND FREE ENERGY PREDICTED BY IDOCK:   -6.20 KCAL/MOL
REMARK 924 INTRA-LIGAND FREE ENERGY PREDICTED BY IDOCK:   -0.80 KCAL/MOL
REMARK 927      BINDING AFFINITY PREDICTED BY RF-SCORE:    0.00 PKD
ROOT
HETATM    1  C   UNL     1      -9.185   9.182  69.656  1.00  0.00    -0.168 C  
HETATM    2  S   UNL     1      -9.209   9.049  71.423  1.00  0.00    -0.155 SA 
HETATM    3  C   UNL     1     -10.018   7.447  71.716  1.00  0.00    -0.171 C  
HETATM    4  C   UNL     1     -10.427   6.622  70.529  1.00  0.00    -0.240 C  
HETATM    5  C   UNL     1     -10.158   9.086  67.838  1.00  0.00    -0.197 C  
HETATM    6  CA  UNL     1     -10.351   7.013  69.230  1.00  0.00    -0.200 C  
HETATM    7  N   UNL     1      -9.992   8.269  68.897  1.00  0.00    -0.181 N  
HETATM    8  CA  UNL     1      -9.805  10.315  68.733  1.00  0.00    -0.180 C  
HETATM    9  C   UNL     1     -10.696   6.034  68.152  1.00  0.00    -0.278 C  
HETATM   10  O   UNL     1     -10.696   8.935  66.765  1.00  0.00    -0.198 OA 
HETATM   11  O   UNL     1     -11.292   6.489  67.046  1.00  0.00    -0.342 OA 
HETATM   12  OXT UNL     1     -10.380   4.853  68.235  1.00  0.00    -0.079 OA 
ENDROOT
BRANCH   4  13
HETATM   13  C   UNL     1     -11.105   5.318  70.957  1.00  0.00     0.163 C  
BRANCH  13  14
HETATM   14  O   UNL     1     -11.064   5.134  72.381  1.00  0.00    -0.216 OA 
BRANCH  14  15
HETATM   15  C   UNL     1     -10.615   3.932  72.844  1.00  0.00    -0.149 C  
HETATM   16  C   UNL     1      -9.207   3.661  72.390  1.00  0.00    -0.158 C  
HETATM   17  O   UNL     1     -11.238   3.184  73.586  1.00  0.00    -0.226 OA 
ENDBRANCH  14  15
ENDBRANCH  13  14
ENDBRANCH   4  13
BRANCH   8  18
HETATM   18  N   UNL     1     -11.000  11.247  68.905  1.00  0.00    -0.208 N  
HETATM   19  C   UNL     1     -11.153  12.630  68.966  1.00  0.00    -0.238 C  
HETATM   20  H   UNL     1     -11.883  10.746  68.995  1.00  0.00     0.000 HD 
HETATM   21  O   UNL     1     -12.256  13.083  69.357  1.00  0.00    -0.237 OA 
BRANCH  19  22
HETATM   22  C   UNL     1     -10.124  13.650  68.482  1.00  0.00    -0.219 C  
BRANCH  22  23
HETATM   23  C   UNL     1     -10.495  14.781  67.609  1.00  0.00    -0.254 A  
HETATM   24  N   UNL     1     -10.406  16.126  67.991  1.00  0.00    -0.263 NA 
HETATM   25  H2  UNL     1     -10.300  18.785  66.125  1.00  0.00     0.000 HD 
HETATM   26  N   UNL     1     -10.306  18.243  66.989  1.00  0.00    -0.374 NA 
HETATM   27  C   UNL     1     -10.578  14.592  66.238  1.00  0.00    -0.306 A  
HETATM   28  S   UNL     1     -10.560  16.094  65.427  1.00  0.00    -0.324 SA 
HETATM   29  H1  UNL     1     -10.224  18.722  67.886  1.00  0.00     0.000 HD 
HETATM   30  C   UNL     1     -10.422  16.900  66.937  1.00  0.00    -0.271 A  
ENDBRANCH  22  23
BRANCH  22  31
HETATM   31  N   UNL     1      -8.831  13.534  68.509  1.00  0.00    -0.325 NA 
HETATM   32  H   UNL     1      -8.418  12.751  68.004  1.00  0.00     0.000 HD 
BRANCH  31  33
HETATM   33  O   UNL     1      -7.963  14.399  69.175  1.00  0.00    -0.103 OA 
HETATM   34  C   UNL     1      -6.906  15.012  68.472  1.00  0.00    -0.102 C  
ENDBRANCH  31  33
ENDBRANCH  22  31
ENDBRANCH  19  22
ENDBRANCH   8  18
TORSDOF 8
ENDMDL
MODEL      215
REMARK 921   NORMALIZED FREE ENERGY PREDICTED BY IDOCK:   -3.96 KCAL/MOL
REMARK 922        TOTAL FREE ENERGY PREDICTED BY IDOCK:   -6.96 KCAL/MOL
REMARK 923 INTER-LIGAND FREE ENERGY PREDICTED BY IDOCK:   -4.88 KCAL/MOL
REMARK 924 INTRA-LIGAND FREE ENERGY PREDICTED BY IDOCK:   -2.08 KCAL/MOL
REMARK 927      BINDING AFFINITY PREDICTED BY RF-SCORE:    0.00 PKD
ROOT
HETATM    1  C   UNL     1     -10.794   6.657  71.488  1.00  0.00    -0.239 C  
HETATM    2  S   UNL     1     -10.550   8.376  71.841  1.00  0.00    -0.327 SA 
HETATM    3  C   UNL     1     -10.292   9.114  70.199  1.00  0.00    -0.213 C  
HETATM    4  C   UNL     1     -10.366   8.222  68.992  1.00  0.00    -0.233 C  
HETATM    5  C   UNL     1     -10.194   4.917  70.553  1.00  0.00    -0.218 C  
HETATM    6  CA  UNL     1     -10.501   6.869  69.015  1.00  0.00    -0.208 C  
HETATM    7  N   UNL     1     -10.463   6.182  70.174  1.00  0.00    -0.212 N  
HETATM    8  CA  UNL     1      -9.976   5.405  72.020  1.00  0.00    -0.184 C  
HETATM    9  C   UNL     1     -10.671   6.131  67.724  1.00  0.00    -0.303 C  
HETATM   10  O   UNL     1      -9.905   3.921  69.931  1.00  0.00    -0.199 OA 
HETATM   11  O   UNL     1     -10.130   4.915  67.612  1.00  0.00    -0.162 OA 
HETATM   12  OXT UNL     1     -11.348   6.586  66.811  1.00  0.00    -0.272 OA 
ENDROOT
BRANCH   4  13
HETATM   13  C   UNL     1     -10.110   9.000  67.700  1.00  0.00    -0.216 C  
BRANCH  13  14
HETATM   14  O   UNL     1     -10.996  10.122  67.565  1.00  0.00    -0.298 OA 
BRANCH  14  15
HETATM   15  C   UNL     1     -10.435  11.334  67.289  1.00  0.00    -0.214 C  
HETATM   16  C   UNL     1     -11.467  12.429  67.286  1.00  0.00    -0.421 C  
HETATM   17  O   UNL     1      -9.239  11.537  67.124  1.00  0.00    -0.165 OA 
ENDBRANCH  14  15
ENDBRANCH  13  14
ENDBRANCH   4  13
BRANCH   8  18
HETATM   18  N   UNL     1      -8.526   5.231  72.459  1.00  0.00    -0.118 N  
HETATM   19  C   UNL     1      -7.303   5.212  71.792  1.00  0.00    -0.085 C  
HETATM   20  H   UNL     1      -8.430   5.100  73.466  1.00  0.00     0.000 HD 
HETATM   21  O   UNL     1      -6.296   4.805  72.420  1.00  0.00    -0.030 OA 
BRANCH  19  22
HETATM   22  C   UNL     1      -7.061   5.759  70.386  1.00  0.00    -0.070 C  
BRANCH  22  23
HETATM   23  C   UNL     1      -6.700   7.171  70.147  1.00  0.00    -0.051 A  
HETATM   24  N   UNL     1      -6.617   7.752  68.876  1.00  0.00    -0.047 NA 
HETATM   25  H2  UNL     1      -6.710  10.894  68.049  1.00  0.00     0.000 HD 
HETATM   26  N   UNL     1      -6.647   9.886  67.905  1.00  0.00    -0.063 NA 
HETATM   27  C   UNL     1      -6.804   8.091  71.180  1.00  0.00    -0.046 A  
HETATM   28  S   UNL     1      -6.786   9.682  70.564  1.00  0.00    -0.122 SA 
HETATM   29  H1  UNL     1      -6.572   9.515  66.958  1.00  0.00     0.000 HD 
HETATM   30  C   UNL     1      -6.661   9.056  68.969  1.00  0.00    -0.048 A  
ENDBRANCH  22  23
BRANCH  22  31
HETATM   31  N   UNL     1      -7.393   5.205  69.260  1.00  0.00    -0.057 NA 
HETATM   32  H   UNL     1      -8.104   5.671  68.697  1.00  0.00     0.000 HD 
BRANCH  31  33
HETATM   33  O   UNL     1      -6.852   4.021  68.759  1.00  0.00    -0.045 OA 
HETATM   34  C   UNL     1      -5.471   3.771  68.886  1.00  0.00    -0.013 C  
ENDBRANCH  31  33
ENDBRANCH  22  31
ENDBRANCH  19  22
ENDBRANCH   8  18
TORSDOF 8
ENDMDL
MODEL      216
REMARK 921   NORMALIZED FREE ENERGY PREDICTED BY IDOCK:   -3.95 KCAL/MOL
REMARK 922        TOTAL FREE ENERGY PREDICTED BY IDOCK:   -6.95 KCAL/MOL
REMARK 923 INTER-LIGAND FREE ENERGY PREDICTED BY IDOCK:   -6.58 KCAL/MOL
REMARK 924 INTRA-LIGAND FREE ENERGY PREDICTED BY IDOCK:   -0.36 KCAL/MOL
REMARK 927      BINDING AFFINITY PREDICTED BY RF-SCORE:    0.00 PKD
ROOT
HETATM    1  C   UNL     1     -11.845  12.035  68.758  1.00  0.00    -0.302 C  
HETATM    2  S   UNL     1     -11.955  10.746  69.970  1.00  0.00    -0.366 SA 
HETATM    3  C   UNL     1     -12.627  11.595  71.431  1.00  0.00    -0.286 C  
HETATM    4  C   UNL     1     -12.959  13.056  71.323  1.00  0.00    -0.330 C  
HETATM    5  C   UNL     1     -11.248  13.933  68.209  1.00  0.00    -0.272 C  
HETATM    6  CA  UNL     1     -12.697  13.850  70.251  1.00  0.00    -0.182 C  
HETATM    7  N   UNL     1     -11.986  13.393  69.200  1.00  0.00    -0.327 N  
HETATM    8  CA  UNL     1     -10.572  12.548  67.962  1.00  0.00    -0.223 C  
HETATM    9  C   UNL     1     -13.188  15.263  70.252  1.00  0.00    -0.016 C  
HETATM   10  O   UNL     1     -10.990  15.077  67.912  1.00  0.00    -0.272 OA 
HETATM   11  O   UNL     1     -12.437  16.198  69.663  1.00  0.00    -0.083 OA 
HETATM   12  OXT UNL     1     -14.284  15.560  70.711  1.00  0.00    -0.334 OA 
ENDROOT
BRANCH   4  13
HETATM   13  C   UNL     1     -13.496  13.611  72.644  1.00  0.00    -0.498 C  
BRANCH  13  14
HETATM   14  O   UNL     1     -12.440  14.074  73.500  1.00  0.00    -0.137 OA 
BRANCH  14  15
HETATM   15  C   UNL     1     -12.111  15.396  73.431  1.00  0.00    -0.491 C  
HETATM   16  C   UNL     1     -12.723  16.173  74.564  1.00  0.00    -0.378 C  
HETATM   17  O   UNL     1     -11.364  15.895  72.599  1.00  0.00    -0.236 OA 
ENDBRANCH  14  15
ENDBRANCH  13  14
ENDBRANCH   4  13
BRANCH   8  18
HETATM   18  N   UNL     1      -9.086  12.580  68.302  1.00  0.00    -0.242 N  
HETATM   19  C   UNL     1      -8.135  11.605  68.598  1.00  0.00    -0.121 C  
HETATM   20  H   UNL     1      -8.702  13.525  68.316  1.00  0.00     0.000 HD 
HETATM   21  O   UNL     1      -7.036  11.981  69.072  1.00  0.00    -0.102 OA 
BRANCH  19  22
HETATM   22  C   UNL     1      -8.275  10.117  68.281  1.00  0.00    -0.110 C  
BRANCH  22  23
HETATM   23  C   UNL     1      -7.985   9.573  66.940  1.00  0.00    -0.109 A  
HETATM   24  N   UNL     1      -7.793   8.211  66.673  1.00  0.00    -0.093 NA 
HETATM   25  H2  UNL     1      -8.002   6.626  63.844  1.00  0.00     0.000 HD 
HETATM   26  N   UNL     1      -7.854   6.744  64.846  1.00  0.00    -0.113 NA 
HETATM   27  C   UNL     1      -8.272  10.330  65.814  1.00  0.00    -0.147 A  
HETATM   28  S   UNL     1      -8.290   9.343  64.421  1.00  0.00    -0.179 SA 
HETATM   29  H1  UNL     1      -7.644   5.930  65.424  1.00  0.00     0.000 HD 
HETATM   30  C   UNL     1      -7.936   7.974  65.395  1.00  0.00    -0.121 A  
ENDBRANCH  22  23
BRANCH  22  31
HETATM   31  N   UNL     1      -8.897   9.220  68.983  1.00  0.00    -0.133 NA 
HETATM   32  H   UNL     1      -8.637   9.128  69.965  1.00  0.00     0.000 HD 
BRANCH  31  33
HETATM   33  O   UNL     1      -9.892   8.372  68.499  1.00  0.00    -0.164 OA 
HETATM   34  C   UNL     1     -10.442   7.383  69.340  1.00  0.00    -0.217 C  
ENDBRANCH  31  33
ENDBRANCH  22  31
ENDBRANCH  19  22
ENDBRANCH   8  18
TORSDOF 8
ENDMDL
MODEL      217
REMARK 921   NORMALIZED FREE ENERGY PREDICTED BY IDOCK:   -3.94 KCAL/MOL
REMARK 922        TOTAL FREE ENERGY PREDICTED BY IDOCK:   -6.94 KCAL/MOL
REMARK 923 INTER-LIGAND FREE ENERGY PREDICTED BY IDOCK:   -6.80 KCAL/MOL
REMARK 924 INTRA-LIGAND FREE ENERGY PREDICTED BY IDOCK:   -0.14 KCAL/MOL
REMARK 927      BINDING AFFINITY PREDICTED BY RF-SCORE:    0.00 PKD
ROOT
HETATM    1  C   UNL     1     -10.051  16.276  65.970  1.00  0.00    -0.356 C  
HETATM    2  S   UNL     1     -11.145  17.485  66.666  1.00  0.00     0.634 SA 
HETATM    3  C   UNL     1     -11.115  17.109  68.444  1.00  0.00    -0.107 C  
HETATM    4  C   UNL     1     -10.233  15.992  68.927  1.00  0.00    -0.231 C  
HETATM    5  C   UNL     1      -9.440  14.314  65.774  1.00  0.00    -0.063 C  
HETATM    6  CA  UNL     1      -9.525  15.144  68.135  1.00  0.00    -0.201 C  
HETATM    7  N   UNL     1      -9.653  15.170  66.793  1.00  0.00    -0.234 N  
HETATM    8  CA  UNL     1     -10.350  15.188  64.854  1.00  0.00    -0.259 C  
HETATM    9  C   UNL     1      -8.605  14.150  68.771  1.00  0.00    -0.067 C  
HETATM   10  O   UNL     1      -9.015  13.183  65.732  1.00  0.00     0.301 OA 
HETATM   11  O   UNL     1      -8.466  12.953  68.193  1.00  0.00    -0.164 OA 
HETATM   12  OXT UNL     1      -7.932  14.437  69.753  1.00  0.00     0.206 OA 
ENDROOT
BRANCH   4  13
HETATM   13  C   UNL     1     -10.343  15.803  70.442  1.00  0.00    -0.044 C  
BRANCH  13  14
HETATM   14  O   UNL     1     -11.510  16.445  70.980  1.00  0.00    -0.388 OA 
BRANCH  14  15
HETATM   15  C   UNL     1     -11.988  15.980  72.170  1.00  0.00    -0.538 C  
HETATM   16  C   UNL     1     -12.593  14.611  72.020  1.00  0.00    -0.408 C  
HETATM   17  O   UNL     1     -11.891  16.559  73.244  1.00  0.00    -0.448 OA 
ENDBRANCH  14  15
ENDBRANCH  13  14
ENDBRANCH   4  13
BRANCH   8  18
HETATM   18  N   UNL     1     -11.619  14.444  64.451  1.00  0.00    -0.587 N  
HETATM   19  C   UNL     1     -12.035  13.117  64.529  1.00  0.00    -0.389 C  
HETATM   20  H   UNL     1     -12.319  15.055  64.030  1.00  0.00     0.000 HD 
HETATM   21  O   UNL     1     -13.057  12.782  63.884  1.00  0.00    -0.572 OA 
BRANCH  19  22
HETATM   22  C   UNL     1     -11.414  12.055  65.435  1.00  0.00    -0.305 C  
BRANCH  22  23
HETATM   23  C   UNL     1     -10.653  10.912  64.892  1.00  0.00    -0.234 A  
HETATM   24  N   UNL     1     -10.183  10.841  63.575  1.00  0.00    -0.312 NA 
HETATM   25  H2  UNL     1      -7.829   8.974  62.335  1.00  0.00     0.000 HD 
HETATM   26  N   UNL     1      -8.569   9.675  62.336  1.00  0.00    -0.180 NA 
HETATM   27  C   UNL     1     -10.027  10.029  65.759  1.00  0.00    -0.276 A  
HETATM   28  S   UNL     1      -8.862   9.100  64.926  1.00  0.00    -0.136 SA 
HETATM   29  H1  UNL     1      -8.795  10.172  61.474  1.00  0.00     0.000 HD 
HETATM   30  C   UNL     1      -9.243   9.937  63.476  1.00  0.00    -0.238 A  
ENDBRANCH  22  23
BRANCH  22  31
HETATM   31  N   UNL     1     -11.680  11.837  66.687  1.00  0.00    -0.554 NA 
HETATM   32  H   UNL     1     -11.717  10.867  66.998  1.00  0.00     0.000 HD 
BRANCH  31  33
HETATM   33  O   UNL     1     -11.919  12.828  67.639  1.00  0.00    -0.354 OA 
HETATM   34  C   UNL     1     -11.909  12.501  69.010  1.00  0.00    -0.296 C  
ENDBRANCH  31  33
ENDBRANCH  22  31
ENDBRANCH  19  22
ENDBRANCH   8  18
TORSDOF 8
ENDMDL
MODEL      218
REMARK 921   NORMALIZED FREE ENERGY PREDICTED BY IDOCK:   -3.94 KCAL/MOL
REMARK 922        TOTAL FREE ENERGY PREDICTED BY IDOCK:   -6.94 KCAL/MOL
REMARK 923 INTER-LIGAND FREE ENERGY PREDICTED BY IDOCK:   -6.31 KCAL/MOL
REMARK 924 INTRA-LIGAND FREE ENERGY PREDICTED BY IDOCK:   -0.63 KCAL/MOL
REMARK 927      BINDING AFFINITY PREDICTED BY RF-SCORE:    0.00 PKD
ROOT
HETATM    1  C   UNL     1      -8.198  14.688  67.931  1.00  0.00    -0.150 C  
HETATM    2  S   UNL     1      -6.604  15.365  68.309  1.00  0.00    -0.132 SA 
HETATM    3  C   UNL     1      -6.531  16.870  67.291  1.00  0.00    -0.168 C  
HETATM    4  C   UNL     1      -7.724  17.226  66.450  1.00  0.00    -0.347 C  
HETATM    5  C   UNL     1      -9.610  14.091  66.549  1.00  0.00    -0.293 C  
HETATM    6  CA  UNL     1      -8.834  16.458  66.286  1.00  0.00    -0.332 C  
HETATM    7  N   UNL     1      -8.905  15.213  66.798  1.00  0.00    -0.254 N  
HETATM    8  CA  UNL     1      -8.559  13.257  67.347  1.00  0.00    -0.204 C  
HETATM    9  C   UNL     1      -9.987  17.001  65.501  1.00  0.00     0.068 C  
HETATM   10  O   UNL     1     -10.478  13.833  65.747  1.00  0.00    -0.284 OA 
HETATM   11  O   UNL     1     -10.706  16.154  64.760  1.00  0.00    -0.648 OA 
HETATM   12  OXT UNL     1     -10.321  18.176  65.584  1.00  0.00    -0.603 OA 
ENDROOT
BRANCH   4  13
HETATM   13  C   UNL     1      -7.487  18.508  65.648  1.00  0.00     0.022 C  
BRANCH  13  14
HETATM   14  O   UNL     1      -7.745  19.685  66.430  1.00  0.00    -0.266 OA 
BRANCH  14  15
HETATM   15  C   UNL     1      -6.690  20.241  67.092  1.00  0.00    -0.237 C  
HETATM   16  C   UNL     1      -6.858  20.130  68.583  1.00  0.00    -0.301 C  
HETATM   17  O   UNL     1      -5.697  20.719  66.561  1.00  0.00    -0.176 OA 
ENDBRANCH  14  15
ENDBRANCH  13  14
ENDBRANCH   4  13
BRANCH   8  18
HETATM   18  N   UNL     1      -7.803  12.292  66.441  1.00  0.00    -0.312 N  
HETATM   19  C   UNL     1      -7.532  10.926  66.486  1.00  0.00    -0.142 C  
HETATM   20  H   UNL     1      -7.407  12.747  65.619  1.00  0.00     0.000 HD 
HETATM   21  O   UNL     1      -6.669  10.470  65.697  1.00  0.00    -0.125 OA 
BRANCH  19  22
HETATM   22  C   UNL     1      -8.288   9.909  67.340  1.00  0.00    -0.118 C  
BRANCH  22  23
HETATM   23  C   UNL     1      -9.636  10.185  67.875  1.00  0.00    -0.148 A  
HETATM   24  N   UNL     1      -9.894  10.512  69.212  1.00  0.00    -0.218 NA 
HETATM   25  H2  UNL     1     -12.494  11.978  70.500  1.00  0.00     0.000 HD 
HETATM   26  N   UNL     1     -11.577  11.530  70.488  1.00  0.00    -0.464 NA 
HETATM   27  C   UNL     1     -10.665  10.519  67.007  1.00  0.00    -0.250 A  
HETATM   28  S   UNL     1     -11.960  11.228  67.864  1.00  0.00     0.214 SA 
HETATM   29  H1  UNL     1     -11.050  11.435  71.356  1.00  0.00     0.000 HD 
HETATM   30  C   UNL     1     -11.073  11.068  69.325  1.00  0.00    -0.254 A  
ENDBRANCH  22  23
BRANCH  22  31
HETATM   31  N   UNL     1      -7.800   8.859  67.928  1.00  0.00    -0.101 NA 
HETATM   32  H   UNL     1      -8.432   8.077  68.094  1.00  0.00     0.000 HD 
BRANCH  31  33
HETATM   33  O   UNL     1      -6.478   8.719  68.349  1.00  0.00    -0.054 OA 
HETATM   34  C   UNL     1      -6.051   7.508  68.929  1.00  0.00    -0.031 C  
ENDBRANCH  31  33
ENDBRANCH  22  31
ENDBRANCH  19  22
ENDBRANCH   8  18
TORSDOF 8
ENDMDL
MODEL      219
REMARK 921   NORMALIZED FREE ENERGY PREDICTED BY IDOCK:   -3.93 KCAL/MOL
REMARK 922        TOTAL FREE ENERGY PREDICTED BY IDOCK:   -6.93 KCAL/MOL
REMARK 923 INTER-LIGAND FREE ENERGY PREDICTED BY IDOCK:   -4.96 KCAL/MOL
REMARK 924 INTRA-LIGAND FREE ENERGY PREDICTED BY IDOCK:   -1.96 KCAL/MOL
REMARK 927      BINDING AFFINITY PREDICTED BY RF-SCORE:    0.00 PKD
ROOT
HETATM    1  C   UNL     1      -9.893   5.191  68.059  1.00  0.00    -0.151 C  
HETATM    2  S   UNL     1     -10.983   6.371  67.308  1.00  0.00    -0.347 SA 
HETATM    3  C   UNL     1      -9.863   7.700  66.772  1.00  0.00    -0.237 C  
HETATM    4  C   UNL     1      -8.389   7.536  67.010  1.00  0.00    -0.121 C  
HETATM    5  C   UNL     1      -8.369   4.745  69.376  1.00  0.00    -0.076 C  
HETATM    6  CA  UNL     1      -7.807   6.521  67.701  1.00  0.00    -0.110 C  
HETATM    7  N   UNL     1      -8.549   5.602  68.351  1.00  0.00    -0.111 N  
HETATM    8  CA  UNL     1      -9.916   4.615  69.537  1.00  0.00    -0.196 C  
HETATM    9  C   UNL     1      -6.314   6.438  67.758  1.00  0.00    -0.040 C  
HETATM   10  O   UNL     1      -7.412   4.493  70.072  1.00  0.00    -0.052 OA 
HETATM   11  O   UNL     1      -5.745   5.980  68.877  1.00  0.00    -0.011 OA 
HETATM   12  OXT UNL     1      -5.620   6.710  66.787  1.00  0.00    -0.013 OA 
ENDROOT
BRANCH   4  13
HETATM   13  C   UNL     1      -7.600   8.749  66.513  1.00  0.00    -0.095 C  
BRANCH  13  14
HETATM   14  O   UNL     1      -8.375   9.564  65.619  1.00  0.00    -0.119 OA 
BRANCH  14  15
HETATM   15  C   UNL     1      -7.736  10.083  64.532  1.00  0.00    -0.145 C  
HETATM   16  C   UNL     1      -8.704  10.391  63.422  1.00  0.00    -0.201 C  
HETATM   17  O   UNL     1      -6.539  10.334  64.470  1.00  0.00    -0.130 OA 
ENDBRANCH  14  15
ENDBRANCH  13  14
ENDBRANCH   4  13
BRANCH   8  18
HETATM   18  N   UNL     1     -10.394   5.195  70.864  1.00  0.00    -0.228 N  
HETATM   19  C   UNL     1     -10.408   6.474  71.417  1.00  0.00    -0.206 C  
HETATM   20  H   UNL     1     -10.792   4.491  71.484  1.00  0.00     0.000 HD 
HETATM   21  O   UNL     1     -10.656   6.582  72.642  1.00  0.00    -0.204 OA 
BRANCH  19  22
HETATM   22  C   UNL     1     -10.261   7.774  70.628  1.00  0.00    -0.199 C  
BRANCH  22  23
HETATM   23  C   UNL     1      -8.945   8.403  70.395  1.00  0.00    -0.148 A  
HETATM   24  N   UNL     1      -8.775   9.669  69.823  1.00  0.00    -0.191 NA 
HETATM   25  H2  UNL     1      -6.203  11.652  69.960  1.00  0.00     0.000 HD 
HETATM   26  N   UNL     1      -7.140  11.346  69.700  1.00  0.00    -0.333 NA 
HETATM   27  C   UNL     1      -7.833   7.944  71.085  1.00  0.00    -0.086 A  
HETATM   28  S   UNL     1      -6.569   9.089  71.006  1.00  0.00    -0.086 SA 
HETATM   29  H1  UNL     1      -7.739  11.963  69.152  1.00  0.00     0.000 HD 
HETATM   30  C   UNL     1      -7.578  10.128  70.083  1.00  0.00    -0.104 A  
ENDBRANCH  22  23
BRANCH  22  31
HETATM   31  N   UNL     1     -11.200   8.615  70.318  1.00  0.00    -0.366 NA 
HETATM   32  H   UNL     1     -11.083   9.155  69.462  1.00  0.00     0.000 HD 
BRANCH  31  33
HETATM   33  O   UNL     1     -12.356   8.837  71.066  1.00  0.00    -0.259 OA 
HETATM   34  C   UNL     1     -12.918  10.128  71.123  1.00  0.00    -0.395 C  
ENDBRANCH  31  33
ENDBRANCH  22  31
ENDBRANCH  19  22
ENDBRANCH   8  18
TORSDOF 8
ENDMDL
MODEL      220
REMARK 921   NORMALIZED FREE ENERGY PREDICTED BY IDOCK:   -3.92 KCAL/MOL
REMARK 922        TOTAL FREE ENERGY PREDICTED BY IDOCK:   -6.91 KCAL/MOL
REMARK 923 INTER-LIGAND FREE ENERGY PREDICTED BY IDOCK:   -6.40 KCAL/MOL
REMARK 924 INTRA-LIGAND FREE ENERGY PREDICTED BY IDOCK:   -0.50 KCAL/MOL
REMARK 927      BINDING AFFINITY PREDICTED BY RF-SCORE:    0.00 PKD
ROOT
HETATM    1  C   UNL     1      -8.591  11.628  68.405  1.00  0.00    -0.156 C  
HETATM    2  S   UNL     1     -10.269  11.142  68.707  1.00  0.00    -0.198 SA 
HETATM    3  C   UNL     1     -10.379   9.498  67.937  1.00  0.00    -0.227 C  
HETATM    4  C   UNL     1      -9.146   8.920  67.300  1.00  0.00    -0.153 C  
HETATM    5  C   UNL     1      -7.003  11.880  67.111  1.00  0.00    -0.142 C  
HETATM    6  CA  UNL     1      -7.961   9.566  67.140  1.00  0.00    -0.102 C  
HETATM    7  N   UNL     1      -7.827  10.870  67.455  1.00  0.00    -0.110 N  
HETATM    8  CA  UNL     1      -8.047  12.910  67.646  1.00  0.00    -0.167 C  
HETATM    9  C   UNL     1      -6.791   8.817  66.584  1.00  0.00    -0.072 C  
HETATM   10  O   UNL     1      -6.041  11.937  66.380  1.00  0.00    -0.134 OA 
HETATM   11  O   UNL     1      -5.930   9.473  65.802  1.00  0.00    -0.053 OA 
HETATM   12  OXT UNL     1      -6.575   7.650  66.888  1.00  0.00    -0.058 OA 
ENDROOT
BRANCH   4  13
HETATM   13  C   UNL     1      -9.421   7.544  66.690  1.00  0.00    -0.191 C  
BRANCH  13  14
HETATM   14  O   UNL     1     -10.210   6.718  67.561  1.00  0.00    -0.156 OA 
BRANCH  14  15
HETATM   15  C   UNL     1      -9.850   5.407  67.677  1.00  0.00    -0.150 C  
HETATM   16  C   UNL     1     -10.149   4.877  69.053  1.00  0.00    -0.210 C  
HETATM   17  O   UNL     1      -9.400   4.717  66.773  1.00  0.00    -0.129 OA 
ENDBRANCH  14  15
ENDBRANCH  13  14
ENDBRANCH   4  13
BRANCH   8  18
HETATM   18  N   UNL     1      -8.621  13.765  66.521  1.00  0.00    -0.427 N  
HETATM   19  C   UNL     1      -9.356  14.947  66.476  1.00  0.00    -0.282 C  
HETATM   20  H   UNL     1      -8.422  13.387  65.595  1.00  0.00     0.000 HD 
HETATM   21  O   UNL     1      -9.886  15.270  65.385  1.00  0.00    -0.332 OA 
BRANCH  19  22
HETATM   22  C   UNL     1      -9.476  15.951  67.622  1.00  0.00    -0.219 C  
BRANCH  22  23
HETATM   23  C   UNL     1      -9.350  17.406  67.403  1.00  0.00    -0.237 A  
HETATM   24  N   UNL     1      -8.306  18.001  66.685  1.00  0.00    -0.253 NA 
HETATM   25  H2  UNL     1      -8.177  20.945  65.313  1.00  0.00     0.000 HD 
HETATM   26  N   UNL     1      -7.846  20.018  65.581  1.00  0.00    -0.481 NA 
HETATM   27  C   UNL     1     -10.460  18.223  67.560  1.00  0.00    -0.411 A  
HETATM   28  S   UNL     1     -10.193  19.739  66.823  1.00  0.00    -0.497 SA 
HETATM   29  H1  UNL     1      -6.921  19.707  65.285  1.00  0.00     0.000 HD 
HETATM   30  C   UNL     1      -8.635  19.214  66.325  1.00  0.00    -0.296 A  
ENDBRANCH  22  23
BRANCH  22  31
HETATM   31  N   UNL     1      -9.415  15.701  68.894  1.00  0.00    -0.212 NA 
HETATM   32  H   UNL     1     -10.272  15.399  69.356  1.00  0.00     0.000 HD 
BRANCH  31  33
HETATM   33  O   UNL     1      -8.267  15.815  69.679  1.00  0.00    -0.193 OA 
HETATM   34  C   UNL     1      -7.009  15.489  69.134  1.00  0.00    -0.158 C  
ENDBRANCH  31  33
ENDBRANCH  22  31
ENDBRANCH  19  22
ENDBRANCH   8  18
TORSDOF 8
ENDMDL
MODEL      221
REMARK 921   NORMALIZED FREE ENERGY PREDICTED BY IDOCK:   -3.90 KCAL/MOL
REMARK 922        TOTAL FREE ENERGY PREDICTED BY IDOCK:   -6.89 KCAL/MOL
REMARK 923 INTER-LIGAND FREE ENERGY PREDICTED BY IDOCK:   -6.53 KCAL/MOL
REMARK 924 INTRA-LIGAND FREE ENERGY PREDICTED BY IDOCK:   -0.35 KCAL/MOL
REMARK 927      BINDING AFFINITY PREDICTED BY RF-SCORE:    0.00 PKD
ROOT
HETATM    1  C   UNL     1     -10.349  16.721  68.475  1.00  0.00    -0.316 C  
HETATM    2  S   UNL     1     -10.262  15.051  69.063  1.00  0.00    -0.247 SA 
HETATM    3  C   UNL     1      -8.515  14.856  69.527  1.00  0.00    -0.002 C  
HETATM    4  C   UNL     1      -7.596  16.034  69.375  1.00  0.00    -0.191 C  
HETATM    5  C   UNL     1      -9.627  18.239  67.277  1.00  0.00    -0.281 C  
HETATM    6  CA  UNL     1      -7.923  17.225  68.807  1.00  0.00    -0.250 C  
HETATM    7  N   UNL     1      -9.118  17.410  68.210  1.00  0.00    -0.264 N  
HETATM    8  CA  UNL     1     -10.818  17.255  67.057  1.00  0.00    -0.045 C  
HETATM    9  C   UNL     1      -6.927  18.342  68.828  1.00  0.00    -0.270 C  
HETATM   10  O   UNL     1      -9.150  19.159  66.654  1.00  0.00    -0.308 OA 
HETATM   11  O   UNL     1      -6.884  19.174  67.784  1.00  0.00    -0.214 OA 
HETATM   12  OXT UNL     1      -6.214  18.545  69.803  1.00  0.00    -0.253 OA 
ENDROOT
BRANCH   4  13
HETATM   13  C   UNL     1      -6.165  15.691  69.795  1.00  0.00    -0.166 C  
BRANCH  13  14
HETATM   14  O   UNL     1      -6.080  15.361  71.191  1.00  0.00     0.236 OA 
BRANCH  14  15
HETATM   15  C   UNL     1      -5.727  14.082  71.512  1.00  0.00    -0.225 C  
HETATM   16  C   UNL     1      -5.214  13.338  70.309  1.00  0.00    -0.104 C  
HETATM   17  O   UNL     1      -5.757  13.604  72.637  1.00  0.00    -0.441 OA 
ENDBRANCH  14  15
ENDBRANCH  13  14
ENDBRANCH   4  13
BRANCH   8  18
HETATM   18  N   UNL     1     -10.788  16.640  65.661  1.00  0.00    -0.210 N  
HETATM   19  C   UNL     1     -11.044  15.368  65.153  1.00  0.00    -0.394 C  
HETATM   20  H   UNL     1     -10.521  17.309  64.939  1.00  0.00     0.000 HD 
HETATM   21  O   UNL     1     -10.695  15.125  63.973  1.00  0.00     0.490 OA 
BRANCH  19  22
HETATM   22  C   UNL     1     -11.826  14.274  65.878  1.00  0.00    -0.380 C  
BRANCH  22  23
HETATM   23  C   UNL     1     -11.158  13.104  66.481  1.00  0.00    -0.294 A  
HETATM   24  N   UNL     1     -11.732  12.301  67.475  1.00  0.00    -0.459 NA 
HETATM   25  H2  UNL     1     -10.958   9.273  68.366  1.00  0.00     0.000 HD 
HETATM   26  N   UNL     1     -11.471  10.155  68.381  1.00  0.00    -0.552 NA 
HETATM   27  C   UNL     1     -10.092  12.507  65.824  1.00  0.00    -0.262 A  
HETATM   28  S   UNL     1      -9.800  10.949  66.456  1.00  0.00    -0.211 SA 
HETATM   29  H1  UNL     1     -12.250  10.275  69.028  1.00  0.00     0.000 HD 
HETATM   30  C   UNL     1     -11.112  11.152  67.545  1.00  0.00    -0.291 A  
ENDBRANCH  22  23
BRANCH  22  31
HETATM   31  N   UNL     1     -13.106  14.060  65.830  1.00  0.00    -0.540 NA 
HETATM   32  H   UNL     1     -13.709  14.693  66.354  1.00  0.00     0.000 HD 
BRANCH  31  33
HETATM   33  O   UNL     1     -13.720  13.031  65.117  1.00  0.00     0.077 OA 
HETATM   34  C   UNL     1     -13.018  12.375  64.086  1.00  0.00    -0.163 C  
ENDBRANCH  31  33
ENDBRANCH  22  31
ENDBRANCH  19  22
ENDBRANCH   8  18
TORSDOF 8
ENDMDL
MODEL      222
REMARK 921   NORMALIZED FREE ENERGY PREDICTED BY IDOCK:   -3.87 KCAL/MOL
REMARK 922        TOTAL FREE ENERGY PREDICTED BY IDOCK:   -6.84 KCAL/MOL
REMARK 923 INTER-LIGAND FREE ENERGY PREDICTED BY IDOCK:   -5.59 KCAL/MOL
REMARK 924 INTRA-LIGAND FREE ENERGY PREDICTED BY IDOCK:   -1.25 KCAL/MOL
REMARK 927      BINDING AFFINITY PREDICTED BY RF-SCORE:    0.00 PKD
ROOT
HETATM    1  C   UNL     1      -9.159   6.175  66.506  1.00  0.00    -0.148 C  
HETATM    2  S   UNL     1     -10.735   6.643  67.168  1.00  0.00    -0.399 SA 
HETATM    3  C   UNL     1     -10.764   8.448  66.956  1.00  0.00    -0.134 C  
HETATM    4  C   UNL     1      -9.589   9.112  66.295  1.00  0.00    -0.321 C  
HETATM    5  C   UNL     1      -7.113   6.421  66.405  1.00  0.00    -0.068 C  
HETATM    6  CA  UNL     1      -8.433   8.497  65.934  1.00  0.00    -0.152 C  
HETATM    7  N   UNL     1      -8.196   7.209  66.255  1.00  0.00    -0.117 N  
HETATM    8  CA  UNL     1      -7.970   5.400  67.216  1.00  0.00    -0.101 C  
HETATM    9  C   UNL     1      -7.396   9.273  65.184  1.00  0.00    -0.098 C  
HETATM   10  O   UNL     1      -5.928   6.625  66.267  1.00  0.00    -0.030 OA 
HETATM   11  O   UNL     1      -6.109   9.005  65.418  1.00  0.00    -0.060 OA 
HETATM   12  OXT UNL     1      -7.705  10.086  64.321  1.00  0.00    -0.136 OA 
ENDROOT
BRANCH   4  13
HETATM   13  C   UNL     1      -9.773  10.629  66.213  1.00  0.00    -0.199 C  
BRANCH  13  14
HETATM   14  O   UNL     1     -10.520  11.017  65.049  1.00  0.00    -0.290 OA 
BRANCH  14  15
HETATM   15  C   UNL     1     -11.340  12.101  65.163  1.00  0.00    -0.327 C  
HETATM   16  C   UNL     1     -12.396  12.104  64.092  1.00  0.00    -0.508 C  
HETATM   17  O   UNL     1     -11.280  12.941  66.051  1.00  0.00    -0.280 OA 
ENDBRANCH  14  15
ENDBRANCH  13  14
ENDBRANCH   4  13
BRANCH   8  18
HETATM   18  N   UNL     1      -7.517   5.315  68.670  1.00  0.00    -0.070 N  
HETATM   19  C   UNL     1      -7.476   6.218  69.730  1.00  0.00    -0.081 C  
HETATM   20  H   UNL     1      -7.165   4.392  68.922  1.00  0.00     0.000 HD 
HETATM   21  O   UNL     1      -6.817   5.900  70.749  1.00  0.00    -0.054 OA 
BRANCH  19  22
HETATM   22  C   UNL     1      -8.270   7.522  69.804  1.00  0.00    -0.128 C  
BRANCH  22  23
HETATM   23  C   UNL     1      -9.572   7.607  70.496  1.00  0.00    -0.167 A  
HETATM   24  N   UNL     1     -10.463   8.677  70.355  1.00  0.00    -0.202 NA 
HETATM   25  H2  UNL     1     -13.647   8.791  70.998  1.00  0.00     0.000 HD 
HETATM   26  N   UNL     1     -12.737   9.137  70.694  1.00  0.00    -0.475 NA 
HETATM   27  C   UNL     1     -10.151   6.458  71.014  1.00  0.00    -0.182 A  
HETATM   28  S   UNL     1     -11.807   6.719  71.337  1.00  0.00    -0.354 SA 
HETATM   29  H1  UNL     1     -12.650  10.093  70.348  1.00  0.00     0.000 HD 
HETATM   30  C   UNL     1     -11.659   8.328  70.754  1.00  0.00    -0.236 A  
ENDBRANCH  22  23
BRANCH  22  31
HETATM   31  N   UNL     1      -8.094   8.590  69.087  1.00  0.00    -0.115 NA 
HETATM   32  H   UNL     1      -8.905   8.966  68.598  1.00  0.00     0.000 HD 
BRANCH  31  33
HETATM   33  O   UNL     1      -6.882   9.263  68.936  1.00  0.00    -0.055 OA 
HETATM   34  C   UNL     1      -6.412  10.103  69.965  1.00  0.00    -0.106 C  
ENDBRANCH  31  33
ENDBRANCH  22  31
ENDBRANCH  19  22
ENDBRANCH   8  18
TORSDOF 8
ENDMDL
MODEL      223
REMARK 921   NORMALIZED FREE ENERGY PREDICTED BY IDOCK:   -3.86 KCAL/MOL
REMARK 922        TOTAL FREE ENERGY PREDICTED BY IDOCK:   -6.82 KCAL/MOL
REMARK 923 INTER-LIGAND FREE ENERGY PREDICTED BY IDOCK:   -5.77 KCAL/MOL
REMARK 924 INTRA-LIGAND FREE ENERGY PREDICTED BY IDOCK:   -1.05 KCAL/MOL
REMARK 927      BINDING AFFINITY PREDICTED BY RF-SCORE:    0.00 PKD
ROOT
HETATM    1  C   UNL     1      -8.984  12.430  67.763  1.00  0.00    -0.182 C  
HETATM    2  S   UNL     1      -9.686  12.370  66.136  1.00  0.00    -0.231 SA 
HETATM    3  C   UNL     1      -8.962  10.865  65.417  1.00  0.00    -0.193 C  
HETATM    4  C   UNL     1      -8.042  10.035  66.267  1.00  0.00    -0.117 C  
HETATM    5  C   UNL     1      -7.342  12.353  69.010  1.00  0.00     0.031 C  
HETATM    6  CA  UNL     1      -7.599  10.365  67.509  1.00  0.00    -0.094 C  
HETATM    7  N   UNL     1      -7.874  11.567  68.053  1.00  0.00    -0.119 N  
HETATM    8  CA  UNL     1      -8.118  13.578  68.433  1.00  0.00    -0.145 C  
HETATM    9  C   UNL     1      -6.772   9.380  68.274  1.00  0.00    -0.059 C  
HETATM   10  O   UNL     1      -6.398  12.211  69.753  1.00  0.00    -0.134 OA 
HETATM   11  O   UNL     1      -5.805   9.845  69.070  1.00  0.00    -0.035 OA 
HETATM   12  OXT UNL     1      -7.011   8.179  68.240  1.00  0.00    -0.072 OA 
ENDROOT
BRANCH   4  13
HETATM   13  C   UNL     1      -7.514   8.819  65.503  1.00  0.00    -0.086 C  
BRANCH  13  14
HETATM   14  O   UNL     1      -8.579   8.017  64.969  1.00  0.00    -0.119 OA 
BRANCH  14  15
HETATM   15  C   UNL     1      -8.715   6.750  65.456  1.00  0.00    -0.032 C  
HETATM   16  C   UNL     1      -7.698   5.819  64.852  1.00  0.00    -0.095 C  
HETATM   17  O   UNL     1      -9.511   6.407  66.320  1.00  0.00    -0.160 OA 
ENDBRANCH  14  15
ENDBRANCH  13  14
ENDBRANCH   4  13
BRANCH   8  18
HETATM   18  N   UNL     1      -7.169  14.624  67.857  1.00  0.00    -0.141 N  
HETATM   19  C   UNL     1      -7.330  15.727  67.021  1.00  0.00    -0.191 C  
HETATM   20  H   UNL     1      -6.202  14.486  68.150  1.00  0.00     0.000 HD 
HETATM   21  O   UNL     1      -6.298  16.253  66.537  1.00  0.00    -0.222 OA 
BRANCH  19  22
HETATM   22  C   UNL     1      -8.657  16.427  66.736  1.00  0.00    -0.235 C  
BRANCH  22  23
HETATM   23  C   UNL     1      -8.975  17.758  67.292  1.00  0.00    -0.246 A  
HETATM   24  N   UNL     1      -8.170  18.890  67.120  1.00  0.00    -0.265 NA 
HETATM   25  H2  UNL     1      -8.951  22.029  67.433  1.00  0.00     0.000 HD 
HETATM   26  N   UNL     1      -8.354  21.224  67.246  1.00  0.00    -0.514 NA 
HETATM   27  C   UNL     1     -10.274  18.047  67.681  1.00  0.00    -0.368 A  
HETATM   28  S   UNL     1     -10.486  19.733  67.845  1.00  0.00    -0.331 SA 
HETATM   29  H1  UNL     1      -7.384  21.369  66.965  1.00  0.00     0.000 HD 
HETATM   30  C   UNL     1      -8.853  19.976  67.372  1.00  0.00    -0.346 A  
ENDBRANCH  22  23
BRANCH  22  31
HETATM   31  N   UNL     1      -9.738  15.895  66.252  1.00  0.00    -0.282 NA 
HETATM   32  H   UNL     1     -10.314  15.342  66.886  1.00  0.00     0.000 HD 
BRANCH  31  33
HETATM   33  O   UNL     1     -10.173  16.021  64.933  1.00  0.00    -0.483 OA 
HETATM   34  C   UNL     1     -11.484  15.639  64.586  1.00  0.00    -0.303 C  
ENDBRANCH  31  33
ENDBRANCH  22  31
ENDBRANCH  19  22
ENDBRANCH   8  18
TORSDOF 8
ENDMDL
MODEL      224
REMARK 921   NORMALIZED FREE ENERGY PREDICTED BY IDOCK:   -3.86 KCAL/MOL
REMARK 922        TOTAL FREE ENERGY PREDICTED BY IDOCK:   -6.82 KCAL/MOL
REMARK 923 INTER-LIGAND FREE ENERGY PREDICTED BY IDOCK:   -5.72 KCAL/MOL
REMARK 924 INTRA-LIGAND FREE ENERGY PREDICTED BY IDOCK:   -1.10 KCAL/MOL
REMARK 927      BINDING AFFINITY PREDICTED BY RF-SCORE:    0.00 PKD
ROOT
HETATM    1  C   UNL     1     -10.987   6.014  70.264  1.00  0.00    -0.342 C  
HETATM    2  S   UNL     1     -10.979   6.624  68.599  1.00  0.00    -0.221 SA 
HETATM    3  C   UNL     1     -10.084   5.336  67.680  1.00  0.00    -0.171 C  
HETATM    4  C   UNL     1      -9.612   4.119  68.425  1.00  0.00    -0.190 C  
HETATM    5  C   UNL     1      -9.987   5.232  71.890  1.00  0.00    -0.187 C  
HETATM    6  CA  UNL     1      -9.693   3.934  69.769  1.00  0.00    -0.156 C  
HETATM    7  N   UNL     1     -10.119   4.917  70.587  1.00  0.00    -0.238 N  
HETATM    8  CA  UNL     1     -10.422   6.698  71.578  1.00  0.00    -0.215 C  
HETATM    9  C   UNL     1      -9.278   2.618  70.350  1.00  0.00    -0.130 C  
HETATM   10  O   UNL     1      -9.426   4.683  72.811  1.00  0.00    -0.130 OA 
HETATM   11  O   UNL     1      -8.695   2.611  71.552  1.00  0.00    -0.066 OA 
HETATM   12  OXT UNL     1      -9.527   1.561  69.784  1.00  0.00    -0.101 OA 
ENDROOT
BRANCH   4  13
HETATM   13  C   UNL     1      -8.866   3.150  67.505  1.00  0.00    -0.136 C  
BRANCH  13  14
HETATM   14  O   UNL     1      -8.427   3.789  66.296  1.00  0.00    -0.107 OA 
BRANCH  14  15
HETATM   15  C   UNL     1      -7.186   3.463  65.831  1.00  0.00    -0.067 C  
HETATM   16  C   UNL     1      -6.583   2.335  66.623  1.00  0.00    -0.038 C  
HETATM   17  O   UNL     1      -6.642   3.968  64.858  1.00  0.00    -0.041 OA 
ENDBRANCH  14  15
ENDBRANCH  13  14
ENDBRANCH   4  13
BRANCH   8  18
HETATM   18  N   UNL     1      -9.284   7.685  71.821  1.00  0.00    -0.136 N  
HETATM   19  C   UNL     1      -8.736   8.736  71.088  1.00  0.00    -0.212 C  
HETATM   20  H   UNL     1      -8.823   7.545  72.719  1.00  0.00     0.000 HD 
HETATM   21  O   UNL     1      -7.637   9.207  71.468  1.00  0.00    -0.318 OA 
BRANCH  19  22
HETATM   22  C   UNL     1      -9.422   9.445  69.921  1.00  0.00    -0.213 C  
BRANCH  22  23
HETATM   23  C   UNL     1     -10.711  10.147  70.082  1.00  0.00    -0.300 A  
HETATM   24  N   UNL     1     -11.548   9.999  71.195  1.00  0.00    -0.377 NA 
HETATM   25  H2  UNL     1     -13.917  11.957  72.252  1.00  0.00     0.000 HD 
HETATM   26  N   UNL     1     -13.301  11.144  72.250  1.00  0.00    -0.552 NA 
HETATM   27  C   UNL     1     -10.974  11.282  69.329  1.00  0.00    -0.243 A  
HETATM   28  S   UNL     1     -12.276  12.156  70.002  1.00  0.00    -0.140 SA 
HETATM   29  H1  UNL     1     -13.374  10.453  72.996  1.00  0.00     0.000 HD 
HETATM   30  C   UNL     1     -12.398  10.992  71.259  1.00  0.00    -0.321 A  
ENDBRANCH  22  23
BRANCH  22  31
HETATM   31  N   UNL     1      -9.163   9.307  68.657  1.00  0.00    -0.135 NA 
HETATM   32  H   UNL     1      -9.769   8.689  68.117  1.00  0.00     0.000 HD 
BRANCH  31  33
HETATM   33  O   UNL     1      -8.121   9.939  67.979  1.00  0.00    -0.107 OA 
HETATM   34  C   UNL     1      -8.297  10.341  66.639  1.00  0.00    -0.125 C  
ENDBRANCH  31  33
ENDBRANCH  22  31
ENDBRANCH  19  22
ENDBRANCH   8  18
TORSDOF 8
ENDMDL
MODEL      225
REMARK 921   NORMALIZED FREE ENERGY PREDICTED BY IDOCK:   -3.86 KCAL/MOL
REMARK 922        TOTAL FREE ENERGY PREDICTED BY IDOCK:   -6.82 KCAL/MOL
REMARK 923 INTER-LIGAND FREE ENERGY PREDICTED BY IDOCK:   -5.62 KCAL/MOL
REMARK 924 INTRA-LIGAND FREE ENERGY PREDICTED BY IDOCK:   -1.20 KCAL/MOL
REMARK 927      BINDING AFFINITY PREDICTED BY RF-SCORE:    0.00 PKD
ROOT
HETATM    1  C   UNL     1      -6.882  10.111  66.744  1.00  0.00    -0.086 C  
HETATM    2  S   UNL     1      -6.634   9.350  68.325  1.00  0.00    -0.058 SA 
HETATM    3  C   UNL     1      -6.770   7.572  67.966  1.00  0.00    -0.059 C  
HETATM    4  C   UNL     1      -7.002   7.143  66.545  1.00  0.00    -0.076 C  
HETATM    5  C   UNL     1      -7.975  10.317  65.006  1.00  0.00    -0.144 C  
HETATM    6  CA  UNL     1      -7.235   7.974  65.496  1.00  0.00    -0.064 C  
HETATM    7  N   UNL     1      -7.396   9.301  65.676  1.00  0.00    -0.092 N  
HETATM    8  CA  UNL     1      -7.977  11.173  66.310  1.00  0.00    -0.125 C  
HETATM    9  C   UNL     1      -7.338   7.399  64.118  1.00  0.00    -0.091 C  
HETATM   10  O   UNL     1      -8.554  10.371  63.945  1.00  0.00    -0.170 OA 
HETATM   11  O   UNL     1      -8.191   7.961  63.257  1.00  0.00    -0.126 OA 
HETATM   12  OXT UNL     1      -6.612   6.484  63.750  1.00  0.00    -0.035 OA 
ENDROOT
BRANCH   4  13
HETATM   13  C   UNL     1      -7.107   5.621  66.426  1.00  0.00    -0.072 C  
BRANCH  13  14
HETATM   14  O   UNL     1      -8.344   5.126  66.962  1.00  0.00    -0.108 OA 
BRANCH  14  15
HETATM   15  C   UNL     1      -9.402   5.027  66.106  1.00  0.00    -0.153 C  
HETATM   16  C   UNL     1     -10.640   5.651  66.691  1.00  0.00    -0.361 C  
HETATM   17  O   UNL     1      -9.356   4.553  64.979  1.00  0.00    -0.153 OA 
ENDBRANCH  14  15
ENDBRANCH  13  14
ENDBRANCH   4  13
BRANCH   8  18
HETATM   18  N   UNL     1      -9.396  11.451  66.798  1.00  0.00    -0.177 N  
HETATM   19  C   UNL     1     -10.119  12.609  67.075  1.00  0.00    -0.224 C  
HETATM   20  H   UNL     1      -9.934  10.600  66.956  1.00  0.00     0.000 HD 
HETATM   21  O   UNL     1     -11.203  12.491  67.696  1.00  0.00    -0.250 OA 
BRANCH  19  22
HETATM   22  C   UNL     1      -9.759  14.009  66.581  1.00  0.00    -0.289 C  
BRANCH  22  23
HETATM   23  C   UNL     1      -9.586  15.145  67.509  1.00  0.00    -0.207 A  
HETATM   24  N   UNL     1      -8.361  15.780  67.748  1.00  0.00    -0.152 NA 
HETATM   25  H2  UNL     1      -7.786  18.729  68.987  1.00  0.00     0.000 HD 
HETATM   26  N   UNL     1      -7.561  17.817  68.591  1.00  0.00    -0.272 NA 
HETATM   27  C   UNL     1     -10.689  15.892  67.893  1.00  0.00    -0.312 A  
HETATM   28  S   UNL     1     -10.195  17.381  68.566  1.00  0.00    -0.386 SA 
HETATM   29  H1  UNL     1      -6.587  17.563  68.426  1.00  0.00     0.000 HD 
HETATM   30  C   UNL     1      -8.555  16.954  68.289  1.00  0.00    -0.230 A  
ENDBRANCH  22  23
BRANCH  22  31
HETATM   31  N   UNL     1      -9.831  14.456  65.365  1.00  0.00    -0.541 NA 
HETATM   32  H   UNL     1      -8.992  14.878  64.968  1.00  0.00     0.000 HD 
BRANCH  31  33
HETATM   33  O   UNL     1     -10.967  14.402  64.558  1.00  0.00    -0.363 OA 
HETATM   34  C   UNL     1     -11.733  15.566  64.345  1.00  0.00    -0.242 C  
ENDBRANCH  31  33
ENDBRANCH  22  31
ENDBRANCH  19  22
ENDBRANCH   8  18
TORSDOF 8
ENDMDL
MODEL      226
REMARK 921   NORMALIZED FREE ENERGY PREDICTED BY IDOCK:   -3.82 KCAL/MOL
REMARK 922        TOTAL FREE ENERGY PREDICTED BY IDOCK:   -6.75 KCAL/MOL
REMARK 923 INTER-LIGAND FREE ENERGY PREDICTED BY IDOCK:   -5.64 KCAL/MOL
REMARK 924 INTRA-LIGAND FREE ENERGY PREDICTED BY IDOCK:   -1.11 KCAL/MOL
REMARK 927      BINDING AFFINITY PREDICTED BY RF-SCORE:    0.00 PKD
ROOT
HETATM    1  C   UNL     1      -8.428   8.018  67.455  1.00  0.00    -0.126 C  
HETATM    2  S   UNL     1     -10.047   8.496  67.996  1.00  0.00    -0.209 SA 
HETATM    3  C   UNL     1     -10.493   9.842  66.858  1.00  0.00    -0.215 C  
HETATM    4  C   UNL     1      -9.522  10.217  65.774  1.00  0.00    -0.255 C  
HETATM    5  C   UNL     1      -6.496   8.514  66.926  1.00  0.00    -0.057 C  
HETATM    6  CA  UNL     1      -8.268   9.714  65.626  1.00  0.00    -0.120 C  
HETATM    7  N   UNL     1      -7.734   8.885  66.546  1.00  0.00    -0.098 N  
HETATM    8  CA  UNL     1      -7.072   7.986  68.277  1.00  0.00    -0.088 C  
HETATM    9  C   UNL     1      -7.461  10.108  64.429  1.00  0.00    -0.123 C  
HETATM   10  O   UNL     1      -5.394   8.807  66.521  1.00  0.00    -0.034 OA 
HETATM   11  O   UNL     1      -6.139  10.240  64.570  1.00  0.00    -0.129 OA 
HETATM   12  OXT UNL     1      -7.974  10.237  63.325  1.00  0.00    -0.153 OA 
ENDROOT
BRANCH   4  13
HETATM   13  C   UNL     1     -10.048  11.375  64.923  1.00  0.00    -0.274 C  
BRANCH  13  14
HETATM   14  O   UNL     1     -10.368  12.526  65.720  1.00  0.00    -0.255 OA 
BRANCH  14  15
HETATM   15  C   UNL     1     -11.585  13.108  65.521  1.00  0.00    -0.335 C  
HETATM   16  C   UNL     1     -12.077  12.881  64.117  1.00  0.00    -0.503 C  
HETATM   17  O   UNL     1     -12.238  13.690  66.377  1.00  0.00    -0.425 OA 
ENDBRANCH  14  15
ENDBRANCH  13  14
ENDBRANCH   4  13
BRANCH   8  18
HETATM   18  N   UNL     1      -6.564   8.802  69.462  1.00  0.00    -0.043 N  
HETATM   19  C   UNL     1      -6.832   8.803  70.829  1.00  0.00    -0.056 C  
HETATM   20  H   UNL     1      -5.874   9.503  69.193  1.00  0.00     0.000 HD 
HETATM   21  O   UNL     1      -6.418   9.772  71.509  1.00  0.00    -0.308 OA 
BRANCH  19  22
HETATM   22  C   UNL     1      -7.491   7.657  71.594  1.00  0.00    -0.076 C  
BRANCH  22  23
HETATM   23  C   UNL     1      -8.959   7.507  71.668  1.00  0.00    -0.123 A  
HETATM   24  N   UNL     1      -9.610   6.290  71.905  1.00  0.00    -0.153 NA 
HETATM   25  H2  UNL     1     -12.637   5.756  72.961  1.00  0.00     0.000 HD 
HETATM   26  N   UNL     1     -11.698   5.519  72.640  1.00  0.00    -0.392 NA 
HETATM   27  C   UNL     1      -9.752   8.622  71.895  1.00  0.00    -0.313 A  
HETATM   28  S   UNL     1     -11.316   8.149  72.391  1.00  0.00    -0.399 SA 
HETATM   29  H1  UNL     1     -11.416   4.540  72.583  1.00  0.00     0.000 HD 
HETATM   30  C   UNL     1     -10.840   6.502  72.295  1.00  0.00    -0.232 A  
ENDBRANCH  22  23
BRANCH  22  31
HETATM   31  N   UNL     1      -6.936   6.874  72.469  1.00  0.00    -0.066 NA 
HETATM   32  H   UNL     1      -6.871   7.212  73.428  1.00  0.00     0.000 HD 
BRANCH  31  33
HETATM   33  O   UNL     1      -6.422   5.606  72.197  1.00  0.00    -0.052 OA 
HETATM   34  C   UNL     1      -6.245   4.681  73.246  1.00  0.00    -0.033 C  
ENDBRANCH  31  33
ENDBRANCH  22  31
ENDBRANCH  19  22
ENDBRANCH   8  18
TORSDOF 8
ENDMDL
MODEL      227
REMARK 921   NORMALIZED FREE ENERGY PREDICTED BY IDOCK:   -3.81 KCAL/MOL
REMARK 922        TOTAL FREE ENERGY PREDICTED BY IDOCK:   -6.75 KCAL/MOL
REMARK 923 INTER-LIGAND FREE ENERGY PREDICTED BY IDOCK:   -5.82 KCAL/MOL
REMARK 924 INTRA-LIGAND FREE ENERGY PREDICTED BY IDOCK:   -0.93 KCAL/MOL
REMARK 927      BINDING AFFINITY PREDICTED BY RF-SCORE:    0.00 PKD
ROOT
HETATM    1  C   UNL     1     -10.193  16.889  68.148  1.00  0.00    -0.311 C  
HETATM    2  S   UNL     1      -9.315  15.397  68.527  1.00  0.00    -0.206 SA 
HETATM    3  C   UNL     1      -7.589  15.949  68.687  1.00  0.00    -0.161 C  
HETATM    4  C   UNL     1      -7.286  17.411  68.523  1.00  0.00    -0.237 C  
HETATM    5  C   UNL     1     -10.403  18.608  67.026  1.00  0.00    -0.404 C  
HETATM    6  CA  UNL     1      -8.177  18.367  68.148  1.00  0.00    -0.287 C  
HETATM    7  N   UNL     1      -9.431  18.045  67.770  1.00  0.00    -0.260 N  
HETATM    8  CA  UNL     1     -11.100  17.218  66.889  1.00  0.00     0.306 C  
HETATM    9  C   UNL     1      -7.747  19.801  68.136  1.00  0.00    -0.301 C  
HETATM   10  O   UNL     1     -10.476  19.665  66.441  1.00  0.00    -0.445 OA 
HETATM   11  O   UNL     1      -8.250  20.606  67.196  1.00  0.00    -0.319 OA 
HETATM   12  OXT UNL     1      -7.011  20.256  69.002  1.00  0.00    -0.215 OA 
ENDROOT
BRANCH   4  13
HETATM   13  C   UNL     1      -5.790  17.696  68.672  1.00  0.00    -0.173 C  
BRANCH  13  14
HETATM   14  O   UNL     1      -5.148  16.750  69.541  1.00  0.00    -0.125 OA 
BRANCH  14  15
HETATM   15  C   UNL     1      -5.160  17.019  70.879  1.00  0.00    -0.217 C  
HETATM   16  C   UNL     1      -5.126  18.500  71.139  1.00  0.00    -0.265 C  
HETATM   17  O   UNL     1      -5.250  16.181  71.766  1.00  0.00    -0.102 OA 
ENDBRANCH  14  15
ENDBRANCH  13  14
ENDBRANCH   4  13
BRANCH   8  18
HETATM   18  N   UNL     1     -11.083  16.722  65.446  1.00  0.00    -0.060 N  
HETATM   19  C   UNL     1     -11.163  15.466  64.850  1.00  0.00    -0.403 C  
HETATM   20  H   UNL     1     -10.993  17.478  64.768  1.00  0.00     0.000 HD 
HETATM   21  O   UNL     1     -10.878  15.374  63.631  1.00  0.00     1.152 OA 
BRANCH  19  22
HETATM   22  C   UNL     1     -11.688  14.202  65.530  1.00  0.00    -0.344 C  
BRANCH  22  23
HETATM   23  C   UNL     1     -10.784  13.130  65.992  1.00  0.00    -0.276 A  
HETATM   24  N   UNL     1      -9.422  13.064  65.672  1.00  0.00     0.004 NA 
HETATM   25  H2  UNL     1      -7.044  11.419  67.157  1.00  0.00     0.000 HD 
HETATM   26  N   UNL     1      -7.469  12.036  66.465  1.00  0.00    -0.369 NA 
HETATM   27  C   UNL     1     -11.143  12.349  67.081  1.00  0.00    -0.280 A  
HETATM   28  S   UNL     1      -9.782  11.523  67.696  1.00  0.00    -0.177 SA 
HETATM   29  H1  UNL     1      -6.885  12.476  65.753  1.00  0.00     0.000 HD 
HETATM   30  C   UNL     1      -8.799  12.264  66.498  1.00  0.00    -0.128 A  
ENDBRANCH  22  23
BRANCH  22  31
HETATM   31  N   UNL     1     -12.911  13.768  65.545  1.00  0.00    -0.672 NA 
HETATM   32  H   UNL     1     -13.507  14.068  66.316  1.00  0.00     0.000 HD 
BRANCH  31  33
HETATM   33  O   UNL     1     -13.474  12.924  64.589  1.00  0.00    -0.359 OA 
HETATM   34  C   UNL     1     -12.744  12.591  63.430  1.00  0.00    -0.191 C  
ENDBRANCH  31  33
ENDBRANCH  22  31
ENDBRANCH  19  22
ENDBRANCH   8  18
TORSDOF 8
ENDMDL
MODEL      228
REMARK 921   NORMALIZED FREE ENERGY PREDICTED BY IDOCK:   -3.64 KCAL/MOL
REMARK 922        TOTAL FREE ENERGY PREDICTED BY IDOCK:   -6.50 KCAL/MOL
REMARK 923 INTER-LIGAND FREE ENERGY PREDICTED BY IDOCK:   -5.06 KCAL/MOL
REMARK 924 INTRA-LIGAND FREE ENERGY PREDICTED BY IDOCK:   -1.44 KCAL/MOL
REMARK 927      BINDING AFFINITY PREDICTED BY RF-SCORE:    0.00 PKD
ROOT
HETATM    1  C   UNL     1      -7.072   8.873  66.630  1.00  0.00    -0.084 C  
HETATM    2  S   UNL     1      -6.588   7.609  67.775  1.00  0.00    -0.064 SA 
HETATM    3  C   UNL     1      -6.641   6.091  66.776  1.00  0.00    -0.056 C  
HETATM    4  C   UNL     1      -7.008   6.200  65.323  1.00  0.00    -0.056 C  
HETATM    5  C   UNL     1      -8.374   9.592  65.200  1.00  0.00    -0.137 C  
HETATM    6  CA  UNL     1      -7.421   7.332  64.694  1.00  0.00    -0.091 C  
HETATM    7  N   UNL     1      -7.650   8.469  65.381  1.00  0.00    -0.085 N  
HETATM    8  CA  UNL     1      -8.282   9.895  66.728  1.00  0.00    -0.124 C  
HETATM    9  C   UNL     1      -7.644   7.304  63.215  1.00  0.00    -0.113 C  
HETATM   10  O   UNL     1      -9.076   9.975  64.292  1.00  0.00    -0.215 OA 
HETATM   11  O   UNL     1      -8.630   8.050  62.707  1.00  0.00    -0.035 OA 
HETATM   12  OXT UNL     1      -6.905   6.677  62.467  1.00  0.00    -0.044 OA 
ENDROOT
BRANCH   4  13
HETATM   13  C   UNL     1      -7.020   4.830  64.641  1.00  0.00    -0.050 C  
BRANCH  13  14
HETATM   14  O   UNL     1      -8.126   4.024  65.077  1.00  0.00    -0.092 OA 
BRANCH  14  15
HETATM   15  C   UNL     1      -9.353   4.308  64.554  1.00  0.00    -0.160 C  
HETATM   16  C   UNL     1     -10.391   4.444  65.634  1.00  0.00    -0.252 C  
HETATM   17  O   UNL     1      -9.589   4.493  63.367  1.00  0.00    -0.081 OA 
ENDBRANCH  14  15
ENDBRANCH  13  14
ENDBRANCH   4  13
BRANCH   8  18
HETATM   18  N   UNL     1      -9.649   9.815  67.400  1.00  0.00    -0.151 N  
HETATM   19  C   UNL     1     -10.457  10.729  68.072  1.00  0.00    -0.194 C  
HETATM   20  H   UNL     1     -10.064   8.885  67.344  1.00  0.00     0.000 HD 
HETATM   21  O   UNL     1     -11.433  10.284  68.723  1.00  0.00    -0.207 OA 
BRANCH  19  22
HETATM   22  C   UNL     1     -10.322  12.248  67.988  1.00  0.00    -0.214 C  
BRANCH  22  23
HETATM   23  C   UNL     1     -10.892  13.023  66.867  1.00  0.00    -0.264 A  
HETATM   24  N   UNL     1     -10.411  12.966  65.553  1.00  0.00    -0.287 NA 
HETATM   25  H2  UNL     1     -11.895  13.810  62.787  1.00  0.00     0.000 HD 
HETATM   26  N   UNL     1     -11.143  13.459  63.381  1.00  0.00    -0.311 NA 
HETATM   27  C   UNL     1     -12.173  13.545  66.973  1.00  0.00    -0.303 A  
HETATM   28  S   UNL     1     -12.769  13.978  65.434  1.00  0.00    -0.377 SA 
HETATM   29  H1  UNL     1     -10.274  13.134  62.957  1.00  0.00     0.000 HD 
HETATM   30  C   UNL     1     -11.306  13.430  64.720  1.00  0.00    -0.337 A  
ENDBRANCH  22  23
BRANCH  22  31
HETATM   31  N   UNL     1      -9.509  13.004  68.661  1.00  0.00    -0.406 NA 
HETATM   32  H   UNL     1      -9.910  13.593  69.390  1.00  0.00     0.000 HD 
BRANCH  31  33
HETATM   33  O   UNL     1      -8.130  13.071  68.466  1.00  0.00    -0.143 OA 
HETATM   34  C   UNL     1      -7.519  14.313  68.198  1.00  0.00    -0.131 C  
ENDBRANCH  31  33
ENDBRANCH  22  31
ENDBRANCH  19  22
ENDBRANCH   8  18
TORSDOF 8
ENDMDL
MODEL      229
REMARK 921   NORMALIZED FREE ENERGY PREDICTED BY IDOCK:   -3.55 KCAL/MOL
REMARK 922        TOTAL FREE ENERGY PREDICTED BY IDOCK:   -6.36 KCAL/MOL
REMARK 923 INTER-LIGAND FREE ENERGY PREDICTED BY IDOCK:   -5.48 KCAL/MOL
REMARK 924 INTRA-LIGAND FREE ENERGY PREDICTED BY IDOCK:   -0.88 KCAL/MOL
REMARK 927      BINDING AFFINITY PREDICTED BY RF-SCORE:    0.00 PKD
ROOT
HETATM    1  C   UNL     1      -8.170   8.406  65.734  1.00  0.00    -0.131 C  
HETATM    2  S   UNL     1      -8.226   8.939  64.045  1.00  0.00    -0.157 SA 
HETATM    3  C   UNL     1      -9.072  10.546  64.136  1.00  0.00    -0.231 C  
HETATM    4  C   UNL     1      -9.477  11.068  65.486  1.00  0.00    -0.250 C  
HETATM    5  C   UNL     1      -9.113   8.061  67.537  1.00  0.00    -0.137 C  
HETATM    6  CA  UNL     1      -9.372  10.392  66.660  1.00  0.00    -0.158 C  
HETATM    7  N   UNL     1      -8.982   9.102  66.691  1.00  0.00    -0.133 N  
HETATM    8  CA  UNL     1      -8.751   7.078  66.380  1.00  0.00    -0.142 C  
HETATM    9  C   UNL     1      -9.717  11.091  67.938  1.00  0.00    -0.172 C  
HETATM   10  O   UNL     1      -9.636   7.950  68.622  1.00  0.00    -0.152 OA 
HETATM   11  O   UNL     1     -10.285  10.380  68.916  1.00  0.00    -0.183 OA 
HETATM   12  OXT UNL     1      -9.427  12.266  68.124  1.00  0.00    -0.203 OA 
ENDROOT
BRANCH   4  13
HETATM   13  C   UNL     1     -10.188  12.419  65.377  1.00  0.00    -0.278 C  
BRANCH  13  14
HETATM   14  O   UNL     1     -11.576  12.325  65.734  1.00  0.00    -0.363 OA 
BRANCH  14  15
HETATM   15  C   UNL     1     -12.197  13.470  66.141  1.00  0.00    -0.433 C  
HETATM   16  C   UNL     1     -12.759  14.233  64.973  1.00  0.00    -0.297 C  
HETATM   17  O   UNL     1     -12.344  13.817  67.305  1.00  0.00    -0.337 OA 
ENDBRANCH  14  15
ENDBRANCH  13  14
ENDBRANCH   4  13
BRANCH   8  18
HETATM   18  N   UNL     1      -9.930   6.183  66.013  1.00  0.00    -0.393 N  
HETATM   19  C   UNL     1     -10.089   4.811  65.831  1.00  0.00    -0.242 C  
HETATM   20  H   UNL     1     -10.794   6.704  65.870  1.00  0.00     0.000 HD 
HETATM   21  O   UNL     1     -11.148   4.408  65.293  1.00  0.00    -0.203 OA 
BRANCH  19  22
HETATM   22  C   UNL     1      -9.126   3.740  66.342  1.00  0.00    -0.152 C  
BRANCH  22  23
HETATM   23  C   UNL     1      -8.884   3.528  67.783  1.00  0.00    -0.121 A  
HETATM   24  N   UNL     1      -8.377   4.510  68.643  1.00  0.00    -0.084 NA 
HETATM   25  H2  UNL     1      -8.535   4.678  71.885  1.00  0.00     0.000 HD 
HETATM   26  N   UNL     1      -8.291   4.973  70.940  1.00  0.00    -0.110 NA 
HETATM   27  C   UNL     1      -9.510   2.478  68.438  1.00  0.00    -0.154 A  
HETATM   28  S   UNL     1      -9.452   2.710  70.128  1.00  0.00    -0.037 SA 
HETATM   29  H1  UNL     1      -7.797   5.854  70.798  1.00  0.00     0.000 HD 
HETATM   30  C   UNL     1      -8.622   4.194  69.888  1.00  0.00    -0.068 A  
ENDBRANCH  22  23
BRANCH  22  31
HETATM   31  N   UNL     1      -8.225   3.103  65.658  1.00  0.00    -0.090 NA 
HETATM   32  H   UNL     1      -8.549   2.422  64.971  1.00  0.00     0.000 HD 
BRANCH  31  33
HETATM   33  O   UNL     1      -6.848   3.278  65.788  1.00  0.00    -0.047 OA 
HETATM   34  C   UNL     1      -6.096   2.377  66.569  1.00  0.00    -0.024 C  
ENDBRANCH  31  33
ENDBRANCH  22  31
ENDBRANCH  19  22
ENDBRANCH   8  18
TORSDOF 8
ENDMDL
MODEL      230
REMARK 921   NORMALIZED FREE ENERGY PREDICTED BY IDOCK:   -3.50 KCAL/MOL
REMARK 922        TOTAL FREE ENERGY PREDICTED BY IDOCK:   -6.28 KCAL/MOL
REMARK 923 INTER-LIGAND FREE ENERGY PREDICTED BY IDOCK:   -5.22 KCAL/MOL
REMARK 924 INTRA-LIGAND FREE ENERGY PREDICTED BY IDOCK:   -1.06 KCAL/MOL
REMARK 927      BINDING AFFINITY PREDICTED BY RF-SCORE:    0.00 PKD
ROOT
HETATM    1  C   UNL     1      -9.226   7.131  68.145  1.00  0.00    -0.131 C  
HETATM    2  S   UNL     1     -10.449   7.247  66.867  1.00  0.00    -0.265 SA 
HETATM    3  C   UNL     1     -10.362   8.989  66.355  1.00  0.00    -0.149 C  
HETATM    4  C   UNL     1      -9.351   9.882  67.016  1.00  0.00    -0.175 C  
HETATM    5  C   UNL     1      -8.390   7.837  69.894  1.00  0.00    -0.130 C  
HETATM    6  CA  UNL     1      -8.554   9.537  68.062  1.00  0.00    -0.120 C  
HETATM    7  N   UNL     1      -8.694   8.349  68.685  1.00  0.00    -0.132 N  
HETATM    8  CA  UNL     1      -9.403   6.675  69.655  1.00  0.00    -0.143 C  
HETATM    9  C   UNL     1      -7.518  10.504  68.540  1.00  0.00    -0.091 C  
HETATM   10  O   UNL     1      -7.834   8.303  70.863  1.00  0.00    -0.080 OA 
HETATM   11  O   UNL     1      -7.244  10.547  69.847  1.00  0.00    -0.149 OA 
HETATM   12  OXT UNL     1      -6.877  11.195  67.758  1.00  0.00    -0.070 OA 
ENDROOT
BRANCH   4  13
HETATM   13  C   UNL     1      -9.426  11.313  66.479  1.00  0.00    -0.193 C  
BRANCH  13  14
HETATM   14  O   UNL     1     -10.451  11.458  65.482  1.00  0.00    -0.253 OA 
BRANCH  14  15
HETATM   15  C   UNL     1     -11.404  12.410  65.698  1.00  0.00    -0.347 C  
HETATM   16  C   UNL     1     -12.508  12.320  64.681  1.00  0.00    -0.424 C  
HETATM   17  O   UNL     1     -11.410  13.204  66.629  1.00  0.00    -0.302 OA 
ENDBRANCH  14  15
ENDBRANCH  13  14
ENDBRANCH   4  13
BRANCH   8  18
HETATM   18  N   UNL     1     -10.579   6.746  70.624  1.00  0.00    -0.218 N  
HETATM   19  C   UNL     1     -11.004   5.964  71.695  1.00  0.00    -0.268 C  
HETATM   20  H   UNL     1     -11.190   7.543  70.448  1.00  0.00     0.000 HD 
HETATM   21  O   UNL     1     -12.159   6.160  72.145  1.00  0.00    -0.327 OA 
BRANCH  19  22
HETATM   22  C   UNL     1     -10.133   4.962  72.451  1.00  0.00    -0.187 C  
BRANCH  22  23
HETATM   23  C   UNL     1      -9.083   5.394  73.395  1.00  0.00    -0.129 A  
HETATM   24  N   UNL     1      -7.907   4.675  73.639  1.00  0.00    -0.094 NA 
HETATM   25  H2  UNL     1      -5.103   5.704  74.922  1.00  0.00     0.000 HD 
HETATM   26  N   UNL     1      -5.761   5.042  74.510  1.00  0.00    -0.033 NA 
HETATM   27  C   UNL     1      -9.023   6.721  73.796  1.00  0.00    -0.148 A  
HETATM   28  S   UNL     1      -7.502   7.066  74.490  1.00  0.00    -0.119 SA 
HETATM   29  H1  UNL     1      -5.469   4.080  74.338  1.00  0.00     0.000 HD 
HETATM   30  C   UNL     1      -7.010   5.446  74.199  1.00  0.00    -0.078 A  
ENDBRANCH  22  23
BRANCH  22  31
HETATM   31  N   UNL     1      -9.982   3.699  72.191  1.00  0.00    -0.169 NA 
HETATM   32  H   UNL     1      -9.249   3.439  71.533  1.00  0.00     0.000 HD 
BRANCH  31  33
HETATM   33  O   UNL     1     -10.746   2.671  72.743  1.00  0.00    -0.141 OA 
HETATM   34  C   UNL     1     -10.633   2.370  74.115  1.00  0.00    -0.158 C  
ENDBRANCH  31  33
ENDBRANCH  22  31
ENDBRANCH  19  22
ENDBRANCH   8  18
TORSDOF 8
ENDMDL
MODEL      231
REMARK 921   NORMALIZED FREE ENERGY PREDICTED BY IDOCK:   -3.49 KCAL/MOL
REMARK 922        TOTAL FREE ENERGY PREDICTED BY IDOCK:   -6.27 KCAL/MOL
REMARK 923 INTER-LIGAND FREE ENERGY PREDICTED BY IDOCK:   -4.99 KCAL/MOL
REMARK 924 INTRA-LIGAND FREE ENERGY PREDICTED BY IDOCK:   -1.28 KCAL/MOL
REMARK 927      BINDING AFFINITY PREDICTED BY RF-SCORE:    0.00 PKD
ROOT
HETATM    1  C   UNL     1      -9.967  20.277  67.542  1.00  0.00    -0.416 C  
HETATM    2  S   UNL     1     -10.348  19.504  69.091  1.00  0.00     0.174 SA 
HETATM    3  C   UNL     1      -8.713  19.155  69.805  1.00  0.00     0.740 C  
HETATM    4  C   UNL     1      -7.491  19.582  69.041  1.00  0.00    -0.380 C  
HETATM    5  C   UNL     1      -8.935  20.297  65.756  1.00  0.00     0.161 C  
HETATM    6  CA  UNL     1      -7.486  20.114  67.790  1.00  0.00    -0.292 C  
HETATM    7  N   UNL     1      -8.617  20.201  67.062  1.00  0.00    -0.330 N  
HETATM    8  CA  UNL     1     -10.391  19.837  66.078  1.00  0.00    -0.511 C  
HETATM    9  C   UNL     1      -6.193  20.591  67.206  1.00  0.00    -0.220 C  
HETATM   10  O   UNL     1      -8.261  20.367  64.754  1.00  0.00     0.509 OA 
HETATM   11  O   UNL     1      -6.000  20.450  65.892  1.00  0.00    -0.180 OA 
HETATM   12  OXT UNL     1      -5.354  21.165  67.890  1.00  0.00    -0.260 OA 
ENDROOT
BRANCH   4  13
HETATM   13  C   UNL     1      -6.205  19.198  69.776  1.00  0.00    -0.245 C  
BRANCH  13  14
HETATM   14  O   UNL     1      -5.783  17.862  69.456  1.00  0.00    -0.206 OA 
BRANCH  14  15
HETATM   15  C   UNL     1      -5.847  16.930  70.451  1.00  0.00    -0.024 C  
HETATM   16  C   UNL     1      -6.469  15.650  69.962  1.00  0.00    -0.088 C  
HETATM   17  O   UNL     1      -5.405  17.075  71.582  1.00  0.00    -0.145 OA 
ENDBRANCH  14  15
ENDBRANCH  13  14
ENDBRANCH   4  13
BRANCH   8  18
HETATM   18  N   UNL     1     -10.700  18.478  65.458  1.00  0.00    -0.178 N  
HETATM   19  C   UNL     1     -10.173  17.197  65.609  1.00  0.00    -0.144 C  
HETATM   20  H   UNL     1     -11.463  18.515  64.782  1.00  0.00     0.000 HD 
HETATM   21  O   UNL     1     -10.495  16.325  64.767  1.00  0.00    -0.607 OA 
BRANCH  19  22
HETATM   22  C   UNL     1      -9.322  16.732  66.790  1.00  0.00    -0.245 C  
BRANCH  22  23
HETATM   23  C   UNL     1      -9.924  16.147  68.005  1.00  0.00    -0.238 A  
HETATM   24  N   UNL     1     -11.053  16.669  68.647  1.00  0.00    -0.328 NA 
HETATM   25  H2  UNL     1     -13.085  15.215  70.726  1.00  0.00     0.000 HD 
HETATM   26  N   UNL     1     -12.711  15.970  70.151  1.00  0.00    -0.593 NA 
HETATM   27  C   UNL     1      -9.641  14.833  68.347  1.00  0.00    -0.213 A  
HETATM   28  S   UNL     1     -10.777  14.255  69.482  1.00  0.00     0.016 SA 
HETATM   29  H1  UNL     1     -13.190  16.870  70.124  1.00  0.00     0.000 HD 
HETATM   30  C   UNL     1     -11.584  15.770  69.435  1.00  0.00    -0.365 A  
ENDBRANCH  22  23
BRANCH  22  31
HETATM   31  N   UNL     1      -8.078  17.020  67.023  1.00  0.00    -0.193 NA 
HETATM   32  H   UNL     1      -7.765  17.004  67.994  1.00  0.00     0.000 HD 
BRANCH  31  33
HETATM   33  O   UNL     1      -7.135  17.347  66.050  1.00  0.00    -0.283 OA 
HETATM   34  C   UNL     1      -5.788  16.970  66.221  1.00  0.00     0.094 C  
ENDBRANCH  31  33
ENDBRANCH  22  31
ENDBRANCH  19  22
ENDBRANCH   8  18
TORSDOF 8
ENDMDL
MODEL      232
REMARK 921   NORMALIZED FREE ENERGY PREDICTED BY IDOCK:   -3.48 KCAL/MOL
REMARK 922        TOTAL FREE ENERGY PREDICTED BY IDOCK:   -6.26 KCAL/MOL
REMARK 923 INTER-LIGAND FREE ENERGY PREDICTED BY IDOCK:   -5.91 KCAL/MOL
REMARK 924 INTRA-LIGAND FREE ENERGY PREDICTED BY IDOCK:   -0.35 KCAL/MOL
REMARK 927      BINDING AFFINITY PREDICTED BY RF-SCORE:    0.00 PKD
ROOT
HETATM    1  C   UNL     1      -7.098  10.582  69.249  1.00  0.00    -0.097 C  
HETATM    2  S   UNL     1      -6.365  10.672  67.637  1.00  0.00    -0.056 SA 
HETATM    3  C   UNL     1      -7.773  10.413  66.517  1.00  0.00    -0.121 C  
HETATM    4  C   UNL     1      -9.141  10.232  67.112  1.00  0.00    -0.156 C  
HETATM    5  C   UNL     1      -8.300   9.614  70.619  1.00  0.00     0.008 C  
HETATM    6  CA  UNL     1      -9.419  10.130  68.439  1.00  0.00    -0.143 C  
HETATM    7  N   UNL     1      -8.434  10.068  69.357  1.00  0.00    -0.157 N  
HETATM    8  CA  UNL     1      -6.748   9.604  70.449  1.00  0.00    -0.104 C  
HETATM    9  C   UNL     1     -10.847  10.063  68.882  1.00  0.00    -0.220 C  
HETATM   10  O   UNL     1      -9.079   9.106  71.392  1.00  0.00    -0.266 OA 
HETATM   11  O   UNL     1     -11.147   9.311  69.944  1.00  0.00    -0.236 OA 
HETATM   12  OXT UNL     1     -11.717  10.733  68.341  1.00  0.00    -0.428 OA 
ENDROOT
BRANCH   4  13
HETATM   13  C   UNL     1     -10.201  10.011  66.032  1.00  0.00    -0.207 C  
BRANCH  13  14
HETATM   14  O   UNL     1     -10.572  11.239  65.385  1.00  0.00    -0.267 OA 
BRANCH  14  15
HETATM   15  C   UNL     1     -10.685  11.221  64.025  1.00  0.00    -0.377 C  
HETATM   16  C   UNL     1     -11.903  11.977  63.567  1.00  0.00    -0.587 C  
HETATM   17  O   UNL     1      -9.879  10.716  63.256  1.00  0.00    -0.319 OA 
ENDBRANCH  14  15
ENDBRANCH  13  14
ENDBRANCH   4  13
BRANCH   8  18
HETATM   18  N   UNL     1      -6.187   8.187  70.495  1.00  0.00    -0.035 N  
HETATM   19  C   UNL     1      -6.755   6.920  70.609  1.00  0.00    -0.053 C  
HETATM   20  H   UNL     1      -5.170   8.161  70.428  1.00  0.00     0.000 HD 
HETATM   21  O   UNL     1      -5.994   5.954  70.859  1.00  0.00    -0.027 OA 
BRANCH  19  22
HETATM   22  C   UNL     1      -8.221   6.587  70.336  1.00  0.00    -0.125 C  
BRANCH  22  23
HETATM   23  C   UNL     1      -8.735   6.386  68.966  1.00  0.00    -0.123 A  
HETATM   24  N   UNL     1     -10.092   6.434  68.626  1.00  0.00    -0.149 NA 
HETATM   25  H2  UNL     1     -11.462   6.894  65.715  1.00  0.00     0.000 HD 
HETATM   26  N   UNL     1     -11.426   6.736  66.721  1.00  0.00    -0.653 NA 
HETATM   27  C   UNL     1      -7.880   6.526  67.883  1.00  0.00    -0.108 A  
HETATM   28  S   UNL     1      -8.772   6.705  66.439  1.00  0.00    -0.145 SA 
HETATM   29  H1  UNL     1     -12.294   6.676  67.254  1.00  0.00     0.000 HD 
HETATM   30  C   UNL     1     -10.232   6.606  67.337  1.00  0.00    -0.190 A  
ENDBRANCH  22  23
BRANCH  22  31
HETATM   31  N   UNL     1      -9.220   6.708  71.156  1.00  0.00    -0.159 NA 
HETATM   32  H   UNL     1      -9.647   7.629  71.243  1.00  0.00     0.000 HD 
BRANCH  31  33
HETATM   33  O   UNL     1      -9.754   5.676  71.926  1.00  0.00    -0.158 OA 
HETATM   34  C   UNL     1     -10.761   5.954  72.872  1.00  0.00    -0.249 C  
ENDBRANCH  31  33
ENDBRANCH  22  31
ENDBRANCH  19  22
ENDBRANCH   8  18
TORSDOF 8
ENDMDL
MODEL      233
REMARK 921   NORMALIZED FREE ENERGY PREDICTED BY IDOCK:   -3.41 KCAL/MOL
REMARK 922        TOTAL FREE ENERGY PREDICTED BY IDOCK:   -6.16 KCAL/MOL
REMARK 923 INTER-LIGAND FREE ENERGY PREDICTED BY IDOCK:   -5.93 KCAL/MOL
REMARK 924 INTRA-LIGAND FREE ENERGY PREDICTED BY IDOCK:   -0.23 KCAL/MOL
REMARK 927      BINDING AFFINITY PREDICTED BY RF-SCORE:    0.00 PKD
ROOT
HETATM    1  C   UNL     1      -7.994  10.878  68.604  1.00  0.00    -0.140 C  
HETATM    2  S   UNL     1      -9.602  10.131  68.629  1.00  0.00    -0.171 SA 
HETATM    3  C   UNL     1      -9.551   8.969  67.232  1.00  0.00    -0.159 C  
HETATM    4  C   UNL     1      -8.279   8.853  66.440  1.00  0.00    -0.115 C  
HETATM    5  C   UNL     1      -6.475  11.826  67.579  1.00  0.00    -0.095 C  
HETATM    6  CA  UNL     1      -7.175   9.630  66.600  1.00  0.00    -0.086 C  
HETATM    7  N   UNL     1      -7.176  10.683  67.441  1.00  0.00    -0.090 N  
HETATM    8  CA  UNL     1      -7.611  12.412  68.475  1.00  0.00    -0.122 C  
HETATM    9  C   UNL     1      -5.944   9.319  65.807  1.00  0.00    -0.055 C  
HETATM   10  O   UNL     1      -5.542  12.292  66.966  1.00  0.00    -0.255 OA 
HETATM   11  O   UNL     1      -5.177  10.335  65.400  1.00  0.00    -0.057 OA 
HETATM   12  OXT UNL     1      -5.595   8.165  65.592  1.00  0.00    -0.038 OA 
ENDROOT
BRANCH   4  13
HETATM   13  C   UNL     1      -8.416   7.846  65.297  1.00  0.00    -0.104 C  
BRANCH  13  14
HETATM   14  O   UNL     1      -9.086   6.647  65.717  1.00  0.00    -0.093 OA 
BRANCH  14  15
HETATM   15  C   UNL     1      -8.307   5.605  66.127  1.00  0.00    -0.120 C  
HETATM   16  C   UNL     1      -7.391   5.140  65.027  1.00  0.00    -0.068 C  
HETATM   17  O   UNL     1      -8.294   5.135  67.256  1.00  0.00    -0.107 OA 
ENDBRANCH  14  15
ENDBRANCH  13  14
ENDBRANCH   4  13
BRANCH   8  18
HETATM   18  N   UNL     1      -8.300  13.596  67.805  1.00  0.00    -0.166 N  
HETATM   19  C   UNL     1      -9.608  13.859  67.404  1.00  0.00    -0.235 C  
HETATM   20  H   UNL     1      -7.662  14.366  67.607  1.00  0.00     0.000 HD 
HETATM   21  O   UNL     1      -9.807  14.847  66.657  1.00  0.00    -0.243 OA 
BRANCH  19  22
HETATM   22  C   UNL     1     -10.846  13.110  67.897  1.00  0.00    -0.242 C  
BRANCH  22  23
HETATM   23  C   UNL     1     -11.475  13.411  69.198  1.00  0.00    -0.300 A  
HETATM   24  N   UNL     1     -12.128  14.615  69.491  1.00  0.00    -0.307 NA 
HETATM   25  H2  UNL     1     -14.292  15.258  71.829  1.00  0.00     0.000 HD 
HETATM   26  N   UNL     1     -13.692  15.448  71.026  1.00  0.00    -0.763 NA 
HETATM   27  C   UNL     1     -11.795  12.375  70.063  1.00  0.00    -0.288 A  
HETATM   28  S   UNL     1     -12.899  12.908  71.250  1.00  0.00    -0.179 SA 
HETATM   29  H1  UNL     1     -13.694  16.375  70.602  1.00  0.00     0.000 HD 
HETATM   30  C   UNL     1     -12.902  14.470  70.535  1.00  0.00    -0.304 A  
ENDBRANCH  22  23
BRANCH  22  31
HETATM   31  N   UNL     1     -11.323  11.994  67.437  1.00  0.00    -0.305 NA 
HETATM   32  H   UNL     1     -11.268  11.174  68.041  1.00  0.00     0.000 HD 
BRANCH  31  33
HETATM   33  O   UNL     1     -11.906  11.829  66.181  1.00  0.00    -0.477 OA 
HETATM   34  C   UNL     1     -11.090  11.671  65.043  1.00  0.00    -0.249 C  
ENDBRANCH  31  33
ENDBRANCH  22  31
ENDBRANCH  19  22
ENDBRANCH   8  18
TORSDOF 8
ENDMDL
MODEL      234
REMARK 921   NORMALIZED FREE ENERGY PREDICTED BY IDOCK:   -3.41 KCAL/MOL
REMARK 922        TOTAL FREE ENERGY PREDICTED BY IDOCK:   -6.16 KCAL/MOL
REMARK 923 INTER-LIGAND FREE ENERGY PREDICTED BY IDOCK:   -5.37 KCAL/MOL
REMARK 924 INTRA-LIGAND FREE ENERGY PREDICTED BY IDOCK:   -0.78 KCAL/MOL
REMARK 927      BINDING AFFINITY PREDICTED BY RF-SCORE:    0.00 PKD
ROOT
HETATM    1  C   UNL     1      -8.653  11.499  68.796  1.00  0.00    -0.052 C  
HETATM    2  S   UNL     1     -10.412  11.348  68.957  1.00  0.00    -0.122 SA 
HETATM    3  C   UNL     1     -10.787   9.801  68.078  1.00  0.00    -0.223 C  
HETATM    4  C   UNL     1      -9.649   9.019  67.485  1.00  0.00    -0.182 C  
HETATM    5  C   UNL     1      -6.954  11.490  67.625  1.00  0.00    -0.091 C  
HETATM    6  CA  UNL     1      -8.351   9.419  67.444  1.00  0.00    -0.125 C  
HETATM    7  N   UNL     1      -7.985  10.651  67.850  1.00  0.00    -0.105 N  
HETATM    8  CA  UNL     1      -7.809  12.682  68.158  1.00  0.00    -0.145 C  
HETATM    9  C   UNL     1      -7.314   8.477  66.917  1.00  0.00    -0.083 C  
HETATM   10  O   UNL     1      -5.947  11.387  66.963  1.00  0.00    -0.082 OA 
HETATM   11  O   UNL     1      -6.282   8.985  66.236  1.00  0.00    -0.062 OA 
HETATM   12  OXT UNL     1      -7.356   7.277  67.159  1.00  0.00    -0.089 OA 
ENDROOT
BRANCH   4  13
HETATM   13  C   UNL     1     -10.143   7.759  66.771  1.00  0.00    -0.270 C  
BRANCH  13  14
HETATM   14  O   UNL     1     -10.786   6.847  67.677  1.00  0.00    -0.230 OA 
BRANCH  14  15
HETATM   15  C   UNL     1     -10.251   5.597  67.791  1.00  0.00    -0.193 C  
HETATM   16  C   UNL     1     -10.098   4.941  66.446  1.00  0.00    -0.286 C  
HETATM   17  O   UNL     1      -9.878   5.083  68.837  1.00  0.00    -0.155 OA 
ENDBRANCH  14  15
ENDBRANCH  13  14
ENDBRANCH   4  13
BRANCH   8  18
HETATM   18  N   UNL     1      -8.116  13.690  67.055  1.00  0.00    -0.384 N  
HETATM   19  C   UNL     1      -8.703  14.953  67.028  1.00  0.00    -0.238 C  
HETATM   20  H   UNL     1      -7.827  13.368  66.132  1.00  0.00     0.000 HD 
HETATM   21  O   UNL     1      -9.028  15.427  65.913  1.00  0.00    -0.278 OA 
BRANCH  19  22
HETATM   22  C   UNL     1      -8.877  15.866  68.241  1.00  0.00    -0.179 C  
BRANCH  22  23
HETATM   23  C   UNL     1      -7.889  16.909  68.583  1.00  0.00    -0.244 A  
HETATM   24  N   UNL     1      -7.114  16.900  69.749  1.00  0.00     0.149 NA 
HETATM   25  H2  UNL     1      -4.345  18.480  70.383  1.00  0.00     0.000 HD 
HETATM   26  N   UNL     1      -5.136  17.861  70.563  1.00  0.00    -0.248 NA 
HETATM   27  C   UNL     1      -7.397  17.742  67.589  1.00  0.00    -0.200 A  
HETATM   28  S   UNL     1      -5.974  18.523  68.116  1.00  0.00    -0.194 SA 
HETATM   29  H1  UNL     1      -5.202  17.371  71.455  1.00  0.00     0.000 HD 
HETATM   30  C   UNL     1      -6.086  17.698  69.618  1.00  0.00    -0.245 A  
ENDBRANCH  22  23
BRANCH  22  31
HETATM   31  N   UNL     1      -9.686  15.697  69.242  1.00  0.00    -0.253 NA 
HETATM   32  H   UNL     1      -9.272  15.582  70.167  1.00  0.00     0.000 HD 
BRANCH  31  33
HETATM   33  O   UNL     1     -11.077  15.660  69.151  1.00  0.00    -0.246 OA 
HETATM   34  C   UNL     1     -11.710  14.571  68.520  1.00  0.00    -0.318 C  
ENDBRANCH  31  33
ENDBRANCH  22  31
ENDBRANCH  19  22
ENDBRANCH   8  18
TORSDOF 8
ENDMDL
MODEL      235
REMARK 921   NORMALIZED FREE ENERGY PREDICTED BY IDOCK:   -3.35 KCAL/MOL
REMARK 922        TOTAL FREE ENERGY PREDICTED BY IDOCK:   -6.07 KCAL/MOL
REMARK 923 INTER-LIGAND FREE ENERGY PREDICTED BY IDOCK:   -5.01 KCAL/MOL
REMARK 924 INTRA-LIGAND FREE ENERGY PREDICTED BY IDOCK:   -1.06 KCAL/MOL
REMARK 927      BINDING AFFINITY PREDICTED BY RF-SCORE:    0.00 PKD
ROOT
HETATM    1  C   UNL     1      -8.262   7.549  69.920  1.00  0.00    -0.131 C  
HETATM    2  S   UNL     1      -9.781   7.265  69.051  1.00  0.00    -0.153 SA 
HETATM    3  C   UNL     1     -10.150   8.882  68.304  1.00  0.00    -0.187 C  
HETATM    4  C   UNL     1      -9.178  10.008  68.515  1.00  0.00    -0.141 C  
HETATM    5  C   UNL     1      -7.133   8.667  71.236  1.00  0.00    -0.085 C  
HETATM    6  CA  UNL     1      -8.083   9.968  69.319  1.00  0.00    -0.141 C  
HETATM    7  N   UNL     1      -7.835   8.906  70.111  1.00  0.00    -0.087 N  
HETATM    8  CA  UNL     1      -7.946   7.354  71.463  1.00  0.00    -0.095 C  
HETATM    9  C   UNL     1      -7.150  11.138  69.339  1.00  0.00    -0.110 C  
HETATM   10  O   UNL     1      -6.434   9.372  71.929  1.00  0.00    -0.288 OA 
HETATM   11  O   UNL     1      -6.551  11.453  70.490  1.00  0.00    -0.197 OA 
HETATM   12  OXT UNL     1      -6.875  11.756  68.317  1.00  0.00    -0.062 OA 
ENDROOT
BRANCH   4  13
HETATM   13  C   UNL     1      -9.651  11.294  67.834  1.00  0.00    -0.178 C  
BRANCH  13  14
HETATM   14  O   UNL     1     -10.854  11.089  67.076  1.00  0.00    -0.260 OA 
BRANCH  14  15
HETATM   15  C   UNL     1     -11.720  12.138  66.979  1.00  0.00    -0.303 C  
HETATM   16  C   UNL     1     -11.745  12.947  68.248  1.00  0.00    -0.390 C  
HETATM   17  O   UNL     1     -12.357  12.438  65.978  1.00  0.00    -0.627 OA 
ENDBRANCH  14  15
ENDBRANCH  13  14
ENDBRANCH   4  13
BRANCH   8  18
HETATM   18  N   UNL     1      -8.815   7.440  72.713  1.00  0.00    -0.126 N  
HETATM   19  C   UNL     1      -9.624   6.536  73.399  1.00  0.00    -0.155 C  
HETATM   20  H   UNL     1      -8.800   8.364  73.143  1.00  0.00     0.000 HD 
HETATM   21  O   UNL     1     -10.403   6.989  74.271  1.00  0.00    -0.302 OA 
BRANCH  19  22
HETATM   22  C   UNL     1      -9.556   5.016  73.260  1.00  0.00    -0.140 C  
BRANCH  22  23
HETATM   23  C   UNL     1      -8.276   4.282  73.314  1.00  0.00    -0.091 A  
HETATM   24  N   UNL     1      -7.664   3.694  72.201  1.00  0.00    -0.058 NA 
HETATM   25  H2  UNL     1      -4.564   2.805  71.795  1.00  0.00     0.000 HD 
HETATM   26  N   UNL     1      -5.544   2.938  71.544  1.00  0.00    -0.008 NA 
HETATM   27  C   UNL     1      -7.421   4.471  74.390  1.00  0.00    -0.077 A  
HETATM   28  S   UNL     1      -5.856   3.901  74.015  1.00  0.00    -0.004 SA 
HETATM   29  H1  UNL     1      -5.867   2.675  70.613  1.00  0.00     0.000 HD 
HETATM   30  C   UNL     1      -6.401   3.459  72.447  1.00  0.00    -0.014 A  
ENDBRANCH  22  23
BRANCH  22  31
HETATM   31  N   UNL     1     -10.485   4.226  72.816  1.00  0.00    -0.180 NA 
HETATM   32  H   UNL     1     -10.565   4.116  71.805  1.00  0.00     0.000 HD 
BRANCH  31  33
HETATM   33  O   UNL     1     -11.382   3.516  73.613  1.00  0.00    -0.220 OA 
HETATM   34  C   UNL     1     -11.447   2.111  73.517  1.00  0.00    -0.200 C  
ENDBRANCH  31  33
ENDBRANCH  22  31
ENDBRANCH  19  22
ENDBRANCH   8  18
TORSDOF 8
ENDMDL
MODEL      236
REMARK 921   NORMALIZED FREE ENERGY PREDICTED BY IDOCK:   -3.35 KCAL/MOL
REMARK 922        TOTAL FREE ENERGY PREDICTED BY IDOCK:   -6.07 KCAL/MOL
REMARK 923 INTER-LIGAND FREE ENERGY PREDICTED BY IDOCK:   -5.73 KCAL/MOL
REMARK 924 INTRA-LIGAND FREE ENERGY PREDICTED BY IDOCK:   -0.34 KCAL/MOL
REMARK 927      BINDING AFFINITY PREDICTED BY RF-SCORE:    0.00 PKD
ROOT
HETATM    1  C   UNL     1      -8.571  10.065  69.759  1.00  0.00    -0.173 C  
HETATM    2  S   UNL     1      -7.050  10.566  68.999  1.00  0.00    -0.091 SA 
HETATM    3  C   UNL     1      -7.510  12.068  68.081  1.00  0.00    -0.112 C  
HETATM    4  C   UNL     1      -8.928  12.558  68.171  1.00  0.00    -0.199 C  
HETATM    5  C   UNL     1     -10.586   9.638  69.625  1.00  0.00    -0.233 C  
HETATM    6  CA  UNL     1      -9.950  11.913  68.794  1.00  0.00    -0.092 C  
HETATM    7  N   UNL     1      -9.788  10.676  69.306  1.00  0.00    -0.208 N  
HETATM    8  CA  UNL     1      -9.347   8.688  69.621  1.00  0.00    -0.161 C  
HETATM    9  C   UNL     1     -11.284  12.584  68.891  1.00  0.00    -0.281 C  
HETATM   10  O   UNL     1     -11.784   9.482  69.575  1.00  0.00     0.097 OA 
HETATM   11  O   UNL     1     -12.382  11.826  68.826  1.00  0.00    -0.314 OA 
HETATM   12  OXT UNL     1     -11.382  13.787  69.100  1.00  0.00    -0.255 OA 
ENDROOT
BRANCH   4  13
HETATM   13  C   UNL     1      -9.143  13.817  67.329  1.00  0.00    -0.232 C  
BRANCH  13  14
HETATM   14  O   UNL     1      -9.129  15.008  68.133  1.00  0.00    -0.172 OA 
BRANCH  14  15
HETATM   15  C   UNL     1      -7.932  15.645  68.287  1.00  0.00    -0.129 C  
HETATM   16  C   UNL     1      -7.223  15.805  66.969  1.00  0.00    -0.208 C  
HETATM   17  O   UNL     1      -7.502  16.093  69.341  1.00  0.00    -0.232 OA 
ENDBRANCH  14  15
ENDBRANCH  13  14
ENDBRANCH   4  13
BRANCH   8  18
HETATM   18  N   UNL     1      -9.432   7.659  68.498  1.00  0.00    -0.146 N  
HETATM   19  C   UNL     1      -9.420   7.735  67.107  1.00  0.00    -0.155 C  
HETATM   20  H   UNL     1      -9.516   6.703  68.842  1.00  0.00     0.000 HD 
HETATM   21  O   UNL     1      -9.751   6.713  66.459  1.00  0.00    -0.168 OA 
BRANCH  19  22
HETATM   22  C   UNL     1      -8.922   8.931  66.297  1.00  0.00    -0.170 C  
BRANCH  22  23
HETATM   23  C   UNL     1      -9.843   9.796  65.531  1.00  0.00    -0.308 A  
HETATM   24  N   UNL     1     -10.839  10.587  66.115  1.00  0.00    -0.035 NA 
HETATM   25  H2  UNL     1     -12.395  13.162  64.887  1.00  0.00     0.000 HD 
HETATM   26  N   UNL     1     -12.153  12.453  65.579  1.00  0.00    -0.559 NA 
HETATM   27  C   UNL     1      -9.517  10.169  64.236  1.00  0.00    -0.305 A  
HETATM   28  S   UNL     1     -10.466  11.499  63.743  1.00  0.00    -0.446 SA 
HETATM   29  H1  UNL     1     -12.610  12.461  66.491  1.00  0.00     0.000 HD 
HETATM   30  C   UNL     1     -11.233  11.512  65.279  1.00  0.00    -0.136 A  
ENDBRANCH  22  23
BRANCH  22  31
HETATM   31  N   UNL     1      -7.700   9.184  65.940  1.00  0.00    -0.094 NA 
HETATM   32  H   UNL     1      -7.062   8.393  65.853  1.00  0.00     0.000 HD 
BRANCH  31  33
HETATM   33  O   UNL     1      -7.191  10.453  65.665  1.00  0.00    -0.142 OA 
HETATM   34  C   UNL     1      -6.041  10.590  64.862  1.00  0.00    -0.068 C  
ENDBRANCH  31  33
ENDBRANCH  22  31
ENDBRANCH  19  22
ENDBRANCH   8  18
TORSDOF 8
ENDMDL
MODEL      237
REMARK 921   NORMALIZED FREE ENERGY PREDICTED BY IDOCK:   -2.93 KCAL/MOL
REMARK 922        TOTAL FREE ENERGY PREDICTED BY IDOCK:   -5.46 KCAL/MOL
REMARK 923 INTER-LIGAND FREE ENERGY PREDICTED BY IDOCK:   -5.30 KCAL/MOL
REMARK 924 INTRA-LIGAND FREE ENERGY PREDICTED BY IDOCK:   -0.16 KCAL/MOL
REMARK 927      BINDING AFFINITY PREDICTED BY RF-SCORE:    0.00 PKD
ROOT
HETATM    1  C   UNL     1      -7.974   9.861  63.284  1.00  0.00    -0.151 C  
HETATM    2  S   UNL     1      -9.127  10.811  62.330  1.00  0.00    -0.275 SA 
HETATM    3  C   UNL     1     -10.213  11.548  63.589  1.00  0.00    -0.405 C  
HETATM    4  C   UNL     1      -9.926  11.268  65.037  1.00  0.00    -0.323 C  
HETATM    5  C   UNL     1      -7.585   8.470  64.758  1.00  0.00    -0.100 C  
HETATM    6  CA  UNL     1      -8.982  10.411  65.505  1.00  0.00    -0.176 C  
HETATM    7  N   UNL     1      -8.273   9.626  64.668  1.00  0.00    -0.139 N  
HETATM    8  CA  UNL     1      -7.659   8.308  63.207  1.00  0.00    -0.130 C  
HETATM    9  C   UNL     1      -8.742  10.323  66.980  1.00  0.00    -0.129 C  
HETATM   10  O   UNL     1      -7.346   7.731  65.686  1.00  0.00    -0.070 OA 
HETATM   11  O   UNL     1      -8.415   9.137  67.501  1.00  0.00    -0.115 OA 
HETATM   12  OXT UNL     1      -8.768  11.318  67.693  1.00  0.00    -0.128 OA 
ENDROOT
BRANCH   4  13
HETATM   13  C   UNL     1     -10.943  11.951  65.955  1.00  0.00    -0.307 C  
BRANCH  13  14
HETATM   14  O   UNL     1     -10.610  13.327  66.195  1.00  0.00    -0.280 OA 
BRANCH  14  15
HETATM   15  C   UNL     1     -11.643  14.199  66.379  1.00  0.00    -0.369 C  
HETATM   16  C   UNL     1     -11.208  15.405  67.166  1.00  0.00    -0.256 C  
HETATM   17  O   UNL     1     -12.769  14.066  65.919  1.00  0.00    -0.495 OA 
ENDBRANCH  14  15
ENDBRANCH  13  14
ENDBRANCH   4  13
BRANCH   8  18
HETATM   18  N   UNL     1      -8.502   7.102  62.808  1.00  0.00    -0.359 N  
HETATM   19  C   UNL     1      -8.443   5.739  63.087  1.00  0.00     0.034 C  
HETATM   20  H   UNL     1      -9.284   7.349  62.201  1.00  0.00     0.000 HD 
HETATM   21  O   UNL     1      -9.157   4.966  62.403  1.00  0.00    -0.129 OA 
BRANCH  19  22
HETATM   22  C   UNL     1      -7.664   5.112  64.243  1.00  0.00    -0.088 C  
BRANCH  22  23
HETATM   23  C   UNL     1      -8.262   4.933  65.582  1.00  0.00    -0.115 A  
HETATM   24  N   UNL     1      -9.360   5.663  66.052  1.00  0.00    -0.156 NA 
HETATM   25  H2  UNL     1     -11.399   4.962  68.484  1.00  0.00     0.000 HD 
HETATM   26  N   UNL     1     -11.010   5.500  67.710  1.00  0.00    -0.123 NA 
HETATM   27  C   UNL     1      -8.016   3.768  66.293  1.00  0.00    -0.089 A  
HETATM   28  S   UNL     1      -9.149   3.592  67.558  1.00  0.00    -0.182 SA 
HETATM   29  H1  UNL     1     -11.460   6.369  67.423  1.00  0.00     0.000 HD 
HETATM   30  C   UNL     1      -9.906   5.056  67.074  1.00  0.00    -0.185 A  
ENDBRANCH  22  23
BRANCH  22  31
HETATM   31  N   UNL     1      -6.382   4.927  64.318  1.00  0.00    -0.032 NA 
HETATM   32  H   UNL     1      -5.798   5.745  64.491  1.00  0.00     0.000 HD 
BRANCH  31  33
HETATM   33  O   UNL     1      -5.740   3.697  64.179  1.00  0.00    -0.013 OA 
HETATM   34  C   UNL     1      -6.068   2.852  63.099  1.00  0.00    -0.014 C  
ENDBRANCH  31  33
ENDBRANCH  22  31
ENDBRANCH  19  22
ENDBRANCH   8  18
TORSDOF 8
ENDMDL
MODEL      238
REMARK 921   NORMALIZED FREE ENERGY PREDICTED BY IDOCK:   -2.91 KCAL/MOL
REMARK 922        TOTAL FREE ENERGY PREDICTED BY IDOCK:   -5.43 KCAL/MOL
REMARK 923 INTER-LIGAND FREE ENERGY PREDICTED BY IDOCK:   -4.49 KCAL/MOL
REMARK 924 INTRA-LIGAND FREE ENERGY PREDICTED BY IDOCK:   -0.95 KCAL/MOL
REMARK 927      BINDING AFFINITY PREDICTED BY RF-SCORE:    0.00 PKD
ROOT
HETATM    1  C   UNL     1      -6.851   9.872  68.992  1.00  0.00    -0.054 C  
HETATM    2  S   UNL     1      -6.912   8.419  70.005  1.00  0.00    -0.043 SA 
HETATM    3  C   UNL     1      -6.781   7.060  68.804  1.00  0.00    -0.060 C  
HETATM    4  C   UNL     1      -6.624   7.400  67.349  1.00  0.00    -0.061 C  
HETATM    5  C   UNL     1      -7.515  10.949  67.362  1.00  0.00    -0.100 C  
HETATM    6  CA  UNL     1      -6.683   8.650  66.818  1.00  0.00    -0.069 C  
HETATM    7  N   UNL     1      -7.013   9.717  67.574  1.00  0.00    -0.083 N  
HETATM    8  CA  UNL     1      -7.913  11.045  68.868  1.00  0.00    -0.138 C  
HETATM    9  C   UNL     1      -6.397   8.839  65.361  1.00  0.00    -0.062 C  
HETATM   10  O   UNL     1      -7.827  11.542  66.354  1.00  0.00    -0.123 OA 
HETATM   11  O   UNL     1      -7.073   9.781  64.698  1.00  0.00    -0.114 OA 
HETATM   12  OXT UNL     1      -5.517   8.204  64.794  1.00  0.00    -0.039 OA 
ENDROOT
BRANCH   4  13
HETATM   13  C   UNL     1      -6.545   6.143  66.481  1.00  0.00    -0.055 C  
BRANCH  13  14
HETATM   14  O   UNL     1      -7.818   5.485  66.373  1.00  0.00    -0.098 OA 
BRANCH  14  15
HETATM   15  C   UNL     1      -8.254   5.167  65.120  1.00  0.00    -0.132 C  
HETATM   16  C   UNL     1      -8.882   3.800  65.090  1.00  0.00    -0.123 C  
HETATM   17  O   UNL     1      -8.208   5.908  64.147  1.00  0.00    -0.126 OA 
ENDBRANCH  14  15
ENDBRANCH  13  14
ENDBRANCH   4  13
BRANCH   8  18
HETATM   18  N   UNL     1      -9.427  11.090  69.047  1.00  0.00    -0.362 N  
HETATM   19  C   UNL     1     -10.435  10.128  69.049  1.00  0.00    -0.219 C  
HETATM   20  H   UNL     1      -9.780  12.034  69.200  1.00  0.00     0.000 HD 
HETATM   21  O   UNL     1     -11.624  10.523  68.986  1.00  0.00    -0.255 OA 
BRANCH  19  22
HETATM   22  C   UNL     1     -10.217   8.628  69.242  1.00  0.00    -0.211 C  
BRANCH  22  23
HETATM   23  C   UNL     1     -10.185   8.009  70.582  1.00  0.00    -0.196 A  
HETATM   24  N   UNL     1      -9.995   6.640  70.806  1.00  0.00    -0.184 NA 
HETATM   25  H2  UNL     1      -9.032   5.118  73.512  1.00  0.00     0.000 HD 
HETATM   26  N   UNL     1      -9.334   5.209  72.542  1.00  0.00    -0.135 NA 
HETATM   27  C   UNL     1      -9.952   8.797  71.699  1.00  0.00    -0.311 A  
HETATM   28  S   UNL     1      -9.509   7.827  73.032  1.00  0.00    -0.278 SA 
HETATM   29  H1  UNL     1      -9.407   4.377  71.956  1.00  0.00     0.000 HD 
HETATM   30  C   UNL     1      -9.632   6.427  72.045  1.00  0.00    -0.150 A  
ENDBRANCH  22  23
BRANCH  22  31
HETATM   31  N   UNL     1      -9.769   7.781  68.367  1.00  0.00    -0.156 NA 
HETATM   32  H   UNL     1      -8.894   7.303  68.579  1.00  0.00     0.000 HD 
BRANCH  31  33
HETATM   33  O   UNL     1     -10.393   7.473  67.158  1.00  0.00    -0.252 OA 
HETATM   34  C   UNL     1     -11.042   6.232  66.999  1.00  0.00    -0.297 C  
ENDBRANCH  31  33
ENDBRANCH  22  31
ENDBRANCH  19  22
ENDBRANCH   8  18
TORSDOF 8
ENDMDL
MODEL      239
REMARK 921   NORMALIZED FREE ENERGY PREDICTED BY IDOCK:   -2.91 KCAL/MOL
REMARK 922        TOTAL FREE ENERGY PREDICTED BY IDOCK:   -5.43 KCAL/MOL
REMARK 923 INTER-LIGAND FREE ENERGY PREDICTED BY IDOCK:   -5.12 KCAL/MOL
REMARK 924 INTRA-LIGAND FREE ENERGY PREDICTED BY IDOCK:   -0.32 KCAL/MOL
REMARK 927      BINDING AFFINITY PREDICTED BY RF-SCORE:    0.00 PKD
ROOT
HETATM    1  C   UNL     1      -7.143  14.588  68.020  1.00  0.00    -0.140 C  
HETATM    2  S   UNL     1      -7.197  15.975  66.917  1.00  0.00    -0.110 SA 
HETATM    3  C   UNL     1      -8.962  16.116  66.501  1.00  0.00    -0.287 C  
HETATM    4  C   UNL     1      -9.928  15.157  67.137  1.00  0.00    -0.237 C  
HETATM    5  C   UNL     1      -7.635  12.636  68.469  1.00  0.00    -0.121 C  
HETATM    6  CA  UNL     1      -9.592  14.101  67.924  1.00  0.00    -0.223 C  
HETATM    7  N   UNL     1      -8.304  13.750  68.111  1.00  0.00    -0.156 N  
HETATM    8  CA  UNL     1      -6.320  13.238  67.883  1.00  0.00    -0.144 C  
HETATM    9  C   UNL     1     -10.677  13.301  68.574  1.00  0.00    -0.262 C  
HETATM   10  O   UNL     1      -8.003  11.527  68.782  1.00  0.00    -0.145 OA 
HETATM   11  O   UNL     1     -10.493  11.987  68.726  1.00  0.00    -0.222 OA 
HETATM   12  OXT UNL     1     -11.682  13.835  69.028  1.00  0.00    -0.284 OA 
ENDROOT
BRANCH   4  13
HETATM   13  C   UNL     1     -11.362  15.406  66.665  1.00  0.00    -0.103 C  
BRANCH  13  14
HETATM   14  O   UNL     1     -11.853  14.331  65.849  1.00  0.00    -0.360 OA 
BRANCH  14  15
HETATM   15  C   UNL     1     -12.063  14.594  64.527  1.00  0.00    -0.475 C  
HETATM   16  C   UNL     1     -11.653  15.998  64.176  1.00  0.00    -0.007 C  
HETATM   17  O   UNL     1     -12.473  13.787  63.703  1.00  0.00    -0.718 OA 
ENDBRANCH  14  15
ENDBRANCH  13  14
ENDBRANCH   4  13
BRANCH   8  18
HETATM   18  N   UNL     1      -5.830  12.447  66.675  1.00  0.00     0.013 N  
HETATM   19  C   UNL     1      -6.244  11.274  66.047  1.00  0.00     0.052 C  
HETATM   20  H   UNL     1      -5.017  12.871  66.227  1.00  0.00     0.000 HD 
HETATM   21  O   UNL     1      -5.473  10.753  65.206  1.00  0.00    -0.140 OA 
BRANCH  19  22
HETATM   22  C   UNL     1      -7.619  10.629  66.212  1.00  0.00    -0.137 C  
BRANCH  22  23
HETATM   23  C   UNL     1      -7.788   9.166  66.322  1.00  0.00    -0.103 A  
HETATM   24  N   UNL     1      -7.785   8.467  67.536  1.00  0.00    -0.098 NA 
HETATM   25  H2  UNL     1      -8.953   5.508  68.202  1.00  0.00     0.000 HD 
HETATM   26  N   UNL     1      -8.500   6.403  68.388  1.00  0.00    -0.116 NA 
HETATM   27  C   UNL     1      -8.347   8.458  65.269  1.00  0.00    -0.160 A  
HETATM   28  S   UNL     1      -8.855   6.914  65.791  1.00  0.00    -0.003 SA 
HETATM   29  H1  UNL     1      -8.185   6.624  69.332  1.00  0.00     0.000 HD 
HETATM   30  C   UNL     1      -8.324   7.286  67.382  1.00  0.00    -0.119 A  
ENDBRANCH  22  23
BRANCH  22  31
HETATM   31  N   UNL     1      -8.776  11.180  66.004  1.00  0.00    -0.189 NA 
HETATM   32  H   UNL     1      -9.532  10.942  66.644  1.00  0.00     0.000 HD 
BRANCH  31  33
HETATM   33  O   UNL     1      -9.064  12.072  64.972  1.00  0.00     0.159 OA 
HETATM   34  C   UNL     1      -9.799  11.636  63.851  1.00  0.00    -0.281 C  
ENDBRANCH  31  33
ENDBRANCH  22  31
ENDBRANCH  19  22
ENDBRANCH   8  18
TORSDOF 8
ENDMDL
MODEL      240
REMARK 921   NORMALIZED FREE ENERGY PREDICTED BY IDOCK:   -2.81 KCAL/MOL
REMARK 922        TOTAL FREE ENERGY PREDICTED BY IDOCK:   -5.27 KCAL/MOL
REMARK 923 INTER-LIGAND FREE ENERGY PREDICTED BY IDOCK:   -3.65 KCAL/MOL
REMARK 924 INTRA-LIGAND FREE ENERGY PREDICTED BY IDOCK:   -1.62 KCAL/MOL
REMARK 927      BINDING AFFINITY PREDICTED BY RF-SCORE:    0.00 PKD
ROOT
HETATM    1  C   UNL     1      -6.662   9.339  69.129  1.00  0.00    -0.050 C  
HETATM    2  S   UNL     1      -5.716   8.478  70.356  1.00  0.00    -0.027 SA 
HETATM    3  C   UNL     1      -5.771   6.749  69.797  1.00  0.00    -0.019 C  
HETATM    4  C   UNL     1      -6.497   6.430  68.520  1.00  0.00    -0.049 C  
HETATM    5  C   UNL     1      -8.374   9.526  67.991  1.00  0.00    -0.118 C  
HETATM    6  CA  UNL     1      -7.226   7.309  67.784  1.00  0.00    -0.091 C  
HETATM    7  N   UNL     1      -7.459   8.564  68.221  1.00  0.00    -0.094 N  
HETATM    8  CA  UNL     1      -7.958  10.235  69.318  1.00  0.00    -0.149 C  
HETATM    9  C   UNL     1      -7.800   6.865  66.475  1.00  0.00    -0.106 C  
HETATM   10  O   UNL     1      -9.329   9.585  67.252  1.00  0.00    -0.132 OA 
HETATM   11  O   UNL     1      -8.986   7.354  66.103  1.00  0.00    -0.163 OA 
HETATM   12  OXT UNL     1      -7.177   6.130  65.720  1.00  0.00    -0.071 OA 
ENDROOT
BRANCH   4  13
HETATM   13  C   UNL     1      -6.458   4.932  68.209  1.00  0.00    -0.037 C  
BRANCH  13  14
HETATM   14  O   UNL     1      -7.298   4.178  69.097  1.00  0.00    -0.053 OA 
BRANCH  14  15
HETATM   15  C   UNL     1      -7.884   3.052  68.599  1.00  0.00    -0.057 C  
HETATM   16  C   UNL     1      -6.915   2.248  67.776  1.00  0.00    -0.047 C  
HETATM   17  O   UNL     1      -9.031   2.691  68.830  1.00  0.00    -0.093 OA 
ENDBRANCH  14  15
ENDBRANCH  13  14
ENDBRANCH   4  13
BRANCH   8  18
HETATM   18  N   UNL     1      -9.087  10.214  70.344  1.00  0.00    -0.241 N  
HETATM   19  C   UNL     1      -9.779   9.203  71.007  1.00  0.00    -0.289 C  
HETATM   20  H   UNL     1      -9.406  11.148  70.601  1.00  0.00     0.000 HD 
HETATM   21  O   UNL     1     -10.829   9.514  71.620  1.00  0.00    -0.343 OA 
BRANCH  19  22
HETATM   22  C   UNL     1      -9.301   7.759  71.149  1.00  0.00    -0.150 C  
BRANCH  22  23
HETATM   23  C   UNL     1      -8.516   7.307  72.315  1.00  0.00    -0.115 A  
HETATM   24  N   UNL     1      -7.852   6.076  72.380  1.00  0.00    -0.101 NA 
HETATM   25  H2  UNL     1      -5.419   5.159  74.330  1.00  0.00     0.000 HD 
HETATM   26  N   UNL     1      -6.119   5.066  73.595  1.00  0.00    -0.037 NA 
HETATM   27  C   UNL     1      -8.071   8.234  73.246  1.00  0.00    -0.160 A  
HETATM   28  S   UNL     1      -6.834   7.563  74.211  1.00  0.00    -0.101 SA 
HETATM   29  H1  UNL     1      -6.187   4.194  73.069  1.00  0.00     0.000 HD 
HETATM   30  C   UNL     1      -6.948   6.096  73.326  1.00  0.00    -0.080 A  
ENDBRANCH  22  23
BRANCH  22  31
HETATM   31  N   UNL     1      -9.253   6.853  70.222  1.00  0.00    -0.156 NA 
HETATM   32  H   UNL     1      -8.447   6.229  70.215  1.00  0.00     0.000 HD 
BRANCH  31  33
HETATM   33  O   UNL     1     -10.218   6.666  69.233  1.00  0.00    -0.169 OA 
HETATM   34  C   UNL     1     -11.535   6.316  69.594  1.00  0.00    -0.355 C  
ENDBRANCH  31  33
ENDBRANCH  22  31
ENDBRANCH  19  22
ENDBRANCH   8  18
TORSDOF 8
ENDMDL
MODEL      241
REMARK 921   NORMALIZED FREE ENERGY PREDICTED BY IDOCK:   -2.75 KCAL/MOL
REMARK 922        TOTAL FREE ENERGY PREDICTED BY IDOCK:   -5.19 KCAL/MOL
REMARK 923 INTER-LIGAND FREE ENERGY PREDICTED BY IDOCK:   -4.45 KCAL/MOL
REMARK 924 INTRA-LIGAND FREE ENERGY PREDICTED BY IDOCK:   -0.74 KCAL/MOL
REMARK 927      BINDING AFFINITY PREDICTED BY RF-SCORE:    0.00 PKD
ROOT
HETATM    1  C   UNL     1     -10.269   8.029  67.916  1.00  0.00    -0.212 C  
HETATM    2  S   UNL     1     -10.429   8.851  69.479  1.00  0.00    -0.223 SA 
HETATM    3  C   UNL     1      -9.800  10.524  69.143  1.00  0.00    -0.218 C  
HETATM    4  C   UNL     1      -9.354  10.857  67.748  1.00  0.00    -0.162 C  
HETATM    5  C   UNL     1      -9.137   7.517  66.269  1.00  0.00    -0.157 C  
HETATM    6  CA  UNL     1      -9.267   9.978  66.714  1.00  0.00    -0.148 C  
HETATM    7  N   UNL     1      -9.478   8.659  66.898  1.00  0.00    -0.167 N  
HETATM    8  CA  UNL     1      -9.462   6.709  67.564  1.00  0.00    -0.126 C  
HETATM    9  C   UNL     1      -8.909  10.486  65.353  1.00  0.00    -0.187 C  
HETATM   10  O   UNL     1      -8.512   7.296  65.257  1.00  0.00    -0.133 OA 
HETATM   11  O   UNL     1      -8.170   9.707  64.558  1.00  0.00    -0.132 OA 
HETATM   12  OXT UNL     1      -9.337  11.555  64.935  1.00  0.00    -0.180 OA 
ENDROOT
BRANCH   4  13
HETATM   13  C   UNL     1      -8.842  12.295  67.648  1.00  0.00    -0.175 C  
BRANCH  13  14
HETATM   14  O   UNL     1      -9.918  13.242  67.559  1.00  0.00    -0.218 OA 
BRANCH  14  15
HETATM   15  C   UNL     1      -9.596  14.527  67.230  1.00  0.00    -0.226 C  
HETATM   16  C   UNL     1      -8.108  14.702  67.098  1.00  0.00    -0.213 C  
HETATM   17  O   UNL     1     -10.402  15.421  67.005  1.00  0.00    -0.268 OA 
ENDBRANCH  14  15
ENDBRANCH  13  14
ENDBRANCH   4  13
BRANCH   8  18
HETATM   18  N   UNL     1      -8.210   6.074  68.160  1.00  0.00    -0.113 N  
HETATM   19  C   UNL     1      -7.816   5.728  69.450  1.00  0.00    -0.093 C  
HETATM   20  H   UNL     1      -7.505   5.853  67.457  1.00  0.00     0.000 HD 
HETATM   21  O   UNL     1      -6.610   5.436  69.638  1.00  0.00    -0.043 OA 
BRANCH  19  22
HETATM   22  C   UNL     1      -8.758   5.560  70.641  1.00  0.00    -0.129 C  
BRANCH  22  23
HETATM   23  C   UNL     1      -8.568   6.307  71.901  1.00  0.00    -0.128 A  
HETATM   24  N   UNL     1      -7.449   6.167  72.731  1.00  0.00    -0.093 NA 
HETATM   25  H2  UNL     1      -6.323   8.189  75.013  1.00  0.00     0.000 HD 
HETATM   26  N   UNL     1      -6.350   7.354  74.429  1.00  0.00    -0.081 NA 
HETATM   27  C   UNL     1      -9.294   7.466  72.129  1.00  0.00    -0.135 A  
HETATM   28  S   UNL     1      -8.588   8.374  73.390  1.00  0.00    -0.003 SA 
HETATM   29  H1  UNL     1      -5.617   6.650  74.519  1.00  0.00     0.000 HD 
HETATM   30  C   UNL     1      -7.354   7.189  73.542  1.00  0.00    -0.075 A  
ENDBRANCH  22  23
BRANCH  22  31
HETATM   31  N   UNL     1      -9.619   4.607  70.833  1.00  0.00    -0.165 NA 
HETATM   32  H   UNL     1     -10.600   4.872  70.926  1.00  0.00     0.000 HD 
BRANCH  31  33
HETATM   33  O   UNL     1      -9.308   3.251  70.922  1.00  0.00    -0.123 OA 
HETATM   34  C   UNL     1      -9.584   2.543  72.109  1.00  0.00    -0.124 C  
ENDBRANCH  31  33
ENDBRANCH  22  31
ENDBRANCH  19  22
ENDBRANCH   8  18
TORSDOF 8
ENDMDL
MODEL      242
REMARK 921   NORMALIZED FREE ENERGY PREDICTED BY IDOCK:   -2.68 KCAL/MOL
REMARK 922        TOTAL FREE ENERGY PREDICTED BY IDOCK:   -5.09 KCAL/MOL
REMARK 923 INTER-LIGAND FREE ENERGY PREDICTED BY IDOCK:   -4.07 KCAL/MOL
REMARK 924 INTRA-LIGAND FREE ENERGY PREDICTED BY IDOCK:   -1.02 KCAL/MOL
REMARK 927      BINDING AFFINITY PREDICTED BY RF-SCORE:    0.00 PKD
ROOT
HETATM    1  C   UNL     1     -10.573   7.539  68.687  1.00  0.00    -0.142 C  
HETATM    2  S   UNL     1     -10.236   8.281  70.261  1.00  0.00    -0.200 SA 
HETATM    3  C   UNL     1      -9.372   9.821  69.827  1.00  0.00    -0.226 C  
HETATM    4  C   UNL     1      -9.170  10.146  68.374  1.00  0.00    -0.133 C  
HETATM    5  C   UNL     1      -9.935   6.921  66.824  1.00  0.00    -0.182 C  
HETATM    6  CA  UNL     1      -9.478   9.330  67.331  1.00  0.00    -0.132 C  
HETATM    7  N   UNL     1      -9.903   8.067  67.533  1.00  0.00    -0.160 N  
HETATM    8  CA  UNL     1     -10.137   6.113  68.144  1.00  0.00    -0.157 C  
HETATM    9  C   UNL     1      -9.319   9.842  65.934  1.00  0.00    -0.192 C  
HETATM   10  O   UNL     1      -9.592   6.647  65.696  1.00  0.00     0.234 OA 
HETATM   11  O   UNL     1      -8.932   8.986  64.984  1.00  0.00    -0.202 OA 
HETATM   12  OXT UNL     1      -9.603  10.996  65.638  1.00  0.00    -0.205 OA 
ENDROOT
BRANCH   4  13
HETATM   13  C   UNL     1      -8.415  11.464  68.192  1.00  0.00    -0.152 C  
BRANCH  13  14
HETATM   14  O   UNL     1      -9.219  12.597  68.556  1.00  0.00    -0.168 OA 
BRANCH  14  15
HETATM   15  C   UNL     1      -8.889  13.802  68.006  1.00  0.00    -0.182 C  
HETATM   16  C   UNL     1      -8.274  14.720  69.027  1.00  0.00    -0.141 C  
HETATM   17  O   UNL     1      -9.011  14.095  66.824  1.00  0.00    -0.242 OA 
ENDBRANCH  14  15
ENDBRANCH  13  14
ENDBRANCH   4  13
BRANCH   8  18
HETATM   18  N   UNL     1      -8.940   5.217  68.443  1.00  0.00    -0.105 N  
HETATM   19  C   UNL     1      -8.454   4.030  67.898  1.00  0.00    -0.094 C  
HETATM   20  H   UNL     1      -8.368   5.563  69.213  1.00  0.00     0.000 HD 
HETATM   21  O   UNL     1      -7.566   3.412  68.533  1.00  0.00    -0.053 OA 
BRANCH  19  22
HETATM   22  C   UNL     1      -8.829   3.476  66.524  1.00  0.00    -0.133 C  
BRANCH  22  23
HETATM   23  C   UNL     1      -7.841   3.357  65.433  1.00  0.00    -0.082 A  
HETATM   24  N   UNL     1      -7.110   4.435  64.919  1.00  0.00    -0.061 NA 
HETATM   25  H2  UNL     1      -4.347   4.408  63.208  1.00  0.00     0.000 HD 
HETATM   26  N   UNL     1      -5.151   4.813  63.687  1.00  0.00    -0.009 NA 
HETATM   27  C   UNL     1      -7.303   2.116  65.126  1.00  0.00    -0.058 A  
HETATM   28  S   UNL     1      -5.891   2.296  64.184  1.00  0.00    -0.014 SA 
HETATM   29  H1  UNL     1      -5.256   5.826  63.730  1.00  0.00     0.000 HD 
HETATM   30  C   UNL     1      -6.068   4.003  64.258  1.00  0.00    -0.018 A  
ENDBRANCH  22  23
BRANCH  22  31
HETATM   31  N   UNL     1     -10.023   3.315  66.042  1.00  0.00    -0.368 NA 
HETATM   32  H   UNL     1     -10.624   2.627  66.495  1.00  0.00     0.000 HD 
BRANCH  31  33
HETATM   33  O   UNL     1     -10.548   4.010  64.953  1.00  0.00    -0.223 OA 
HETATM   34  C   UNL     1     -10.610   3.390  63.688  1.00  0.00    -0.270 C  
ENDBRANCH  31  33
ENDBRANCH  22  31
ENDBRANCH  19  22
ENDBRANCH   8  18
TORSDOF 8
ENDMDL
MODEL      243
REMARK 921   NORMALIZED FREE ENERGY PREDICTED BY IDOCK:   -2.63 KCAL/MOL
REMARK 922        TOTAL FREE ENERGY PREDICTED BY IDOCK:   -5.02 KCAL/MOL
REMARK 923 INTER-LIGAND FREE ENERGY PREDICTED BY IDOCK:   -4.17 KCAL/MOL
REMARK 924 INTRA-LIGAND FREE ENERGY PREDICTED BY IDOCK:   -0.85 KCAL/MOL
REMARK 927      BINDING AFFINITY PREDICTED BY RF-SCORE:    0.00 PKD
ROOT
HETATM    1  C   UNL     1      -9.331   7.200  71.907  1.00  0.00    -0.138 C  
HETATM    2  S   UNL     1      -7.714   7.525  71.256  1.00  0.00    -0.087 SA 
HETATM    3  C   UNL     1      -7.942   9.054  70.299  1.00  0.00    -0.121 C  
HETATM    4  C   UNL     1      -9.301   9.695  70.283  1.00  0.00    -0.292 C  
HETATM    5  C   UNL     1     -11.365   6.990  71.630  1.00  0.00    -0.257 C  
HETATM    6  CA  UNL     1     -10.429   9.172  70.833  1.00  0.00    -0.278 C  
HETATM    7  N   UNL     1     -10.439   7.932  71.363  1.00  0.00    -0.205 N  
HETATM    8  CA  UNL     1     -10.239   5.913  71.721  1.00  0.00    -0.203 C  
HETATM    9  C   UNL     1     -11.686   9.984  70.830  1.00  0.00    -0.350 C  
HETATM   10  O   UNL     1     -12.566   6.963  71.493  1.00  0.00    -0.365 OA 
HETATM   11  O   UNL     1     -12.852   9.348  70.689  1.00  0.00    -0.058 OA 
HETATM   12  OXT UNL     1     -11.668  11.193  71.023  1.00  0.00    -0.176 OA 
ENDROOT
BRANCH   4  13
HETATM   13  C   UNL     1      -9.318  10.958  69.420  1.00  0.00     0.088 C  
BRANCH  13  14
HETATM   14  O   UNL     1      -9.514  10.656  68.029  1.00  0.00    -0.153 OA 
BRANCH  14  15
HETATM   15  C   UNL     1      -9.923  11.674  67.218  1.00  0.00    -0.191 C  
HETATM   16  C   UNL     1     -11.408  11.623  66.982  1.00  0.00    -0.373 C  
HETATM   17  O   UNL     1      -9.202  12.560  66.781  1.00  0.00    -0.209 OA 
ENDBRANCH  14  15
ENDBRANCH  13  14
ENDBRANCH   4  13
BRANCH   8  18
HETATM   18  N   UNL     1     -10.354   4.884  70.601  1.00  0.00    -0.205 N  
HETATM   19  C   UNL     1      -9.440   4.088  69.914  1.00  0.00    -0.194 C  
HETATM   20  H   UNL     1     -11.314   4.748  70.284  1.00  0.00     0.000 HD 
HETATM   21  O   UNL     1      -9.830   3.512  68.870  1.00  0.00    -0.040 OA 
BRANCH  19  22
HETATM   22  C   UNL     1      -8.026   3.762  70.393  1.00  0.00    -0.050 C  
BRANCH  22  23
HETATM   23  C   UNL     1      -7.776   3.038  71.656  1.00  0.00    -0.052 A  
HETATM   24  N   UNL     1      -6.550   3.048  72.333  1.00  0.00    -0.014 NA 
HETATM   25  H2  UNL     1      -5.918   2.332  75.439  1.00  0.00     0.000 HD 
HETATM   26  N   UNL     1      -5.716   2.617  74.481  1.00  0.00    -0.003 NA 
HETATM   27  C   UNL     1      -8.846   2.633  72.439  1.00  0.00    -0.074 A  
HETATM   28  S   UNL     1      -8.319   2.251  74.017  1.00  0.00    -0.059 SA 
HETATM   29  H1  UNL     1      -4.761   2.862  74.217  1.00  0.00     0.000 HD 
HETATM   30  C   UNL     1      -6.713   2.664  73.572  1.00  0.00    -0.023 A  
ENDBRANCH  22  23
BRANCH  22  31
HETATM   31  N   UNL     1      -6.913   4.275  69.965  1.00  0.00    -0.041 NA 
HETATM   32  H   UNL     1      -6.827   5.291  69.981  1.00  0.00     0.000 HD 
BRANCH  31  33
HETATM   33  O   UNL     1      -5.826   3.545  69.485  1.00  0.00    -0.021 OA 
HETATM   34  C   UNL     1      -6.004   2.638  68.422  1.00  0.00    -0.024 C  
ENDBRANCH  31  33
ENDBRANCH  22  31
ENDBRANCH  19  22
ENDBRANCH   8  18
TORSDOF 8
ENDMDL
MODEL      244
REMARK 921   NORMALIZED FREE ENERGY PREDICTED BY IDOCK:   -2.57 KCAL/MOL
REMARK 922        TOTAL FREE ENERGY PREDICTED BY IDOCK:   -4.93 KCAL/MOL
REMARK 923 INTER-LIGAND FREE ENERGY PREDICTED BY IDOCK:   -3.99 KCAL/MOL
REMARK 924 INTRA-LIGAND FREE ENERGY PREDICTED BY IDOCK:   -0.94 KCAL/MOL
REMARK 927      BINDING AFFINITY PREDICTED BY RF-SCORE:    0.00 PKD
ROOT
HETATM    1  C   UNL     1      -9.922   9.336  65.994  1.00  0.00    -0.255 C  
HETATM    2  S   UNL     1     -10.856  10.827  66.207  1.00  0.00     0.003 SA 
HETATM    3  C   UNL     1      -9.632  12.007  66.852  1.00  0.00    -0.203 C  
HETATM    4  C   UNL     1      -8.212  11.546  67.022  1.00  0.00    -0.167 C  
HETATM    5  C   UNL     1      -8.614   7.920  66.732  1.00  0.00    -0.131 C  
HETATM    6  CA  UNL     1      -7.766  10.274  66.842  1.00  0.00    -0.105 C  
HETATM    7  N   UNL     1      -8.621   9.261  66.596  1.00  0.00    -0.126 N  
HETATM    8  CA  UNL     1     -10.172   7.905  66.631  1.00  0.00    -0.233 C  
HETATM    9  C   UNL     1      -6.299   9.995  66.943  1.00  0.00    -0.065 C  
HETATM   10  O   UNL     1      -7.773   7.143  67.121  1.00  0.00    -0.104 OA 
HETATM   11  O   UNL     1      -5.909   8.824  67.456  1.00  0.00    -0.042 OA 
HETATM   12  OXT UNL     1      -5.466  10.778  66.504  1.00  0.00    -0.056 OA 
ENDROOT
BRANCH   4  13
HETATM   13  C   UNL     1      -7.323  12.656  67.588  1.00  0.00    -0.139 C  
BRANCH  13  14
HETATM   14  O   UNL     1      -7.281  12.629  69.023  1.00  0.00    -0.081 OA 
BRANCH  14  15
HETATM   15  C   UNL     1      -6.213  13.222  69.630  1.00  0.00    -0.113 C  
HETATM   16  C   UNL     1      -6.314  14.722  69.573  1.00  0.00    -0.127 C  
HETATM   17  O   UNL     1      -5.310  12.630  70.206  1.00  0.00    -0.099 OA 
ENDBRANCH  14  15
ENDBRANCH  13  14
ENDBRANCH   4  13
BRANCH   8  18
HETATM   18  N   UNL     1     -10.815   7.454  67.938  1.00  0.00    -0.457 N  
HETATM   19  C   UNL     1     -10.512   7.640  69.285  1.00  0.00    -0.218 C  
HETATM   20  H   UNL     1     -11.654   6.893  67.794  1.00  0.00     0.000 HD 
HETATM   21  O   UNL     1     -11.114   6.930  70.127  1.00  0.00    -0.266 OA 
BRANCH  19  22
HETATM   22  C   UNL     1      -9.586   8.724  69.836  1.00  0.00    -0.177 C  
BRANCH  22  23
HETATM   23  C   UNL     1      -8.383   8.397  70.628  1.00  0.00    -0.125 A  
HETATM   24  N   UNL     1      -8.179   7.169  71.269  1.00  0.00    -0.108 NA 
HETATM   25  H2  UNL     1      -5.404   5.836  72.311  1.00  0.00     0.000 HD 
HETATM   26  N   UNL     1      -6.407   5.904  72.138  1.00  0.00    -0.048 NA 
HETATM   27  C   UNL     1      -7.225   9.139  70.455  1.00  0.00    -0.084 A  
HETATM   28  S   UNL     1      -5.882   8.309  71.106  1.00  0.00    -0.035 SA 
HETATM   29  H1  UNL     1      -7.018   5.133  72.406  1.00  0.00     0.000 HD 
HETATM   30  C   UNL     1      -6.913   7.012  71.557  1.00  0.00    -0.065 A  
ENDBRANCH  22  23
BRANCH  22  31
HETATM   31  N   UNL     1      -9.840   9.992  69.944  1.00  0.00    -0.307 NA 
HETATM   32  H   UNL     1      -9.063  10.609  70.180  1.00  0.00     0.000 HD 
BRANCH  31  33
HETATM   33  O   UNL     1     -11.093  10.577  69.764  1.00  0.00    -0.254 OA 
HETATM   34  C   UNL     1     -12.260   9.836  70.037  1.00  0.00     0.198 C  
ENDBRANCH  31  33
ENDBRANCH  22  31
ENDBRANCH  19  22
ENDBRANCH   8  18
TORSDOF 8
ENDMDL
MODEL      245
REMARK 921   NORMALIZED FREE ENERGY PREDICTED BY IDOCK:   -2.55 KCAL/MOL
REMARK 922        TOTAL FREE ENERGY PREDICTED BY IDOCK:   -4.89 KCAL/MOL
REMARK 923 INTER-LIGAND FREE ENERGY PREDICTED BY IDOCK:   -5.01 KCAL/MOL
REMARK 924 INTRA-LIGAND FREE ENERGY PREDICTED BY IDOCK:    0.11 KCAL/MOL
REMARK 927      BINDING AFFINITY PREDICTED BY RF-SCORE:    0.00 PKD
ROOT
HETATM    1  C   UNL     1      -7.467  13.619  68.657  1.00  0.00    -0.113 C  
HETATM    2  S   UNL     1      -7.831  15.192  67.926  1.00  0.00    -0.147 SA 
HETATM    3  C   UNL     1      -9.627  15.125  67.647  1.00  0.00    -0.206 C  
HETATM    4  C   UNL     1     -10.375  13.896  68.081  1.00  0.00    -0.247 C  
HETATM    5  C   UNL     1      -7.615  11.561  68.647  1.00  0.00    -0.134 C  
HETATM    6  CA  UNL     1      -9.813  12.760  68.572  1.00  0.00    -0.143 C  
HETATM    7  N   UNL     1      -8.475  12.598  68.603  1.00  0.00    -0.030 N  
HETATM    8  CA  UNL     1      -6.465  12.496  68.157  1.00  0.00    -0.076 C  
HETATM    9  C   UNL     1     -10.701  11.661  69.065  1.00  0.00    -0.179 C  
HETATM   10  O   UNL     1      -7.781  10.364  68.701  1.00  0.00    -0.091 OA 
HETATM   11  O   UNL     1     -10.307  10.397  68.886  1.00  0.00    -0.186 OA 
HETATM   12  OXT UNL     1     -11.730  11.898  69.684  1.00  0.00    -0.304 OA 
ENDROOT
BRANCH   4  13
HETATM   13  C   UNL     1     -11.867  14.001  67.758  1.00  0.00    -0.384 C  
BRANCH  13  14
HETATM   14  O   UNL     1     -12.237  13.158  66.655  1.00  0.00    -0.366 OA 
BRANCH  14  15
HETATM   15  C   UNL     1     -12.647  13.772  65.508  1.00  0.00    -0.512 C  
HETATM   16  C   UNL     1     -11.552  13.791  64.476  1.00  0.00    -0.413 C  
HETATM   17  O   UNL     1     -13.774  14.202  65.301  1.00  0.00    -0.248 OA 
ENDBRANCH  14  15
ENDBRANCH  13  14
ENDBRANCH   4  13
BRANCH   8  18
HETATM   18  N   UNL     1      -5.970  12.098  66.770  1.00  0.00    -0.254 N  
HETATM   19  C   UNL     1      -5.856  10.888  66.089  1.00  0.00    -0.145 C  
HETATM   20  H   UNL     1      -5.652  12.894  66.219  1.00  0.00     0.000 HD 
HETATM   21  O   UNL     1      -5.179  10.869  65.032  1.00  0.00    -0.154 OA 
BRANCH  19  22
HETATM   22  C   UNL     1      -6.587   9.599  66.460  1.00  0.00    -0.071 C  
BRANCH  22  23
HETATM   23  C   UNL     1      -5.924   8.510  67.205  1.00  0.00    -0.051 A  
HETATM   24  N   UNL     1      -5.697   8.534  68.587  1.00  0.00    -0.037 NA 
HETATM   25  H2  UNL     1      -5.093   6.062  70.608  1.00  0.00     0.000 HD 
HETATM   26  N   UNL     1      -5.248   7.030  70.329  1.00  0.00    -0.022 NA 
HETATM   27  C   UNL     1      -5.843   7.244  66.645  1.00  0.00    -0.034 A  
HETATM   28  S   UNL     1      -5.470   6.085  67.842  1.00  0.00    -0.005 SA 
HETATM   29  H1  UNL     1      -5.241   7.767  71.034  1.00  0.00     0.000 HD 
HETATM   30  C   UNL     1      -5.459   7.326  69.029  1.00  0.00    -0.018 A  
ENDBRANCH  22  23
BRANCH  22  31
HETATM   31  N   UNL     1      -7.709   9.163  65.971  1.00  0.00    -0.095 NA 
HETATM   32  H   UNL     1      -8.024   8.240  66.267  1.00  0.00     0.000 HD 
BRANCH  31  33
HETATM   33  O   UNL     1      -8.517   9.861  65.074  1.00  0.00    -0.136 OA 
HETATM   34  C   UNL     1      -9.486  10.763  65.557  1.00  0.00    -0.210 C  
ENDBRANCH  31  33
ENDBRANCH  22  31
ENDBRANCH  19  22
ENDBRANCH   8  18
TORSDOF 8
ENDMDL
MODEL      246
REMARK 921   NORMALIZED FREE ENERGY PREDICTED BY IDOCK:   -2.49 KCAL/MOL
REMARK 922        TOTAL FREE ENERGY PREDICTED BY IDOCK:   -4.81 KCAL/MOL
REMARK 923 INTER-LIGAND FREE ENERGY PREDICTED BY IDOCK:   -5.24 KCAL/MOL
REMARK 924 INTRA-LIGAND FREE ENERGY PREDICTED BY IDOCK:    0.43 KCAL/MOL
REMARK 927      BINDING AFFINITY PREDICTED BY RF-SCORE:    0.00 PKD
ROOT
HETATM    1  C   UNL     1      -9.408  10.353  67.261  1.00  0.00    -0.146 C  
HETATM    2  S   UNL     1      -9.397  10.906  65.577  1.00  0.00    -0.214 SA 
HETATM    3  C   UNL     1     -10.529  12.330  65.591  1.00  0.00    -0.261 C  
HETATM    4  C   UNL     1     -11.153  12.737  66.896  1.00  0.00    -0.308 C  
HETATM    5  C   UNL     1     -10.443   9.799  68.958  1.00  0.00    -0.213 C  
HETATM    6  CA  UNL     1     -11.040  12.064  68.072  1.00  0.00    -0.241 C  
HETATM    7  N   UNL     1     -10.424  10.866  68.135  1.00  0.00    -0.173 N  
HETATM    8  CA  UNL     1      -9.795   8.926  67.838  1.00  0.00    -0.169 C  
HETATM    9  C   UNL     1     -11.631  12.657  69.312  1.00  0.00    -0.318 C  
HETATM   10  O   UNL     1     -11.040   9.569  69.985  1.00  0.00    -0.236 OA 
HETATM   11  O   UNL     1     -12.151  11.832  70.225  1.00  0.00    -0.338 OA 
HETATM   12  OXT UNL     1     -11.581  13.861  69.533  1.00  0.00    -0.269 OA 
ENDROOT
BRANCH   4  13
HETATM   13  C   UNL     1     -12.086  13.937  66.724  1.00  0.00    -0.439 C  
BRANCH  13  14
HETATM   14  O   UNL     1     -11.576  15.111  67.376  1.00  0.00    -0.328 OA 
BRANCH  14  15
HETATM   15  C   UNL     1     -10.257  15.407  67.191  1.00  0.00    -0.251 C  
HETATM   16  C   UNL     1     -10.075  16.455  66.127  1.00  0.00    -0.364 C  
HETATM   17  O   UNL     1      -9.331  14.939  67.839  1.00  0.00    -0.187 OA 
ENDBRANCH  14  15
ENDBRANCH  13  14
ENDBRANCH   4  13
BRANCH   8  18
HETATM   18  N   UNL     1     -10.748   7.840  67.351  1.00  0.00    -0.484 N  
HETATM   19  C   UNL     1     -11.024   6.536  67.756  1.00  0.00    -0.316 C  
HETATM   20  H   UNL     1     -11.307   8.133  66.550  1.00  0.00     0.000 HD 
HETATM   21  O   UNL     1     -11.703   5.812  66.988  1.00  0.00     0.934 OA 
BRANCH  19  22
HETATM   22  C   UNL     1     -10.668   5.946  69.120  1.00  0.00    -0.324 C  
BRANCH  22  23
HETATM   23  C   UNL     1      -9.650   4.887  69.273  1.00  0.00    -0.171 A  
HETATM   24  N   UNL     1      -9.938   3.517  69.252  1.00  0.00     0.218 NA 
HETATM   25  H2  UNL     1      -7.945   1.011  68.698  1.00  0.00     0.000 HD 
HETATM   26  N   UNL     1      -8.825   1.483  68.902  1.00  0.00    -0.065 NA 
HETATM   27  C   UNL     1      -8.313   5.183  69.054  1.00  0.00    -0.087 A  
HETATM   28  S   UNL     1      -7.414   3.749  68.836  1.00  0.00    -0.053 SA 
HETATM   29  H1  UNL     1      -9.679   0.936  69.014  1.00  0.00     0.000 HD 
HETATM   30  C   UNL     1      -8.851   2.828  69.024  1.00  0.00    -0.098 A  
ENDBRANCH  22  23
BRANCH  22  31
HETATM   31  N   UNL     1     -11.344   6.054  70.223  1.00  0.00    -0.330 NA 
HETATM   32  H   UNL     1     -12.286   6.438  70.162  1.00  0.00     0.000 HD 
BRANCH  31  33
HETATM   33  O   UNL     1     -10.881   5.685  71.486  1.00  0.00    -0.254 OA 
HETATM   34  C   UNL     1     -11.732   4.994  72.371  1.00  0.00     0.246 C  
ENDBRANCH  31  33
ENDBRANCH  22  31
ENDBRANCH  19  22
ENDBRANCH   8  18
TORSDOF 8
ENDMDL
MODEL      247
REMARK 921   NORMALIZED FREE ENERGY PREDICTED BY IDOCK:   -2.31 KCAL/MOL
REMARK 922        TOTAL FREE ENERGY PREDICTED BY IDOCK:   -4.55 KCAL/MOL
REMARK 923 INTER-LIGAND FREE ENERGY PREDICTED BY IDOCK:   -4.91 KCAL/MOL
REMARK 924 INTRA-LIGAND FREE ENERGY PREDICTED BY IDOCK:    0.37 KCAL/MOL
REMARK 927      BINDING AFFINITY PREDICTED BY RF-SCORE:    0.00 PKD
ROOT
HETATM    1  C   UNL     1     -10.390  18.505  68.617  1.00  0.00    -0.232 C  
HETATM    2  S   UNL     1     -10.308  16.873  69.305  1.00  0.00    -0.258 SA 
HETATM    3  C   UNL     1      -8.526  16.608  69.555  1.00  0.00     0.345 C  
HETATM    4  C   UNL     1      -7.579  17.720  69.204  1.00  0.00    -0.055 C  
HETATM    5  C   UNL     1      -9.759  19.899  67.232  1.00  0.00    -0.387 C  
HETATM    6  CA  UNL     1      -7.920  18.889  68.600  1.00  0.00    -0.346 C  
HETATM    7  N   UNL     1      -9.173  19.104  68.149  1.00  0.00    -0.314 N  
HETATM    8  CA  UNL     1     -11.016  18.973  67.236  1.00  0.00    -0.277 C  
HETATM    9  C   UNL     1      -6.877  19.946  68.415  1.00  0.00    -0.300 C  
HETATM   10  O   UNL     1      -9.325  20.749  66.490  1.00  0.00    -0.085 OA 
HETATM   11  O   UNL     1      -6.932  20.707  67.318  1.00  0.00    -0.283 OA 
HETATM   12  OXT UNL     1      -6.033  20.170  69.273  1.00  0.00    -0.272 OA 
ENDROOT
BRANCH   4  13
HETATM   13  C   UNL     1      -6.124  17.323  69.461  1.00  0.00    -0.247 C  
BRANCH  13  14
HETATM   14  O   UNL     1      -5.840  15.995  68.993  1.00  0.00    -0.115 OA 
BRANCH  14  15
HETATM   15  C   UNL     1      -5.517  15.056  69.929  1.00  0.00    -0.107 C  
HETATM   16  C   UNL     1      -5.594  13.666  69.360  1.00  0.00    -0.087 C  
HETATM   17  O   UNL     1      -5.150  15.297  71.071  1.00  0.00    -0.135 OA 
ENDBRANCH  14  15
ENDBRANCH  13  14
ENDBRANCH   4  13
BRANCH   8  18
HETATM   18  N   UNL     1     -11.199  18.270  65.895  1.00  0.00     0.577 N  
HETATM   19  C   UNL     1     -10.638  17.139  65.305  1.00  0.00    -0.043 C  
HETATM   20  H   UNL     1     -11.885  18.730  65.297  1.00  0.00     0.000 HD 
HETATM   21  O   UNL     1     -10.830  16.958  64.078  1.00  0.00    -0.143 OA 
BRANCH  19  22
HETATM   22  C   UNL     1      -9.901  16.031  66.056  1.00  0.00    -0.337 C  
BRANCH  22  23
HETATM   23  C   UNL     1     -10.551  14.748  66.392  1.00  0.00    -0.300 A  
HETATM   24  N   UNL     1      -9.896  13.511  66.372  1.00  0.00    -0.289 NA 
HETATM   25  H2  UNL     1     -10.724  10.728  67.831  1.00  0.00     0.000 HD 
HETATM   26  N   UNL     1     -10.161  11.357  67.259  1.00  0.00    -0.195 NA 
HETATM   27  C   UNL     1     -11.731  14.746  67.121  1.00  0.00    -0.334 A  
HETATM   28  S   UNL     1     -12.029  13.195  67.768  1.00  0.00    -0.240 SA 
HETATM   29  H1  UNL     1      -9.295  11.020  66.840  1.00  0.00     0.000 HD 
HETATM   30  C   UNL     1     -10.570  12.628  67.062  1.00  0.00    -0.240 A  
ENDBRANCH  22  23
BRANCH  22  31
HETATM   31  N   UNL     1      -8.790  16.136  66.720  1.00  0.00    -0.220 NA 
HETATM   32  H   UNL     1      -8.832  16.007  67.730  1.00  0.00     0.000 HD 
BRANCH  31  33
HETATM   33  O   UNL     1      -7.544  16.411  66.158  1.00  0.00    -0.163 OA 
HETATM   34  C   UNL     1      -7.288  17.683  65.606  1.00  0.00     0.170 C  
ENDBRANCH  31  33
ENDBRANCH  22  31
ENDBRANCH  19  22
ENDBRANCH   8  18
TORSDOF 8
ENDMDL
MODEL      248
REMARK 921   NORMALIZED FREE ENERGY PREDICTED BY IDOCK:   -2.28 KCAL/MOL
REMARK 922        TOTAL FREE ENERGY PREDICTED BY IDOCK:   -4.51 KCAL/MOL
REMARK 923 INTER-LIGAND FREE ENERGY PREDICTED BY IDOCK:   -4.50 KCAL/MOL
REMARK 924 INTRA-LIGAND FREE ENERGY PREDICTED BY IDOCK:   -0.00 KCAL/MOL
REMARK 927      BINDING AFFINITY PREDICTED BY RF-SCORE:    0.00 PKD
ROOT
HETATM    1  C   UNL     1     -10.789  11.077  69.617  1.00  0.00    -0.183 C  
HETATM    2  S   UNL     1     -12.266  10.181  70.013  1.00  0.00     0.031 SA 
HETATM    3  C   UNL     1     -11.744   8.441  69.920  1.00  0.00     0.433 C  
HETATM    4  C   UNL     1     -10.308   8.139  69.598  1.00  0.00    -0.221 C  
HETATM    5  C   UNL     1      -9.163  11.396  68.387  1.00  0.00    -0.183 C  
HETATM    6  CA  UNL     1      -9.365   9.055  69.253  1.00  0.00    -0.150 C  
HETATM    7  N   UNL     1      -9.686  10.349  69.055  1.00  0.00    -0.197 N  
HETATM    8  CA  UNL     1     -10.542  12.124  68.451  1.00  0.00    -0.226 C  
HETATM    9  C   UNL     1      -7.948   8.609  69.069  1.00  0.00    -0.115 C  
HETATM   10  O   UNL     1      -8.157  11.525  67.728  1.00  0.00    -0.123 OA 
HETATM   11  O   UNL     1      -7.210   9.210  68.131  1.00  0.00    -0.077 OA 
HETATM   12  OXT UNL     1      -7.441   7.768  69.800  1.00  0.00    -0.085 OA 
ENDROOT
BRANCH   4  13
HETATM   13  C   UNL     1     -10.048   6.632  69.544  1.00  0.00    -0.177 C  
BRANCH  13  14
HETATM   14  O   UNL     1      -9.612   6.209  68.242  1.00  0.00    -0.120 OA 
BRANCH  14  15
HETATM   15  C   UNL     1     -10.154   5.061  67.743  1.00  0.00    -0.122 C  
HETATM   16  C   UNL     1      -9.957   3.907  68.687  1.00  0.00     0.148 C  
HETATM   17  O   UNL     1     -10.778   4.974  66.694  1.00  0.00    -0.254 OA 
ENDBRANCH  14  15
ENDBRANCH  13  14
ENDBRANCH   4  13
BRANCH   8  18
HETATM   18  N   UNL     1     -11.155  12.288  67.064  1.00  0.00    -0.271 N  
HETATM   19  C   UNL     1     -11.234  13.340  66.153  1.00  0.00    -0.296 C  
HETATM   20  H   UNL     1     -11.608  11.438  66.728  1.00  0.00     0.000 HD 
HETATM   21  O   UNL     1     -12.024  13.223  65.186  1.00  0.00    -0.343 OA 
BRANCH  19  22
HETATM   22  C   UNL     1     -10.346  14.583  66.170  1.00  0.00    -0.297 C  
BRANCH  22  23
HETATM   23  C   UNL     1      -9.894  15.205  67.431  1.00  0.00    -0.224 A  
HETATM   24  N   UNL     1      -8.630  15.778  67.611  1.00  0.00    -0.161 NA 
HETATM   25  H2  UNL     1      -7.648  17.918  69.852  1.00  0.00     0.000 HD 
HETATM   26  N   UNL     1      -7.568  17.299  69.046  1.00  0.00    -0.221 NA 
HETATM   27  C   UNL     1     -10.830  15.601  68.376  1.00  0.00    -0.290 A  
HETATM   28  S   UNL     1     -10.125  16.679  69.496  1.00  0.00    -0.062 SA 
HETATM   29  H1  UNL     1      -6.682  17.235  68.544  1.00  0.00     0.000 HD 
HETATM   30  C   UNL     1      -8.634  16.571  68.651  1.00  0.00    -0.243 A  
ENDBRANCH  22  23
BRANCH  22  31
HETATM   31  N   UNL     1     -10.112  15.394  65.184  1.00  0.00    -0.314 NA 
HETATM   32  H   UNL     1     -10.008  14.988  64.255  1.00  0.00     0.000 HD 
BRANCH  31  33
HETATM   33  O   UNL     1      -9.991  16.779  65.297  1.00  0.00    -0.546 OA 
HETATM   34  C   UNL     1     -11.146  17.578  65.408  1.00  0.00     0.388 C  
ENDBRANCH  31  33
ENDBRANCH  22  31
ENDBRANCH  19  22
ENDBRANCH   8  18
TORSDOF 8
ENDMDL
MODEL      249
REMARK 921   NORMALIZED FREE ENERGY PREDICTED BY IDOCK:   -1.90 KCAL/MOL
REMARK 922        TOTAL FREE ENERGY PREDICTED BY IDOCK:   -3.95 KCAL/MOL
REMARK 923 INTER-LIGAND FREE ENERGY PREDICTED BY IDOCK:   -4.31 KCAL/MOL
REMARK 924 INTRA-LIGAND FREE ENERGY PREDICTED BY IDOCK:    0.36 KCAL/MOL
REMARK 927      BINDING AFFINITY PREDICTED BY RF-SCORE:    0.00 PKD
ROOT
HETATM    1  C   UNL     1      -5.634  15.205  68.442  1.00  0.00    -0.106 C  
HETATM    2  S   UNL     1      -5.296  16.315  67.101  1.00  0.00     0.086 SA 
HETATM    3  C   UNL     1      -6.916  17.062  66.751  1.00  0.00    -0.233 C  
HETATM    4  C   UNL     1      -8.089  16.665  67.602  1.00  0.00    -0.184 C  
HETATM    5  C   UNL     1      -6.764  13.692  69.274  1.00  0.00    -0.094 C  
HETATM    6  CA  UNL     1      -8.082  15.698  68.557  1.00  0.00    -0.147 C  
HETATM    7  N   UNL     1      -7.005  14.908  68.745  1.00  0.00    -0.103 N  
HETATM    8  CA  UNL     1      -5.397  13.639  68.522  1.00  0.00    -0.089 C  
HETATM    9  C   UNL     1      -9.303  15.494  69.398  1.00  0.00    -0.279 C  
HETATM   10  O   UNL     1      -7.480  12.876  69.808  1.00  0.00     0.599 OA 
HETATM   11  O   UNL     1      -9.607  14.252  69.786  1.00  0.00     0.457 OA 
HETATM   12  OXT UNL     1      -9.976  16.439  69.790  1.00  0.00    -0.155 OA 
ENDROOT
BRANCH   4  13
HETATM   13  C   UNL     1      -9.371  17.375  67.161  1.00  0.00    -0.245 C  
BRANCH  13  14
HETATM   14  O   UNL     1      -9.899  16.822  65.945  1.00  0.00    -0.446 OA 
BRANCH  14  15
HETATM   15  C   UNL     1     -10.809  17.572  65.259  1.00  0.00     0.125 C  
HETATM   16  C   UNL     1     -10.661  19.036  65.575  1.00  0.00    -0.105 C  
HETATM   17  O   UNL     1     -11.608  17.138  64.440  1.00  0.00    -0.849 OA 
ENDBRANCH  14  15
ENDBRANCH  13  14
ENDBRANCH   4  13
BRANCH   8  18
HETATM   18  N   UNL     1      -5.382  12.541  67.463  1.00  0.00    -0.115 N  
HETATM   19  C   UNL     1      -6.340  11.666  66.956  1.00  0.00    -0.149 C  
HETATM   20  H   UNL     1      -4.467  12.422  67.029  1.00  0.00     0.000 HD 
HETATM   21  O   UNL     1      -5.945  10.709  66.247  1.00  0.00    -0.082 OA 
BRANCH  19  22
HETATM   22  C   UNL     1      -7.851  11.842  67.094  1.00  0.00    -0.166 C  
BRANCH  22  23
HETATM   23  C   UNL     1      -8.648  11.040  68.044  1.00  0.00    -0.134 A  
HETATM   24  N   UNL     1      -9.948  11.370  68.447  1.00  0.00    -0.198 NA 
HETATM   25  H2  UNL     1     -12.228   9.470  69.771  1.00  0.00     0.000 HD 
HETATM   26  N   UNL     1     -11.819  10.327  69.401  1.00  0.00    -0.488 NA 
HETATM   27  C   UNL     1      -8.304   9.719  68.286  1.00  0.00    -0.106 A  
HETATM   28  S   UNL     1      -9.600   8.892  69.028  1.00  0.00    -0.160 SA 
HETATM   29  H1  UNL     1     -12.379  11.179  69.364  1.00  0.00     0.000 HD 
HETATM   30  C   UNL     1     -10.542  10.326  68.965  1.00  0.00    -0.224 A  
ENDBRANCH  22  23
BRANCH  22  31
HETATM   31  N   UNL     1      -8.649  12.452  66.272  1.00  0.00    -0.409 NA 
HETATM   32  H   UNL     1      -8.892  13.419  66.482  1.00  0.00     0.000 HD 
BRANCH  31  33
HETATM   33  O   UNL     1      -9.201  11.886  65.123  1.00  0.00    -0.037 OA 
HETATM   34  C   UNL     1     -10.360  11.089  65.219  1.00  0.00    -0.275 C  
ENDBRANCH  31  33
ENDBRANCH  22  31
ENDBRANCH  19  22
ENDBRANCH   8  18
TORSDOF 8
ENDMDL
MODEL      250
REMARK 921   NORMALIZED FREE ENERGY PREDICTED BY IDOCK:   -0.85 KCAL/MOL
REMARK 922        TOTAL FREE ENERGY PREDICTED BY IDOCK:   -2.40 KCAL/MOL
REMARK 923 INTER-LIGAND FREE ENERGY PREDICTED BY IDOCK:   -3.19 KCAL/MOL
REMARK 924 INTRA-LIGAND FREE ENERGY PREDICTED BY IDOCK:    0.80 KCAL/MOL
REMARK 927      BINDING AFFINITY PREDICTED BY RF-SCORE:    0.00 PKD
ROOT
HETATM    1  C   UNL     1      -8.030  17.691  65.756  1.00  0.00     0.138 C  
HETATM    2  S   UNL     1      -6.729  16.867  66.634  1.00  0.00    -0.198 SA 
HETATM    3  C   UNL     1      -7.361  15.173  66.833  1.00  0.00     0.213 C  
HETATM    4  C   UNL     1      -8.700  14.832  66.243  1.00  0.00     0.062 C  
HETATM    5  C   UNL     1     -10.026  18.170  65.545  1.00  0.00     0.504 C  
HETATM    6  CA  UNL     1      -9.554  15.713  65.659  1.00  0.00    -0.284 C  
HETATM    7  N   UNL     1      -9.305  17.038  65.664  1.00  0.00     0.100 N  
HETATM    8  CA  UNL     1      -8.852  18.982  66.176  1.00  0.00    -0.183 C  
HETATM    9  C   UNL     1     -10.806  15.200  65.019  1.00  0.00    -0.440 C  
HETATM   10  O   UNL     1     -11.204  18.373  65.359  1.00  0.00    -0.084 OA 
HETATM   11  O   UNL     1     -11.906  15.956  65.080  1.00  0.00     0.089 OA 
HETATM   12  OXT UNL     1     -10.819  14.151  64.388  1.00  0.00    -0.353 OA 
ENDROOT
BRANCH   4  13
HETATM   13  C   UNL     1      -9.082  13.376  66.517  1.00  0.00    -0.113 C  
BRANCH  13  14
HETATM   14  O   UNL     1      -8.560  12.912  67.772  1.00  0.00    -0.161 OA 
BRANCH  14  15
HETATM   15  C   UNL     1      -8.981  11.691  68.212  1.00  0.00    -0.185 C  
HETATM   16  C   UNL     1     -10.074  11.140  67.337  1.00  0.00    -0.213 C  
HETATM   17  O   UNL     1      -8.502  11.078  69.156  1.00  0.00    -0.118 OA 
ENDBRANCH  14  15
ENDBRANCH  13  14
ENDBRANCH   4  13
BRANCH   8  18
HETATM   18  N   UNL     1      -9.236  19.566  67.531  1.00  0.00    -0.306 N  
HETATM   19  C   UNL     1      -9.762  19.032  68.706  1.00  0.00    -0.416 C  
HETATM   20  H   UNL     1      -9.071  20.570  67.592  1.00  0.00     0.000 HD 
HETATM   21  O   UNL     1     -10.192  19.830  69.573  1.00  0.00    -0.298 OA 
BRANCH  19  22
HETATM   22  C   UNL     1      -9.751  17.550  69.078  1.00  0.00    -0.187 C  
BRANCH  22  23
HETATM   23  C   UNL     1      -8.494  16.815  69.324  1.00  0.00     0.037 A  
HETATM   24  N   UNL     1      -7.250  17.431  69.500  1.00  0.00     0.005 NA 
HETATM   25  H2  UNL     1      -4.551  16.246  70.870  1.00  0.00     0.000 HD 
HETATM   26  N   UNL     1      -5.145  16.933  70.405  1.00  0.00    -0.203 NA 
HETATM   27  C   UNL     1      -8.542  15.506  69.779  1.00  0.00     0.013 A  
HETATM   28  S   UNL     1      -7.028  15.040  70.415  1.00  0.00     0.378 SA 
HETATM   29  H1  UNL     1      -4.777  17.862  70.199  1.00  0.00     0.000 HD 
HETATM   30  C   UNL     1      -6.410  16.605  70.068  1.00  0.00     0.002 A  
ENDBRANCH  22  23
BRANCH  22  31
HETATM   31  N   UNL     1     -10.728  16.703  68.960  1.00  0.00    -0.333 NA 
HETATM   32  H   UNL     1     -11.328  16.788  68.140  1.00  0.00     0.000 HD 
BRANCH  31  33
HETATM   33  O   UNL     1     -11.021  15.687  69.869  1.00  0.00    -0.262 OA 
HETATM   34  C   UNL     1     -12.264  15.675  70.533  1.00  0.00    -0.399 C  
ENDBRANCH  31  33
ENDBRANCH  22  31
ENDBRANCH  19  22
ENDBRANCH   8  18
TORSDOF 8
ENDMDL
MODEL      251
REMARK 921   NORMALIZED FREE ENERGY PREDICTED BY IDOCK:   -0.49 KCAL/MOL
REMARK 922        TOTAL FREE ENERGY PREDICTED BY IDOCK:   -1.87 KCAL/MOL
REMARK 923 INTER-LIGAND FREE ENERGY PREDICTED BY IDOCK:   -1.74 KCAL/MOL
REMARK 924 INTRA-LIGAND FREE ENERGY PREDICTED BY IDOCK:   -0.14 KCAL/MOL
REMARK 927      BINDING AFFINITY PREDICTED BY RF-SCORE:    0.00 PKD
ROOT
HETATM    1  C   UNL     1      -6.316   8.610  69.053  1.00  0.00    -0.044 C  
HETATM    2  S   UNL     1      -7.056   8.667  70.663  1.00  0.00    -0.064 SA 
HETATM    3  C   UNL     1      -7.463   6.927  71.004  1.00  0.00    -0.083 C  
HETATM    4  C   UNL     1      -7.095   5.891  69.980  1.00  0.00    -0.071 C  
HETATM    5  C   UNL     1      -6.359   8.000  67.082  1.00  0.00    -0.056 C  
HETATM    6  CA  UNL     1      -6.578   6.143  68.748  1.00  0.00    -0.055 C  
HETATM    7  N   UNL     1      -6.453   7.404  68.287  1.00  0.00    -0.044 N  
HETATM    8  CA  UNL     1      -6.756   9.365  67.728  1.00  0.00    -0.067 C  
HETATM    9  C   UNL     1      -6.161   4.996  67.883  1.00  0.00    -0.027 C  
HETATM   10  O   UNL     1      -6.329   7.564  65.954  1.00  0.00    -0.041 OA 
HETATM   11  O   UNL     1      -6.325   5.105  66.562  1.00  0.00    -0.034 OA 
HETATM   12  OXT UNL     1      -5.614   4.006  68.352  1.00  0.00    -0.012 OA 
ENDROOT
BRANCH   4  13
HETATM   13  C   UNL     1      -7.523   4.489  70.419  1.00  0.00    -0.050 C  
BRANCH  13  14
HETATM   14  O   UNL     1      -8.050   4.483  71.755  1.00  0.00    -0.097 OA 
BRANCH  14  15
HETATM   15  C   UNL     1      -7.419   3.696  72.674  1.00  0.00    -0.059 C  
HETATM   16  C   UNL     1      -8.188   2.428  72.928  1.00  0.00    -0.059 C  
HETATM   17  O   UNL     1      -6.337   3.941  73.189  1.00  0.00    -0.024 OA 
ENDBRANCH  14  15
ENDBRANCH  13  14
ENDBRANCH   4  13
BRANCH   8  18
HETATM   18  N   UNL     1      -8.108   9.855  67.220  1.00  0.00    -0.113 N  
HETATM   19  C   UNL     1      -9.318   9.232  66.922  1.00  0.00    -0.151 C  
HETATM   20  H   UNL     1      -8.131  10.862  67.063  1.00  0.00     0.000 HD 
HETATM   21  O   UNL     1     -10.178   9.891  66.289  1.00  0.00    -0.243 OA 
BRANCH  19  22
HETATM   22  C   UNL     1      -9.735   7.845  67.408  1.00  0.00    -0.161 C  
BRANCH  22  23
HETATM   23  C   UNL     1      -9.774   6.679  66.502  1.00  0.00    -0.121 A  
HETATM   24  N   UNL     1     -10.871   5.817  66.385  1.00  0.00    -0.169 NA 
HETATM   25  H2  UNL     1     -11.620   3.768  63.976  1.00  0.00     0.000 HD 
HETATM   26  N   UNL     1     -11.732   4.250  64.868  1.00  0.00    -0.749 NA 
HETATM   27  C   UNL     1      -8.884   6.603  65.441  1.00  0.00     0.085 A  
HETATM   28  S   UNL     1      -9.411   5.444  64.304  1.00  0.00     0.841 SA 
HETATM   29  H1  UNL     1     -12.552   4.063  65.444  1.00  0.00     0.000 HD 
HETATM   30  C   UNL     1     -10.793   5.130  65.275  1.00  0.00     0.523 A  
ENDBRANCH  22  23
BRANCH  22  31
HETATM   31  N   UNL     1     -10.350   7.551  68.513  1.00  0.00    -0.197 NA 
HETATM   32  H   UNL     1     -11.216   7.019  68.441  1.00  0.00     0.000 HD 
BRANCH  31  33
HETATM   33  O   UNL     1      -9.917   7.907  69.789  1.00  0.00    -0.181 OA 
HETATM   34  C   UNL     1     -10.498   9.010  70.446  1.00  0.00    -0.213 C  
ENDBRANCH  31  33
ENDBRANCH  22  31
ENDBRANCH  19  22
ENDBRANCH   8  18
TORSDOF 8
ENDMDL
MODEL      252
REMARK 921   NORMALIZED FREE ENERGY PREDICTED BY IDOCK:   -0.33 KCAL/MOL
REMARK 922        TOTAL FREE ENERGY PREDICTED BY IDOCK:   -1.64 KCAL/MOL
REMARK 923 INTER-LIGAND FREE ENERGY PREDICTED BY IDOCK:   -3.70 KCAL/MOL
REMARK 924 INTRA-LIGAND FREE ENERGY PREDICTED BY IDOCK:    2.06 KCAL/MOL
REMARK 927      BINDING AFFINITY PREDICTED BY RF-SCORE:    0.00 PKD
ROOT
HETATM    1  C   UNL     1     -12.097  11.093  68.902  1.00  0.00    -0.207 C  
HETATM    2  S   UNL     1     -12.207  12.762  69.488  1.00  0.00    -0.005 SA 
HETATM    3  C   UNL     1     -10.751  13.566  68.754  1.00  0.00    -0.238 C  
HETATM    4  C   UNL     1      -9.858  12.754  67.858  1.00  0.00    -0.223 C  
HETATM    5  C   UNL     1     -11.009   9.364  68.612  1.00  0.00    -0.032 C  
HETATM    6  CA  UNL     1      -9.972  11.420  67.627  1.00  0.00    -0.179 C  
HETATM    7  N   UNL     1     -10.866  10.667  68.300  1.00  0.00    -0.221 N  
HETATM    8  CA  UNL     1     -12.020   9.747  69.738  1.00  0.00     0.211 C  
HETATM    9  C   UNL     1      -9.072  10.774  66.621  1.00  0.00    -0.159 C  
HETATM   10  O   UNL     1     -10.351   8.383  68.350  1.00  0.00    -0.206 OA 
HETATM   11  O   UNL     1      -8.660   9.523  66.847  1.00  0.00    -0.126 OA 
HETATM   12  OXT UNL     1      -8.770  11.338  65.577  1.00  0.00    -0.148 OA 
ENDROOT
BRANCH   4  13
HETATM   13  C   UNL     1      -8.678  13.579  67.342  1.00  0.00    -0.220 C  
BRANCH  13  14
HETATM   14  O   UNL     1      -8.065  14.351  68.388  1.00  0.00    -0.130 OA 
BRANCH  14  15
HETATM   15  C   UNL     1      -8.373  15.679  68.449  1.00  0.00    -0.162 C  
HETATM   16  C   UNL     1      -7.132  16.528  68.470  1.00  0.00    -0.164 C  
HETATM   17  O   UNL     1      -9.506  16.142  68.427  1.00  0.00    -0.201 OA 
ENDBRANCH  14  15
ENDBRANCH  13  14
ENDBRANCH   4  13
BRANCH   8  18
HETATM   18  N   UNL     1     -11.469   9.421  71.122  1.00  0.00    -0.321 N  
HETATM   19  C   UNL     1     -10.687   8.391  71.640  1.00  0.00    -0.265 C  
HETATM   20  H   UNL     1     -11.731  10.112  71.825  1.00  0.00     0.000 HD 
HETATM   21  O   UNL     1     -10.604   8.286  72.887  1.00  0.00    -0.320 OA 
BRANCH  19  22
HETATM   22  C   UNL     1      -9.822   7.443  70.811  1.00  0.00    -0.178 C  
BRANCH  22  23
HETATM   23  C   UNL     1      -8.463   7.811  70.367  1.00  0.00    -0.132 A  
HETATM   24  N   UNL     1      -7.500   8.396  71.200  1.00  0.00    -0.075 NA 
HETATM   25  H2  UNL     1      -4.274   8.525  70.829  1.00  0.00     0.000 HD 
HETATM   26  N   UNL     1      -5.175   8.686  71.279  1.00  0.00    -0.032 NA 
HETATM   27  C   UNL     1      -7.938   7.244  69.216  1.00  0.00    -0.118 A  
HETATM   28  S   UNL     1      -6.244   7.452  69.167  1.00  0.00    -0.032 SA 
HETATM   29  H1  UNL     1      -5.212   9.167  72.178  1.00  0.00     0.000 HD 
HETATM   30  C   UNL     1      -6.308   8.261  70.681  1.00  0.00    -0.036 A  
ENDBRANCH  22  23
BRANCH  22  31
HETATM   31  N   UNL     1     -10.211   6.384  70.168  1.00  0.00    -0.182 NA 
HETATM   32  H   UNL     1     -10.997   6.486  69.526  1.00  0.00     0.000 HD 
BRANCH  31  33
HETATM   33  O   UNL     1      -9.637   5.119  70.287  1.00  0.00    -0.159 OA 
HETATM   34  C   UNL     1     -10.184   4.030  69.578  1.00  0.00     0.561 C  
ENDBRANCH  31  33
ENDBRANCH  22  31
ENDBRANCH  19  22
ENDBRANCH   8  18
TORSDOF 8
ENDMDL
MODEL      253
REMARK 921   NORMALIZED FREE ENERGY PREDICTED BY IDOCK:   -0.02 KCAL/MOL
REMARK 922        TOTAL FREE ENERGY PREDICTED BY IDOCK:   -1.18 KCAL/MOL
REMARK 923 INTER-LIGAND FREE ENERGY PREDICTED BY IDOCK:   -4.31 KCAL/MOL
REMARK 924 INTRA-LIGAND FREE ENERGY PREDICTED BY IDOCK:    3.13 KCAL/MOL
REMARK 927      BINDING AFFINITY PREDICTED BY RF-SCORE:    0.00 PKD
ROOT
HETATM    1  C   UNL     1      -6.520   9.502  67.637  1.00  0.00    -0.062 C  
HETATM    2  S   UNL     1      -6.115   8.020  68.521  1.00  0.00    -0.041 SA 
HETATM    3  C   UNL     1      -5.759   6.822  67.200  1.00  0.00    -0.014 C  
HETATM    4  C   UNL     1      -5.831   7.286  65.773  1.00  0.00    -0.037 C  
HETATM    5  C   UNL     1      -7.586  10.473  66.161  1.00  0.00    -0.135 C  
HETATM    6  CA  UNL     1      -6.255   8.510  65.359  1.00  0.00    -0.049 C  
HETATM    7  N   UNL     1      -6.771   9.402  66.228  1.00  0.00    -0.074 N  
HETATM    8  CA  UNL     1      -7.850  10.364  67.696  1.00  0.00    -0.105 C  
HETATM    9  C   UNL     1      -6.165   8.860  63.907  1.00  0.00    -0.076 C  
HETATM   10  O   UNL     1      -8.132  11.029  65.235  1.00  0.00    -0.012 OA 
HETATM   11  O   UNL     1      -7.116   9.635  63.380  1.00  0.00    -0.100 OA 
HETATM   12  OXT UNL     1      -5.210   8.513  63.222  1.00  0.00    -0.061 OA 
ENDROOT
BRANCH   4  13
HETATM   13  C   UNL     1      -5.519   6.151  64.795  1.00  0.00    -0.017 C  
BRANCH  13  14
HETATM   14  O   UNL     1      -6.577   5.957  63.843  1.00  0.00    -0.035 OA 
BRANCH  14  15
HETATM   15  C   UNL     1      -7.285   4.793  63.922  1.00  0.00    -0.050 C  
HETATM   16  C   UNL     1      -6.684   3.854  64.931  1.00  0.00    -0.048 C  
HETATM   17  O   UNL     1      -8.314   4.550  63.305  1.00  0.00    -0.092 OA 
ENDBRANCH  14  15
ENDBRANCH  13  14
ENDBRANCH   4  13
BRANCH   8  18
HETATM   18  N   UNL     1      -9.303  10.003  67.991  1.00  0.00    -0.131 N  
HETATM   19  C   UNL     1     -10.529  10.389  67.454  1.00  0.00    -0.249 C  
HETATM   20  H   UNL     1      -9.397   9.330  68.750  1.00  0.00     0.000 HD 
HETATM   21  O   UNL     1     -11.569  10.086  68.086  1.00  0.00    -0.144 OA 
BRANCH  19  22
HETATM   22  C   UNL     1     -10.721  11.052  66.091  1.00  0.00    -0.194 C  
BRANCH  22  23
HETATM   23  C   UNL     1     -11.081  12.478  65.959  1.00  0.00    -0.294 A  
HETATM   24  N   UNL     1     -10.203  13.535  66.230  1.00  0.00    -0.292 NA 
HETATM   25  H2  UNL     1     -10.356  16.631  65.254  1.00  0.00     0.000 HD 
HETATM   26  N   UNL     1      -9.974  15.814  65.730  1.00  0.00    -0.338 NA 
HETATM   27  C   UNL     1     -12.176  12.842  65.189  1.00  0.00    -0.470 A  
HETATM   28  S   UNL     1     -12.115  14.507  64.816  1.00  0.00    -0.429 SA 
HETATM   29  H1  UNL     1      -9.096  15.893  66.242  1.00  0.00     0.000 HD 
HETATM   30  C   UNL     1     -10.635  14.638  65.678  1.00  0.00    -0.332 A  
ENDBRANCH  22  23
BRANCH  22  31
HETATM   31  N   UNL     1     -10.878  10.462  64.945  1.00  0.00     0.173 NA 
HETATM   32  H   UNL     1     -11.591   9.737  64.883  1.00  0.00     0.000 HD 
BRANCH  31  33
HETATM   33  O   UNL     1     -10.146  10.744  63.792  1.00  0.00    -0.322 OA 
HETATM   34  C   UNL     1      -9.899  12.083  63.426  1.00  0.00    -0.278 C  
ENDBRANCH  31  33
ENDBRANCH  22  31
ENDBRANCH  19  22
ENDBRANCH   8  18
TORSDOF 8
ENDMDL
MODEL      254
REMARK 921   NORMALIZED FREE ENERGY PREDICTED BY IDOCK:    3.22 KCAL/MOL
REMARK 922        TOTAL FREE ENERGY PREDICTED BY IDOCK:    3.56 KCAL/MOL
REMARK 923 INTER-LIGAND FREE ENERGY PREDICTED BY IDOCK:   -0.10 KCAL/MOL
REMARK 924 INTRA-LIGAND FREE ENERGY PREDICTED BY IDOCK:    3.66 KCAL/MOL
REMARK 927      BINDING AFFINITY PREDICTED BY RF-SCORE:    0.00 PKD
ROOT
HETATM    1  C   UNL     1      -9.267  11.712  69.218  1.00  0.00     0.506 C  
HETATM    2  S   UNL     1      -7.603  12.316  69.131  1.00  0.00     0.312 SA 
HETATM    3  C   UNL     1      -7.760  13.856  68.178  1.00  0.00    -0.142 C  
HETATM    4  C   UNL     1      -9.129  14.288  67.733  1.00  0.00    -0.195 C  
HETATM    5  C   UNL     1     -11.046  11.223  68.294  1.00  0.00    -0.240 C  
HETATM    6  CA  UNL     1     -10.272  13.569  67.881  1.00  0.00    -0.247 C  
HETATM    7  N   UNL     1     -10.249  12.308  68.357  1.00  0.00    -0.216 N  
HETATM    8  CA  UNL     1      -9.848  10.320  68.726  1.00  0.00    -0.180 C  
HETATM    9  C   UNL     1     -11.578  14.184  67.484  1.00  0.00    -0.367 C  
HETATM   10  O   UNL     1     -12.122  11.028  67.776  1.00  0.00    -0.534 OA 
HETATM   11  O   UNL     1     -12.520  13.393  66.963  1.00  0.00    -0.236 OA 
HETATM   12  OXT UNL     1     -11.819  15.366  67.694  1.00  0.00    -0.217 OA 
ENDROOT
BRANCH   4  13
HETATM   13  C   UNL     1      -9.076  15.592  66.933  1.00  0.00    -0.241 C  
BRANCH  13  14
HETATM   14  O   UNL     1      -9.423  16.730  67.738  1.00  0.00    -0.225 OA 
BRANCH  14  15
HETATM   15  C   UNL     1      -8.400  17.496  68.215  1.00  0.00    -0.265 C  
HETATM   16  C   UNL     1      -8.915  18.688  68.973  1.00  0.00    -0.116 C  
HETATM   17  O   UNL     1      -7.210  17.231  68.105  1.00  0.00    -0.184 OA 
ENDBRANCH  14  15
ENDBRANCH  13  14
ENDBRANCH   4  13
BRANCH   8  18
HETATM   18  N   UNL     1      -9.435   9.364  67.611  1.00  0.00    -0.131 N  
HETATM   19  C   UNL     1      -9.426   9.439  66.220  1.00  0.00    -0.214 C  
HETATM   20  H   UNL     1      -9.088   8.473  67.963  1.00  0.00     0.000 HD 
HETATM   21  O   UNL     1      -9.246   8.378  65.576  1.00  0.00    -0.120 OA 
BRANCH  19  22
HETATM   22  C   UNL     1      -9.501  10.732  65.410  1.00  0.00    -0.214 C  
BRANCH  22  23
HETATM   23  C   UNL     1     -10.617  11.012  64.484  1.00  0.00    -0.313 A  
HETATM   24  N   UNL     1     -11.924  11.296  64.899  1.00  0.00     0.307 NA 
HETATM   25  H2  UNL     1     -14.321  12.758  63.263  1.00  0.00     0.000 HD 
HETATM   26  N   UNL     1     -13.867  12.297  64.051  1.00  0.00     0.642 NA 
HETATM   27  C   UNL     1     -10.347  11.391  63.178  1.00  0.00    -0.303 A  
HETATM   28  S   UNL     1     -11.731  12.091  62.463  1.00  0.00     2.059 SA 
HETATM   29  H1  UNL     1     -14.380  12.164  64.923  1.00  0.00     0.000 HD 
HETATM   30  C   UNL     1     -12.593  11.867  63.931  1.00  0.00    -0.340 A  
ENDBRANCH  22  23
BRANCH  22  31
HETATM   31  N   UNL     1      -8.542  11.581  65.195  1.00  0.00    -0.325 NA 
HETATM   32  H   UNL     1      -7.628  11.205  64.947  1.00  0.00     0.000 HD 
BRANCH  31  33
HETATM   33  O   UNL     1      -8.667  12.968  65.278  1.00  0.00     1.251 OA 
HETATM   34  C   UNL     1      -9.726  13.618  64.614  1.00  0.00     0.392 C  
ENDBRANCH  31  33
ENDBRANCH  22  31
ENDBRANCH  19  22
ENDBRANCH   8  18
TORSDOF 8
ENDMDL
MODEL      255
REMARK 921   NORMALIZED FREE ENERGY PREDICTED BY IDOCK:    4.87 KCAL/MOL
REMARK 922        TOTAL FREE ENERGY PREDICTED BY IDOCK:    5.99 KCAL/MOL
REMARK 923 INTER-LIGAND FREE ENERGY PREDICTED BY IDOCK:    4.25 KCAL/MOL
REMARK 924 INTRA-LIGAND FREE ENERGY PREDICTED BY IDOCK:    1.75 KCAL/MOL
REMARK 927      BINDING AFFINITY PREDICTED BY RF-SCORE:    0.00 PKD
ROOT
HETATM    1  C   UNL     1      -9.274  18.831  68.871  1.00  0.00    -0.241 C  
HETATM    2  S   UNL     1      -8.358  18.085  67.550  1.00  0.00    -0.235 SA 
HETATM    3  C   UNL     1      -8.866  16.340  67.615  1.00  0.00    -0.190 C  
HETATM    4  C   UNL     1      -9.884  15.927  68.641  1.00  0.00    -0.212 C  
HETATM    5  C   UNL     1      -9.884  18.849  70.842  1.00  0.00     2.784 C  
HETATM    6  CA  UNL     1     -10.391  16.724  69.618  1.00  0.00    -0.151 C  
HETATM    7  N   UNL     1      -9.915  17.969  69.823  1.00  0.00     0.378 N  
HETATM    8  CA  UNL     1      -8.734  19.629  70.132  1.00  0.00     1.225 C  
HETATM    9  C   UNL     1     -11.481  16.197  70.497  1.00  0.00    -0.343 C  
HETATM   10  O   UNL     1     -10.325  18.811  71.969  1.00  0.00     2.662 OA 
HETATM   11  O   UNL     1     -11.508  16.580  71.777  1.00  0.00    -0.337 OA 
HETATM   12  OXT UNL     1     -12.377  15.490  70.052  1.00  0.00    -0.369 OA 
ENDROOT
BRANCH   4  13
HETATM   13  C   UNL     1     -10.183  14.428  68.566  1.00  0.00    -0.243 C  
BRANCH  13  14
HETATM   14  O   UNL     1     -11.068  14.111  67.480  1.00  0.00    -0.277 OA 
BRANCH  14  15
HETATM   15  C   UNL     1     -11.589  12.851  67.444  1.00  0.00    -0.360 C  
HETATM   16  C   UNL     1     -11.612  12.228  68.813  1.00  0.00    -0.380 C  
HETATM   17  O   UNL     1     -12.043  12.303  66.448  1.00  0.00    -0.623 OA 
ENDBRANCH  14  15
ENDBRANCH  13  14
ENDBRANCH   4  13
BRANCH   8  18
HETATM   18  N   UNL     1      -7.431  19.551  70.922  1.00  0.00     1.325 N  
HETATM   19  C   UNL     1      -6.379  18.639  70.975  1.00  0.00     1.044 C  
HETATM   20  H   UNL     1      -7.302  20.343  71.551  1.00  0.00     0.000 HD 
HETATM   21  O   UNL     1      -5.556  18.745  71.915  1.00  0.00    -0.238 OA 
BRANCH  19  22
HETATM   22  C   UNL     1      -6.075  17.587  69.910  1.00  0.00    -0.181 C  
BRANCH  22  23
HETATM   23  C   UNL     1      -5.590  17.953  68.564  1.00  0.00    -0.161 A  
HETATM   24  N   UNL     1      -5.837  17.198  67.411  1.00  0.00    -0.134 NA 
HETATM   25  H2  UNL     1      -5.689  18.107  64.294  1.00  0.00     0.000 HD 
HETATM   26  N   UNL     1      -5.839  17.478  65.083  1.00  0.00     0.318 NA 
HETATM   27  C   UNL     1      -5.199  19.259  68.307  1.00  0.00    -0.183 A  
HETATM   28  S   UNL     1      -5.127  19.539  66.624  1.00  0.00    -0.159 SA 
HETATM   29  H1  UNL     1      -6.142  16.519  64.915  1.00  0.00     0.000 HD 
HETATM   30  C   UNL     1      -5.637  17.923  66.341  1.00  0.00    -0.179 A  
ENDBRANCH  22  23
BRANCH  22  31
HETATM   31  N   UNL     1      -6.441  16.341  69.909  1.00  0.00    -0.153 NA 
HETATM   32  H   UNL     1      -7.241  16.086  69.331  1.00  0.00     0.000 HD 
BRANCH  31  33
HETATM   33  O   UNL     1      -5.824  15.325  70.637  1.00  0.00    -0.122 OA 
HETATM   34  C   UNL     1      -6.407  14.042  70.686  1.00  0.00    -0.018 C  
ENDBRANCH  31  33
ENDBRANCH  22  31
ENDBRANCH  19  22
ENDBRANCH   8  18
TORSDOF 8
ENDMDL
MODEL      256
REMARK 921   NORMALIZED FREE ENERGY PREDICTED BY IDOCK:   10.54 KCAL/MOL
REMARK 922        TOTAL FREE ENERGY PREDICTED BY IDOCK:   14.32 KCAL/MOL
REMARK 923 INTER-LIGAND FREE ENERGY PREDICTED BY IDOCK:    4.19 KCAL/MOL
REMARK 924 INTRA-LIGAND FREE ENERGY PREDICTED BY IDOCK:   10.13 KCAL/MOL
REMARK 927      BINDING AFFINITY PREDICTED BY RF-SCORE:    0.00 PKD
ROOT
HETATM    1  C   UNL     1      -6.393   8.625  68.994  1.00  0.00    -0.044 C  
HETATM    2  S   UNL     1      -6.427   8.826  70.755  1.00  0.00    -0.054 SA 
HETATM    3  C   UNL     1      -6.975   7.199  71.356  1.00  0.00    -0.064 C  
HETATM    4  C   UNL     1      -7.226   6.110  70.352  1.00  0.00    -0.086 C  
HETATM    5  C   UNL     1      -7.306   8.034  67.240  1.00  0.00    -0.089 C  
HETATM    6  CA  UNL     1      -7.190   6.256  69.001  1.00  0.00    -0.083 C  
HETATM    7  N   UNL     1      -7.031   7.468  68.432  1.00  0.00    -0.076 N  
HETATM    8  CA  UNL     1      -7.169   9.449  67.883  1.00  0.00    -0.082 C  
HETATM    9  C   UNL     1      -7.355   5.049  68.132  1.00  0.00    -0.074 C  
HETATM   10  O   UNL     1      -7.794   7.598  66.223  1.00  0.00    -0.087 OA 
HETATM   11  O   UNL     1      -7.996   5.187  66.968  1.00  0.00    -0.099 OA 
HETATM   12  OXT UNL     1      -6.856   3.971  68.432  1.00  0.00    -0.046 OA 
ENDROOT
BRANCH   4  13
HETATM   13  C   UNL     1      -7.694   4.819  71.027  1.00  0.00    -0.081 C  
BRANCH  13  14
HETATM   14  O   UNL     1      -7.724   4.942  72.458  1.00  0.00    -0.089 OA 
BRANCH  14  15
HETATM   15  C   UNL     1      -6.559   4.717  73.131  1.00  0.00    -0.052 C  
HETATM   16  C   UNL     1      -6.802   3.961  74.408  1.00  0.00    -0.058 C  
HETATM   17  O   UNL     1      -5.443   5.026  72.733  1.00  0.00    -0.011 OA 
ENDBRANCH  14  15
ENDBRANCH  13  14
ENDBRANCH   4  13
BRANCH   8  18
HETATM   18  N   UNL     1      -8.501  10.193  67.891  1.00  0.00    -0.117 N  
HETATM   19  C   UNL     1      -9.767   9.915  68.402  1.00  0.00    -0.149 C  
HETATM   20  H   UNL     1      -8.454  11.095  67.417  1.00  0.00     0.000 HD 
HETATM   21  O   UNL     1     -10.723  10.637  68.030  1.00  0.00    -0.197 OA 
BRANCH  19  22
HETATM   22  C   UNL     1     -10.070   8.871  69.476  1.00  0.00    -0.198 C  
BRANCH  22  23
HETATM   23  C   UNL     1      -9.917   7.424  69.225  1.00  0.00    -0.173 A  
HETATM   24  N   UNL     1      -9.623   6.485  70.221  1.00  0.00    -0.161 NA 
HETATM   25  H2  UNL     1     -10.061   3.265  70.198  1.00  0.00     0.000 HD 
HETATM   26  N   UNL     1      -9.786   4.173  70.572  1.00  0.00    -0.195 NA 
HETATM   27  C   UNL     1     -10.438   6.868  68.067  1.00  0.00    -0.211 A  
HETATM   28  S   UNL     1     -10.548   5.171  68.217  1.00  0.00     0.203 SA 
HETATM   29  H1  UNL     1      -9.412   4.236  71.519  1.00  0.00     0.000 HD 
HETATM   30  C   UNL     1      -9.919   5.279  69.811  1.00  0.00    -0.236 A  
ENDBRANCH  22  23
BRANCH  22  31
HETATM   31  N   UNL     1     -10.733   9.048  70.578  1.00  0.00    -0.226 NA 
HETATM   32  H   UNL     1     -11.737   9.208  70.503  1.00  0.00     0.000 HD 
BRANCH  31  33
HETATM   33  O   UNL     1     -10.178   9.036  71.857  1.00  0.00    -0.343 OA 
HETATM   34  C   UNL     1      -9.851  10.251  72.492  1.00  0.00     7.370 C  
ENDBRANCH  31  33
ENDBRANCH  22  31
ENDBRANCH  19  22
ENDBRANCH   8  18
TORSDOF 8
ENDMDL
MODEL      257
REMARK 921   NORMALIZED FREE ENERGY PREDICTED BY IDOCK:   24.39 KCAL/MOL
REMARK 922        TOTAL FREE ENERGY PREDICTED BY IDOCK:   34.64 KCAL/MOL
REMARK 923 INTER-LIGAND FREE ENERGY PREDICTED BY IDOCK:   19.89 KCAL/MOL
REMARK 924 INTRA-LIGAND FREE ENERGY PREDICTED BY IDOCK:   14.76 KCAL/MOL
REMARK 927      BINDING AFFINITY PREDICTED BY RF-SCORE:    0.00 PKD
ROOT
HETATM    1  C   UNL     1      -8.389  12.399  69.620  1.00  0.00     1.743 C  
HETATM    2  S   UNL     1      -6.635  12.338  69.873  1.00  0.00     0.217 SA 
HETATM    3  C   UNL     1      -6.047  13.893  69.135  1.00  0.00    -0.096 C  
HETATM    4  C   UNL     1      -7.059  14.839  68.554  1.00  0.00    -0.110 C  
HETATM    5  C   UNL     1     -10.012  12.686  68.378  1.00  0.00    -0.210 C  
HETATM    6  CA  UNL     1      -8.389  14.593  68.423  1.00  0.00    -0.157 C  
HETATM    7  N   UNL     1      -8.908  13.383  68.714  1.00  0.00     0.035 N  
HETATM    8  CA  UNL     1      -9.321  11.369  68.854  1.00  0.00    -0.032 C  
HETATM    9  C   UNL     1      -9.287  15.682  67.925  1.00  0.00    -0.195 C  
HETATM   10  O   UNL     1     -10.964  12.949  67.680  1.00  0.00    -0.236 OA 
HETATM   11  O   UNL     1     -10.329  15.345  67.160  1.00  0.00    -0.261 OA 
HETATM   12  OXT UNL     1      -9.127  16.848  68.261  1.00  0.00    -0.221 OA 
ENDROOT
BRANCH   4  13
HETATM   13  C   UNL     1      -6.392  16.084  67.964  1.00  0.00    -0.131 C  
BRANCH  13  14
HETATM   14  O   UNL     1      -6.833  17.287  68.613  1.00  0.00    -0.187 OA 
BRANCH  14  15
HETATM   15  C   UNL     1      -6.445  17.480  69.906  1.00  0.00     0.060 C  
HETATM   16  C   UNL     1      -5.432  18.587  70.015  1.00  0.00    -0.233 C  
HETATM   17  O   UNL     1      -6.896  16.883  70.875  1.00  0.00     1.925 OA 
ENDBRANCH  14  15
ENDBRANCH  13  14
ENDBRANCH   4  13
BRANCH   8  18
HETATM   18  N   UNL     1      -9.068  10.415  67.691  1.00  0.00    -0.138 N  
HETATM   19  C   UNL     1      -8.582  10.570  66.395  1.00  0.00    -0.144 C  
HETATM   20  H   UNL     1      -9.308   9.449  67.912  1.00  0.00     0.000 HD 
HETATM   21  O   UNL     1      -8.720   9.612  65.596  1.00  0.00    -0.129 OA 
BRANCH  19  22
HETATM   22  C   UNL     1      -7.784  11.773  65.894  1.00  0.00     0.632 C  
BRANCH  22  23
HETATM   23  C   UNL     1      -8.444  12.994  65.390  1.00  0.00     2.306 A  
HETATM   24  N   UNL     1      -9.824  13.109  65.185  1.00  0.00    -0.124 NA 
HETATM   25  H2  UNL     1     -11.645  15.791  64.940  1.00  0.00     0.000 HD 
HETATM   26  N   UNL     1     -11.443  14.791  64.963  1.00  0.00    -0.375 NA 
HETATM   27  C   UNL     1      -7.784  14.212  65.463  1.00  0.00     6.092 A  
HETATM   28  S   UNL     1      -8.886  15.500  65.262  1.00  0.00     2.315 SA 
HETATM   29  H1  UNL     1     -12.205  14.120  64.874  1.00  0.00     0.000 HD 
HETATM   30  C   UNL     1     -10.170  14.368  65.112  1.00  0.00    -0.391 A  
ENDBRANCH  22  23
BRANCH  22  31
HETATM   31  N   UNL     1      -6.525  11.805  65.580  1.00  0.00     0.277 NA 
HETATM   32  H   UNL     1      -6.167  11.053  64.992  1.00  0.00     0.000 HD 
BRANCH  31  33
HETATM   33  O   UNL     1      -5.623  12.789  65.985  1.00  0.00     1.824 OA 
HETATM   34  C   UNL     1      -6.059  14.119  66.143  1.00  0.00     5.831 C  
ENDBRANCH  31  33
ENDBRANCH  22  31
ENDBRANCH  19  22
ENDBRANCH   8  18
TORSDOF 8
ENDMDL
MODEL      258
REMARK 921   NORMALIZED FREE ENERGY PREDICTED BY IDOCK:   46.27 KCAL/MOL
REMARK 922        TOTAL FREE ENERGY PREDICTED BY IDOCK:   66.76 KCAL/MOL
REMARK 923 INTER-LIGAND FREE ENERGY PREDICTED BY IDOCK:    6.93 KCAL/MOL
REMARK 924 INTRA-LIGAND FREE ENERGY PREDICTED BY IDOCK:   59.82 KCAL/MOL
REMARK 927      BINDING AFFINITY PREDICTED BY RF-SCORE:    0.00 PKD
ROOT
HETATM    1  C   UNL     1      -8.563   8.489  69.050  1.00  0.00    -0.130 C  
HETATM    2  S   UNL     1      -7.957   8.261  70.701  1.00  0.00    -0.101 SA 
HETATM    3  C   UNL     1      -9.156   7.109  71.437  1.00  0.00    -0.143 C  
HETATM    4  C   UNL     1     -10.281   6.601  70.581  1.00  0.00    -0.215 C  
HETATM    5  C   UNL     1     -10.109   8.917  67.753  1.00  0.00    -0.210 C  
HETATM    6  CA  UNL     1     -10.562   7.013  69.316  1.00  0.00    -0.224 C  
HETATM    7  N   UNL     1      -9.890   8.035  68.748  1.00  0.00    -0.167 N  
HETATM    8  CA  UNL     1      -8.982   9.834  68.321  1.00  0.00    -0.119 C  
HETATM    9  C   UNL     1     -11.653   6.331  68.552  1.00  0.00     0.493 C  
HETATM   10  O   UNL     1     -11.030   9.068  66.983  1.00  0.00    -0.091 OA 
HETATM   11  O   UNL     1     -12.392   7.061  67.712  1.00  0.00     2.644 OA 
HETATM   12  OXT UNL     1     -11.828   5.122  68.628  1.00  0.00     3.280 OA 
ENDROOT
BRANCH   4  13
HETATM   13  C   UNL     1     -11.201   5.659  71.361  1.00  0.00    -0.097 C  
BRANCH  13  14
HETATM   14  O   UNL     1     -10.485   4.538  71.902  1.00  0.00    -0.166 OA 
BRANCH  14  15
HETATM   15  C   UNL     1     -10.306   3.457  71.089  1.00  0.00     0.584 C  
HETATM   16  C   UNL     1     -11.277   2.356  71.420  1.00  0.00     2.773 C  
HETATM   17  O   UNL     1      -9.509   3.394  70.163  1.00  0.00    -0.166 OA 
ENDBRANCH  14  15
ENDBRANCH  13  14
ENDBRANCH   4  13
BRANCH   8  18
HETATM   18  N   UNL     1      -9.540  11.157  68.835  1.00  0.00    -0.335 N  
HETATM   19  C   UNL     1     -10.552  11.504  69.727  1.00  0.00     0.343 C  
HETATM   20  H   UNL     1      -9.067  11.968  68.438  1.00  0.00     0.000 HD 
HETATM   21  O   UNL     1     -10.927  12.701  69.755  1.00  0.00     0.082 OA 
BRANCH  19  22
HETATM   22  C   UNL     1     -11.168  10.566  70.765  1.00  0.00    -0.105 C  
BRANCH  22  23
HETATM   23  C   UNL     1     -10.416   9.430  71.334  1.00  0.00    -0.288 A  
HETATM   24  N   UNL     1     -10.608   8.938  72.631  1.00  0.00     0.133 NA 
HETATM   25  H2  UNL     1      -9.805   6.040  73.865  1.00  0.00     0.000 HD 
HETATM   26  N   UNL     1     -10.189   6.984  73.859  1.00  0.00    -0.355 NA 
HETATM   27  C   UNL     1      -9.763   8.545  70.489  1.00  0.00    -0.177 A  
HETATM   28  S   UNL     1      -9.376   7.104  71.319  1.00  0.00    -0.154 SA 
HETATM   29  H1  UNL     1     -10.627   7.357  74.702  1.00  0.00     0.000 HD 
HETATM   30  C   UNL     1     -10.113   7.732  72.738  1.00  0.00    -0.282 A  
ENDBRANCH  22  23
BRANCH  22  31
HETATM   31  N   UNL     1     -12.425  10.444  71.065  1.00  0.00    -0.352 NA 
HETATM   32  H   UNL     1     -12.997   9.853  70.463  1.00  0.00     0.000 HD 
BRANCH  31  33
HETATM   33  O   UNL     1     -13.053  11.057  72.149  1.00  0.00    -0.460 OA 
HETATM   34  C   UNL     1     -14.052  12.025  71.925  1.00  0.00     0.939 C  
ENDBRANCH  31  33
ENDBRANCH  22  31
ENDBRANCH  19  22
ENDBRANCH   8  18
TORSDOF 8
ENDMDL
MODEL      259
REMARK 921   NORMALIZED FREE ENERGY PREDICTED BY IDOCK:   47.00 KCAL/MOL
REMARK 922        TOTAL FREE ENERGY PREDICTED BY IDOCK:   67.83 KCAL/MOL
REMARK 923 INTER-LIGAND FREE ENERGY PREDICTED BY IDOCK:   54.93 KCAL/MOL
REMARK 924 INTRA-LIGAND FREE ENERGY PREDICTED BY IDOCK:   12.90 KCAL/MOL
REMARK 927      BINDING AFFINITY PREDICTED BY RF-SCORE:    0.00 PKD
ROOT
HETATM    1  C   UNL     1     -11.215  10.552  68.530  1.00  0.00    -0.274 C  
HETATM    2  S   UNL     1     -11.626   9.382  69.796  1.00  0.00     0.246 SA 
HETATM    3  C   UNL     1     -10.595   9.899  71.202  1.00  0.00     0.004 C  
HETATM    4  C   UNL     1      -9.720  11.111  71.043  1.00  0.00     5.165 C  
HETATM    5  C   UNL     1      -9.804  11.562  67.413  1.00  0.00    -0.186 C  
HETATM    6  CA  UNL     1      -9.536  11.808  69.891  1.00  0.00     2.002 C  
HETATM    7  N   UNL     1     -10.059  11.381  68.724  1.00  0.00    -0.206 N  
HETATM    8  CA  UNL     1     -10.636  10.285  67.077  1.00  0.00    -0.239 C  
HETATM    9  C   UNL     1      -8.718  13.061  69.919  1.00  0.00     2.884 C  
HETATM   10  O   UNL     1      -8.983  12.229  66.824  1.00  0.00    -0.204 OA 
HETATM   11  O   UNL     1      -7.967  13.353  68.853  1.00  0.00    -0.033 OA 
HETATM   12  OXT UNL     1      -8.780  13.845  70.857  1.00  0.00     4.020 OA 
ENDROOT
BRANCH   4  13
HETATM   13  C   UNL     1      -8.912  11.392  72.311  1.00  0.00    17.181 C  
BRANCH  13  14
HETATM   14  O   UNL     1      -8.704  10.203  73.090  1.00  0.00     5.497 OA 
BRANCH  14  15
HETATM   15  C   UNL     1      -8.761   9.008  72.434  1.00  0.00     0.498 C  
HETATM   16  C   UNL     1      -9.930   8.183  72.900  1.00  0.00    -0.336 C  
HETATM   17  O   UNL     1      -8.006   8.659  71.537  1.00  0.00    -0.129 OA 
ENDBRANCH  14  15
ENDBRANCH  13  14
ENDBRANCH   4  13
BRANCH   8  18
HETATM   18  N   UNL     1      -9.759   9.177  66.502  1.00  0.00    -0.219 N  
HETATM   19  C   UNL     1      -8.831   9.111  65.465  1.00  0.00    -0.191 C  
HETATM   20  H   UNL     1      -9.879   8.287  66.985  1.00  0.00     0.000 HD 
HETATM   21  O   UNL     1      -8.451   7.977  65.088  1.00  0.00    -0.152 OA 
BRANCH  19  22
HETATM   22  C   UNL     1      -8.145  10.316  64.824  1.00  0.00    -0.151 C  
BRANCH  22  23
HETATM   23  C   UNL     1      -8.743  11.666  64.855  1.00  0.00     0.530 A  
HETATM   24  N   UNL     1      -8.071  12.828  64.457  1.00  0.00     4.370 NA 
HETATM   25  H2  UNL     1      -9.297  15.712  63.595  1.00  0.00     0.000 HD 
HETATM   26  N   UNL     1      -8.575  15.016  63.782  1.00  0.00     9.855 NA 
HETATM   27  C   UNL     1     -10.122  11.805  64.908  1.00  0.00    -0.259 A  
HETATM   28  S   UNL     1     -10.577  13.392  64.475  1.00  0.00    -0.396 SA 
HETATM   29  H1  UNL     1      -7.594  15.253  63.633  1.00  0.00     0.000 HD 
HETATM   30  C   UNL     1      -8.926  13.790  64.224  1.00  0.00     4.513 A  
ENDBRANCH  22  23
BRANCH  22  31
HETATM   31  N   UNL     1      -7.166  10.300  63.971  1.00  0.00    -0.275 NA 
HETATM   32  H   UNL     1      -7.009   9.437  63.451  1.00  0.00     0.000 HD 
BRANCH  31  33
HETATM   33  O   UNL     1      -6.313  11.372  63.710  1.00  0.00     1.039 OA 
HETATM   34  C   UNL     1      -5.707  11.495  62.444  1.00  0.00     0.378 C  
ENDBRANCH  31  33
ENDBRANCH  22  31
ENDBRANCH  19  22
ENDBRANCH   8  18
TORSDOF 8
ENDMDL
MODEL      260
REMARK 921   NORMALIZED FREE ENERGY PREDICTED BY IDOCK:   51.56 KCAL/MOL
REMARK 922        TOTAL FREE ENERGY PREDICTED BY IDOCK:   74.52 KCAL/MOL
REMARK 923 INTER-LIGAND FREE ENERGY PREDICTED BY IDOCK:   27.98 KCAL/MOL
REMARK 924 INTRA-LIGAND FREE ENERGY PREDICTED BY IDOCK:   46.54 KCAL/MOL
REMARK 927      BINDING AFFINITY PREDICTED BY RF-SCORE:    0.00 PKD
ROOT
HETATM    1  C   UNL     1      -8.807  12.274  69.566  1.00  0.00     1.553 C  
HETATM    2  S   UNL     1      -7.323  12.483  68.619  1.00  0.00    -0.073 SA 
HETATM    3  C   UNL     1      -7.865  13.481  67.198  1.00  0.00    -0.007 C  
HETATM    4  C   UNL     1      -9.301  13.918  67.134  1.00  0.00    -0.244 C  
HETATM    5  C   UNL     1     -10.803  11.762  69.681  1.00  0.00     0.112 C  
HETATM    6  CA  UNL     1     -10.282  13.540  67.995  1.00  0.00    -0.243 C  
HETATM    7  N   UNL     1     -10.057  12.614  68.949  1.00  0.00    -0.022 N  
HETATM    8  CA  UNL     1      -9.524  10.930  70.011  1.00  0.00     0.982 C  
HETATM    9  C   UNL     1     -11.643  14.149  67.864  1.00  0.00    -0.338 C  
HETATM   10  O   UNL     1     -11.994  11.559  69.736  1.00  0.00    -0.309 OA 
HETATM   11  O   UNL     1     -12.708  13.392  68.140  1.00  0.00     0.453 OA 
HETATM   12  OXT UNL     1     -11.790  15.332  67.582  1.00  0.00    -0.265 OA 
ENDROOT
BRANCH   4  13
HETATM   13  C   UNL     1      -9.586  14.732  65.870  1.00  0.00    -0.285 C  
BRANCH  13  14
HETATM   14  O   UNL     1     -10.089  16.042  66.178  1.00  0.00    -0.285 OA 
BRANCH  14  15
HETATM   15  C   UNL     1      -9.222  16.928  66.747  1.00  0.00    -0.247 C  
HETATM   16  C   UNL     1      -9.305  18.277  66.085  1.00  0.00    -0.146 C  
HETATM   17  O   UNL     1      -8.507  16.695  67.712  1.00  0.00    -0.183 OA 
ENDBRANCH  14  15
ENDBRANCH  13  14
ENDBRANCH   4  13
BRANCH   8  18
HETATM   18  N   UNL     1      -9.583   9.538  69.391  1.00  0.00    -0.170 N  
HETATM   19  C   UNL     1     -10.410   8.928  68.450  1.00  0.00    -0.200 C  
HETATM   20  H   UNL     1      -8.856   8.916  69.743  1.00  0.00     0.000 HD 
HETATM   21  O   UNL     1     -10.342   7.681  68.328  1.00  0.00    -0.194 OA 
BRANCH  19  22
HETATM   22  C   UNL     1     -11.314   9.666  67.464  1.00  0.00     0.528 C  
BRANCH  22  23
HETATM   23  C   UNL     1     -12.316  10.655  67.911  1.00  0.00     2.021 A  
HETATM   24  N   UNL     1     -12.429  11.111  69.230  1.00  0.00    -0.343 NA 
HETATM   25  H2  UNL     1     -13.862  13.803  70.353  1.00  0.00     0.000 HD 
HETATM   26  N   UNL     1     -13.344  12.926  70.399  1.00  0.00     0.738 NA 
HETATM   27  C   UNL     1     -12.939  11.471  66.980  1.00  0.00     5.404 A  
HETATM   28  S   UNL     1     -13.678  12.802  67.753  1.00  0.00    10.471 SA 
HETATM   29  H1  UNL     1     -13.007  12.584  71.299  1.00  0.00     0.000 HD 
HETATM   30  C   UNL     1     -13.110  12.226  69.269  1.00  0.00     2.069 A  
ENDBRANCH  22  23
BRANCH  22  31
HETATM   31  N   UNL     1     -11.537   9.361  66.222  1.00  0.00     2.186 NA 
HETATM   32  H   UNL     1     -11.504   8.374  65.967  1.00  0.00     0.000 HD 
BRANCH  31  33
HETATM   33  O   UNL     1     -11.820  10.278  65.210  1.00  0.00     2.258 OA 
HETATM   34  C   UNL     1     -12.605  11.414  65.490  1.00  0.00     2.763 C  
ENDBRANCH  31  33
ENDBRANCH  22  31
ENDBRANCH  19  22
ENDBRANCH   8  18
TORSDOF 8
ENDMDL
MODEL      261
REMARK 921   NORMALIZED FREE ENERGY PREDICTED BY IDOCK:   54.62 KCAL/MOL
REMARK 922        TOTAL FREE ENERGY PREDICTED BY IDOCK:   79.01 KCAL/MOL
REMARK 923 INTER-LIGAND FREE ENERGY PREDICTED BY IDOCK:   78.06 KCAL/MOL
REMARK 924 INTRA-LIGAND FREE ENERGY PREDICTED BY IDOCK:    0.95 KCAL/MOL
REMARK 927      BINDING AFFINITY PREDICTED BY RF-SCORE:    0.00 PKD
ROOT
HETATM    1  C   UNL     1      -7.493  10.582  71.671  1.00  0.00     3.743 C  
HETATM    2  S   UNL     1      -7.103   9.550  73.059  1.00  0.00     1.771 SA 
HETATM    3  C   UNL     1      -7.982   8.001  72.694  1.00  0.00    -0.134 C  
HETATM    4  C   UNL     1      -8.751   7.897  71.407  1.00  0.00    -0.148 C  
HETATM    5  C   UNL     1      -8.880  11.408  70.386  1.00  0.00     3.715 C  
HETATM    6  CA  UNL     1      -8.950   8.909  70.521  1.00  0.00    -0.192 C  
HETATM    7  N   UNL     1      -8.551  10.167  70.795  1.00  0.00     0.843 N  
HETATM    8  CA  UNL     1      -8.194  12.006  71.654  1.00  0.00    13.698 C  
HETATM    9  C   UNL     1      -9.646   8.619  69.228  1.00  0.00    -0.166 C  
HETATM   10  O   UNL     1      -9.675  11.817  69.570  1.00  0.00     0.476 OA 
HETATM   11  O   UNL     1     -10.439   9.561  68.710  1.00  0.00    -0.209 OA 
HETATM   12  OXT UNL     1      -9.446   7.580  68.612  1.00  0.00    -0.146 OA 
ENDROOT
BRANCH   4  13
HETATM   13  C   UNL     1      -9.439   6.537  71.270  1.00  0.00    -0.166 C  
BRANCH  13  14
HETATM   14  O   UNL     1     -10.870   6.654  71.313  1.00  0.00    -0.226 OA 
BRANCH  14  15
HETATM   15  C   UNL     1     -11.429   7.069  72.486  1.00  0.00    -0.237 C  
HETATM   16  C   UNL     1     -12.920   7.226  72.356  1.00  0.00     0.210 C  
HETATM   17  O   UNL     1     -10.824   7.238  73.536  1.00  0.00    -0.375 OA 
ENDBRANCH  14  15
ENDBRANCH  13  14
ENDBRANCH   4  13
BRANCH   8  18
HETATM   18  N   UNL     1      -9.207  12.669  72.582  1.00  0.00    20.968 N  
HETATM   19  C   UNL     1      -9.977  13.828  72.511  1.00  0.00     9.986 C  
HETATM   20  H   UNL     1      -9.353  12.148  73.446  1.00  0.00     0.000 HD 
HETATM   21  O   UNL     1     -10.543  14.222  73.559  1.00  0.00     3.131 OA 
BRANCH  19  22
HETATM   22  C   UNL     1     -10.288  14.598  71.229  1.00  0.00     1.728 C  
BRANCH  22  23
HETATM   23  C   UNL     1     -11.096  15.834  71.236  1.00  0.00    -0.202 A  
HETATM   24  N   UNL     1     -10.590  17.097  71.566  1.00  0.00     2.055 NA 
HETATM   25  H2  UNL     1     -11.794  20.035  70.870  1.00  0.00     0.000 HD 
HETATM   26  N   UNL     1     -11.140  19.356  71.259  1.00  0.00     2.943 NA 
HETATM   27  C   UNL     1     -12.296  15.874  70.542  1.00  0.00    -0.245 A  
HETATM   28  S   UNL     1     -12.799  17.489  70.314  1.00  0.00    11.660 SA 
HETATM   29  H1  UNL     1     -10.303  19.681  71.743  1.00  0.00     0.000 HD 
HETATM   30  C   UNL     1     -11.389  18.036  71.129  1.00  0.00     3.607 A  
ENDBRANCH  22  23
BRANCH  22  31
HETATM   31  N   UNL     1     -10.159  14.176  70.008  1.00  0.00     0.158 NA 
HETATM   32  H   UNL     1     -10.944  13.669  69.601  1.00  0.00     0.000 HD 
BRANCH  31  33
HETATM   33  O   UNL     1      -9.031  14.363  69.210  1.00  0.00     0.019 OA 
HETATM   34  C   UNL     1      -8.089  15.355  69.548  1.00  0.00    -0.207 C  
ENDBRANCH  31  33
ENDBRANCH  22  31
ENDBRANCH  19  22
ENDBRANCH   8  18
TORSDOF 8
ENDMDL
MODEL      262
REMARK 921   NORMALIZED FREE ENERGY PREDICTED BY IDOCK:   56.42 KCAL/MOL
REMARK 922        TOTAL FREE ENERGY PREDICTED BY IDOCK:   81.66 KCAL/MOL
REMARK 923 INTER-LIGAND FREE ENERGY PREDICTED BY IDOCK:   80.62 KCAL/MOL
REMARK 924 INTRA-LIGAND FREE ENERGY PREDICTED BY IDOCK:    1.04 KCAL/MOL
REMARK 927      BINDING AFFINITY PREDICTED BY RF-SCORE:    0.00 PKD
ROOT
HETATM    1  C   UNL     1      -7.493  10.582  71.671  1.00  0.00     3.743 C  
HETATM    2  S   UNL     1      -7.103   9.550  73.059  1.00  0.00     1.771 SA 
HETATM    3  C   UNL     1      -7.982   8.001  72.694  1.00  0.00    -0.134 C  
HETATM    4  C   UNL     1      -8.751   7.897  71.407  1.00  0.00    -0.148 C  
HETATM    5  C   UNL     1      -8.880  11.408  70.386  1.00  0.00     3.715 C  
HETATM    6  CA  UNL     1      -8.950   8.909  70.521  1.00  0.00    -0.192 C  
HETATM    7  N   UNL     1      -8.551  10.167  70.795  1.00  0.00     0.843 N  
HETATM    8  CA  UNL     1      -8.194  12.006  71.654  1.00  0.00    13.698 C  
HETATM    9  C   UNL     1      -9.646   8.619  69.228  1.00  0.00    -0.166 C  
HETATM   10  O   UNL     1      -9.675  11.817  69.570  1.00  0.00     0.476 OA 
HETATM   11  O   UNL     1     -10.439   9.561  68.710  1.00  0.00    -0.209 OA 
HETATM   12  OXT UNL     1      -9.446   7.580  68.612  1.00  0.00    -0.146 OA 
ENDROOT
BRANCH   4  13
HETATM   13  C   UNL     1      -9.439   6.537  71.270  1.00  0.00    -0.166 C  
BRANCH  13  14
HETATM   14  O   UNL     1      -8.517   5.450  71.447  1.00  0.00    -0.123 OA 
BRANCH  14  15
HETATM   15  C   UNL     1      -7.538   5.300  70.509  1.00  0.00    -0.072 C  
HETATM   16  C   UNL     1      -6.601   4.179  70.869  1.00  0.00    -0.031 C  
HETATM   17  O   UNL     1      -7.451   5.942  69.471  1.00  0.00    -0.073 OA 
ENDBRANCH  14  15
ENDBRANCH  13  14
ENDBRANCH   4  13
BRANCH   8  18
HETATM   18  N   UNL     1      -9.207  12.669  72.582  1.00  0.00    20.968 N  
HETATM   19  C   UNL     1      -9.977  13.828  72.511  1.00  0.00     9.986 C  
HETATM   20  H   UNL     1      -9.353  12.148  73.446  1.00  0.00     0.000 HD 
HETATM   21  O   UNL     1     -10.543  14.222  73.559  1.00  0.00     3.131 OA 
BRANCH  19  22
HETATM   22  C   UNL     1     -10.288  14.598  71.229  1.00  0.00     1.728 C  
BRANCH  22  23
HETATM   23  C   UNL     1     -11.096  15.834  71.236  1.00  0.00    -0.202 A  
HETATM   24  N   UNL     1     -12.483  15.862  71.046  1.00  0.00    -0.412 NA 
HETATM   25  H2  UNL     1     -14.614  18.185  71.836  1.00  0.00     0.000 HD 
HETATM   26  N   UNL     1     -14.294  17.292  71.462  1.00  0.00     8.436 NA 
HETATM   27  C   UNL     1     -10.586  16.986  71.817  1.00  0.00     2.850 A  
HETATM   28  S   UNL     1     -11.837  18.108  72.112  1.00  0.00     6.119 SA 
HETATM   29  H1  UNL     1     -14.972  16.631  71.083  1.00  0.00     0.000 HD 
HETATM   30  C   UNL     1     -12.978  16.995  71.473  1.00  0.00     5.255 A  
ENDBRANCH  22  23
BRANCH  22  31
HETATM   31  N   UNL     1     -10.159  14.176  70.008  1.00  0.00     0.158 NA 
HETATM   32  H   UNL     1     -10.944  13.669  69.601  1.00  0.00     0.000 HD 
BRANCH  31  33
HETATM   33  O   UNL     1      -9.031  14.363  69.210  1.00  0.00     0.019 OA 
HETATM   34  C   UNL     1      -8.089  15.355  69.548  1.00  0.00    -0.207 C  
ENDBRANCH  31  33
ENDBRANCH  22  31
ENDBRANCH  19  22
ENDBRANCH   8  18
TORSDOF 8
ENDMDL
