MODEL        1
REMARK 921   NORMALIZED FREE ENERGY PREDICTED BY IDOCK:   -8.52 KCAL/MOL
REMARK 922        TOTAL FREE ENERGY PREDICTED BY IDOCK:  -14.33 KCAL/MOL
REMARK 923 INTER-LIGAND FREE ENERGY PREDICTED BY IDOCK:  -12.51 KCAL/MOL
REMARK 924 INTRA-LIGAND FREE ENERGY PREDICTED BY IDOCK:   -1.82 KCAL/MOL
REMARK 927      BINDING AFFINITY PREDICTED BY RF-SCORE:    0.00 PKD
ROOT
HETATM    1  C   UNL     1      -7.303  11.120  67.570  1.00  0.00    -0.102 C  
HETATM    2  S   UNL     1      -9.001  11.234  66.937  1.00  0.00    -0.167 SA 
HETATM    3  C   UNL     1      -8.778  12.933  66.369  1.00  0.00     0.156 C  
HETATM    4  C   UNL     1      -8.160  13.872  67.402  1.00  0.00    -0.190 C  
HETATM    5  CA  UNL     1      -7.439  13.450  68.478  1.00  0.00    -0.118 C  
HETATM    6  CA  UNL     1      -7.091  10.027  68.674  1.00  0.00    -0.078 C  
HETATM    7  O   UNL     1      -6.344  11.513  70.695  1.00  0.00    -0.287 OA 
HETATM    8  N   UNL     1      -7.141  12.117  68.610  1.00  0.00    -0.099 N  
HETATM    9  C   UNL     1      -7.036  14.436  69.562  1.00  0.00    -0.119 C  
HETATM   10  OXT UNL     1      -7.512  15.557  69.672  1.00  0.00    -0.210 OA 
HETATM   11  O   UNL     1      -6.042  14.049  70.383  1.00  0.00    -0.158 OA 
HETATM   12  C   UNL     1      -6.732  11.269  69.577  1.00  0.00    -0.128 C  
ENDROOT
BRANCH   4  13
HETATM   13  C   UNL     1      -8.588  15.315  67.113  1.00  0.00    -0.211 C  
BRANCH  13  14
HETATM   14  S   UNL     1     -10.340  15.687  67.375  1.00  0.00    -0.281 SA 
BRANCH  14  15
HETATM   15  C   UNL     1     -10.991  15.821  65.792  1.00  0.00    -0.214 A  
HETATM   16  N   UNL     1     -10.757  16.745  64.896  1.00  0.00    -0.715 NA 
HETATM   17  C   UNL     1     -12.444  13.740  65.856  1.00  0.00    -0.468 C  
HETATM   18  N   UNL     1     -11.547  16.431  63.815  1.00  0.00    -0.928 NA 
HETATM   19  N   UNL     1     -11.894  14.936  65.279  1.00  0.00    -0.271 NA 
HETATM   20  N   UNL     1     -12.246  15.327  64.042  1.00  0.00    -0.571 NA 
ENDBRANCH  14  15
ENDBRANCH  13  14
ENDBRANCH   4  13
BRANCH   6  21
HETATM   21  N   UNL     1      -8.335   9.290  69.057  1.00  0.00    -0.120 N  
HETATM   22  H   UNL     1      -8.950   8.958  68.314  1.00  0.00     0.000 HD 
HETATM   23  O   UNL     1      -7.920   9.240  71.303  1.00  0.00    -0.322 OA 
HETATM   24  C   UNL     1      -8.692   9.037  70.370  1.00  0.00    -0.199 C  
BRANCH  24  25
HETATM   25  CA  UNL     1     -10.196   8.665  70.551  1.00  0.00    -0.197 C  
BRANCH  25  26
HETATM   26  C   UNL     1     -10.365   7.518  71.553  1.00  0.00    -0.216 A  
HETATM   27  O   UNL     1     -10.938   4.463  74.336  1.00  0.00    -0.276 OA 
HETATM   28  C   UNL     1     -10.528   6.188  71.124  1.00  0.00    -0.281 A  
HETATM   29  C   UNL     1     -10.522   6.727  73.859  1.00  0.00    -0.356 A  
HETATM   30  C   UNL     1     -10.731   5.434  73.405  1.00  0.00    -0.276 A  
HETATM   31  C   UNL     1     -10.719   5.152  72.045  1.00  0.00    -0.236 A  
HETATM   32  H   UNL     1     -10.946   4.657  75.267  1.00  0.00     0.000 HD 
HETATM   33  C   UNL     1     -10.323   7.759  72.941  1.00  0.00    -0.396 A  
ENDBRANCH  25  26
BRANCH  25  34
HETATM   34  N   UNL     1     -10.895   9.881  71.008  1.00  0.00    -0.299 N  
HETATM   35  C   UNL     1     -11.657  10.646  70.152  1.00  0.00    -0.330 C  
HETATM   36  H   UNL     1     -10.813  10.164  71.984  1.00  0.00     0.000 HD 
HETATM   37  O   UNL     1     -11.881  10.343  68.985  1.00  0.00    -0.170 OA 
BRANCH  35  38
HETATM   38  C   UNL     1     -12.287  11.875  70.692  1.00  0.00    -0.405 A  
HETATM   39  O   UNL     1     -13.460  10.651  72.437  1.00  0.00    -0.603 OA 
HETATM   40  C   UNL     1     -13.147  11.818  71.791  1.00  0.00    -0.375 A  
HETATM   41  C   UNL     1     -13.524  14.171  71.611  1.00  0.00    -0.369 A  
HETATM   42  C   UNL     1     -13.755  12.973  72.274  1.00  0.00    -0.608 A  
HETATM   43  H   UNL     1     -14.045  10.612  73.184  1.00  0.00     0.000 HD 
HETATM   44  N   UNL     1     -12.701  14.257  70.537  1.00  0.00    -0.347 NA 
HETATM   45  C   UNL     1     -14.252  15.422  72.008  1.00  0.00    -0.650 C  
HETATM   46  C   UNL     1     -12.109  13.116  70.103  1.00  0.00    -0.321 A  
ENDBRANCH  35  38
ENDBRANCH  25  34
ENDBRANCH  24  25
ENDBRANCH   6  21
TORSDOF 8
ENDMDL
MODEL        2
REMARK 921   NORMALIZED FREE ENERGY PREDICTED BY IDOCK:   -8.43 KCAL/MOL
REMARK 922        TOTAL FREE ENERGY PREDICTED BY IDOCK:  -14.18 KCAL/MOL
REMARK 923 INTER-LIGAND FREE ENERGY PREDICTED BY IDOCK:  -11.79 KCAL/MOL
REMARK 924 INTRA-LIGAND FREE ENERGY PREDICTED BY IDOCK:   -2.39 KCAL/MOL
REMARK 927      BINDING AFFINITY PREDICTED BY RF-SCORE:    0.00 PKD
ROOT
HETATM    1  C   UNL     1      -8.876  11.348  66.518  1.00  0.00    -0.187 C  
HETATM    2  S   UNL     1     -10.624  11.827  66.417  1.00  0.00    -0.265 SA 
HETATM    3  C   UNL     1     -10.234  13.502  65.869  1.00  0.00    -0.301 C  
HETATM    4  C   UNL     1      -9.175  14.214  66.706  1.00  0.00    -0.282 C  
HETATM    5  CA  UNL     1      -8.280  13.570  67.507  1.00  0.00    -0.183 C  
HETATM    6  CA  UNL     1      -8.586  10.138  67.473  1.00  0.00    -0.118 C  
HETATM    7  O   UNL     1      -7.017  11.271  69.235  1.00  0.00    -0.104 OA 
HETATM    8  N   UNL     1      -8.231  12.199  67.499  1.00  0.00    -0.156 N  
HETATM    9  C   UNL     1      -7.398  14.363  68.459  1.00  0.00    -0.122 C  
HETATM   10  OXT UNL     1      -7.589  15.536  68.743  1.00  0.00    -0.132 OA 
HETATM   11  O   UNL     1      -6.312  13.727  68.938  1.00  0.00    -0.085 OA 
HETATM   12  C   UNL     1      -7.745  11.205  68.273  1.00  0.00    -0.116 C  
ENDROOT
BRANCH   4  13
HETATM   13  C   UNL     1      -9.367  15.731  66.607  1.00  0.00    -0.258 C  
BRANCH  13  14
HETATM   14  S   UNL     1     -10.858  16.391  67.394  1.00  0.00    -0.155 SA 
BRANCH  14  15
HETATM   15  C   UNL     1     -10.401  17.957  67.930  1.00  0.00    -0.389 A  
HETATM   16  N   UNL     1     -10.001  18.320  69.122  1.00  0.00    -0.265 NA 
HETATM   17  C   UNL     1     -10.763  19.177  65.734  1.00  0.00    -0.307 C  
HETATM   18  N   UNL     1      -9.798  19.679  69.054  1.00  0.00    -0.428 NA 
HETATM   19  N   UNL     1     -10.428  19.058  67.126  1.00  0.00    -0.416 NA 
HETATM   20  N   UNL     1     -10.057  20.138  67.838  1.00  0.00    -0.409 NA 
ENDBRANCH  14  15
ENDBRANCH  13  14
ENDBRANCH   4  13
BRANCH   6  21
HETATM   21  N   UNL     1      -9.793   9.608  68.178  1.00  0.00    -0.146 N  
HETATM   22  H   UNL     1     -10.714   9.845  67.808  1.00  0.00     0.000 HD 
HETATM   23  O   UNL     1      -8.661   8.336  69.700  1.00  0.00    -0.127 OA 
HETATM   24  C   UNL     1      -9.722   8.812  69.308  1.00  0.00    -0.172 C  
BRANCH  24  25
HETATM   25  CA  UNL     1     -11.056   8.745  70.113  1.00  0.00    -0.202 C  
BRANCH  25  26
HETATM   26  C   UNL     1     -10.942   7.776  71.294  1.00  0.00    -0.259 A  
HETATM   27  O   UNL     1     -10.558   5.046  74.426  1.00  0.00    -0.285 OA 
HETATM   28  C   UNL     1     -10.355   8.169  72.511  1.00  0.00    -0.401 A  
HETATM   29  C   UNL     1     -11.317   5.564  72.263  1.00  0.00    -0.257 A  
HETATM   30  C   UNL     1     -10.689   5.966  73.431  1.00  0.00    -0.267 A  
HETATM   31  C   UNL     1     -10.221   7.266  73.572  1.00  0.00    -0.404 A  
HETATM   32  H   UNL     1     -10.878   4.157  74.330  1.00  0.00     0.000 HD 
HETATM   33  C   UNL     1     -11.458   6.467  71.208  1.00  0.00    -0.371 A  
ENDBRANCH  25  26
BRANCH  25  34
HETATM   34  N   UNL     1     -11.357  10.115  70.574  1.00  0.00    -0.316 N  
HETATM   35  C   UNL     1     -12.648  10.536  70.807  1.00  0.00    -0.382 C  
HETATM   36  H   UNL     1     -10.588  10.768  70.724  1.00  0.00     0.000 HD 
HETATM   37  O   UNL     1     -13.627   9.801  70.734  1.00  0.00    -0.227 OA 
BRANCH  35  38
HETATM   38  C   UNL     1     -12.855  11.943  71.226  1.00  0.00    -0.391 A  
HETATM   39  O   UNL     1     -11.161  12.777  69.692  1.00  0.00    -0.455 OA 
HETATM   40  C   UNL     1     -12.112  12.980  70.658  1.00  0.00    -0.248 A  
HETATM   41  C   UNL     1     -13.198  14.544  72.102  1.00  0.00    -0.369 A  
HETATM   42  C   UNL     1     -12.295  14.294  71.077  1.00  0.00    -0.431 A  
HETATM   43  H   UNL     1     -10.656  13.482  69.305  1.00  0.00     0.000 HD 
HETATM   44  N   UNL     1     -13.928  13.557  72.680  1.00  0.00    -0.754 NA 
HETATM   45  C   UNL     1     -13.342  15.920  72.682  1.00  0.00    -0.553 C  
HETATM   46  C   UNL     1     -13.740  12.290  72.235  1.00  0.00    -0.093 A  
ENDBRANCH  35  38
ENDBRANCH  25  34
ENDBRANCH  24  25
ENDBRANCH   6  21
TORSDOF 8
ENDMDL
MODEL        3
REMARK 921   NORMALIZED FREE ENERGY PREDICTED BY IDOCK:   -8.42 KCAL/MOL
REMARK 922        TOTAL FREE ENERGY PREDICTED BY IDOCK:  -14.17 KCAL/MOL
REMARK 923 INTER-LIGAND FREE ENERGY PREDICTED BY IDOCK:  -11.63 KCAL/MOL
REMARK 924 INTRA-LIGAND FREE ENERGY PREDICTED BY IDOCK:   -2.54 KCAL/MOL
REMARK 927      BINDING AFFINITY PREDICTED BY RF-SCORE:    0.00 PKD
ROOT
HETATM    1  C   UNL     1      -7.780  10.773  67.318  1.00  0.00    -0.109 C  
HETATM    2  S   UNL     1      -7.843  11.572  68.946  1.00  0.00    -0.016 SA 
HETATM    3  C   UNL     1      -7.572  10.020  69.827  1.00  0.00    -0.164 C  
HETATM    4  C   UNL     1      -8.470   8.870  69.377  1.00  0.00    -0.124 C  
HETATM    5  CA  UNL     1      -9.106   8.829  68.174  1.00  0.00    -0.140 C  
HETATM    6  CA  UNL     1      -8.499  11.568  66.172  1.00  0.00    -0.060 C  
HETATM    7  O   UNL     1     -10.355   9.858  65.481  1.00  0.00    -0.213 OA 
HETATM    8  N   UNL     1      -8.861   9.809  67.246  1.00  0.00    -0.132 N  
HETATM    9  C   UNL     1     -10.138   7.748  67.892  1.00  0.00    -0.185 C  
HETATM   10  OXT UNL     1     -10.628   7.035  68.755  1.00  0.00    -0.206 OA 
HETATM   11  O   UNL     1     -10.451   7.542  66.598  1.00  0.00    -0.269 OA 
HETATM   12  C   UNL     1      -9.430  10.296  66.123  1.00  0.00    -0.181 C  
ENDROOT
BRANCH   4  13
HETATM   13  C   UNL     1      -8.640   7.867  70.523  1.00  0.00    -0.131 C  
BRANCH  13  14
HETATM   14  S   UNL     1      -9.302   8.537  72.068  1.00  0.00    -0.297 SA 
BRANCH  14  15
HETATM   15  C   UNL     1     -11.006   8.469  71.870  1.00  0.00    -0.324 A  
HETATM   16  N   UNL     1     -11.833   9.455  71.629  1.00  0.00    -0.374 NA 
HETATM   17  C   UNL     1     -11.276   5.966  72.191  1.00  0.00    -0.287 C  
HETATM   18  N   UNL     1     -13.089   8.894  71.599  1.00  0.00    -0.342 NA 
HETATM   19  N   UNL     1     -11.723   7.313  71.968  1.00  0.00    -0.284 NA 
HETATM   20  N   UNL     1     -13.030   7.586  71.807  1.00  0.00    -0.340 NA 
ENDBRANCH  14  15
ENDBRANCH  13  14
ENDBRANCH   4  13
BRANCH   6  21
HETATM   21  N   UNL     1      -9.157  12.832  66.622  1.00  0.00    -0.322 N  
HETATM   22  H   UNL     1      -8.936  13.192  67.551  1.00  0.00     0.000 HD 
HETATM   23  O   UNL     1     -10.229  13.275  64.654  1.00  0.00    -0.364 OA 
HETATM   24  C   UNL     1     -10.054  13.540  65.840  1.00  0.00    -0.303 C  
BRANCH  24  25
HETATM   25  CA  UNL     1     -10.931  14.547  66.646  1.00  0.00    -0.321 C  
BRANCH  25  26
HETATM   26  C   UNL     1     -11.428  13.924  67.955  1.00  0.00    -0.350 A  
HETATM   27  O   UNL     1     -12.667  12.139  71.516  1.00  0.00    -0.330 OA 
HETATM   28  C   UNL     1     -11.640  14.706  69.104  1.00  0.00    -0.331 A  
HETATM   29  C   UNL     1     -12.132  11.965  69.234  1.00  0.00    -0.270 A  
HETATM   30  C   UNL     1     -12.284  12.754  70.364  1.00  0.00    -0.293 A  
HETATM   31  C   UNL     1     -12.058  14.123  70.306  1.00  0.00    -0.412 A  
HETATM   32  H   UNL     1     -12.822  11.203  71.556  1.00  0.00     0.000 HD 
HETATM   33  C   UNL     1     -11.724  12.548  68.034  1.00  0.00    -0.410 A  
ENDBRANCH  25  26
BRANCH  25  34
HETATM   34  N   UNL     1     -10.102  15.740  66.903  1.00  0.00    -0.259 N  
HETATM   35  C   UNL     1     -10.035  16.785  66.007  1.00  0.00    -0.313 C  
HETATM   36  H   UNL     1      -9.563  15.793  67.767  1.00  0.00     0.000 HD 
HETATM   37  O   UNL     1     -10.709  16.848  64.984  1.00  0.00    -0.700 OA 
BRANCH  35  38
HETATM   38  C   UNL     1      -9.142  17.923  66.332  1.00  0.00    -0.253 A  
HETATM   39  O   UNL     1     -10.911  19.562  66.005  1.00  0.00    -0.421 OA 
HETATM   40  C   UNL     1      -9.616  19.237  66.314  1.00  0.00    -0.362 A  
HETATM   41  C   UNL     1      -7.425  20.029  66.845  1.00  0.00    -0.262 A  
HETATM   42  C   UNL     1      -8.763  20.300  66.595  1.00  0.00    -0.318 A  
HETATM   43  H   UNL     1     -11.233  20.455  65.994  1.00  0.00     0.000 HD 
HETATM   44  N   UNL     1      -6.933  18.765  66.862  1.00  0.00    -0.199 NA 
HETATM   45  C   UNL     1      -6.435  21.142  67.026  1.00  0.00    -0.414 C  
HETATM   46  C   UNL     1      -7.794  17.750  66.603  1.00  0.00    -0.244 A  
ENDBRANCH  35  38
ENDBRANCH  25  34
ENDBRANCH  24  25
ENDBRANCH   6  21
TORSDOF 8
ENDMDL
MODEL        4
REMARK 921   NORMALIZED FREE ENERGY PREDICTED BY IDOCK:   -8.14 KCAL/MOL
REMARK 922        TOTAL FREE ENERGY PREDICTED BY IDOCK:  -13.76 KCAL/MOL
REMARK 923 INTER-LIGAND FREE ENERGY PREDICTED BY IDOCK:  -11.97 KCAL/MOL
REMARK 924 INTRA-LIGAND FREE ENERGY PREDICTED BY IDOCK:   -1.79 KCAL/MOL
REMARK 927      BINDING AFFINITY PREDICTED BY RF-SCORE:    0.00 PKD
ROOT
HETATM    1  C   UNL     1      -8.792  15.725  69.484  1.00  0.00    -0.169 C  
HETATM    2  S   UNL     1      -7.845  14.502  68.535  1.00  0.00    -0.141 SA 
HETATM    3  C   UNL     1      -6.852  15.765  67.712  1.00  0.00    -0.156 C  
HETATM    4  C   UNL     1      -7.658  16.913  67.110  1.00  0.00    -0.210 C  
HETATM    5  CA  UNL     1      -8.926  17.233  67.489  1.00  0.00    -0.222 C  
HETATM    6  CA  UNL     1     -10.190  15.221  69.986  1.00  0.00    -0.197 C  
HETATM    7  O   UNL     1     -11.783  16.891  68.750  1.00  0.00     0.141 OA 
HETATM    8  N   UNL     1      -9.501  16.574  68.546  1.00  0.00    -0.227 N  
HETATM    9  C   UNL     1      -9.725  18.256  66.698  1.00  0.00    -0.339 C  
HETATM   10  OXT UNL     1      -9.406  18.657  65.589  1.00  0.00    -0.307 OA 
HETATM   11  O   UNL     1     -10.797  18.786  67.317  1.00  0.00    -0.443 OA 
HETATM   12  C   UNL     1     -10.735  16.372  69.055  1.00  0.00    -0.322 C  
ENDROOT
BRANCH   4  13
HETATM   13  C   UNL     1      -6.879  17.540  65.948  1.00  0.00    -0.167 C  
BRANCH  13  14
HETATM   14  S   UNL     1      -5.318  18.346  66.387  1.00  0.00    -0.152 SA 
BRANCH  14  15
HETATM   15  C   UNL     1      -5.579  18.947  67.974  1.00  0.00    -0.188 A  
HETATM   16  N   UNL     1      -5.134  18.463  69.106  1.00  0.00    -0.184 NA 
HETATM   17  C   UNL     1      -7.017  20.941  67.340  1.00  0.00    -0.368 C  
HETATM   18  N   UNL     1      -5.651  19.273  70.091  1.00  0.00    -0.230 NA 
HETATM   19  N   UNL     1      -6.340  20.047  68.240  1.00  0.00    -0.259 NA 
HETATM   20  N   UNL     1      -6.390  20.243  69.569  1.00  0.00    -0.314 NA 
ENDBRANCH  14  15
ENDBRANCH  13  14
ENDBRANCH   4  13
BRANCH   6  21
HETATM   21  N   UNL     1     -10.532  13.830  69.558  1.00  0.00    -0.415 N  
HETATM   22  H   UNL     1      -9.795  13.253  69.151  1.00  0.00     0.000 HD 
HETATM   23  O   UNL     1     -12.682  13.847  70.331  1.00  0.00    -0.305 OA 
HETATM   24  C   UNL     1     -11.798  13.286  69.688  1.00  0.00    -0.327 C  
BRANCH  24  25
HETATM   25  CA  UNL     1     -12.034  12.026  68.800  1.00  0.00    -0.244 C  
BRANCH  25  26
HETATM   26  C   UNL     1     -11.465  12.228  67.391  1.00  0.00    -0.422 A  
HETATM   27  O   UNL     1      -9.863  12.902  63.598  1.00  0.00    -0.710 OA 
HETATM   28  C   UNL     1     -10.587  11.293  66.815  1.00  0.00    -0.305 A  
HETATM   29  C   UNL     1     -11.288  13.557  65.349  1.00  0.00    -0.302 A  
HETATM   30  C   UNL     1     -10.386  12.643  64.828  1.00  0.00    -0.312 A  
HETATM   31  C   UNL     1     -10.042  11.503  65.543  1.00  0.00    -0.286 A  
HETATM   32  H   UNL     1     -10.098  13.682  63.109  1.00  0.00     0.000 HD 
HETATM   33  C   UNL     1     -11.837  13.343  66.614  1.00  0.00    -0.443 A  
ENDBRANCH  25  26
BRANCH  25  34
HETATM   34  N   UNL     1     -11.388  10.886  69.479  1.00  0.00    -0.258 N  
HETATM   35  C   UNL     1     -11.951  10.284  70.583  1.00  0.00    -0.342 C  
HETATM   36  H   UNL     1     -10.501  10.534  69.121  1.00  0.00     0.000 HD 
HETATM   37  O   UNL     1     -13.052  10.584  71.034  1.00  0.00    -0.377 OA 
BRANCH  35  38
HETATM   38  C   UNL     1     -11.208   9.173  71.224  1.00  0.00    -0.407 A  
HETATM   39  O   UNL     1     -12.955   8.797  72.876  1.00  0.00    -0.628 OA 
HETATM   40  C   UNL     1     -11.738   8.494  72.324  1.00  0.00    -0.373 A  
HETATM   41  C   UNL     1      -9.752   7.171  72.456  1.00  0.00    -0.154 A  
HETATM   42  C   UNL     1     -11.021   7.470  72.935  1.00  0.00    -0.434 A  
HETATM   43  H   UNL     1     -13.315   8.336  73.623  1.00  0.00     0.000 HD 
HETATM   44  N   UNL     1      -9.207   7.817  71.395  1.00  0.00    -0.133 NA 
HETATM   45  C   UNL     1      -8.884   6.166  73.155  1.00  0.00    -0.130 C  
HETATM   46  C   UNL     1      -9.940   8.797  70.810  1.00  0.00    -0.213 A  
ENDBRANCH  35  38
ENDBRANCH  25  34
ENDBRANCH  24  25
ENDBRANCH   6  21
TORSDOF 8
ENDMDL
MODEL        5
REMARK 921   NORMALIZED FREE ENERGY PREDICTED BY IDOCK:   -8.13 KCAL/MOL
REMARK 922        TOTAL FREE ENERGY PREDICTED BY IDOCK:  -13.74 KCAL/MOL
REMARK 923 INTER-LIGAND FREE ENERGY PREDICTED BY IDOCK:  -11.33 KCAL/MOL
REMARK 924 INTRA-LIGAND FREE ENERGY PREDICTED BY IDOCK:   -2.42 KCAL/MOL
REMARK 927      BINDING AFFINITY PREDICTED BY RF-SCORE:    0.00 PKD
ROOT
HETATM    1  C   UNL     1      -7.865   8.830  68.524  1.00  0.00    -0.104 C  
HETATM    2  S   UNL     1      -8.209   9.898  69.950  1.00  0.00    -0.161 SA 
HETATM    3  C   UNL     1      -8.163   8.521  71.116  1.00  0.00    -0.144 C  
HETATM    4  C   UNL     1      -8.996   7.311  70.703  1.00  0.00    -0.156 C  
HETATM    5  CA  UNL     1      -9.393   7.062  69.424  1.00  0.00    -0.146 C  
HETATM    6  CA  UNL     1      -8.326   9.415  67.144  1.00  0.00    -0.124 C  
HETATM    7  O   UNL     1     -10.073   7.610  66.407  1.00  0.00    -0.170 OA 
HETATM    8  N   UNL     1      -8.944   7.868  68.409  1.00  0.00    -0.133 N  
HETATM    9  C   UNL     1     -10.388   5.949  69.136  1.00  0.00    -0.238 C  
HETATM   10  OXT UNL     1     -11.056   5.395  69.997  1.00  0.00    -0.170 OA 
HETATM   11  O   UNL     1     -10.455   5.523  67.861  1.00  0.00    -0.207 OA 
HETATM   12  C   UNL     1      -9.272   8.154  67.131  1.00  0.00    -0.145 C  
ENDROOT
BRANCH   4  13
HETATM   13  C   UNL     1      -9.414   6.520  71.948  1.00  0.00    -0.151 C  
BRANCH  13  14
HETATM   14  S   UNL     1     -10.387   7.432  73.173  1.00  0.00    -0.365 SA 
BRANCH  14  15
HETATM   15  C   UNL     1     -11.486   8.364  72.240  1.00  0.00    -0.384 A  
HETATM   16  N   UNL     1     -11.335   9.585  71.793  1.00  0.00    -0.330 NA 
HETATM   17  C   UNL     1     -13.334   6.632  72.079  1.00  0.00     0.078 C  
HETATM   18  N   UNL     1     -12.507   9.895  71.143  1.00  0.00    -0.342 NA 
HETATM   19  N   UNL     1     -12.715   7.910  71.862  1.00  0.00    -0.321 NA 
HETATM   20  N   UNL     1     -13.356   8.877  71.182  1.00  0.00    -0.151 NA 
ENDBRANCH  14  15
ENDBRANCH  13  14
ENDBRANCH   4  13
BRANCH   6  21
HETATM   21  N   UNL     1      -9.016  10.738  67.237  1.00  0.00    -0.140 N  
HETATM   22  H   UNL     1      -9.978  10.761  67.576  1.00  0.00     0.000 HD 
HETATM   23  O   UNL     1      -7.211  12.009  66.648  1.00  0.00    -0.024 OA 
HETATM   24  C   UNL     1      -8.413  11.934  66.886  1.00  0.00    -0.174 C  
BRANCH  24  25
HETATM   25  CA  UNL     1      -9.423  13.098  66.642  1.00  0.00    -0.260 C  
BRANCH  25  26
HETATM   26  C   UNL     1     -10.440  12.730  65.556  1.00  0.00    -0.306 A  
HETATM   27  O   UNL     1     -13.154  11.597  62.597  1.00  0.00    -0.582 OA 
HETATM   28  C   UNL     1     -11.822  12.875  65.768  1.00  0.00    -0.469 A  
HETATM   29  C   UNL     1     -10.935  11.889  63.317  1.00  0.00    -0.399 A  
HETATM   30  C   UNL     1     -12.293  11.996  63.573  1.00  0.00    -0.551 A  
HETATM   31  C   UNL     1     -12.746  12.502  64.785  1.00  0.00    -0.415 A  
HETATM   32  H   UNL     1     -12.843  11.251  61.768  1.00  0.00     0.000 HD 
HETATM   33  C   UNL     1     -10.014  12.269  64.294  1.00  0.00    -0.244 A  
ENDBRANCH  25  26
BRANCH  25  34
HETATM   34  N   UNL     1     -10.091  13.372  67.929  1.00  0.00    -0.232 N  
HETATM   35  C   UNL     1     -10.573  14.624  68.245  1.00  0.00    -0.235 C  
HETATM   36  H   UNL     1     -10.200  12.615  68.603  1.00  0.00     0.000 HD 
HETATM   37  O   UNL     1     -10.563  15.573  67.468  1.00  0.00    -0.283 OA 
BRANCH  35  38
HETATM   38  C   UNL     1     -11.192  14.815  69.578  1.00  0.00    -0.305 A  
HETATM   39  O   UNL     1     -12.220  12.610  69.551  1.00  0.00    -0.213 OA 
HETATM   40  C   UNL     1     -11.975  13.813  70.158  1.00  0.00    -0.334 A  
HETATM   41  C   UNL     1     -12.411  15.242  72.023  1.00  0.00    -0.354 A  
HETATM   42  C   UNL     1     -12.572  14.012  71.399  1.00  0.00    -0.451 A  
HETATM   43  H   UNL     1     -12.752  11.929  69.945  1.00  0.00     0.000 HD 
HETATM   44  N   UNL     1     -11.664  16.236  71.483  1.00  0.00    -0.460 NA 
HETATM   45  C   UNL     1     -13.137  15.557  73.299  1.00  0.00    -0.658 C  
HETATM   46  C   UNL     1     -11.079  16.004  70.281  1.00  0.00    -0.374 A  
ENDBRANCH  35  38
ENDBRANCH  25  34
ENDBRANCH  24  25
ENDBRANCH   6  21
TORSDOF 8
ENDMDL
MODEL        6
REMARK 921   NORMALIZED FREE ENERGY PREDICTED BY IDOCK:   -8.06 KCAL/MOL
REMARK 922        TOTAL FREE ENERGY PREDICTED BY IDOCK:  -13.64 KCAL/MOL
REMARK 923 INTER-LIGAND FREE ENERGY PREDICTED BY IDOCK:  -11.70 KCAL/MOL
REMARK 924 INTRA-LIGAND FREE ENERGY PREDICTED BY IDOCK:   -1.94 KCAL/MOL
REMARK 927      BINDING AFFINITY PREDICTED BY RF-SCORE:    0.00 PKD
ROOT
HETATM    1  C   UNL     1     -11.871  14.531  68.884  1.00  0.00    -0.324 C  
HETATM    2  S   UNL     1     -10.293  14.912  69.698  1.00  0.00    -0.068 SA 
HETATM    3  C   UNL     1     -10.216  16.571  68.990  1.00  0.00    -0.285 C  
HETATM    4  C   UNL     1     -10.466  16.631  67.485  1.00  0.00    -0.317 C  
HETATM    5  CA  UNL     1     -11.106  15.656  66.781  1.00  0.00    -0.169 C  
HETATM    6  CA  UNL     1     -12.161  13.000  68.708  1.00  0.00    -0.162 C  
HETATM    7  O   UNL     1     -12.280  12.823  66.099  1.00  0.00    -0.521 OA 
HETATM    8  N   UNL     1     -11.666  14.597  67.450  1.00  0.00    -0.392 N  
HETATM    9  C   UNL     1     -11.131  15.702  65.262  1.00  0.00    -0.303 C  
HETATM   10  OXT UNL     1     -10.412  16.429  64.592  1.00  0.00    -0.548 OA 
HETATM   11  O   UNL     1     -12.062  14.942  64.655  1.00  0.00    -0.427 OA 
HETATM   12  C   UNL     1     -12.113  13.354  67.172  1.00  0.00    -0.318 C  
ENDROOT
BRANCH   4  13
HETATM   13  C   UNL     1      -9.778  17.866  66.895  1.00  0.00    -0.309 C  
BRANCH  13  14
HETATM   14  S   UNL     1      -8.571  18.687  67.966  1.00  0.00    -0.307 SA 
BRANCH  14  15
HETATM   15  C   UNL     1      -7.529  19.515  66.882  1.00  0.00    -0.231 A  
HETATM   16  N   UNL     1      -7.650  19.648  65.585  1.00  0.00    -0.418 NA 
HETATM   17  C   UNL     1      -5.829  20.303  68.595  1.00  0.00    -0.284 C  
HETATM   18  N   UNL     1      -6.544  20.356  65.174  1.00  0.00    -0.289 NA 
HETATM   19  N   UNL     1      -6.384  20.141  67.279  1.00  0.00    -0.192 NA 
HETATM   20  N   UNL     1      -5.765  20.659  66.204  1.00  0.00    -0.187 NA 
ENDBRANCH  14  15
ENDBRANCH  13  14
ENDBRANCH   4  13
BRANCH   6  21
HETATM   21  N   UNL     1     -11.067  12.107  69.198  1.00  0.00    -0.335 N  
HETATM   22  H   UNL     1     -10.112  12.299  68.896  1.00  0.00     0.000 HD 
HETATM   23  O   UNL     1     -12.371  10.850  70.590  1.00  0.00    -0.315 OA 
HETATM   24  C   UNL     1     -11.287  11.032  70.041  1.00  0.00    -0.277 C  
BRANCH  24  25
HETATM   25  CA  UNL     1     -10.115  10.003  70.067  1.00  0.00    -0.239 C  
BRANCH  25  26
HETATM   26  C   UNL     1     -10.484   8.765  70.891  1.00  0.00    -0.278 A  
HETATM   27  O   UNL     1     -11.584   5.471  73.203  1.00  0.00    -0.507 OA 
HETATM   28  C   UNL     1     -10.885   7.567  70.274  1.00  0.00    -0.257 A  
HETATM   29  C   UNL     1     -10.770   7.671  73.057  1.00  0.00    -0.449 A  
HETATM   30  C   UNL     1     -11.210   6.521  72.421  1.00  0.00    -0.275 A  
HETATM   31  C   UNL     1     -11.255   6.452  71.035  1.00  0.00    -0.370 A  
HETATM   32  H   UNL     1     -11.553   5.518  74.152  1.00  0.00     0.000 HD 
HETATM   33  C   UNL     1     -10.393   8.780  72.298  1.00  0.00    -0.320 A  
ENDBRANCH  25  26
BRANCH  25  34
HETATM   34  N   UNL     1      -9.820   9.644  68.666  1.00  0.00    -0.157 N  
HETATM   35  C   UNL     1      -8.902  10.345  67.914  1.00  0.00    -0.125 C  
HETATM   36  H   UNL     1     -10.307   8.855  68.243  1.00  0.00     0.000 HD 
HETATM   37  O   UNL     1      -8.209  11.253  68.360  1.00  0.00    -0.135 OA 
BRANCH  35  38
HETATM   38  C   UNL     1      -8.703   9.938  66.503  1.00  0.00    -0.139 A  
HETATM   39  O   UNL     1      -9.204  12.165  65.662  1.00  0.00    -0.419 OA 
HETATM   40  C   UNL     1      -8.862  10.854  65.460  1.00  0.00    -0.188 A  
HETATM   41  C   UNL     1      -8.420   9.120  63.876  1.00  0.00    -0.180 A  
HETATM   42  C   UNL     1      -8.699  10.455  64.137  1.00  0.00    -0.205 A  
HETATM   43  H   UNL     1      -9.312  12.788  64.954  1.00  0.00     0.000 HD 
HETATM   44  N   UNL     1      -8.267   8.205  64.866  1.00  0.00    -0.155 NA 
HETATM   45  C   UNL     1      -8.361   8.609  62.467  1.00  0.00    -0.195 C  
HETATM   46  C   UNL     1      -8.414   8.630  66.146  1.00  0.00    -0.133 A  
ENDBRANCH  35  38
ENDBRANCH  25  34
ENDBRANCH  24  25
ENDBRANCH   6  21
TORSDOF 8
ENDMDL
MODEL        7
REMARK 921   NORMALIZED FREE ENERGY PREDICTED BY IDOCK:   -7.98 KCAL/MOL
REMARK 922        TOTAL FREE ENERGY PREDICTED BY IDOCK:  -13.52 KCAL/MOL
REMARK 923 INTER-LIGAND FREE ENERGY PREDICTED BY IDOCK:  -10.47 KCAL/MOL
REMARK 924 INTRA-LIGAND FREE ENERGY PREDICTED BY IDOCK:   -3.06 KCAL/MOL
REMARK 927      BINDING AFFINITY PREDICTED BY RF-SCORE:    0.00 PKD
ROOT
HETATM    1  C   UNL     1     -12.023  15.389  68.868  1.00  0.00    -0.273 C  
HETATM    2  S   UNL     1     -10.819  15.500  70.223  1.00  0.00    -0.343 SA 
HETATM    3  C   UNL     1     -10.305  17.167  69.760  1.00  0.00     0.099 C  
HETATM    4  C   UNL     1      -9.980  17.343  68.279  1.00  0.00    -0.320 C  
HETATM    5  CA  UNL     1     -10.423  16.507  67.299  1.00  0.00    -0.304 C  
HETATM    6  CA  UNL     1     -12.398  13.926  68.446  1.00  0.00     0.032 C  
HETATM    7  O   UNL     1     -11.575  13.909  65.961  1.00  0.00    -0.329 OA 
HETATM    8  N   UNL     1     -11.303  15.503  67.614  1.00  0.00    -0.301 N  
HETATM    9  C   UNL     1      -9.887  16.638  65.882  1.00  0.00    -0.273 C  
HETATM   10  OXT UNL     1      -8.897  17.292  65.589  1.00  0.00    -0.476 OA 
HETATM   11  O   UNL     1     -10.611  16.050  64.912  1.00  0.00    -0.587 OA 
HETATM   12  C   UNL     1     -11.753  14.352  67.071  1.00  0.00    -0.399 C  
ENDROOT
BRANCH   4  13
HETATM   13  C   UNL     1      -8.991  18.500  68.099  1.00  0.00    -0.306 C  
BRANCH  13  14
HETATM   14  S   UNL     1      -7.391  18.307  68.924  1.00  0.00    -0.211 SA 
BRANCH  14  15
HETATM   15  C   UNL     1      -6.893  16.713  68.525  1.00  0.00    -0.157 A  
HETATM   16  N   UNL     1      -7.110  15.607  69.188  1.00  0.00    -0.154 NA 
HETATM   17  C   UNL     1      -5.688  17.276  66.362  1.00  0.00    -0.181 C  
HETATM   18  N   UNL     1      -6.474  14.612  68.482  1.00  0.00    -0.084 NA 
HETATM   19  N   UNL     1      -6.154  16.418  67.416  1.00  0.00    -0.155 NA 
HETATM   20  N   UNL     1      -5.886  15.100  67.399  1.00  0.00    -0.332 NA 
ENDBRANCH  14  15
ENDBRANCH  13  14
ENDBRANCH   4  13
BRANCH   6  21
HETATM   21  N   UNL     1     -11.665  12.863  69.200  1.00  0.00    -0.309 N  
HETATM   22  H   UNL     1     -11.204  13.117  70.073  1.00  0.00     0.000 HD 
HETATM   23  O   UNL     1     -12.259  11.129  67.835  1.00  0.00    -0.521 OA 
HETATM   24  C   UNL     1     -11.582  11.549  68.769  1.00  0.00    -0.316 C  
BRANCH  24  25
HETATM   25  CA  UNL     1     -10.436  10.738  69.447  1.00  0.00    -0.200 C  
BRANCH  25  26
HETATM   26  C   UNL     1     -10.995   9.579  70.279  1.00  0.00    -0.317 A  
HETATM   27  O   UNL     1     -12.649   6.471  72.517  1.00  0.00    -0.516 OA 
HETATM   28  C   UNL     1     -10.688   8.242  69.972  1.00  0.00    -0.239 A  
HETATM   29  C   UNL     1     -12.356   8.773  72.141  1.00  0.00    -0.458 A  
HETATM   30  C   UNL     1     -12.077   7.464  71.783  1.00  0.00    -0.312 A  
HETATM   31  C   UNL     1     -11.233   7.188  70.714  1.00  0.00    -0.309 A  
HETATM   32  H   UNL     1     -13.226   6.660  73.249  1.00  0.00     0.000 HD 
HETATM   33  C   UNL     1     -11.807   9.824  71.406  1.00  0.00    -0.488 A  
ENDBRANCH  25  26
BRANCH  25  34
HETATM   34  N   UNL     1      -9.553  10.246  68.371  1.00  0.00    -0.146 N  
HETATM   35  C   UNL     1      -8.221  10.591  68.310  1.00  0.00    -0.117 C  
HETATM   36  H   UNL     1      -9.941   9.635  67.653  1.00  0.00     0.000 HD 
HETATM   37  O   UNL     1      -7.649  11.251  69.170  1.00  0.00    -0.125 OA 
BRANCH  35  38
HETATM   38  C   UNL     1      -7.424  10.083  67.168  1.00  0.00    -0.091 A  
HETATM   39  O   UNL     1      -6.573  12.296  66.621  1.00  0.00    -0.420 OA 
HETATM   40  C   UNL     1      -6.650  10.947  66.389  1.00  0.00    -0.134 A  
HETATM   41  C   UNL     1      -6.026   9.118  64.985  1.00  0.00    -0.063 A  
HETATM   42  C   UNL     1      -5.926  10.465  65.304  1.00  0.00    -0.135 A  
HETATM   43  H   UNL     1      -6.047  12.884  66.092  1.00  0.00     0.000 HD 
HETATM   44  N   UNL     1      -6.775   8.254  65.716  1.00  0.00    -0.052 NA 
HETATM   45  C   UNL     1      -5.372   8.568  63.752  1.00  0.00    -0.057 C  
HETATM   46  C   UNL     1      -7.453   8.753  66.780  1.00  0.00    -0.086 A  
ENDBRANCH  35  38
ENDBRANCH  25  34
ENDBRANCH  24  25
ENDBRANCH   6  21
TORSDOF 8
ENDMDL
MODEL        8
REMARK 921   NORMALIZED FREE ENERGY PREDICTED BY IDOCK:   -7.94 KCAL/MOL
REMARK 922        TOTAL FREE ENERGY PREDICTED BY IDOCK:  -13.46 KCAL/MOL
REMARK 923 INTER-LIGAND FREE ENERGY PREDICTED BY IDOCK:  -11.56 KCAL/MOL
REMARK 924 INTRA-LIGAND FREE ENERGY PREDICTED BY IDOCK:   -1.91 KCAL/MOL
REMARK 927      BINDING AFFINITY PREDICTED BY RF-SCORE:    0.00 PKD
ROOT
HETATM    1  C   UNL     1     -10.764  10.730  68.742  1.00  0.00    -0.208 C  
HETATM    2  S   UNL     1      -9.222  11.668  68.552  1.00  0.00    -0.121 SA 
HETATM    3  C   UNL     1      -8.188  10.219  68.853  1.00  0.00    -0.130 C  
HETATM    4  C   UNL     1      -8.576   9.407  70.086  1.00  0.00    -0.233 C  
HETATM    5  CA  UNL     1      -9.803   9.461  70.676  1.00  0.00    -0.276 C  
HETATM    6  CA  UNL     1     -12.014  11.599  69.120  1.00  0.00    -0.313 C  
HETATM    7  O   UNL     1     -12.641  10.569  71.443  1.00  0.00    -0.369 OA 
HETATM    8  N   UNL     1     -10.803  10.195  70.090  1.00  0.00    -0.294 N  
HETATM    9  C   UNL     1     -10.038   8.779  72.014  1.00  0.00    -0.327 C  
HETATM   10  OXT UNL     1      -9.139   8.372  72.736  1.00  0.00    -0.247 OA 
HETATM   11  O   UNL     1     -11.321   8.558  72.356  1.00  0.00    -0.366 OA 
HETATM   12  C   UNL     1     -11.995  10.727  70.434  1.00  0.00    -0.357 C  
ENDROOT
BRANCH   4  13
HETATM   13  C   UNL     1      -7.354   8.650  70.615  1.00  0.00    -0.064 C  
BRANCH  13  14
HETATM   14  S   UNL     1      -6.992   7.071  69.806  1.00  0.00    -0.060 SA 
BRANCH  14  15
HETATM   15  C   UNL     1      -8.531   6.355  69.557  1.00  0.00    -0.133 A  
HETATM   16  N   UNL     1      -9.330   6.488  68.529  1.00  0.00    -0.125 NA 
HETATM   17  C   UNL     1      -8.650   5.062  71.739  1.00  0.00    -0.128 C  
HETATM   18  N   UNL     1     -10.454   5.752  68.826  1.00  0.00    -0.228 NA 
HETATM   19  N   UNL     1      -9.130   5.537  70.470  1.00  0.00    -0.145 NA 
HETATM   20  N   UNL     1     -10.340   5.168  70.011  1.00  0.00    -0.289 NA 
ENDBRANCH  14  15
ENDBRANCH  13  14
ENDBRANCH   4  13
BRANCH   6  21
HETATM   21  N   UNL     1     -11.718  13.052  69.306  1.00  0.00    -0.304 N  
HETATM   22  H   UNL     1     -11.319  13.357  70.194  1.00  0.00     0.000 HD 
HETATM   23  O   UNL     1     -12.260  13.696  67.182  1.00  0.00    -0.372 OA 
HETATM   24  C   UNL     1     -11.959  14.006  68.331  1.00  0.00    -0.343 C  
BRANCH  24  25
HETATM   25  CA  UNL     1     -11.996  15.466  68.877  1.00  0.00    -0.273 C  
BRANCH  25  26
HETATM   26  C   UNL     1     -12.343  15.490  70.370  1.00  0.00    -0.451 A  
HETATM   27  O   UNL     1     -13.262  15.694  74.434  1.00  0.00    -0.654 OA 
HETATM   28  C   UNL     1     -13.588  15.034  70.840  1.00  0.00    -0.363 A  
HETATM   29  C   UNL     1     -11.730  16.002  72.678  1.00  0.00    -0.513 A  
HETATM   30  C   UNL     1     -12.983  15.594  73.106  1.00  0.00    -0.535 A  
HETATM   31  C   UNL     1     -13.911  15.094  72.200  1.00  0.00    -0.607 A  
HETATM   32  H   UNL     1     -12.628  16.036  75.054  1.00  0.00     0.000 HD 
HETATM   33  C   UNL     1     -11.405  15.935  71.323  1.00  0.00    -0.425 A  
ENDBRANCH  25  26
BRANCH  25  34
HETATM   34  N   UNL     1     -10.667  16.059  68.628  1.00  0.00    -0.264 N  
HETATM   35  C   UNL     1     -10.391  16.765  67.478  1.00  0.00    -0.301 C  
HETATM   36  H   UNL     1      -9.934  15.944  69.327  1.00  0.00     0.000 HD 
HETATM   37  O   UNL     1     -11.230  17.025  66.621  1.00  0.00     0.233 OA 
BRANCH  35  38
HETATM   38  C   UNL     1      -9.016  17.288  67.296  1.00  0.00    -0.233 A  
HETATM   39  O   UNL     1      -9.287  18.952  69.050  1.00  0.00    -0.307 OA 
HETATM   40  C   UNL     1      -8.538  18.341  68.079  1.00  0.00    -0.269 A  
HETATM   41  C   UNL     1      -6.480  18.304  66.864  1.00  0.00    -0.179 A  
HETATM   42  C   UNL     1      -7.255  18.842  67.883  1.00  0.00    -0.260 A  
HETATM   43  H   UNL     1      -8.962  19.668  69.582  1.00  0.00     0.000 HD 
HETATM   44  N   UNL     1      -6.919  17.286  66.082  1.00  0.00    -0.254 NA 
HETATM   45  C   UNL     1      -5.141  18.890  66.524  1.00  0.00    -0.149 C  
HETATM   46  C   UNL     1      -8.167  16.807  66.312  1.00  0.00    -0.324 A  
ENDBRANCH  35  38
ENDBRANCH  25  34
ENDBRANCH  24  25
ENDBRANCH   6  21
TORSDOF 8
ENDMDL
MODEL        9
REMARK 921   NORMALIZED FREE ENERGY PREDICTED BY IDOCK:   -7.55 KCAL/MOL
REMARK 922        TOTAL FREE ENERGY PREDICTED BY IDOCK:  -12.89 KCAL/MOL
REMARK 923 INTER-LIGAND FREE ENERGY PREDICTED BY IDOCK:  -10.93 KCAL/MOL
REMARK 924 INTRA-LIGAND FREE ENERGY PREDICTED BY IDOCK:   -1.96 KCAL/MOL
REMARK 927      BINDING AFFINITY PREDICTED BY RF-SCORE:    0.00 PKD
ROOT
HETATM    1  C   UNL     1      -7.656  10.742  67.327  1.00  0.00    -0.102 C  
HETATM    2  S   UNL     1      -7.812  11.567  68.936  1.00  0.00    -0.016 SA 
HETATM    3  C   UNL     1      -7.428  10.062  69.855  1.00  0.00    -0.167 C  
HETATM    4  C   UNL     1      -8.219   8.831  69.418  1.00  0.00    -0.108 C  
HETATM    5  CA  UNL     1      -8.830   8.712  68.206  1.00  0.00    -0.142 C  
HETATM    6  CA  UNL     1      -8.420  11.450  66.154  1.00  0.00    -0.105 C  
HETATM    7  O   UNL     1     -10.115   9.576  65.473  1.00  0.00    -0.260 OA 
HETATM    8  N   UNL     1      -8.652   9.690  67.260  1.00  0.00    -0.131 N  
HETATM    9  C   UNL     1      -9.763   7.543  67.933  1.00  0.00    -0.146 C  
HETATM   10  OXT UNL     1     -10.206   6.810  68.805  1.00  0.00    -0.160 OA 
HETATM   11  O   UNL     1     -10.036   7.285  66.640  1.00  0.00    -0.211 OA 
HETATM   12  C   UNL     1      -9.241  10.104  66.119  1.00  0.00    -0.159 C  
ENDROOT
BRANCH   4  13
HETATM   13  C   UNL     1      -8.324   7.841  70.583  1.00  0.00    -0.124 C  
BRANCH  13  14
HETATM   14  S   UNL     1      -9.319   8.385  71.994  1.00  0.00    -0.285 SA 
BRANCH  14  15
HETATM   15  C   UNL     1     -10.017   6.941  72.607  1.00  0.00    -0.171 A  
HETATM   16  N   UNL     1      -9.471   6.047  73.390  1.00  0.00    -0.138 NA 
HETATM   17  C   UNL     1     -12.295   7.188  71.513  1.00  0.00    -0.370 C  
HETATM   18  N   UNL     1     -10.419   5.064  73.557  1.00  0.00    -0.207 NA 
HETATM   19  N   UNL     1     -11.286   6.541  72.305  1.00  0.00    -0.270 NA 
HETATM   20  N   UNL     1     -11.531   5.358  72.897  1.00  0.00    -0.309 NA 
ENDBRANCH  14  15
ENDBRANCH  13  14
ENDBRANCH   4  13
BRANCH   6  21
HETATM   21  N   UNL     1      -9.189  12.664  66.566  1.00  0.00    -0.317 N  
HETATM   22  H   UNL     1      -8.900  13.158  67.411  1.00  0.00     0.000 HD 
HETATM   23  O   UNL     1     -10.563  12.725  64.742  1.00  0.00    -0.297 OA 
HETATM   24  C   UNL     1     -10.273  13.151  65.857  1.00  0.00    -0.291 C  
BRANCH  24  25
HETATM   25  CA  UNL     1     -11.173  14.126  66.677  1.00  0.00    -0.325 C  
BRANCH  25  26
HETATM   26  C   UNL     1     -11.615  13.490  68.000  1.00  0.00    -0.372 A  
HETATM   27  O   UNL     1     -12.695  11.689  71.604  1.00  0.00    -0.340 OA 
HETATM   28  C   UNL     1     -11.972  14.279  69.108  1.00  0.00    -0.372 A  
HETATM   29  C   UNL     1     -12.072  11.503  69.346  1.00  0.00    -0.345 A  
HETATM   30  C   UNL     1     -12.369  12.306  70.436  1.00  0.00    -0.228 A  
HETATM   31  C   UNL     1     -12.338  13.690  70.324  1.00  0.00    -0.392 A  
HETATM   32  H   UNL     1     -12.716  10.742  71.681  1.00  0.00     0.000 HD 
HETATM   33  C   UNL     1     -11.714  12.090  68.132  1.00  0.00    -0.398 A  
ENDBRANCH  25  26
BRANCH  25  34
HETATM   34  N   UNL     1     -10.387  15.353  66.911  1.00  0.00    -0.272 N  
HETATM   35  C   UNL     1     -10.189  16.289  65.919  1.00  0.00    -0.364 C  
HETATM   36  H   UNL     1      -9.978  15.513  67.831  1.00  0.00     0.000 HD 
HETATM   37  O   UNL     1     -10.708  16.224  64.809  1.00  0.00    -0.680 OA 
BRANCH  35  38
HETATM   38  C   UNL     1      -9.350  17.469  66.234  1.00  0.00    -0.231 A  
HETATM   39  O   UNL     1      -7.398  16.101  66.726  1.00  0.00    -0.222 OA 
HETATM   40  C   UNL     1      -8.015  17.321  66.618  1.00  0.00    -0.261 A  
HETATM   41  C   UNL     1      -7.840  19.686  66.911  1.00  0.00    -0.275 A  
HETATM   42  C   UNL     1      -7.242  18.433  66.937  1.00  0.00    -0.225 A  
HETATM   43  H   UNL     1      -6.491  16.000  66.987  1.00  0.00     0.000 HD 
HETATM   44  N   UNL     1      -9.136  19.862  66.550  1.00  0.00    -0.367 NA 
HETATM   45  C   UNL     1      -7.094  20.904  67.369  1.00  0.00    -0.418 C  
HETATM   46  C   UNL     1      -9.856  18.759  66.226  1.00  0.00    -0.353 A  
ENDBRANCH  35  38
ENDBRANCH  25  34
ENDBRANCH  24  25
ENDBRANCH   6  21
TORSDOF 8
ENDMDL
MODEL       10
REMARK 921   NORMALIZED FREE ENERGY PREDICTED BY IDOCK:   -7.53 KCAL/MOL
REMARK 922        TOTAL FREE ENERGY PREDICTED BY IDOCK:  -12.86 KCAL/MOL
REMARK 923 INTER-LIGAND FREE ENERGY PREDICTED BY IDOCK:  -10.74 KCAL/MOL
REMARK 924 INTRA-LIGAND FREE ENERGY PREDICTED BY IDOCK:   -2.12 KCAL/MOL
REMARK 927      BINDING AFFINITY PREDICTED BY RF-SCORE:    0.00 PKD
ROOT
HETATM    1  C   UNL     1     -11.451  14.506  66.878  1.00  0.00    -0.364 C  
HETATM    2  S   UNL     1     -10.082  13.413  66.402  1.00  0.00    -0.298 SA 
HETATM    3  C   UNL     1     -10.983  11.920  66.871  1.00  0.00    -0.289 C  
HETATM    4  C   UNL     1     -11.624  11.974  68.255  1.00  0.00    -0.394 C  
HETATM    5  CA  UNL     1     -11.895  13.130  68.923  1.00  0.00    -0.320 C  
HETATM    6  CA  UNL     1     -11.026  15.983  67.195  1.00  0.00    -0.183 C  
HETATM    7  O   UNL     1     -11.741  16.168  69.706  1.00  0.00    -0.298 OA 
HETATM    8  N   UNL     1     -11.693  14.334  68.298  1.00  0.00    -0.325 N  
HETATM    9  C   UNL     1     -12.344  13.086  70.374  1.00  0.00    -0.277 C  
HETATM   10  OXT UNL     1     -12.258  12.094  71.082  1.00  0.00    -0.248 OA 
HETATM   11  O   UNL     1     -12.935  14.198  70.852  1.00  0.00    -0.336 OA 
HETATM   12  C   UNL     1     -11.562  15.634  68.637  1.00  0.00    -0.382 C  
ENDROOT
BRANCH   4  13
HETATM   13  C   UNL     1     -11.780  10.554  68.809  1.00  0.00    -0.120 C  
BRANCH  13  14
HETATM   14  S   UNL     1     -10.260   9.577  68.920  1.00  0.00    -0.206 SA 
BRANCH  14  15
HETATM   15  C   UNL     1     -10.778   8.042  69.488  1.00  0.00    -0.181 A  
HETATM   16  N   UNL     1     -10.872   6.921  68.820  1.00  0.00    -0.213 NA 
HETATM   17  C   UNL     1     -11.249   8.721  71.889  1.00  0.00    -0.368 C  
HETATM   18  N   UNL     1     -11.374   5.995  69.706  1.00  0.00    -0.380 NA 
HETATM   19  N   UNL     1     -11.193   7.822  70.769  1.00  0.00    -0.269 NA 
HETATM   20  N   UNL     1     -11.574   6.539  70.899  1.00  0.00    -0.346 NA 
ENDBRANCH  14  15
ENDBRANCH  13  14
ENDBRANCH   4  13
BRANCH   6  21
HETATM   21  N   UNL     1      -9.556  16.234  67.097  1.00  0.00    -0.230 N  
HETATM   22  H   UNL     1      -8.995  15.612  66.514  1.00  0.00     0.000 HD 
HETATM   23  O   UNL     1      -9.544  18.160  68.325  1.00  0.00    -0.290 OA 
HETATM   24  C   UNL     1      -8.918  17.268  67.759  1.00  0.00    -0.234 C  
BRANCH  24  25
HETATM   25  CA  UNL     1      -7.373  17.083  67.873  1.00  0.00    -0.169 C  
BRANCH  25  26
HETATM   26  C   UNL     1      -6.741  18.206  68.702  1.00  0.00    -0.240 A  
HETATM   27  O   UNL     1      -5.144  21.329  70.960  1.00  0.00    -0.548 OA 
HETATM   28  C   UNL     1      -6.125  17.945  69.939  1.00  0.00    -0.166 A  
HETATM   29  C   UNL     1      -6.192  20.568  68.999  1.00  0.00    -0.330 A  
HETATM   30  C   UNL     1      -5.636  20.287  70.237  1.00  0.00    -0.318 A  
HETATM   31  C   UNL     1      -5.582  18.981  70.708  1.00  0.00    -0.200 A  
HETATM   32  H   UNL     1      -5.181  22.223  70.638  1.00  0.00     0.000 HD 
HETATM   33  C   UNL     1      -6.725  19.533  68.229  1.00  0.00    -0.301 A  
ENDBRANCH  25  26
BRANCH  25  34
HETATM   34  N   UNL     1      -7.136  15.763  68.491  1.00  0.00    -0.115 N  
HETATM   35  C   UNL     1      -6.123  14.933  68.064  1.00  0.00    -0.152 C  
HETATM   36  H   UNL     1      -7.739  15.458  69.254  1.00  0.00     0.000 HD 
HETATM   37  O   UNL     1      -5.300  15.247  67.211  1.00  0.00    -0.330 OA 
BRANCH  35  38
HETATM   38  C   UNL     1      -5.989  13.609  68.716  1.00  0.00    -0.084 A  
HETATM   39  O   UNL     1      -6.022  12.424  66.591  1.00  0.00    -0.493 OA 
HETATM   40  C   UNL     1      -5.946  12.435  67.959  1.00  0.00    -0.072 A  
HETATM   41  C   UNL     1      -5.837  11.148  69.970  1.00  0.00    -0.112 A  
HETATM   42  C   UNL     1      -5.846  11.195  68.582  1.00  0.00    -0.042 A  
HETATM   43  H   UNL     1      -5.993  11.627  66.077  1.00  0.00     0.000 HD 
HETATM   44  N   UNL     1      -5.885  12.269  70.733  1.00  0.00    -0.309 NA 
HETATM   45  C   UNL     1      -5.860   9.835  70.695  1.00  0.00    -0.072 C  
HETATM   46  C   UNL     1      -5.962  13.463  70.094  1.00  0.00    -0.139 A  
ENDBRANCH  35  38
ENDBRANCH  25  34
ENDBRANCH  24  25
ENDBRANCH   6  21
TORSDOF 8
ENDMDL
MODEL       11
REMARK 921   NORMALIZED FREE ENERGY PREDICTED BY IDOCK:   -7.49 KCAL/MOL
REMARK 922        TOTAL FREE ENERGY PREDICTED BY IDOCK:  -12.81 KCAL/MOL
REMARK 923 INTER-LIGAND FREE ENERGY PREDICTED BY IDOCK:  -10.20 KCAL/MOL
REMARK 924 INTRA-LIGAND FREE ENERGY PREDICTED BY IDOCK:   -2.61 KCAL/MOL
REMARK 927      BINDING AFFINITY PREDICTED BY RF-SCORE:    0.00 PKD
ROOT
HETATM    1  C   UNL     1     -10.842   7.090  71.821  1.00  0.00    -0.223 C  
HETATM    2  S   UNL     1     -11.322   6.833  70.089  1.00  0.00    -0.347 SA 
HETATM    3  C   UNL     1     -10.521   5.218  70.005  1.00  0.00    -0.281 C  
HETATM    4  C   UNL     1      -9.089   5.191  70.533  1.00  0.00    -0.177 C  
HETATM    5  CA  UNL     1      -8.573   6.126  71.379  1.00  0.00    -0.128 C  
HETATM    6  CA  UNL     1     -10.809   8.592  72.272  1.00  0.00    -0.348 C  
HETATM    7  O   UNL     1      -8.283   8.856  72.906  1.00  0.00    -0.382 OA 
HETATM    8  N   UNL     1      -9.393   7.100  71.891  1.00  0.00    -0.139 N  
HETATM    9  C   UNL     1      -7.085   6.136  71.692  1.00  0.00    -0.082 C  
HETATM   10  OXT UNL     1      -6.253   5.508  71.054  1.00  0.00    -0.031 OA 
HETATM   11  O   UNL     1      -6.708   6.826  72.785  1.00  0.00    -0.066 OA 
HETATM   12  C   UNL     1      -9.274   8.303  72.490  1.00  0.00    -0.269 C  
ENDROOT
BRANCH   4  13
HETATM   13  C   UNL     1      -8.311   4.052  69.866  1.00  0.00    -0.060 C  
BRANCH  13  14
HETATM   14  S   UNL     1      -8.904   3.539  68.235  1.00  0.00    -0.131 SA 
BRANCH  14  15
HETATM   15  C   UNL     1      -8.392   4.792  67.179  1.00  0.00    -0.106 A  
HETATM   16  N   UNL     1      -7.176   5.223  66.965  1.00  0.00    -0.077 NA 
HETATM   17  C   UNL     1     -10.682   5.425  66.284  1.00  0.00    -0.169 C  
HETATM   18  N   UNL     1      -7.296   6.263  66.071  1.00  0.00    -0.078 NA 
HETATM   19  N   UNL     1      -9.256   5.530  66.424  1.00  0.00    -0.145 NA 
HETATM   20  N   UNL     1      -8.565   6.457  65.737  1.00  0.00    -0.151 NA 
ENDBRANCH  14  15
ENDBRANCH  13  14
ENDBRANCH   4  13
BRANCH   6  21
HETATM   21  N   UNL     1     -11.135   9.567  71.187  1.00  0.00    -0.352 N  
HETATM   22  H   UNL     1     -10.452   9.710  70.442  1.00  0.00     0.000 HD 
HETATM   23  O   UNL     1     -13.255  10.037  71.894  1.00  0.00    -0.414 OA 
HETATM   24  C   UNL     1     -12.316  10.287  71.144  1.00  0.00    -0.395 C  
BRANCH  24  25
HETATM   25  CA  UNL     1     -12.259  11.532  70.206  1.00  0.00    -0.332 C  
BRANCH  25  26
HETATM   26  C   UNL     1     -12.424  12.831  71.002  1.00  0.00    -0.369 A  
HETATM   27  O   UNL     1     -12.838  16.298  73.285  1.00  0.00    -0.477 OA 
HETATM   28  C   UNL     1     -11.695  13.988  70.674  1.00  0.00    -0.230 A  
HETATM   29  C   UNL     1     -13.467  14.081  72.823  1.00  0.00    -0.576 A  
HETATM   30  C   UNL     1     -12.698  15.190  72.508  1.00  0.00    -0.356 A  
HETATM   31  C   UNL     1     -11.824  15.160  71.428  1.00  0.00    -0.418 A  
HETATM   32  H   UNL     1     -13.436  16.318  74.023  1.00  0.00     0.000 HD 
HETATM   33  C   UNL     1     -13.344  12.915  72.066  1.00  0.00    -0.579 A  
ENDBRANCH  25  26
BRANCH  25  34
HETATM   34  N   UNL     1     -10.959  11.494  69.508  1.00  0.00    -0.424 N  
HETATM   35  C   UNL     1     -10.857  11.139  68.181  1.00  0.00    -0.219 C  
HETATM   36  H   UNL     1     -10.113  11.736  70.023  1.00  0.00     0.000 HD 
HETATM   37  O   UNL     1     -11.824  10.911  67.461  1.00  0.00    -0.524 OA 
BRANCH  35  38
HETATM   38  C   UNL     1      -9.504  11.088  67.577  1.00  0.00    -0.175 A  
HETATM   39  O   UNL     1      -9.680   8.710  67.090  1.00  0.00    -0.163 OA 
HETATM   40  C   UNL     1      -8.988   9.893  67.069  1.00  0.00    -0.138 A  
HETATM   41  C   UNL     1      -6.939  11.006  66.547  1.00  0.00    -0.138 A  
HETATM   42  C   UNL     1      -7.707   9.849  66.528  1.00  0.00    -0.107 A  
HETATM   43  H   UNL     1      -9.329   7.898  66.745  1.00  0.00     0.000 HD 
HETATM   44  N   UNL     1      -7.408  12.179  67.040  1.00  0.00    -0.113 NA 
HETATM   45  C   UNL     1      -5.508  10.986  66.096  1.00  0.00    -0.140 C  
HETATM   46  C   UNL     1      -8.668  12.192  67.543  1.00  0.00    -0.173 A  
ENDBRANCH  35  38
ENDBRANCH  25  34
ENDBRANCH  24  25
ENDBRANCH   6  21
TORSDOF 8
ENDMDL
MODEL       12
REMARK 921   NORMALIZED FREE ENERGY PREDICTED BY IDOCK:   -7.38 KCAL/MOL
REMARK 922        TOTAL FREE ENERGY PREDICTED BY IDOCK:  -12.65 KCAL/MOL
REMARK 923 INTER-LIGAND FREE ENERGY PREDICTED BY IDOCK:  -11.00 KCAL/MOL
REMARK 924 INTRA-LIGAND FREE ENERGY PREDICTED BY IDOCK:   -1.65 KCAL/MOL
REMARK 927      BINDING AFFINITY PREDICTED BY RF-SCORE:    0.00 PKD
ROOT
HETATM    1  C   UNL     1      -7.406   9.073  67.528  1.00  0.00    -0.081 C  
HETATM    2  S   UNL     1      -8.350   8.775  69.050  1.00  0.00    -0.131 SA 
HETATM    3  C   UNL     1      -7.693   7.106  69.246  1.00  0.00    -0.108 C  
HETATM    4  C   UNL     1      -7.759   6.245  67.988  1.00  0.00    -0.103 C  
HETATM    5  CA  UNL     1      -7.880   6.748  66.728  1.00  0.00    -0.107 C  
HETATM    6  CA  UNL     1      -7.999  10.190  66.601  1.00  0.00    -0.116 C  
HETATM    7  O   UNL     1      -8.522   8.805  64.442  1.00  0.00    -0.171 OA 
HETATM    8  N   UNL     1      -7.832   8.106  66.535  1.00  0.00    -0.092 N  
HETATM    9  C   UNL     1      -8.144   5.818  65.555  1.00  0.00    -0.128 C  
HETATM   10  OXT UNL     1      -8.496   4.654  65.677  1.00  0.00    -0.114 OA 
HETATM   11  O   UNL     1      -7.891   6.314  64.329  1.00  0.00    -0.105 OA 
HETATM   12  C   UNL     1      -8.166   8.999  65.580  1.00  0.00    -0.119 C  
ENDROOT
BRANCH   4  13
HETATM   13  C   UNL     1      -7.805   4.763  68.375  1.00  0.00    -0.081 C  
BRANCH  13  14
HETATM   14  S   UNL     1      -9.457   4.051  68.583  1.00  0.00    -0.130 SA 
BRANCH  14  15
HETATM   15  C   UNL     1     -10.306   5.208  69.525  1.00  0.00    -0.222 A  
HETATM   16  N   UNL     1     -11.146   6.124  69.118  1.00  0.00    -0.380 NA 
HETATM   17  C   UNL     1      -9.391   4.522  71.792  1.00  0.00    -0.142 C  
HETATM   18  N   UNL     1     -11.519   6.822  70.244  1.00  0.00    -0.350 NA 
HETATM   19  N   UNL     1     -10.169   5.313  70.878  1.00  0.00    -0.224 NA 
HETATM   20  N   UNL     1     -10.925   6.333  71.324  1.00  0.00    -0.264 NA 
ENDBRANCH  14  15
ENDBRANCH  13  14
ENDBRANCH   4  13
BRANCH   6  21
HETATM   21  N   UNL     1      -9.272  10.793  67.102  1.00  0.00    -0.147 N  
HETATM   22  H   UNL     1     -10.148  10.307  66.909  1.00  0.00     0.000 HD 
HETATM   23  O   UNL     1      -8.304  12.521  68.241  1.00  0.00    -0.166 OA 
HETATM   24  C   UNL     1      -9.320  11.979  67.814  1.00  0.00    -0.190 C  
BRANCH  24  25
HETATM   25  CA  UNL     1     -10.735  12.634  67.849  1.00  0.00    -0.218 C  
BRANCH  25  26
HETATM   26  C   UNL     1     -11.512  12.206  69.098  1.00  0.00    -0.352 A  
HETATM   27  O   UNL     1     -13.519  10.960  72.537  1.00  0.00    -0.511 OA 
HETATM   28  C   UNL     1     -11.996  13.152  70.020  1.00  0.00    -0.391 A  
HETATM   29  C   UNL     1     -12.467  10.446  70.498  1.00  0.00    -0.403 A  
HETATM   30  C   UNL     1     -12.887  11.398  71.414  1.00  0.00    -0.397 A  
HETATM   31  C   UNL     1     -12.673  12.750  71.177  1.00  0.00    -0.355 A  
HETATM   32  H   UNL     1     -13.666  10.035  72.699  1.00  0.00     0.000 HD 
HETATM   33  C   UNL     1     -11.800  10.847  69.341  1.00  0.00    -0.400 A  
ENDBRANCH  25  26
BRANCH  25  34
HETATM   34  N   UNL     1     -10.540  14.097  67.816  1.00  0.00    -0.241 N  
HETATM   35  C   UNL     1     -11.125  14.886  66.849  1.00  0.00    -0.337 C  
HETATM   36  H   UNL     1      -9.957  14.536  68.527  1.00  0.00     0.000 HD 
HETATM   37  O   UNL     1     -11.906  14.460  66.005  1.00  0.00    -0.373 OA 
BRANCH  35  38
HETATM   38  C   UNL     1     -10.838  16.340  66.871  1.00  0.00    -0.151 A  
HETATM   39  O   UNL     1     -10.940  16.519  64.447  1.00  0.00    -1.082 OA 
HETATM   40  C   UNL     1     -10.758  17.076  65.686  1.00  0.00    -0.144 A  
HETATM   41  C   UNL     1     -10.202  19.030  66.943  1.00  0.00    -0.387 A  
HETATM   42  C   UNL     1     -10.462  18.434  65.716  1.00  0.00    -0.250 A  
HETATM   43  H   UNL     1     -10.886  17.019  63.642  1.00  0.00     0.000 HD 
HETATM   44  N   UNL     1     -10.263  18.342  68.110  1.00  0.00    -0.371 NA 
HETATM   45  C   UNL     1      -9.752  20.460  67.023  1.00  0.00    -0.588 C  
HETATM   46  C   UNL     1     -10.573  17.023  68.048  1.00  0.00    -0.373 A  
ENDBRANCH  35  38
ENDBRANCH  25  34
ENDBRANCH  24  25
ENDBRANCH   6  21
TORSDOF 8
ENDMDL
MODEL       13
REMARK 921   NORMALIZED FREE ENERGY PREDICTED BY IDOCK:   -7.36 KCAL/MOL
REMARK 922        TOTAL FREE ENERGY PREDICTED BY IDOCK:  -12.61 KCAL/MOL
REMARK 923 INTER-LIGAND FREE ENERGY PREDICTED BY IDOCK:  -11.14 KCAL/MOL
REMARK 924 INTRA-LIGAND FREE ENERGY PREDICTED BY IDOCK:   -1.47 KCAL/MOL
REMARK 927      BINDING AFFINITY PREDICTED BY RF-SCORE:    0.00 PKD
ROOT
HETATM    1  C   UNL     1     -11.301  13.306  67.462  1.00  0.00    -0.296 C  
HETATM    2  S   UNL     1      -9.504  13.350  67.713  1.00  0.00    -0.219 SA 
HETATM    3  C   UNL     1      -9.450  15.155  67.713  1.00  0.00    -0.194 C  
HETATM    4  C   UNL     1     -10.192  15.812  66.552  1.00  0.00    -0.294 C  
HETATM    5  CA  UNL     1     -11.161  15.194  65.822  1.00  0.00    -0.287 C  
HETATM    6  CA  UNL     1     -11.839  11.971  66.838  1.00  0.00    -0.173 C  
HETATM    7  O   UNL     1     -12.871  12.858  64.602  1.00  0.00    -0.705 OA 
HETATM    8  N   UNL     1     -11.596  13.947  66.194  1.00  0.00    -0.345 N  
HETATM    9  C   UNL     1     -11.701  15.847  64.560  1.00  0.00    -0.161 C  
HETATM   10  OXT UNL     1     -11.164  16.793  64.002  1.00  0.00    -1.089 OA 
HETATM   11  O   UNL     1     -12.878  15.381  64.101  1.00  0.00    -0.507 OA 
HETATM   12  C   UNL     1     -12.275  12.914  65.652  1.00  0.00    -0.463 C  
ENDROOT
BRANCH   4  13
HETATM   13  C   UNL     1      -9.588  17.191  66.265  1.00  0.00    -0.252 C  
BRANCH  13  14
HETATM   14  S   UNL     1     -10.092  18.522  67.384  1.00  0.00    -0.373 SA 
BRANCH  14  15
HETATM   15  C   UNL     1      -8.615  19.176  67.964  1.00  0.00    -0.310 A  
HETATM   16  N   UNL     1      -8.179  19.223  69.197  1.00  0.00    -0.234 NA 
HETATM   17  C   UNL     1      -7.693  19.943  65.726  1.00  0.00    -0.264 C  
HETATM   18  N   UNL     1      -6.971  19.880  69.145  1.00  0.00    -0.314 NA 
HETATM   19  N   UNL     1      -7.693  19.772  67.153  1.00  0.00    -0.255 NA 
HETATM   20  N   UNL     1      -6.668  20.219  67.899  1.00  0.00    -0.271 NA 
ENDBRANCH  14  15
ENDBRANCH  13  14
ENDBRANCH   4  13
BRANCH   6  21
HETATM   21  N   UNL     1     -10.776  10.973  66.511  1.00  0.00    -0.259 N  
HETATM   22  H   UNL     1     -10.222  11.113  65.666  1.00  0.00     0.000 HD 
HETATM   23  O   UNL     1     -10.998   9.731  68.416  1.00  0.00    -0.217 OA 
HETATM   24  C   UNL     1     -10.506   9.867  67.299  1.00  0.00    -0.258 C  
BRANCH  24  25
HETATM   25  CA  UNL     1      -9.693   8.757  66.565  1.00  0.00    -0.259 C  
BRANCH  25  26
HETATM   26  C   UNL     1      -8.460   9.343  65.868  1.00  0.00    -0.135 A  
HETATM   27  O   UNL     1      -5.188  11.032  63.908  1.00  0.00    -0.401 OA 
HETATM   28  C   UNL     1      -7.358   9.814  66.604  1.00  0.00    -0.094 A  
HETATM   29  C   UNL     1      -7.280   9.964  63.822  1.00  0.00    -0.125 A  
HETATM   30  C   UNL     1      -6.231  10.466  64.575  1.00  0.00    -0.072 A  
HETATM   31  C   UNL     1      -6.252  10.382  65.961  1.00  0.00    -0.110 A  
HETATM   32  H   UNL     1      -5.174  11.090  62.960  1.00  0.00     0.000 HD 
HETATM   33  C   UNL     1      -8.379   9.391  64.462  1.00  0.00    -0.167 A  
ENDBRANCH  25  26
BRANCH  25  34
HETATM   34  N   UNL     1      -9.308   7.755  67.579  1.00  0.00    -0.138 N  
HETATM   35  C   UNL     1     -10.133   6.702  67.909  1.00  0.00    -0.150 C  
HETATM   36  H   UNL     1      -8.407   7.844  68.047  1.00  0.00     0.000 HD 
HETATM   37  O   UNL     1     -11.196   6.467  67.343  1.00  0.00    -0.352 OA 
BRANCH  35  38
HETATM   38  C   UNL     1      -9.680   5.771  68.970  1.00  0.00    -0.180 A  
HETATM   39  O   UNL     1     -11.554   6.321  70.422  1.00  0.00    -0.381 OA 
HETATM   40  C   UNL     1     -10.401   5.628  70.158  1.00  0.00    -0.271 A  
HETATM   41  C   UNL     1      -8.755   4.098  70.968  1.00  0.00    -0.088 A  
HETATM   42  C   UNL     1      -9.954   4.771  71.158  1.00  0.00    -0.273 A  
HETATM   43  H   UNL     1     -12.044   6.224  71.229  1.00  0.00     0.000 HD 
HETATM   44  N   UNL     1      -8.028   4.221  69.829  1.00  0.00    -0.056 NA 
HETATM   45  C   UNL     1      -8.160   3.261  72.063  1.00  0.00    -0.063 C  
HETATM   46  C   UNL     1      -8.501   5.050  68.866  1.00  0.00    -0.086 A  
ENDBRANCH  35  38
ENDBRANCH  25  34
ENDBRANCH  24  25
ENDBRANCH   6  21
TORSDOF 8
ENDMDL
MODEL       14
REMARK 921   NORMALIZED FREE ENERGY PREDICTED BY IDOCK:   -7.34 KCAL/MOL
REMARK 922        TOTAL FREE ENERGY PREDICTED BY IDOCK:  -12.59 KCAL/MOL
REMARK 923 INTER-LIGAND FREE ENERGY PREDICTED BY IDOCK:  -10.89 KCAL/MOL
REMARK 924 INTRA-LIGAND FREE ENERGY PREDICTED BY IDOCK:   -1.70 KCAL/MOL
REMARK 927      BINDING AFFINITY PREDICTED BY RF-SCORE:    0.00 PKD
ROOT
HETATM    1  C   UNL     1     -12.098  14.305  67.876  1.00  0.00    -0.261 C  
HETATM    2  S   UNL     1     -11.060  14.310  69.365  1.00  0.00    -0.216 SA 
HETATM    3  C   UNL     1     -11.025  16.113  69.454  1.00  0.00    -0.333 C  
HETATM    4  C   UNL     1     -10.678  16.806  68.139  1.00  0.00    -0.361 C  
HETATM    5  CA  UNL     1     -10.801  16.221  66.915  1.00  0.00    -0.151 C  
HETATM    6  CA  UNL     1     -12.006  12.993  67.021  1.00  0.00    -0.347 C  
HETATM    7  O   UNL     1     -11.068  13.942  64.769  1.00  0.00    -0.348 OA 
HETATM    8  N   UNL     1     -11.369  14.976  66.816  1.00  0.00    -0.327 N  
HETATM    9  C   UNL     1     -10.243  16.908  65.679  1.00  0.00    -0.206 C  
HETATM   10  OXT UNL     1      -9.470  17.854  65.719  1.00  0.00    -0.511 OA 
HETATM   11  O   UNL     1     -10.707  16.474  64.492  1.00  0.00    -0.721 OA 
HETATM   12  C   UNL     1     -11.433  13.967  65.921  1.00  0.00    -0.330 C  
ENDROOT
BRANCH   4  13
HETATM   13  C   UNL     1     -10.059  18.178  68.424  1.00  0.00    -0.388 C  
BRANCH  13  14
HETATM   14  S   UNL     1      -8.317  18.172  68.916  1.00  0.00    -0.048 SA 
BRANCH  14  15
HETATM   15  C   UNL     1      -7.671  19.605  68.224  1.00  0.00    -0.321 A  
HETATM   16  N   UNL     1      -8.112  20.274  67.190  1.00  0.00    -0.328 NA 
HETATM   17  C   UNL     1      -5.722  19.895  69.826  1.00  0.00    -0.271 C  
HETATM   18  N   UNL     1      -7.230  21.315  67.011  1.00  0.00    -0.417 NA 
HETATM   19  N   UNL     1      -6.550  20.221  68.697  1.00  0.00    -0.298 NA 
HETATM   20  N   UNL     1      -6.272  21.289  67.927  1.00  0.00    -0.351 NA 
ENDBRANCH  14  15
ENDBRANCH  13  14
ENDBRANCH   4  13
BRANCH   6  21
HETATM   21  N   UNL     1     -11.042  11.981  67.551  1.00  0.00    -0.258 N  
HETATM   22  H   UNL     1     -10.807  12.008  68.544  1.00  0.00     0.000 HD 
HETATM   23  O   UNL     1     -10.824  10.797  65.610  1.00  0.00    -0.132 OA 
HETATM   24  C   UNL     1     -10.453  11.008  66.761  1.00  0.00    -0.251 C  
BRANCH  24  25
HETATM   25  CA  UNL     1      -9.185  10.364  67.400  1.00  0.00    -0.142 C  
BRANCH  25  26
HETATM   26  C   UNL     1      -8.198  11.438  67.873  1.00  0.00    -0.132 A  
HETATM   27  O   UNL     1      -5.623  14.445  69.187  1.00  0.00    -0.090 OA 
HETATM   28  C   UNL     1      -7.281  11.184  68.908  1.00  0.00    -0.106 A  
HETATM   29  C   UNL     1      -7.292  13.701  67.710  1.00  0.00    -0.170 A  
HETATM   30  C   UNL     1      -6.435  13.437  68.766  1.00  0.00    -0.098 A  
HETATM   31  C   UNL     1      -6.408  12.181  69.359  1.00  0.00    -0.116 A  
HETATM   32  H   UNL     1      -5.640  15.304  68.781  1.00  0.00     0.000 HD 
HETATM   33  C   UNL     1      -8.156  12.704  67.255  1.00  0.00    -0.178 A  
ENDBRANCH  25  26
BRANCH  25  34
HETATM   34  N   UNL     1      -9.640   9.524  68.525  1.00  0.00    -0.141 N  
HETATM   35  C   UNL     1      -9.794   8.161  68.398  1.00  0.00    -0.171 C  
HETATM   36  H   UNL     1      -9.847   9.965  69.421  1.00  0.00     0.000 HD 
HETATM   37  O   UNL     1      -9.492   7.534  67.388  1.00  0.00    -0.136 OA 
BRANCH  35  38
HETATM   38  C   UNL     1     -10.297   7.406  69.570  1.00  0.00    -0.218 A  
HETATM   39  O   UNL     1     -11.800   9.201  70.233  1.00  0.00    -0.465 OA 
HETATM   40  C   UNL     1     -11.261   7.955  70.419  1.00  0.00    -0.234 A  
HETATM   41  C   UNL     1     -11.142   6.011  71.803  1.00  0.00    -0.276 A  
HETATM   42  C   UNL     1     -11.708   7.249  71.532  1.00  0.00    -0.320 A  
HETATM   43  H   UNL     1     -12.455   9.574  70.810  1.00  0.00     0.000 HD 
HETATM   44  N   UNL     1     -10.199   5.454  71.003  1.00  0.00    -0.217 NA 
HETATM   45  C   UNL     1     -11.492   5.264  73.057  1.00  0.00    -0.340 C  
HETATM   46  C   UNL     1      -9.799   6.160  69.915  1.00  0.00    -0.168 A  
ENDBRANCH  35  38
ENDBRANCH  25  34
ENDBRANCH  24  25
ENDBRANCH   6  21
TORSDOF 8
ENDMDL
MODEL       15
REMARK 921   NORMALIZED FREE ENERGY PREDICTED BY IDOCK:   -7.32 KCAL/MOL
REMARK 922        TOTAL FREE ENERGY PREDICTED BY IDOCK:  -12.56 KCAL/MOL
REMARK 923 INTER-LIGAND FREE ENERGY PREDICTED BY IDOCK:  -10.13 KCAL/MOL
REMARK 924 INTRA-LIGAND FREE ENERGY PREDICTED BY IDOCK:   -2.43 KCAL/MOL
REMARK 927      BINDING AFFINITY PREDICTED BY RF-SCORE:    0.00 PKD
ROOT
HETATM    1  C   UNL     1      -6.298  10.250  69.172  1.00  0.00    -0.045 C  
HETATM    2  S   UNL     1      -7.562   9.538  70.263  1.00  0.00    -0.167 SA 
HETATM    3  C   UNL     1      -6.848   7.883  70.172  1.00  0.00    -0.045 C  
HETATM    4  C   UNL     1      -6.536   7.402  68.758  1.00  0.00    -0.044 C  
HETATM    5  CA  UNL     1      -6.380   8.233  67.690  1.00  0.00    -0.053 C  
HETATM    6  CA  UNL     1      -6.728  11.576  68.453  1.00  0.00    -0.066 C  
HETATM    7  O   UNL     1      -6.595  10.838  65.946  1.00  0.00    -0.126 OA 
HETATM    8  N   UNL     1      -6.391   9.592  67.883  1.00  0.00    -0.053 N  
HETATM    9  C   UNL     1      -6.275   7.661  66.285  1.00  0.00    -0.045 C  
HETATM   10  OXT UNL     1      -6.556   6.507  65.999  1.00  0.00    -0.045 OA 
HETATM   11  O   UNL     1      -5.766   8.478  65.343  1.00  0.00    -0.043 OA 
HETATM   12  C   UNL     1      -6.547  10.712  67.147  1.00  0.00    -0.076 C  
ENDROOT
BRANCH   4  13
HETATM   13  C   UNL     1      -6.562   5.871  68.713  1.00  0.00    -0.055 C  
BRANCH  13  14
HETATM   14  S   UNL     1      -8.085   5.089  69.302  1.00  0.00    -0.083 SA 
BRANCH  14  15
HETATM   15  C   UNL     1      -9.245   5.441  68.086  1.00  0.00    -0.111 A  
HETATM   16  N   UNL     1      -9.881   6.566  67.876  1.00  0.00    -0.121 NA 
HETATM   17  C   UNL     1      -9.251   3.163  66.966  1.00  0.00    -0.172 C  
HETATM   18  N   UNL     1     -10.728   6.327  66.818  1.00  0.00    -0.302 NA 
HETATM   19  N   UNL     1      -9.667   4.523  67.170  1.00  0.00    -0.189 NA 
HETATM   20  N   UNL     1     -10.604   5.081  66.382  1.00  0.00    -0.302 NA 
ENDBRANCH  14  15
ENDBRANCH  13  14
ENDBRANCH   4  13
BRANCH   6  21
HETATM   21  N   UNL     1      -8.128  12.010  68.750  1.00  0.00    -0.330 N  
HETATM   22  H   UNL     1      -8.688  11.441  69.385  1.00  0.00     0.000 HD 
HETATM   23  O   UNL     1      -8.038  13.973  67.585  1.00  0.00    -0.146 OA 
HETATM   24  C   UNL     1      -8.701  13.146  68.205  1.00  0.00    -0.193 C  
BRANCH  24  25
HETATM   25  CA  UNL     1     -10.258  13.166  68.290  1.00  0.00    -0.250 C  
BRANCH  25  26
HETATM   26  C   UNL     1     -10.886  13.353  66.905  1.00  0.00    -0.282 A  
HETATM   27  O   UNL     1     -12.593  13.720  63.115  1.00  0.00    -1.024 OA 
HETATM   28  C   UNL     1     -12.105  14.034  66.738  1.00  0.00    -0.480 A  
HETATM   29  C   UNL     1     -10.824  13.004  64.487  1.00  0.00    -0.390 A  
HETATM   30  C   UNL     1     -12.050  13.636  64.361  1.00  0.00    -0.427 A  
HETATM   31  C   UNL     1     -12.689  14.168  65.474  1.00  0.00    -0.468 A  
HETATM   32  H   UNL     1     -12.155  13.356  62.354  1.00  0.00     0.000 HD 
HETATM   33  C   UNL     1     -10.237  12.877  65.747  1.00  0.00    -0.298 A  
ENDBRANCH  25  26
BRANCH  25  34
HETATM   34  N   UNL     1     -10.679  11.888  68.899  1.00  0.00    -0.290 N  
HETATM   35  C   UNL     1     -11.571  11.843  69.948  1.00  0.00    -0.256 C  
HETATM   36  H   UNL     1     -10.299  11.016  68.534  1.00  0.00     0.000 HD 
HETATM   37  O   UNL     1     -12.142  12.830  70.399  1.00  0.00    -0.363 OA 
BRANCH  35  38
HETATM   38  C   UNL     1     -11.901  10.517  70.523  1.00  0.00    -0.442 A  
HETATM   39  O   UNL     1     -13.442  11.469  72.146  1.00  0.00    -0.545 OA 
HETATM   40  C   UNL     1     -12.806  10.396  71.580  1.00  0.00    -0.464 A  
HETATM   41  C   UNL     1     -12.419   8.039  71.636  1.00  0.00    -0.320 A  
HETATM   42  C   UNL     1     -13.090   9.150  72.129  1.00  0.00    -0.516 A  
HETATM   43  H   UNL     1     -14.058  11.387  72.864  1.00  0.00     0.000 HD 
HETATM   44  N   UNL     1     -11.528   8.124  70.616  1.00  0.00    -0.264 NA 
HETATM   45  C   UNL     1     -12.588   6.692  72.275  1.00  0.00    -0.058 C  
HETATM   46  C   UNL     1     -11.289   9.351  70.090  1.00  0.00    -0.185 A  
ENDBRANCH  35  38
ENDBRANCH  25  34
ENDBRANCH  24  25
ENDBRANCH   6  21
TORSDOF 8
ENDMDL
MODEL       16
REMARK 921   NORMALIZED FREE ENERGY PREDICTED BY IDOCK:   -7.28 KCAL/MOL
REMARK 922        TOTAL FREE ENERGY PREDICTED BY IDOCK:  -12.50 KCAL/MOL
REMARK 923 INTER-LIGAND FREE ENERGY PREDICTED BY IDOCK:  -10.65 KCAL/MOL
REMARK 924 INTRA-LIGAND FREE ENERGY PREDICTED BY IDOCK:   -1.85 KCAL/MOL
REMARK 927      BINDING AFFINITY PREDICTED BY RF-SCORE:    0.00 PKD
ROOT
HETATM    1  C   UNL     1     -12.029  14.410  69.059  1.00  0.00    -0.307 C  
HETATM    2  S   UNL     1     -10.538  14.862  69.990  1.00  0.00    -0.014 SA 
HETATM    3  C   UNL     1     -10.430  16.489  69.217  1.00  0.00    -0.326 C  
HETATM    4  C   UNL     1     -10.545  16.478  67.695  1.00  0.00    -0.321 C  
HETATM    5  CA  UNL     1     -11.101  15.459  66.983  1.00  0.00    -0.273 C  
HETATM    6  CA  UNL     1     -12.273  12.866  68.927  1.00  0.00    -0.006 C  
HETATM    7  O   UNL     1     -12.155  12.573  66.329  1.00  0.00    -0.574 OA 
HETATM    8  N   UNL     1     -11.699  14.418  67.646  1.00  0.00    -0.375 N  
HETATM    9  C   UNL     1     -10.991  15.438  65.467  1.00  0.00    -0.343 C  
HETATM   10  OXT UNL     1     -10.229  16.152  64.831  1.00  0.00    -0.502 OA 
HETATM   11  O   UNL     1     -11.849  14.631  64.815  1.00  0.00    -0.404 OA 
HETATM   12  C   UNL     1     -12.095  13.154  67.387  1.00  0.00    -0.263 C  
ENDROOT
BRANCH   4  13
HETATM   13  C   UNL     1      -9.831  17.702  67.112  1.00  0.00    -0.306 C  
BRANCH  13  14
HETATM   14  S   UNL     1      -9.547  19.073  68.260  1.00  0.00    -0.379 SA 
BRANCH  14  15
HETATM   15  C   UNL     1      -7.939  19.578  67.935  1.00  0.00    -0.301 A  
HETATM   16  N   UNL     1      -7.537  20.693  67.381  1.00  0.00    -0.343 NA 
HETATM   17  C   UNL     1      -6.758  17.527  68.853  1.00  0.00    -0.239 C  
HETATM   18  N   UNL     1      -6.166  20.603  67.304  1.00  0.00    -0.217 NA 
HETATM   19  N   UNL     1      -6.846  18.813  68.218  1.00  0.00    -0.237 NA 
HETATM   20  N   UNL     1      -5.736  19.456  67.813  1.00  0.00    -0.191 NA 
ENDBRANCH  14  15
ENDBRANCH  13  14
ENDBRANCH   4  13
BRANCH   6  21
HETATM   21  N   UNL     1     -11.211  12.021  69.552  1.00  0.00    -0.440 N  
HETATM   22  H   UNL     1     -10.241  12.332  69.486  1.00  0.00     0.000 HD 
HETATM   23  O   UNL     1     -12.624  10.493  70.495  1.00  0.00    -0.331 OA 
HETATM   24  C   UNL     1     -11.478  10.836  70.216  1.00  0.00    -0.319 C  
BRANCH  24  25
HETATM   25  CA  UNL     1     -10.228   9.920  70.393  1.00  0.00    -0.236 C  
BRANCH  25  26
HETATM   26  C   UNL     1     -10.602   8.601  71.078  1.00  0.00    -0.278 A  
HETATM   27  O   UNL     1     -11.521   4.943  72.862  1.00  0.00    -0.251 OA 
HETATM   28  C   UNL     1     -10.551   8.460  72.476  1.00  0.00    -0.368 A  
HETATM   29  C   UNL     1     -11.345   6.278  70.935  1.00  0.00    -0.389 A  
HETATM   30  C   UNL     1     -11.237   6.155  72.311  1.00  0.00    -0.289 A  
HETATM   31  C   UNL     1     -10.858   7.241  73.091  1.00  0.00    -0.401 A  
HETATM   32  H   UNL     1     -11.779   4.200  72.329  1.00  0.00     0.000 HD 
HETATM   33  C   UNL     1     -11.046   7.496  70.324  1.00  0.00    -0.263 A  
ENDBRANCH  25  26
BRANCH  25  34
HETATM   34  N   UNL     1      -9.666   9.684  69.049  1.00  0.00    -0.163 N  
HETATM   35  C   UNL     1      -8.330   9.404  68.860  1.00  0.00    -0.120 C  
HETATM   36  H   UNL     1     -10.282   9.730  68.239  1.00  0.00     0.000 HD 
HETATM   37  O   UNL     1      -7.531   9.247  69.777  1.00  0.00    -0.062 OA 
BRANCH  35  38
HETATM   38  C   UNL     1      -7.848   9.224  67.470  1.00  0.00    -0.096 A  
HETATM   39  O   UNL     1      -8.238  11.558  66.904  1.00  0.00    -0.156 OA 
HETATM   40  C   UNL     1      -7.827  10.294  66.571  1.00  0.00    -0.116 A  
HETATM   41  C   UNL     1      -7.036   8.831  64.855  1.00  0.00    -0.073 A  
HETATM   42  C   UNL     1      -7.397  10.109  65.261  1.00  0.00    -0.141 A  
HETATM   43  H   UNL     1      -8.223  12.285  66.294  1.00  0.00     0.000 HD 
HETATM   44  N   UNL     1      -7.053   7.770  65.701  1.00  0.00    -0.059 NA 
HETATM   45  C   UNL     1      -6.688   8.549  63.423  1.00  0.00    -0.089 C  
HETATM   46  C   UNL     1      -7.459   7.988  66.977  1.00  0.00    -0.092 A  
ENDBRANCH  35  38
ENDBRANCH  25  34
ENDBRANCH  24  25
ENDBRANCH   6  21
TORSDOF 8
ENDMDL
MODEL       17
REMARK 921   NORMALIZED FREE ENERGY PREDICTED BY IDOCK:   -7.26 KCAL/MOL
REMARK 922        TOTAL FREE ENERGY PREDICTED BY IDOCK:  -12.48 KCAL/MOL
REMARK 923 INTER-LIGAND FREE ENERGY PREDICTED BY IDOCK:  -10.37 KCAL/MOL
REMARK 924 INTRA-LIGAND FREE ENERGY PREDICTED BY IDOCK:   -2.10 KCAL/MOL
REMARK 927      BINDING AFFINITY PREDICTED BY RF-SCORE:    0.00 PKD
ROOT
HETATM    1  C   UNL     1      -6.504   9.976  68.364  1.00  0.00    -0.054 C  
HETATM    2  S   UNL     1      -7.558   9.826  69.835  1.00  0.00    -0.167 SA 
HETATM    3  C   UNL     1      -7.559   8.022  69.770  1.00  0.00    -0.092 C  
HETATM    4  C   UNL     1      -7.878   7.436  68.397  1.00  0.00    -0.122 C  
HETATM    5  CA  UNL     1      -7.753   8.125  67.229  1.00  0.00    -0.098 C  
HETATM    6  CA  UNL     1      -6.612  11.354  67.622  1.00  0.00    -0.074 C  
HETATM    7  O   UNL     1      -7.507  10.582  65.286  1.00  0.00    -0.137 OA 
HETATM    8  N   UNL     1      -7.208   9.385  67.242  1.00  0.00    -0.086 N  
HETATM    9  C   UNL     1      -8.284   7.535  65.933  1.00  0.00    -0.134 C  
HETATM   10  OXT UNL     1      -9.039   6.575  65.883  1.00  0.00    -0.134 OA 
HETATM   11  O   UNL     1      -7.816   8.076  64.792  1.00  0.00    -0.116 OA 
HETATM   12  C   UNL     1      -7.154  10.466  66.437  1.00  0.00    -0.118 C  
ENDROOT
BRANCH   4  13
HETATM   13  C   UNL     1      -8.474   6.034  68.558  1.00  0.00    -0.113 C  
BRANCH  13  14
HETATM   14  S   UNL     1     -10.199   5.966  69.103  1.00  0.00    -0.240 SA 
BRANCH  14  15
HETATM   15  C   UNL     1     -10.154   5.045  70.551  1.00  0.00    -0.253 A  
HETATM   16  N   UNL     1     -10.107   3.744  70.682  1.00  0.00     0.046 NA 
HETATM   17  C   UNL     1     -10.211   6.991  72.181  1.00  0.00    -0.186 C  
HETATM   18  N   UNL     1     -10.131   3.500  72.036  1.00  0.00    -0.151 NA 
HETATM   19  N   UNL     1     -10.187   5.607  71.794  1.00  0.00    -0.195 NA 
HETATM   20  N   UNL     1     -10.181   4.634  72.722  1.00  0.00    -0.173 NA 
ENDBRANCH  14  15
ENDBRANCH  13  14
ENDBRANCH   4  13
BRANCH   6  21
HETATM   21  N   UNL     1      -7.601  12.300  68.224  1.00  0.00    -0.125 N  
HETATM   22  H   UNL     1      -8.284  11.932  68.886  1.00  0.00     0.000 HD 
HETATM   23  O   UNL     1      -6.739  14.197  67.288  1.00  0.00    -0.250 OA 
HETATM   24  C   UNL     1      -7.635  13.651  67.926  1.00  0.00    -0.156 C  
BRANCH  24  25
HETATM   25  CA  UNL     1      -8.980  14.344  68.305  1.00  0.00    -0.187 C  
BRANCH  25  26
HETATM   26  C   UNL     1      -9.680  14.908  67.064  1.00  0.00    -0.240 A  
HETATM   27  O   UNL     1     -11.707  16.382  63.728  1.00  0.00    -1.553 OA 
HETATM   28  C   UNL     1      -9.710  16.290  66.805  1.00  0.00    -0.253 A  
HETATM   29  C   UNL     1     -10.964  14.560  65.015  1.00  0.00    -0.408 A  
HETATM   30  C   UNL     1     -11.019  15.930  64.813  1.00  0.00    -0.375 A  
HETATM   31  C   UNL     1     -10.384  16.801  65.689  1.00  0.00    -0.284 A  
HETATM   32  H   UNL     1     -12.142  15.786  63.129  1.00  0.00     0.000 HD 
HETATM   33  C   UNL     1     -10.285  14.051  66.123  1.00  0.00    -0.308 A  
ENDBRANCH  25  26
BRANCH  25  34
HETATM   34  N   UNL     1      -9.818  13.331  68.977  1.00  0.00    -0.406 N  
HETATM   35  C   UNL     1     -11.037  13.651  69.533  1.00  0.00    -0.072 C  
HETATM   36  H   UNL     1      -9.486  12.369  69.032  1.00  0.00     0.000 HD 
HETATM   37  O   UNL     1     -11.556  14.759  69.445  1.00  0.00    -0.276 OA 
BRANCH  35  38
HETATM   38  C   UNL     1     -11.789  12.577  70.225  1.00  0.00    -0.305 A  
HETATM   39  O   UNL     1     -12.686  14.110  71.889  1.00  0.00    -0.327 OA 
HETATM   40  C   UNL     1     -12.565  12.854  71.354  1.00  0.00    -0.220 A  
HETATM   41  C   UNL     1     -13.098  10.533  71.551  1.00  0.00    -0.430 A  
HETATM   42  C   UNL     1     -13.245  11.835  72.012  1.00  0.00    -0.460 A  
HETATM   43  H   UNL     1     -13.213  14.298  72.656  1.00  0.00     0.000 HD 
HETATM   44  N   UNL     1     -12.346  10.231  70.463  1.00  0.00    -0.293 NA 
HETATM   45  C   UNL     1     -13.704   9.380  72.296  1.00  0.00    -0.495 C  
HETATM   46  C   UNL     1     -11.711  11.250  69.832  1.00  0.00    -0.352 A  
ENDBRANCH  35  38
ENDBRANCH  25  34
ENDBRANCH  24  25
ENDBRANCH   6  21
TORSDOF 8
ENDMDL
MODEL       18
REMARK 921   NORMALIZED FREE ENERGY PREDICTED BY IDOCK:   -7.18 KCAL/MOL
REMARK 922        TOTAL FREE ENERGY PREDICTED BY IDOCK:  -12.35 KCAL/MOL
REMARK 923 INTER-LIGAND FREE ENERGY PREDICTED BY IDOCK:  -10.32 KCAL/MOL
REMARK 924 INTRA-LIGAND FREE ENERGY PREDICTED BY IDOCK:   -2.03 KCAL/MOL
REMARK 927      BINDING AFFINITY PREDICTED BY RF-SCORE:    0.00 PKD
ROOT
HETATM    1  C   UNL     1      -9.868  10.171  65.623  1.00  0.00    -0.280 C  
HETATM    2  S   UNL     1     -11.158  10.810  66.728  1.00  0.00     0.031 SA 
HETATM    3  C   UNL     1     -10.604  12.518  66.548  1.00  0.00    -0.242 C  
HETATM    4  C   UNL     1      -9.103  12.723  66.738  1.00  0.00    -0.209 C  
HETATM    5  CA  UNL     1      -8.180  11.727  66.624  1.00  0.00    -0.117 C  
HETATM    6  CA  UNL     1      -9.524   8.655  65.829  1.00  0.00    -0.122 C  
HETATM    7  O   UNL     1      -7.006   8.815  66.525  1.00  0.00    -0.077 OA 
HETATM    8  N   UNL     1      -8.578  10.482  66.208  1.00  0.00    -0.142 N  
HETATM    9  C   UNL     1      -6.736  11.974  67.029  1.00  0.00    -0.099 C  
HETATM   10  OXT UNL     1      -6.369  12.940  67.682  1.00  0.00    -0.131 OA 
HETATM   11  O   UNL     1      -5.825  11.100  66.560  1.00  0.00    -0.113 OA 
HETATM   12  C   UNL     1      -8.104   9.218  66.221  1.00  0.00    -0.107 C  
ENDROOT
BRANCH   4  13
HETATM   13  C   UNL     1      -8.829  14.158  67.200  1.00  0.00    -0.229 C  
BRANCH  13  14
HETATM   14  S   UNL     1     -10.278  15.110  67.722  1.00  0.00    -0.238 SA 
BRANCH  14  15
HETATM   15  C   UNL     1     -10.616  16.139  66.391  1.00  0.00    -0.269 A  
HETATM   16  N   UNL     1     -11.097  15.814  65.218  1.00  0.00    -0.309 NA 
HETATM   17  C   UNL     1      -9.895  18.321  67.469  1.00  0.00    -0.317 C  
HETATM   18  N   UNL     1     -11.144  16.983  64.493  1.00  0.00    -1.062 NA 
HETATM   19  N   UNL     1     -10.385  17.484  66.410  1.00  0.00    -0.349 NA 
HETATM   20  N   UNL     1     -10.709  18.007  65.214  1.00  0.00    -0.557 NA 
ENDBRANCH  14  15
ENDBRANCH  13  14
ENDBRANCH   4  13
BRANCH   6  21
HETATM   21  N   UNL     1     -10.285   7.997  66.935  1.00  0.00    -0.293 N  
HETATM   22  H   UNL     1     -11.058   8.508  67.363  1.00  0.00     0.000 HD 
HETATM   23  O   UNL     1      -9.204   5.988  66.827  1.00  0.00    -0.128 OA 
HETATM   24  C   UNL     1      -9.992   6.730  67.408  1.00  0.00    -0.148 C  
BRANCH  24  25
HETATM   25  CA  UNL     1     -10.596   6.429  68.814  1.00  0.00    -0.251 C  
BRANCH  25  26
HETATM   26  C   UNL     1      -9.582   5.712  69.710  1.00  0.00    -0.206 A  
HETATM   27  O   UNL     1      -6.839   3.859  72.251  1.00  0.00    -0.040 OA 
HETATM   28  C   UNL     1      -9.749   4.364  70.074  1.00  0.00    -0.286 A  
HETATM   29  C   UNL     1      -7.520   5.743  71.021  1.00  0.00    -0.090 A  
HETATM   30  C   UNL     1      -7.739   4.429  71.403  1.00  0.00    -0.080 A  
HETATM   31  C   UNL     1      -8.837   3.727  70.924  1.00  0.00    -0.135 A  
HETATM   32  H   UNL     1      -6.087   4.340  72.579  1.00  0.00     0.000 HD 
HETATM   33  C   UNL     1      -8.425   6.375  70.167  1.00  0.00    -0.135 A  
ENDBRANCH  25  26
BRANCH  25  34
HETATM   34  N   UNL     1     -11.007   7.721  69.398  1.00  0.00    -0.425 N  
HETATM   35  C   UNL     1     -11.911   7.794  70.436  1.00  0.00     0.040 C  
HETATM   36  H   UNL     1     -10.611   8.582  69.024  1.00  0.00     0.000 HD 
HETATM   37  O   UNL     1     -12.376   6.811  71.004  1.00  0.00    -0.378 OA 
BRANCH  35  38
HETATM   38  C   UNL     1     -12.295   9.138  70.929  1.00  0.00    -0.197 A  
HETATM   39  O   UNL     1     -13.982   8.235  72.433  1.00  0.00    -0.557 OA 
HETATM   40  C   UNL     1     -13.299   9.292  71.889  1.00  0.00    -0.429 A  
HETATM   41  C   UNL     1     -13.056  11.665  71.755  1.00  0.00    -0.382 A  
HETATM   42  C   UNL     1     -13.670  10.559  72.327  1.00  0.00     0.052 A  
HETATM   43  H   UNL     1     -14.664   8.340  73.086  1.00  0.00     0.000 HD 
HETATM   44  N   UNL     1     -12.085  11.549  70.815  1.00  0.00    -0.354 NA 
HETATM   45  C   UNL     1     -13.507  13.055  72.094  1.00  0.00    -0.638 C  
HETATM   46  C   UNL     1     -11.732  10.299  70.425  1.00  0.00    -0.319 A  
ENDBRANCH  35  38
ENDBRANCH  25  34
ENDBRANCH  24  25
ENDBRANCH   6  21
TORSDOF 8
ENDMDL
MODEL       19
REMARK 921   NORMALIZED FREE ENERGY PREDICTED BY IDOCK:   -7.14 KCAL/MOL
REMARK 922        TOTAL FREE ENERGY PREDICTED BY IDOCK:  -12.30 KCAL/MOL
REMARK 923 INTER-LIGAND FREE ENERGY PREDICTED BY IDOCK:  -10.55 KCAL/MOL
REMARK 924 INTRA-LIGAND FREE ENERGY PREDICTED BY IDOCK:   -1.76 KCAL/MOL
REMARK 927      BINDING AFFINITY PREDICTED BY RF-SCORE:    0.00 PKD
ROOT
HETATM    1  C   UNL     1     -12.229  14.479  68.458  1.00  0.00    -0.128 C  
HETATM    2  S   UNL     1     -11.212  14.684  69.947  1.00  0.00    -0.197 SA 
HETATM    3  C   UNL     1     -10.971  16.449  69.659  1.00  0.00    -0.329 C  
HETATM    4  C   UNL     1     -10.535  16.807  68.240  1.00  0.00    -0.341 C  
HETATM    5  CA  UNL     1     -10.713  15.993  67.162  1.00  0.00    -0.283 C  
HETATM    6  CA  UNL     1     -12.281  13.014  67.900  1.00  0.00    -0.023 C  
HETATM    7  O   UNL     1     -11.220  13.357  65.532  1.00  0.00    -0.288 OA 
HETATM    8  N   UNL     1     -11.419  14.826  67.306  1.00  0.00    -0.361 N  
HETATM    9  C   UNL     1     -10.068  16.338  65.829  1.00  0.00    -0.347 C  
HETATM   10  OXT UNL     1      -9.192  17.180  65.696  1.00  0.00    -0.509 OA 
HETATM   11  O   UNL     1     -10.568  15.717  64.744  1.00  0.00    -0.504 OA 
HETATM   12  C   UNL     1     -11.590  13.664  66.640  1.00  0.00    -0.364 C  
ENDROOT
BRANCH   4  13
HETATM   13  C   UNL     1      -9.765  18.131  68.253  1.00  0.00    -0.337 C  
BRANCH  13  14
HETATM   14  S   UNL     1      -8.008  18.020  68.678  1.00  0.00    -0.261 SA 
BRANCH  14  15
HETATM   15  C   UNL     1      -7.340  19.503  68.130  1.00  0.00    -0.299 A  
HETATM   16  N   UNL     1      -7.498  20.081  66.966  1.00  0.00    -0.255 NA 
HETATM   17  C   UNL     1      -6.054  20.086  70.239  1.00  0.00    -0.347 C  
HETATM   18  N   UNL     1      -6.727  21.221  67.004  1.00  0.00    -0.503 NA 
HETATM   19  N   UNL     1      -6.506  20.272  68.888  1.00  0.00    -0.309 NA 
HETATM   20  N   UNL     1      -6.118  21.344  68.175  1.00  0.00    -0.252 NA 
ENDBRANCH  14  15
ENDBRANCH  13  14
ENDBRANCH   4  13
BRANCH   6  21
HETATM   21  N   UNL     1     -11.444  12.036  68.661  1.00  0.00    -0.270 N  
HETATM   22  H   UNL     1     -11.093  12.310  69.579  1.00  0.00     0.000 HD 
HETATM   23  O   UNL     1     -11.657  10.311  67.179  1.00  0.00    -0.067 OA 
HETATM   24  C   UNL     1     -11.124  10.778  68.182  1.00  0.00    -0.280 C  
BRANCH  24  25
HETATM   25  CA  UNL     1      -9.914  10.118  68.912  1.00  0.00    -0.199 C  
BRANCH  25  26
HETATM   26  C   UNL     1     -10.387   9.110  69.965  1.00  0.00    -0.231 A  
HETATM   27  O   UNL     1     -11.560   6.287  72.805  1.00  0.00    -0.445 OA 
HETATM   28  C   UNL     1     -10.627   9.499  71.295  1.00  0.00    -0.358 A  
HETATM   29  C   UNL     1     -11.020   6.833  70.583  1.00  0.00    -0.313 A  
HETATM   30  C   UNL     1     -11.200   7.235  71.897  1.00  0.00    -0.248 A  
HETATM   31  C   UNL     1     -11.023   8.565  72.259  1.00  0.00    -0.426 A  
HETATM   32  H   UNL     1     -11.681   5.378  72.556  1.00  0.00     0.000 HD 
HETATM   33  C   UNL     1     -10.633   7.766  69.620  1.00  0.00    -0.242 A  
ENDBRANCH  25  26
BRANCH  25  34
HETATM   34  N   UNL     1      -9.086   9.463  67.880  1.00  0.00    -0.130 N  
HETATM   35  C   UNL     1      -8.116  10.150  67.184  1.00  0.00    -0.120 C  
HETATM   36  H   UNL     1      -9.235   8.475  67.677  1.00  0.00     0.000 HD 
HETATM   37  O   UNL     1      -7.808  11.315  67.415  1.00  0.00    -0.118 OA 
BRANCH  35  38
HETATM   38  C   UNL     1      -7.363   9.420  66.136  1.00  0.00    -0.096 A  
HETATM   39  O   UNL     1      -8.107  10.929  64.379  1.00  0.00    -0.366 OA 
HETATM   40  C   UNL     1      -7.395   9.837  64.804  1.00  0.00    -0.130 A  
HETATM   41  C   UNL     1      -6.027   7.977  64.192  1.00  0.00    -0.057 A  
HETATM   42  C   UNL     1      -6.707   9.130  63.824  1.00  0.00    -0.090 A  
HETATM   43  H   UNL     1      -8.129  11.213  63.473  1.00  0.00     0.000 HD 
HETATM   44  N   UNL     1      -5.983   7.541  65.476  1.00  0.00    -0.037 NA 
HETATM   45  C   UNL     1      -5.376   7.105  63.159  1.00  0.00    -0.033 C  
HETATM   46  C   UNL     1      -6.649   8.264  66.410  1.00  0.00    -0.055 A  
ENDBRANCH  35  38
ENDBRANCH  25  34
ENDBRANCH  24  25
ENDBRANCH   6  21
TORSDOF 8
ENDMDL
MODEL       20
REMARK 921   NORMALIZED FREE ENERGY PREDICTED BY IDOCK:   -7.11 KCAL/MOL
REMARK 922        TOTAL FREE ENERGY PREDICTED BY IDOCK:  -12.26 KCAL/MOL
REMARK 923 INTER-LIGAND FREE ENERGY PREDICTED BY IDOCK:  -10.27 KCAL/MOL
REMARK 924 INTRA-LIGAND FREE ENERGY PREDICTED BY IDOCK:   -1.98 KCAL/MOL
REMARK 927      BINDING AFFINITY PREDICTED BY RF-SCORE:    0.00 PKD
ROOT
HETATM    1  C   UNL     1      -5.805  11.756  68.418  1.00  0.00    -0.049 C  
HETATM    2  S   UNL     1      -6.919  12.941  67.613  1.00  0.00    -0.157 SA 
HETATM    3  C   UNL     1      -5.987  14.369  68.205  1.00  0.00    -0.133 C  
HETATM    4  C   UNL     1      -5.662  14.342  69.696  1.00  0.00    -0.100 C  
HETATM    5  CA  UNL     1      -5.661  13.209  70.453  1.00  0.00    -0.158 C  
HETATM    6  CA  UNL     1      -6.439  10.349  68.695  1.00  0.00    -0.051 C  
HETATM    7  O   UNL     1      -6.295  10.254  71.307  1.00  0.00    -0.330 OA 
HETATM    8  N   UNL     1      -5.851  11.993  69.848  1.00  0.00    -0.124 N  
HETATM    9  C   UNL     1      -5.527  13.301  71.964  1.00  0.00     0.048 C  
HETATM   10  OXT UNL     1      -5.657  14.339  72.596  1.00  0.00    -0.175 OA 
HETATM   11  O   UNL     1      -5.171  12.170  72.603  1.00  0.00    -0.334 OA 
HETATM   12  C   UNL     1      -6.186  10.734  70.203  1.00  0.00    -0.136 C  
ENDROOT
BRANCH   4  13
HETATM   13  C   UNL     1      -5.478  15.773  70.213  1.00  0.00    -0.156 C  
BRANCH  13  14
HETATM   14  S   UNL     1      -5.259  17.048  68.947  1.00  0.00    -0.138 SA 
BRANCH  14  15
HETATM   15  C   UNL     1      -6.783  17.835  68.864  1.00  0.00    -0.237 A  
HETATM   16  N   UNL     1      -7.948  17.315  68.574  1.00  0.00    -0.253 NA 
HETATM   17  C   UNL     1      -5.982  20.169  69.464  1.00  0.00    -0.336 C  
HETATM   18  N   UNL     1      -8.844  18.359  68.597  1.00  0.00    -0.310 NA 
HETATM   19  N   UNL     1      -6.945  19.171  69.085  1.00  0.00    -0.331 NA 
HETATM   20  N   UNL     1      -8.238  19.497  68.908  1.00  0.00    -0.335 NA 
ENDBRANCH  14  15
ENDBRANCH  13  14
ENDBRANCH   4  13
BRANCH   6  21
HETATM   21  N   UNL     1      -7.873  10.231  68.291  1.00  0.00    -0.099 N  
HETATM   22  H   UNL     1      -8.455  11.069  68.317  1.00  0.00     0.000 HD 
HETATM   23  O   UNL     1      -7.779   8.040  67.652  1.00  0.00    -0.106 OA 
HETATM   24  C   UNL     1      -8.451   9.041  67.884  1.00  0.00    -0.121 C  
BRANCH  24  25
HETATM   25  CA  UNL     1     -10.010   9.049  67.938  1.00  0.00    -0.178 C  
BRANCH  25  26
HETATM   26  C   UNL     1     -10.515   8.806  69.364  1.00  0.00    -0.228 A  
HETATM   27  O   UNL     1     -12.023   8.177  73.203  1.00  0.00    -0.600 OA 
HETATM   28  C   UNL     1     -10.319   7.572  70.010  1.00  0.00    -0.222 A  
HETATM   29  C   UNL     1     -11.664   9.601  71.368  1.00  0.00    -0.478 A  
HETATM   30  C   UNL     1     -11.500   8.359  71.959  1.00  0.00    -0.349 A  
HETATM   31  C   UNL     1     -10.817   7.346  71.299  1.00  0.00    -0.258 A  
HETATM   32  H   UNL     1     -12.490   8.870  73.655  1.00  0.00     0.000 HD 
HETATM   33  C   UNL     1     -11.161   9.829  70.087  1.00  0.00    -0.324 A  
ENDBRANCH  25  26
BRANCH  25  34
HETATM   34  N   UNL     1     -10.457  10.360  67.429  1.00  0.00    -0.232 N  
HETATM   35  C   UNL     1     -10.441  10.661  66.085  1.00  0.00    -0.194 C  
HETATM   36  H   UNL     1     -10.787  11.062  68.090  1.00  0.00     0.000 HD 
HETATM   37  O   UNL     1     -10.140   9.856  65.210  1.00  0.00    -0.313 OA 
BRANCH  35  38
HETATM   38  C   UNL     1     -10.869  12.019  65.671  1.00  0.00    -0.325 A  
HETATM   39  O   UNL     1     -11.696  11.235  63.521  1.00  0.00    -0.595 OA 
HETATM   40  C   UNL     1     -11.466  12.238  64.427  1.00  0.00    -0.354 A  
HETATM   41  C   UNL     1     -11.565  14.580  64.892  1.00  0.00    -0.401 A  
HETATM   42  C   UNL     1     -11.841  13.520  64.038  1.00  0.00    -0.476 A  
HETATM   43  H   UNL     1     -12.102  11.384  62.676  1.00  0.00     0.000 HD 
HETATM   44  N   UNL     1     -10.980  14.401  66.102  1.00  0.00    -0.315 NA 
HETATM   45  C   UNL     1     -11.829  15.995  64.470  1.00  0.00    -0.027 C  
HETATM   46  C   UNL     1     -10.645  13.136  66.460  1.00  0.00    -0.284 A  
ENDBRANCH  35  38
ENDBRANCH  25  34
ENDBRANCH  24  25
ENDBRANCH   6  21
TORSDOF 8
ENDMDL
MODEL       21
REMARK 921   NORMALIZED FREE ENERGY PREDICTED BY IDOCK:   -7.01 KCAL/MOL
REMARK 922        TOTAL FREE ENERGY PREDICTED BY IDOCK:  -12.10 KCAL/MOL
REMARK 923 INTER-LIGAND FREE ENERGY PREDICTED BY IDOCK:   -9.81 KCAL/MOL
REMARK 924 INTRA-LIGAND FREE ENERGY PREDICTED BY IDOCK:   -2.29 KCAL/MOL
REMARK 927      BINDING AFFINITY PREDICTED BY RF-SCORE:    0.00 PKD
ROOT
HETATM    1  C   UNL     1     -11.550  12.414  67.655  1.00  0.00    -0.357 C  
HETATM    2  S   UNL     1      -9.945  11.723  67.164  1.00  0.00    -0.204 SA 
HETATM    3  C   UNL     1     -10.444  10.033  67.552  1.00  0.00    -0.254 C  
HETATM    4  C   UNL     1     -11.092   9.861  68.924  1.00  0.00    -0.181 C  
HETATM    5  CA  UNL     1     -11.653  10.880  69.632  1.00  0.00    -0.322 C  
HETATM    6  CA  UNL     1     -11.515  13.934  68.041  1.00  0.00    -0.307 C  
HETATM    7  O   UNL     1     -12.279  13.821  70.542  1.00  0.00    -0.332 OA 
HETATM    8  N   UNL     1     -11.755  12.124  69.061  1.00  0.00    -0.306 N  
HETATM    9  C   UNL     1     -12.091  10.661  71.071  1.00  0.00    -0.368 C  
HETATM   10  OXT UNL     1     -11.764   9.691  71.740  1.00  0.00    -0.388 OA 
HETATM   11  O   UNL     1     -12.948  11.565  71.581  1.00  0.00    -0.437 OA 
HETATM   12  C   UNL     1     -11.960  13.398  69.455  1.00  0.00    -0.319 C  
ENDROOT
BRANCH   4  13
HETATM   13  C   UNL     1     -10.891   8.424  69.416  1.00  0.00    -0.082 C  
BRANCH  13  14
HETATM   14  S   UNL     1      -9.243   7.722  69.153  1.00  0.00    -0.143 SA 
BRANCH  14  15
HETATM   15  C   UNL     1      -8.247   8.525  70.298  1.00  0.00    -0.115 A  
HETATM   16  N   UNL     1      -7.400   9.501  70.090  1.00  0.00    -0.106 NA 
HETATM   17  C   UNL     1      -8.979   7.217  72.347  1.00  0.00    -0.127 C  
HETATM   18  N   UNL     1      -6.822   9.764  71.311  1.00  0.00    -0.324 NA 
HETATM   19  N   UNL     1      -8.217   8.196  71.621  1.00  0.00    -0.114 NA 
HETATM   20  N   UNL     1      -7.315   8.969  72.251  1.00  0.00    -0.328 NA 
ENDBRANCH  14  15
ENDBRANCH  13  14
ENDBRANCH   4  13
BRANCH   6  21
HETATM   21  N   UNL     1     -10.155  14.552  67.984  1.00  0.00    -0.222 N  
HETATM   22  H   UNL     1      -9.341  13.937  68.011  1.00  0.00     0.000 HD 
HETATM   23  O   UNL     1     -10.864  16.701  67.677  1.00  0.00    -0.324 OA 
HETATM   24  C   UNL     1      -9.945  15.917  67.897  1.00  0.00    -0.221 C  
BRANCH  24  25
HETATM   25  CA  UNL     1      -8.501  16.357  68.290  1.00  0.00    -0.195 C  
BRANCH  25  26
HETATM   26  C   UNL     1      -7.609  15.142  68.567  1.00  0.00    -0.120 A  
HETATM   27  O   UNL     1      -5.271  11.794  69.423  1.00  0.00    -0.055 OA 
HETATM   28  C   UNL     1      -7.297  14.216  67.555  1.00  0.00    -0.193 A  
HETATM   29  C   UNL     1      -6.267  13.809  70.113  1.00  0.00    -0.110 A  
HETATM   30  C   UNL     1      -6.018  12.888  69.108  1.00  0.00    -0.086 A  
HETATM   31  C   UNL     1      -6.512  13.090  67.825  1.00  0.00    -0.148 A  
HETATM   32  H   UNL     1      -4.933  11.656  70.301  1.00  0.00     0.000 HD 
HETATM   33  C   UNL     1      -7.042  14.936  69.841  1.00  0.00    -0.109 A  
ENDBRANCH  25  26
BRANCH  25  34
HETATM   34  N   UNL     1      -7.972  17.165  67.174  1.00  0.00    -0.183 N  
HETATM   35  C   UNL     1      -7.222  18.300  67.391  1.00  0.00    -0.200 C  
HETATM   36  H   UNL     1      -8.166  16.875  66.216  1.00  0.00     0.000 HD 
HETATM   37  O   UNL     1      -6.869  18.680  68.502  1.00  0.00    -0.246 OA 
BRANCH  35  38
HETATM   38  C   UNL     1      -6.770  19.071  66.208  1.00  0.00    -0.235 A  
HETATM   39  O   UNL     1      -7.516  21.187  67.151  1.00  0.00    -0.635 OA 
HETATM   40  C   UNL     1      -6.937  20.457  66.146  1.00  0.00    -0.242 A  
HETATM   41  C   UNL     1      -6.004  20.465  63.946  1.00  0.00    -0.273 A  
HETATM   42  C   UNL     1      -6.533  21.168  65.020  1.00  0.00    -0.015 A  
HETATM   43  H   UNL     1      -7.629  22.128  67.108  1.00  0.00     0.000 HD 
HETATM   44  N   UNL     1      -5.836  19.119  63.973  1.00  0.00    -0.440 NA 
HETATM   45  C   UNL     1      -5.671  21.163  62.660  1.00  0.00    -0.285 C  
HETATM   46  C   UNL     1      -6.223  18.458  65.092  1.00  0.00    -0.156 A  
ENDBRANCH  35  38
ENDBRANCH  25  34
ENDBRANCH  24  25
ENDBRANCH   6  21
TORSDOF 8
ENDMDL
MODEL       22
REMARK 921   NORMALIZED FREE ENERGY PREDICTED BY IDOCK:   -7.00 KCAL/MOL
REMARK 922        TOTAL FREE ENERGY PREDICTED BY IDOCK:  -12.09 KCAL/MOL
REMARK 923 INTER-LIGAND FREE ENERGY PREDICTED BY IDOCK:  -10.09 KCAL/MOL
REMARK 924 INTRA-LIGAND FREE ENERGY PREDICTED BY IDOCK:   -2.00 KCAL/MOL
REMARK 927      BINDING AFFINITY PREDICTED BY RF-SCORE:    0.00 PKD
ROOT
HETATM    1  C   UNL     1      -7.867   9.375  66.521  1.00  0.00    -0.097 C  
HETATM    2  S   UNL     1      -9.668   9.593  66.473  1.00  0.00    -0.230 SA 
HETATM    3  C   UNL     1      -9.544  11.330  65.998  1.00  0.00    -0.218 C  
HETATM    4  C   UNL     1      -8.582  12.154  66.850  1.00  0.00    -0.191 C  
HETATM    5  CA  UNL     1      -7.582  11.616  67.603  1.00  0.00    -0.128 C  
HETATM    6  CA  UNL     1      -7.377   8.181  67.411  1.00  0.00    -0.089 C  
HETATM    7  O   UNL     1      -5.951   9.456  69.198  1.00  0.00    -0.041 OA 
HETATM    8  N   UNL     1      -7.331  10.269  67.529  1.00  0.00    -0.088 N  
HETATM    9  C   UNL     1      -6.805  12.488  68.576  1.00  0.00    -0.083 C  
HETATM   10  OXT UNL     1      -7.160  13.606  68.918  1.00  0.00    -0.108 OA 
HETATM   11  O   UNL     1      -5.625  12.001  69.005  1.00  0.00    -0.051 OA 
HETATM   12  C   UNL     1      -6.684   9.326  68.246  1.00  0.00    -0.060 C  
ENDROOT
BRANCH   4  13
HETATM   13  C   UNL     1      -9.000  13.628  66.825  1.00  0.00    -0.181 C  
BRANCH  13  14
HETATM   14  S   UNL     1     -10.749  13.959  67.153  1.00  0.00    -0.284 SA 
BRANCH  14  15
HETATM   15  C   UNL     1     -11.328  14.676  65.705  1.00  0.00    -0.338 A  
HETATM   16  N   UNL     1     -11.069  15.868  65.232  1.00  0.00    -0.290 NA 
HETATM   17  C   UNL     1     -12.743  12.722  64.913  1.00  0.00    -0.404 C  
HETATM   18  N   UNL     1     -11.803  15.981  64.074  1.00  0.00    -0.784 NA 
HETATM   19  N   UNL     1     -12.189  14.047  64.854  1.00  0.00    -0.420 NA 
HETATM   20  N   UNL     1     -12.491  14.873  63.836  1.00  0.00    -0.769 NA 
ENDBRANCH  14  15
ENDBRANCH  13  14
ENDBRANCH   4  13
BRANCH   6  21
HETATM   21  N   UNL     1      -8.475   7.446  68.112  1.00  0.00    -0.124 N  
HETATM   22  H   UNL     1      -9.439   7.732  67.936  1.00  0.00     0.000 HD 
HETATM   23  O   UNL     1      -7.140   5.882  69.106  1.00  0.00    -0.065 OA 
HETATM   24  C   UNL     1      -8.248   6.398  68.987  1.00  0.00    -0.115 C  
BRANCH  24  25
HETATM   25  CA  UNL     1      -9.460   6.083  69.916  1.00  0.00    -0.151 C  
BRANCH  25  26
HETATM   26  C   UNL     1      -9.026   5.251  71.128  1.00  0.00    -0.159 A  
HETATM   27  O   UNL     1      -7.823   2.875  74.340  1.00  0.00    -0.058 OA 
HETATM   28  C   UNL     1      -7.975   5.667  71.965  1.00  0.00    -0.107 A  
HETATM   29  C   UNL     1      -9.279   3.271  72.537  1.00  0.00    -0.140 A  
HETATM   30  C   UNL     1      -8.207   3.683  73.313  1.00  0.00    -0.080 A  
HETATM   31  C   UNL     1      -7.561   4.883  73.047  1.00  0.00    -0.092 A  
HETATM   32  H   UNL     1      -8.265   2.054  74.522  1.00  0.00     0.000 HD 
HETATM   33  C   UNL     1      -9.697   4.057  71.463  1.00  0.00    -0.246 A  
ENDBRANCH  25  26
BRANCH  25  34
HETATM   34  N   UNL     1     -10.037   7.375  70.335  1.00  0.00    -0.192 N  
HETATM   35  C   UNL     1     -11.388   7.528  70.561  1.00  0.00    -0.260 C  
HETATM   36  H   UNL     1      -9.420   8.177  70.460  1.00  0.00     0.000 HD 
HETATM   37  O   UNL     1     -12.194   6.604  70.517  1.00  0.00    -0.364 OA 
BRANCH  35  38
HETATM   38  C   UNL     1     -11.882   8.874  70.937  1.00  0.00    -0.283 A  
HETATM   39  O   UNL     1     -13.569   7.968  72.439  1.00  0.00    -0.530 OA 
HETATM   40  C   UNL     1     -12.934   9.027  71.844  1.00  0.00    -0.389 A  
HETATM   41  C   UNL     1     -12.844  11.396  71.541  1.00  0.00    -0.403 A  
HETATM   42  C   UNL     1     -13.408  10.294  72.170  1.00  0.00    -0.404 A  
HETATM   43  H   UNL     1     -14.284   8.072  73.055  1.00  0.00     0.000 HD 
HETATM   44  N   UNL     1     -11.827  11.279  70.651  1.00  0.00    -0.324 NA 
HETATM   45  C   UNL     1     -13.400  12.772  71.757  1.00  0.00    -0.436 C  
HETATM   46  C   UNL     1     -11.375  10.032  70.369  1.00  0.00    -0.320 A  
ENDBRANCH  35  38
ENDBRANCH  25  34
ENDBRANCH  24  25
ENDBRANCH   6  21
TORSDOF 8
ENDMDL
MODEL       23
REMARK 921   NORMALIZED FREE ENERGY PREDICTED BY IDOCK:   -6.99 KCAL/MOL
REMARK 922        TOTAL FREE ENERGY PREDICTED BY IDOCK:  -12.07 KCAL/MOL
REMARK 923 INTER-LIGAND FREE ENERGY PREDICTED BY IDOCK:   -9.96 KCAL/MOL
REMARK 924 INTRA-LIGAND FREE ENERGY PREDICTED BY IDOCK:   -2.11 KCAL/MOL
REMARK 927      BINDING AFFINITY PREDICTED BY RF-SCORE:    0.00 PKD
ROOT
HETATM    1  C   UNL     1      -8.497  12.190  67.003  1.00  0.00    -0.183 C  
HETATM    2  S   UNL     1      -7.589  13.192  68.214  1.00  0.00    -0.148 SA 
HETATM    3  C   UNL     1      -6.736  11.759  68.905  1.00  0.00    -0.094 C  
HETATM    4  C   UNL     1      -7.646  10.581  69.244  1.00  0.00    -0.134 C  
HETATM    5  CA  UNL     1      -8.886  10.401  68.711  1.00  0.00    -0.157 C  
HETATM    6  CA  UNL     1      -9.818  12.849  66.472  1.00  0.00    -0.254 C  
HETATM    7  O   UNL     1     -11.594  11.106  67.283  1.00  0.00    -0.514 OA 
HETATM    8  N   UNL     1      -9.329  11.249  67.729  1.00  0.00    -0.159 N  
HETATM    9  C   UNL     1      -9.802   9.316  69.256  1.00  0.00    -0.172 C  
HETATM   10  OXT UNL     1      -9.607   8.729  70.311  1.00  0.00    -0.165 OA 
HETATM   11  O   UNL     1     -10.834   8.954  68.471  1.00  0.00    -0.125 OA 
HETATM   12  C   UNL     1     -10.499  11.602  67.156  1.00  0.00    -0.220 C  
ENDROOT
BRANCH   4  13
HETATM   13  C   UNL     1      -7.008   9.735  70.352  1.00  0.00    -0.138 C  
BRANCH  13  14
HETATM   14  S   UNL     1      -5.790   8.511  69.810  1.00  0.00    -0.029 SA 
BRANCH  14  15
HETATM   15  C   UNL     1      -6.688   7.408  68.850  1.00  0.00    -0.049 A  
HETATM   16  N   UNL     1      -6.912   7.452  67.561  1.00  0.00    -0.077 NA 
HETATM   17  C   UNL     1      -7.352   5.815  70.712  1.00  0.00    -0.084 C  
HETATM   18  N   UNL     1      -7.716   6.372  67.281  1.00  0.00    -0.099 NA 
HETATM   19  N   UNL     1      -7.321   6.314  69.365  1.00  0.00    -0.089 NA 
HETATM   20  N   UNL     1      -7.971   5.672  68.378  1.00  0.00    -0.099 NA 
ENDBRANCH  14  15
ENDBRANCH  13  14
ENDBRANCH   4  13
BRANCH   6  21
HETATM   21  N   UNL     1     -10.134  14.174  67.087  1.00  0.00    -0.255 N  
HETATM   22  H   UNL     1      -9.375  14.704  67.515  1.00  0.00     0.000 HD 
HETATM   23  O   UNL     1     -12.328  14.232  66.453  1.00  0.00    -0.448 OA 
HETATM   24  C   UNL     1     -11.407  14.718  67.103  1.00  0.00    -0.356 C  
BRANCH  24  25
HETATM   25  CA  UNL     1     -11.589  15.858  68.152  1.00  0.00    -0.223 C  
BRANCH  25  26
HETATM   26  C   UNL     1     -11.963  15.291  69.526  1.00  0.00    -0.356 A  
HETATM   27  O   UNL     1     -13.076  13.852  73.280  1.00  0.00    -0.501 OA 
HETATM   28  C   UNL     1     -12.383  13.958  69.679  1.00  0.00    -0.301 A  
HETATM   29  C   UNL     1     -12.239  15.589  71.935  1.00  0.00    -0.477 A  
HETATM   30  C   UNL     1     -12.698  14.286  72.046  1.00  0.00    -0.324 A  
HETATM   31  C   UNL     1     -12.758  13.459  70.931  1.00  0.00    -0.349 A  
HETATM   32  H   UNL     1     -13.035  14.417  74.043  1.00  0.00     0.000 HD 
HETATM   33  C   UNL     1     -11.858  16.083  70.687  1.00  0.00    -0.342 A  
ENDBRANCH  25  26
BRANCH  25  34
HETATM   34  N   UNL     1     -10.317  16.605  68.210  1.00  0.00    -0.287 N  
HETATM   35  C   UNL     1     -10.239  17.934  67.857  1.00  0.00    -0.371 C  
HETATM   36  H   UNL     1      -9.473  16.124  68.520  1.00  0.00     0.000 HD 
HETATM   37  O   UNL     1     -11.212  18.616  67.552  1.00  0.00    -0.162 OA 
BRANCH  35  38
HETATM   38  C   UNL     1      -8.910  18.590  67.907  1.00  0.00    -0.301 A  
HETATM   39  O   UNL     1      -7.947  16.807  69.253  1.00  0.00    -0.181 OA 
HETATM   40  C   UNL     1      -7.844  18.003  68.593  1.00  0.00    -0.290 A  
HETATM   41  C   UNL     1      -6.472  19.887  68.062  1.00  0.00    -0.242 A  
HETATM   42  C   UNL     1      -6.608  18.639  68.656  1.00  0.00    -0.273 A  
HETATM   43  H   UNL     1      -7.222  16.408  69.720  1.00  0.00     0.000 HD 
HETATM   44  N   UNL     1      -7.490  20.486  67.395  1.00  0.00    -0.321 NA 
HETATM   45  C   UNL     1      -5.203  20.674  68.209  1.00  0.00    -0.283 C  
HETATM   46  C   UNL     1      -8.677  19.831  67.336  1.00  0.00    -0.326 A  
ENDBRANCH  35  38
ENDBRANCH  25  34
ENDBRANCH  24  25
ENDBRANCH   6  21
TORSDOF 8
ENDMDL
MODEL       24
REMARK 921   NORMALIZED FREE ENERGY PREDICTED BY IDOCK:   -6.96 KCAL/MOL
REMARK 922        TOTAL FREE ENERGY PREDICTED BY IDOCK:  -12.03 KCAL/MOL
REMARK 923 INTER-LIGAND FREE ENERGY PREDICTED BY IDOCK:  -10.88 KCAL/MOL
REMARK 924 INTRA-LIGAND FREE ENERGY PREDICTED BY IDOCK:   -1.15 KCAL/MOL
REMARK 927      BINDING AFFINITY PREDICTED BY RF-SCORE:    0.00 PKD
ROOT
HETATM    1  C   UNL     1     -10.105  12.891  65.614  1.00  0.00    -0.272 C  
HETATM    2  S   UNL     1     -11.833  12.943  66.169  1.00  0.00    -0.436 SA 
HETATM    3  C   UNL     1     -11.768  14.712  66.524  1.00  0.00    -0.325 C  
HETATM    4  C   UNL     1     -10.564  15.149  67.355  1.00  0.00    -0.271 C  
HETATM    5  CA  UNL     1      -9.418  14.423  67.472  1.00  0.00    -0.207 C  
HETATM    6  CA  UNL     1      -9.438  11.474  65.690  1.00  0.00    -0.222 C  
HETATM    7  O   UNL     1      -7.502  11.934  67.390  1.00  0.00    -0.128 OA 
HETATM    8  N   UNL     1      -9.261  13.281  66.727  1.00  0.00    -0.243 N  
HETATM    9  C   UNL     1      -8.354  14.832  68.479  1.00  0.00    -0.160 C  
HETATM   10  OXT UNL     1      -8.543  15.640  69.376  1.00  0.00    -0.250 OA 
HETATM   11  O   UNL     1      -7.125  14.313  68.295  1.00  0.00    -0.091 OA 
HETATM   12  C   UNL     1      -8.482  12.179  66.726  1.00  0.00    -0.138 C  
ENDROOT
BRANCH   4  13
HETATM   13  C   UNL     1     -10.901  16.433  68.120  1.00  0.00    -0.346 C  
BRANCH  13  14
HETATM   14  S   UNL     1     -10.622  17.982  67.227  1.00  0.00    -0.297 SA 
BRANCH  14  15
HETATM   15  C   UNL     1      -9.113  18.551  67.816  1.00  0.00    -0.278 A  
HETATM   16  N   UNL     1      -8.888  19.347  68.830  1.00  0.00    -0.368 NA 
HETATM   17  C   UNL     1      -7.633  17.366  66.128  1.00  0.00    -0.286 C  
HETATM   18  N   UNL     1      -7.526  19.535  68.866  1.00  0.00    -0.362 NA 
HETATM   19  N   UNL     1      -7.919  18.229  67.241  1.00  0.00    -0.222 NA 
HETATM   20  N   UNL     1      -6.926  18.855  67.898  1.00  0.00    -0.226 NA 
ENDBRANCH  14  15
ENDBRANCH  13  14
ENDBRANCH   4  13
BRANCH   6  21
HETATM   21  N   UNL     1     -10.323  10.407  66.251  1.00  0.00    -0.226 N  
HETATM   22  H   UNL     1     -11.332  10.557  66.238  1.00  0.00     0.000 HD 
HETATM   23  O   UNL     1      -8.664   8.895  66.671  1.00  0.00    -0.122 OA 
HETATM   24  C   UNL     1      -9.840   9.226  66.787  1.00  0.00    -0.225 C  
BRANCH  24  25
HETATM   25  CA  UNL     1     -10.870   8.480  67.690  1.00  0.00    -0.002 C  
BRANCH  25  26
HETATM   26  C   UNL     1     -10.174   7.450  68.587  1.00  0.00    -0.203 A  
HETATM   27  O   UNL     1      -8.345   4.544  70.956  1.00  0.00    -0.089 OA 
HETATM   28  C   UNL     1      -8.774   7.412  68.710  1.00  0.00    -0.128 A  
HETATM   29  C   UNL     1     -10.297   5.562  70.133  1.00  0.00    -0.354 A  
HETATM   30  C   UNL     1      -8.913   5.518  70.194  1.00  0.00    -0.136 A  
HETATM   31  C   UNL     1      -8.144   6.445  69.502  1.00  0.00    -0.118 A  
HETATM   32  H   UNL     1      -8.871   3.909  71.430  1.00  0.00     0.000 HD 
HETATM   33  C   UNL     1     -10.924   6.531  69.349  1.00  0.00    -0.395 A  
ENDBRANCH  25  26
BRANCH  25  34
HETATM   34  N   UNL     1     -11.568   9.503  68.493  1.00  0.00    -0.153 N  
HETATM   35  C   UNL     1     -10.884  10.375  69.312  1.00  0.00    -0.241 C  
HETATM   36  H   UNL     1     -12.584   9.566  68.441  1.00  0.00     0.000 HD 
HETATM   37  O   UNL     1      -9.661  10.430  69.377  1.00  0.00    -0.217 OA 
BRANCH  35  38
HETATM   38  C   UNL     1     -11.674  11.340  70.113  1.00  0.00    -0.429 A  
HETATM   39  O   UNL     1     -12.624   9.588  71.509  1.00  0.00    -0.326 OA 
HETATM   40  C   UNL     1     -12.495  10.906  71.157  1.00  0.00    -0.405 A  
HETATM   41  C   UNL     1     -13.210  13.157  71.524  1.00  0.00    -0.282 A  
HETATM   42  C   UNL     1     -13.252  11.817  71.887  1.00  0.00    -0.468 A  
HETATM   43  H   UNL     1     -13.182   9.294  72.219  1.00  0.00     0.000 HD 
HETATM   44  N   UNL     1     -12.429  13.608  70.510  1.00  0.00    -0.339 NA 
HETATM   45  C   UNL     1     -14.102  14.163  72.190  1.00  0.00    -0.643 C  
HETATM   46  C   UNL     1     -11.688  12.697  69.831  1.00  0.00    -0.250 A  
ENDBRANCH  35  38
ENDBRANCH  25  34
ENDBRANCH  24  25
ENDBRANCH   6  21
TORSDOF 8
ENDMDL
MODEL       25
REMARK 921   NORMALIZED FREE ENERGY PREDICTED BY IDOCK:   -6.92 KCAL/MOL
REMARK 922        TOTAL FREE ENERGY PREDICTED BY IDOCK:  -11.97 KCAL/MOL
REMARK 923 INTER-LIGAND FREE ENERGY PREDICTED BY IDOCK:  -10.19 KCAL/MOL
REMARK 924 INTRA-LIGAND FREE ENERGY PREDICTED BY IDOCK:   -1.78 KCAL/MOL
REMARK 927      BINDING AFFINITY PREDICTED BY RF-SCORE:    0.00 PKD
ROOT
HETATM    1  C   UNL     1     -11.552  13.862  68.034  1.00  0.00    -0.333 C  
HETATM    2  S   UNL     1      -9.904  14.405  68.567  1.00  0.00    -0.233 SA 
HETATM    3  C   UNL     1     -10.215  16.123  68.109  1.00  0.00    -0.247 C  
HETATM    4  C   UNL     1     -10.793  16.313  66.709  1.00  0.00    -0.125 C  
HETATM    5  CA  UNL     1     -11.429  15.332  66.010  1.00  0.00    -0.085 C  
HETATM    6  CA  UNL     1     -11.657  12.334  67.695  1.00  0.00    -0.354 C  
HETATM    7  O   UNL     1     -12.316  12.440  65.164  1.00  0.00    -0.524 OA 
HETATM    8  N   UNL     1     -11.677  14.125  66.613  1.00  0.00    -0.384 N  
HETATM    9  C   UNL     1     -11.791  15.547  64.549  1.00  0.00    -0.216 C  
HETATM   10  OXT UNL     1     -11.344  16.456  63.865  1.00  0.00    -0.967 OA 
HETATM   11  O   UNL     1     -12.716  14.716  64.034  1.00  0.00    -0.772 OA 
HETATM   12  C   UNL     1     -11.995  12.865  66.249  1.00  0.00    -0.408 C  
ENDROOT
BRANCH   4  13
HETATM   13  C   UNL     1     -10.430  17.706  66.183  1.00  0.00    -0.295 C  
BRANCH  13  14
HETATM   14  S   UNL     1      -9.785  18.871  67.409  1.00  0.00    -0.322 SA 
BRANCH  14  15
HETATM   15  C   UNL     1      -8.149  19.114  66.949  1.00  0.00    -0.263 A  
HETATM   16  N   UNL     1      -7.685  19.531  65.799  1.00  0.00    -0.427 NA 
HETATM   17  C   UNL     1      -7.082  18.422  69.146  1.00  0.00    -0.200 C  
HETATM   18  N   UNL     1      -6.314  19.517  65.918  1.00  0.00    -0.196 NA 
HETATM   19  N   UNL     1      -7.096  18.863  67.779  1.00  0.00    -0.226 NA 
HETATM   20  N   UNL     1      -5.947  19.109  67.125  1.00  0.00    -0.174 NA 
ENDBRANCH  14  15
ENDBRANCH  13  14
ENDBRANCH   4  13
BRANCH   6  21
HETATM   21  N   UNL     1     -10.369  11.586  67.823  1.00  0.00    -0.179 N  
HETATM   22  H   UNL     1      -9.531  12.105  68.086  1.00  0.00     0.000 HD 
HETATM   23  O   UNL     1     -11.245   9.508  67.462  1.00  0.00    -0.061 OA 
HETATM   24  C   UNL     1     -10.258  10.225  67.600  1.00  0.00    -0.205 C  
BRANCH  24  25
HETATM   25  CA  UNL     1      -8.794   9.746  67.357  1.00  0.00    -0.132 C  
BRANCH  25  26
HETATM   26  C   UNL     1      -7.867  10.204  68.488  1.00  0.00    -0.095 A  
HETATM   27  O   UNL     1      -5.420  11.571  71.579  1.00  0.00    -0.355 OA 
HETATM   28  C   UNL     1      -7.671   9.419  69.638  1.00  0.00    -0.098 A  
HETATM   29  C   UNL     1      -6.340  11.860  69.435  1.00  0.00    -0.115 A  
HETATM   30  C   UNL     1      -6.207  11.088  70.578  1.00  0.00    -0.051 A  
HETATM   31  C   UNL     1      -6.852   9.862  70.683  1.00  0.00    -0.087 A  
HETATM   32  H   UNL     1      -4.979  12.410  71.506  1.00  0.00     0.000 HD 
HETATM   33  C   UNL     1      -7.150  11.414  68.390  1.00  0.00    -0.079 A  
ENDBRANCH  25  26
BRANCH  25  34
HETATM   34  N   UNL     1      -8.827   8.273  67.257  1.00  0.00    -0.129 N  
HETATM   35  C   UNL     1      -8.695   7.624  66.049  1.00  0.00    -0.156 C  
HETATM   36  H   UNL     1      -8.950   7.721  68.105  1.00  0.00     0.000 HD 
HETATM   37  O   UNL     1      -8.462   8.198  64.990  1.00  0.00    -0.157 OA 
BRANCH  35  38
HETATM   38  C   UNL     1      -8.784   6.145  66.041  1.00  0.00    -0.157 A  
HETATM   39  O   UNL     1     -11.133   6.162  66.675  1.00  0.00    -0.675 OA 
HETATM   40  C   UNL     1      -9.981   5.494  66.351  1.00  0.00    -0.172 A  
HETATM   41  C   UNL     1      -8.888   3.382  66.115  1.00  0.00    -0.137 A  
HETATM   42  C   UNL     1     -10.047   4.105  66.367  1.00  0.00    -0.102 A  
HETATM   43  H   UNL     1     -11.947   5.719  66.886  1.00  0.00     0.000 HD 
HETATM   44  N   UNL     1      -7.710   3.984  65.818  1.00  0.00    -0.089 NA 
HETATM   45  C   UNL     1      -8.871   1.887  66.245  1.00  0.00    -0.118 C  
HETATM   46  C   UNL     1      -7.683   5.340  65.792  1.00  0.00    -0.091 A  
ENDBRANCH  35  38
ENDBRANCH  25  34
ENDBRANCH  24  25
ENDBRANCH   6  21
TORSDOF 8
ENDMDL
MODEL       26
REMARK 921   NORMALIZED FREE ENERGY PREDICTED BY IDOCK:   -6.92 KCAL/MOL
REMARK 922        TOTAL FREE ENERGY PREDICTED BY IDOCK:  -11.97 KCAL/MOL
REMARK 923 INTER-LIGAND FREE ENERGY PREDICTED BY IDOCK:   -9.43 KCAL/MOL
REMARK 924 INTRA-LIGAND FREE ENERGY PREDICTED BY IDOCK:   -2.54 KCAL/MOL
REMARK 927      BINDING AFFINITY PREDICTED BY RF-SCORE:    0.00 PKD
ROOT
HETATM    1  C   UNL     1     -11.542  13.990  68.502  1.00  0.00    -0.322 C  
HETATM    2  S   UNL     1      -9.891  14.494  69.062  1.00  0.00    -0.078 SA 
HETATM    3  C   UNL     1     -10.097  16.185  68.466  1.00  0.00    -0.241 C  
HETATM    4  C   UNL     1     -10.611  16.295  67.032  1.00  0.00    -0.284 C  
HETATM    5  CA  UNL     1     -11.268  15.295  66.382  1.00  0.00    -0.224 C  
HETATM    6  CA  UNL     1     -11.712  12.448  68.274  1.00  0.00    -0.345 C  
HETATM    7  O   UNL     1     -12.267  12.392  65.716  1.00  0.00    -0.620 OA 
HETATM    8  N   UNL     1     -11.599  14.150  67.062  1.00  0.00    -0.362 N  
HETATM    9  C   UNL     1     -11.563  15.414  64.895  1.00  0.00    -0.248 C  
HETATM   10  OXT UNL     1     -11.044  16.246  64.165  1.00  0.00    -0.733 OA 
HETATM   11  O   UNL     1     -12.508  14.591  64.404  1.00  0.00    -0.633 OA 
HETATM   12  C   UNL     1     -11.967  12.882  66.779  1.00  0.00    -0.350 C  
ENDROOT
BRANCH   4  13
HETATM   13  C   UNL     1     -10.158  17.624  66.419  1.00  0.00    -0.356 C  
BRANCH  13  14
HETATM   14  S   UNL     1      -8.987  18.590  67.405  1.00  0.00    -0.274 SA 
BRANCH  14  15
HETATM   15  C   UNL     1      -7.442  18.057  66.878  1.00  0.00    -0.210 A  
HETATM   16  N   UNL     1      -6.811  16.957  67.203  1.00  0.00    -0.166 NA 
HETATM   17  C   UNL     1      -6.906  20.031  65.374  1.00  0.00    -0.305 C  
HETATM   18  N   UNL     1      -5.599  17.013  66.556  1.00  0.00    -0.323 NA 
HETATM   19  N   UNL     1      -6.653  18.778  66.031  1.00  0.00    -0.217 NA 
HETATM   20  N   UNL     1      -5.494  18.123  65.838  1.00  0.00    -0.176 NA 
ENDBRANCH  14  15
ENDBRANCH  13  14
ENDBRANCH   4  13
BRANCH   6  21
HETATM   21  N   UNL     1     -10.469  11.652  68.510  1.00  0.00    -0.211 N  
HETATM   22  H   UNL     1      -9.746  12.047  69.112  1.00  0.00     0.000 HD 
HETATM   23  O   UNL     1     -11.141   9.787  67.374  1.00  0.00    -0.210 OA 
HETATM   24  C   UNL     1     -10.250  10.404  67.953  1.00  0.00    -0.179 C  
BRANCH  24  25
HETATM   25  CA  UNL     1      -8.754   9.963  67.966  1.00  0.00    -0.125 C  
BRANCH  25  26
HETATM   26  C   UNL     1      -7.825  11.168  68.151  1.00  0.00    -0.118 A  
HETATM   27  O   UNL     1      -5.403  14.532  68.623  1.00  0.00    -0.086 OA 
HETATM   28  C   UNL     1      -7.122  11.374  69.351  1.00  0.00    -0.065 A  
HETATM   29  C   UNL     1      -6.808  13.211  67.278  1.00  0.00    -0.001 A  
HETATM   30  C   UNL     1      -6.168  13.414  68.491  1.00  0.00    -0.086 A  
HETATM   31  C   UNL     1      -6.304  12.496  69.525  1.00  0.00    -0.112 A  
HETATM   32  H   UNL     1      -5.310  15.160  67.915  1.00  0.00     0.000 HD 
HETATM   33  C   UNL     1      -7.617  12.088  67.103  1.00  0.00    -0.146 A  
ENDBRANCH  25  26
BRANCH  25  34
HETATM   34  N   UNL     1      -8.595   8.992  69.066  1.00  0.00    -0.132 N  
HETATM   35  C   UNL     1      -8.755   7.638  68.868  1.00  0.00    -0.135 C  
HETATM   36  H   UNL     1      -8.359   9.332  69.998  1.00  0.00     0.000 HD 
HETATM   37  O   UNL     1      -8.956   7.130  67.770  1.00  0.00    -0.123 OA 
BRANCH  35  38
HETATM   38  C   UNL     1      -8.617   6.743  70.042  1.00  0.00    -0.141 A  
HETATM   39  O   UNL     1     -10.815   5.757  69.700  1.00  0.00    -0.326 OA 
HETATM   40  C   UNL     1      -9.640   5.859  70.397  1.00  0.00    -0.168 A  
HETATM   41  C   UNL     1      -8.368   5.158  72.294  1.00  0.00    -0.121 A  
HETATM   42  C   UNL     1      -9.512   5.042  71.515  1.00  0.00    -0.203 A  
HETATM   43  H   UNL     1     -11.510   5.157  69.942  1.00  0.00     0.000 HD 
HETATM   44  N   UNL     1      -7.362   6.011  71.981  1.00  0.00    -0.092 NA 
HETATM   45  C   UNL     1      -8.234   4.396  73.580  1.00  0.00    -0.097 C  
HETATM   46  C   UNL     1      -7.509   6.780  70.873  1.00  0.00    -0.083 A  
ENDBRANCH  35  38
ENDBRANCH  25  34
ENDBRANCH  24  25
ENDBRANCH   6  21
TORSDOF 8
ENDMDL
MODEL       27
REMARK 921   NORMALIZED FREE ENERGY PREDICTED BY IDOCK:   -6.87 KCAL/MOL
REMARK 922        TOTAL FREE ENERGY PREDICTED BY IDOCK:  -11.89 KCAL/MOL
REMARK 923 INTER-LIGAND FREE ENERGY PREDICTED BY IDOCK:  -10.15 KCAL/MOL
REMARK 924 INTRA-LIGAND FREE ENERGY PREDICTED BY IDOCK:   -1.74 KCAL/MOL
REMARK 927      BINDING AFFINITY PREDICTED BY RF-SCORE:    0.00 PKD
ROOT
HETATM    1  C   UNL     1      -7.137   7.736  69.703  1.00  0.00    -0.063 C  
HETATM    2  S   UNL     1      -7.822   8.304  71.285  1.00  0.00    -0.112 SA 
HETATM    3  C   UNL     1      -6.904   7.075  72.236  1.00  0.00    -0.061 C  
HETATM    4  C   UNL     1      -7.004   5.650  71.695  1.00  0.00    -0.068 C  
HETATM    5  CA  UNL     1      -7.359   5.346  70.416  1.00  0.00    -0.070 C  
HETATM    6  CA  UNL     1      -8.004   8.100  68.448  1.00  0.00    -0.123 C  
HETATM    7  O   UNL     1      -8.589   5.713  67.549  1.00  0.00    -0.110 OA 
HETATM    8  N   UNL     1      -7.538   6.357  69.506  1.00  0.00    -0.093 N  
HETATM    9  C   UNL     1      -7.630   3.903  70.021  1.00  0.00    -0.048 C  
HETATM   10  OXT UNL     1      -7.787   2.997  70.826  1.00  0.00    -0.046 OA 
HETATM   11  O   UNL     1      -7.614   3.630  68.703  1.00  0.00    -0.053 OA 
HETATM   12  C   UNL     1      -8.122   6.535  68.302  1.00  0.00    -0.110 C  
ENDROOT
BRANCH   4  13
HETATM   13  C   UNL     1      -6.778   4.648  72.832  1.00  0.00    -0.060 C  
BRANCH  13  14
HETATM   14  S   UNL     1      -7.767   4.911  74.326  1.00  0.00    -0.093 SA 
BRANCH  14  15
HETATM   15  C   UNL     1      -9.356   4.442  73.876  1.00  0.00    -0.112 A  
HETATM   16  N   UNL     1      -9.807   3.236  73.640  1.00  0.00    -0.106 NA 
HETATM   17  C   UNL     1     -10.389   6.760  73.849  1.00  0.00    -0.368 C  
HETATM   18  N   UNL     1     -11.125   3.392  73.277  1.00  0.00    -0.167 NA 
HETATM   19  N   UNL     1     -10.371   5.332  73.686  1.00  0.00    -0.209 NA 
HETATM   20  N   UNL     1     -11.477   4.670  73.302  1.00  0.00    -0.308 NA 
ENDBRANCH  14  15
ENDBRANCH  13  14
ENDBRANCH   4  13
BRANCH   6  21
HETATM   21  N   UNL     1      -9.277   8.816  68.767  1.00  0.00    -0.141 N  
HETATM   22  H   UNL     1     -10.114   8.261  68.945  1.00  0.00     0.000 HD 
HETATM   23  O   UNL     1      -8.382  10.917  68.815  1.00  0.00    -0.139 OA 
HETATM   24  C   UNL     1      -9.375  10.195  68.833  1.00  0.00    -0.179 C  
BRANCH  24  25
HETATM   25  CA  UNL     1     -10.839  10.725  68.740  1.00  0.00    -0.221 C  
BRANCH  25  26
HETATM   26  C   UNL     1     -11.659  10.304  69.965  1.00  0.00    -0.349 A  
HETATM   27  O   UNL     1     -14.005   9.215  73.238  1.00  0.00    -1.164 OA 
HETATM   28  C   UNL     1     -11.710   8.963  70.386  1.00  0.00    -0.055 A  
HETATM   29  C   UNL     1     -13.142  10.878  71.820  1.00  0.00    -0.564 A  
HETATM   30  C   UNL     1     -13.213   9.542  72.180  1.00  0.00    -0.451 A  
HETATM   31  C   UNL     1     -12.491   8.582  71.484  1.00  0.00    -0.353 A  
HETATM   32  H   UNL     1     -14.499   9.872  73.715  1.00  0.00     0.000 HD 
HETATM   33  C   UNL     1     -12.357  11.260  70.731  1.00  0.00    -0.495 A  
ENDBRANCH  25  26
BRANCH  25  34
HETATM   34  N   UNL     1     -10.765  12.195  68.627  1.00  0.00    -0.229 N  
HETATM   35  C   UNL     1     -11.381  12.876  67.600  1.00  0.00    -0.303 C  
HETATM   36  H   UNL     1     -10.243  12.721  69.327  1.00  0.00     0.000 HD 
HETATM   37  O   UNL     1     -12.096  12.339  66.760  1.00  0.00    -0.593 OA 
BRANCH  35  38
HETATM   38  C   UNL     1     -11.216  14.348  67.544  1.00  0.00    -0.329 A  
HETATM   39  O   UNL     1     -10.507  14.302  65.217  1.00  0.00    -0.340 OA 
HETATM   40  C   UNL     1     -10.791  14.981  66.373  1.00  0.00    -0.326 A  
HETATM   41  C   UNL     1     -10.822  17.085  67.504  1.00  0.00    -0.203 A  
HETATM   42  C   UNL     1     -10.614  16.360  66.338  1.00  0.00    -0.236 A  
HETATM   43  H   UNL     1     -10.219  14.732  64.421  1.00  0.00     0.000 HD 
HETATM   44  N   UNL     1     -11.226  16.500  68.659  1.00  0.00    -0.338 NA 
HETATM   45  C   UNL     1     -10.522  18.554  67.559  1.00  0.00    -0.453 C  
HETATM   46  C   UNL     1     -11.409  15.155  68.654  1.00  0.00    -0.310 A  
ENDBRANCH  35  38
ENDBRANCH  25  34
ENDBRANCH  24  25
ENDBRANCH   6  21
TORSDOF 8
ENDMDL
MODEL       28
REMARK 921   NORMALIZED FREE ENERGY PREDICTED BY IDOCK:   -6.78 KCAL/MOL
REMARK 922        TOTAL FREE ENERGY PREDICTED BY IDOCK:  -11.76 KCAL/MOL
REMARK 923 INTER-LIGAND FREE ENERGY PREDICTED BY IDOCK:   -9.54 KCAL/MOL
REMARK 924 INTRA-LIGAND FREE ENERGY PREDICTED BY IDOCK:   -2.22 KCAL/MOL
REMARK 927      BINDING AFFINITY PREDICTED BY RF-SCORE:    0.00 PKD
ROOT
HETATM    1  C   UNL     1     -10.672   8.163  70.621  1.00  0.00    -0.224 C  
HETATM    2  S   UNL     1     -10.762   7.596  68.900  1.00  0.00    -0.026 SA 
HETATM    3  C   UNL     1     -10.922   5.862  69.376  1.00  0.00    -0.350 C  
HETATM    4  C   UNL     1      -9.899   5.389  70.405  1.00  0.00    -0.270 C  
HETATM    5  CA  UNL     1      -9.206   6.225  71.228  1.00  0.00    -0.152 C  
HETATM    6  CA  UNL     1      -9.981   9.557  70.814  1.00  0.00    -0.264 C  
HETATM    7  O   UNL     1      -7.939   8.888  72.309  1.00  0.00    -0.371 OA 
HETATM    8  N   UNL     1      -9.501   7.565  71.234  1.00  0.00    -0.150 N  
HETATM    9  C   UNL     1      -8.064   5.689  72.076  1.00  0.00    -0.112 C  
HETATM   10  OXT UNL     1      -7.549   4.593  71.907  1.00  0.00    -0.083 OA 
HETATM   11  O   UNL     1      -7.674   6.458  73.110  1.00  0.00    -0.098 OA 
HETATM   12  C   UNL     1      -8.931   8.719  71.639  1.00  0.00    -0.231 C  
ENDROOT
BRANCH   4  13
HETATM   13  C   UNL     1      -9.686   3.878  70.268  1.00  0.00    -0.175 C  
BRANCH  13  14
HETATM   14  S   UNL     1      -9.298   3.282  68.603  1.00  0.00    -0.141 SA 
BRANCH  14  15
HETATM   15  C   UNL     1      -8.012   4.290  68.077  1.00  0.00    -0.086 A  
HETATM   16  N   UNL     1      -6.819   4.421  68.600  1.00  0.00    -0.050 NA 
HETATM   17  C   UNL     1      -9.199   5.329  66.087  1.00  0.00    -0.154 C  
HETATM   18  N   UNL     1      -6.179   5.376  67.844  1.00  0.00    -0.036 NA 
HETATM   19  N   UNL     1      -8.111   5.128  67.005  1.00  0.00    -0.104 NA 
HETATM   20  N   UNL     1      -6.962   5.814  66.868  1.00  0.00    -0.063 NA 
ENDBRANCH  14  15
ENDBRANCH  13  14
ENDBRANCH   4  13
BRANCH   6  21
HETATM   21  N   UNL     1      -9.468  10.169  69.550  1.00  0.00    -0.247 N  
HETATM   22  H   UNL     1      -8.572   9.846  69.183  1.00  0.00     0.000 HD 
HETATM   23  O   UNL     1     -11.306  11.457  69.126  1.00  0.00    -0.238 OA 
HETATM   24  C   UNL     1     -10.148  11.152  68.853  1.00  0.00    -0.186 C  
BRANCH  24  25
HETATM   25  CA  UNL     1      -9.256  11.939  67.845  1.00  0.00    -0.187 C  
BRANCH  25  26
HETATM   26  C   UNL     1      -9.494  11.465  66.407  1.00  0.00    -0.224 A  
HETATM   27  O   UNL     1     -10.089  10.296  62.446  1.00  0.00    -0.714 OA 
HETATM   28  C   UNL     1      -8.950  10.257  65.934  1.00  0.00    -0.181 A  
HETATM   29  C   UNL     1     -10.486  11.809  64.201  1.00  0.00    -0.394 A  
HETATM   30  C   UNL     1      -9.896  10.639  63.750  1.00  0.00    -0.335 A  
HETATM   31  C   UNL     1      -9.142   9.850  64.609  1.00  0.00    -0.288 A  
HETATM   32  H   UNL     1     -10.604  10.837  61.859  1.00  0.00     0.000 HD 
HETATM   33  C   UNL     1     -10.302  12.211  65.525  1.00  0.00    -0.296 A  
ENDBRANCH  25  26
BRANCH  25  34
HETATM   34  N   UNL     1      -9.583  13.370  67.997  1.00  0.00    -0.213 N  
HETATM   35  C   UNL     1      -8.625  14.352  67.868  1.00  0.00    -0.165 C  
HETATM   36  H   UNL     1     -10.545  13.640  68.203  1.00  0.00     0.000 HD 
HETATM   37  O   UNL     1      -7.464  14.131  67.541  1.00  0.00    -0.163 OA 
BRANCH  35  38
HETATM   38  C   UNL     1      -9.040  15.760  68.080  1.00  0.00    -0.187 A  
HETATM   39  O   UNL     1     -11.203  15.408  67.021  1.00  0.00    -0.312 OA 
HETATM   40  C   UNL     1     -10.290  16.214  67.651  1.00  0.00    -0.288 A  
HETATM   41  C   UNL     1      -9.742  18.415  68.402  1.00  0.00    -0.356 A  
HETATM   42  C   UNL     1     -10.659  17.543  67.831  1.00  0.00    -0.390 A  
HETATM   43  H   UNL     1     -12.052  15.717  66.730  1.00  0.00     0.000 HD 
HETATM   44  N   UNL     1      -8.518  18.007  68.821  1.00  0.00    -0.254 NA 
HETATM   45  C   UNL     1     -10.037  19.883  68.503  1.00  0.00    -0.538 C  
HETATM   46  C   UNL     1      -8.196  16.700  68.649  1.00  0.00    -0.245 A  
ENDBRANCH  35  38
ENDBRANCH  25  34
ENDBRANCH  24  25
ENDBRANCH   6  21
TORSDOF 8
ENDMDL
MODEL       29
REMARK 921   NORMALIZED FREE ENERGY PREDICTED BY IDOCK:   -6.72 KCAL/MOL
REMARK 922        TOTAL FREE ENERGY PREDICTED BY IDOCK:  -11.68 KCAL/MOL
REMARK 923 INTER-LIGAND FREE ENERGY PREDICTED BY IDOCK:   -9.29 KCAL/MOL
REMARK 924 INTRA-LIGAND FREE ENERGY PREDICTED BY IDOCK:   -2.38 KCAL/MOL
REMARK 927      BINDING AFFINITY PREDICTED BY RF-SCORE:    0.00 PKD
ROOT
HETATM    1  C   UNL     1      -7.504  11.067  69.064  1.00  0.00    -0.129 C  
HETATM    2  S   UNL     1      -9.317  11.001  69.054  1.00  0.00    -0.023 SA 
HETATM    3  C   UNL     1      -9.350   9.297  68.459  1.00  0.00    -0.142 C  
HETATM    4  C   UNL     1      -8.454   9.029  67.252  1.00  0.00    -0.114 C  
HETATM    5  CA  UNL     1      -7.404   9.820  66.894  1.00  0.00    -0.091 C  
HETATM    6  CA  UNL     1      -6.903  12.513  68.985  1.00  0.00    -0.089 C  
HETATM    7  O   UNL     1      -5.575  12.369  66.734  1.00  0.00    -0.319 OA 
HETATM    8  N   UNL     1      -7.037  10.863  67.706  1.00  0.00    -0.081 N  
HETATM    9  C   UNL     1      -6.696   9.595  65.568  1.00  0.00    -0.085 C  
HETATM   10  OXT UNL     1      -7.143   8.899  64.668  1.00  0.00    -0.086 OA 
HETATM   11  O   UNL     1      -5.474  10.146  65.442  1.00  0.00    -0.056 OA 
HETATM   12  C   UNL     1      -6.304  11.993  67.622  1.00  0.00    -0.099 C  
ENDROOT
BRANCH   4  13
HETATM   13  C   UNL     1      -8.999   7.838  66.456  1.00  0.00    -0.161 C  
BRANCH  13  14
HETATM   14  S   UNL     1     -10.561   7.141  67.048  1.00  0.00    -0.324 SA 
BRANCH  14  15
HETATM   15  C   UNL     1     -10.093   5.807  68.022  1.00  0.00    -0.161 A  
HETATM   16  N   UNL     1      -9.247   4.851  67.733  1.00  0.00    -0.117 NA 
HETATM   17  C   UNL     1     -11.535   6.349  70.040  1.00  0.00    -0.428 C  
HETATM   18  N   UNL     1      -9.250   4.005  68.818  1.00  0.00    -0.138 NA 
HETATM   19  N   UNL     1     -10.602   5.577  69.267  1.00  0.00    -0.273 NA 
HETATM   20  N   UNL     1     -10.076   4.441  69.759  1.00  0.00    -0.149 NA 
ENDBRANCH  14  15
ENDBRANCH  13  14
ENDBRANCH   4  13
BRANCH   6  21
HETATM   21  N   UNL     1      -7.925  13.598  68.868  1.00  0.00    -0.334 N  
HETATM   22  H   UNL     1      -8.899  13.333  68.714  1.00  0.00     0.000 HD 
HETATM   23  O   UNL     1      -6.510  15.332  69.322  1.00  0.00    -0.115 OA 
HETATM   24  C   UNL     1      -7.616  14.944  68.957  1.00  0.00    -0.151 C  
BRANCH  24  25
HETATM   25  CA  UNL     1      -8.720  15.882  68.379  1.00  0.00    -0.183 C  
BRANCH  25  26
HETATM   26  C   UNL     1      -8.115  17.182  67.841  1.00  0.00    -0.201 A  
HETATM   27  O   UNL     1      -6.373  20.721  66.480  1.00  0.00    -0.225 OA 
HETATM   28  C   UNL     1      -7.640  17.278  66.521  1.00  0.00    -0.324 A  
HETATM   29  C   UNL     1      -7.462  19.512  68.177  1.00  0.00    -0.335 A  
HETATM   30  C   UNL     1      -6.956  19.560  66.887  1.00  0.00    -0.198 A  
HETATM   31  C   UNL     1      -7.055  18.458  66.048  1.00  0.00    -0.307 A  
HETATM   32  H   UNL     1      -6.306  21.475  67.054  1.00  0.00     0.000 HD 
HETATM   33  C   UNL     1      -8.053  18.338  68.645  1.00  0.00    -0.304 A  
ENDBRANCH  25  26
BRANCH  25  34
HETATM   34  N   UNL     1      -9.414  15.133  67.313  1.00  0.00    -0.207 N  
HETATM   35  C   UNL     1     -10.676  14.612  67.495  1.00  0.00    -0.268 C  
HETATM   36  H   UNL     1      -8.947  14.998  66.417  1.00  0.00     0.000 HD 
HETATM   37  O   UNL     1     -11.348  14.792  68.504  1.00  0.00    -0.264 OA 
BRANCH  35  38
HETATM   38  C   UNL     1     -11.276  13.838  66.381  1.00  0.00    -0.321 A  
HETATM   39  O   UNL     1      -9.208  12.632  65.946  1.00  0.00    -0.441 OA 
HETATM   40  C   UNL     1     -10.523  12.900  65.670  1.00  0.00    -0.277 A  
HETATM   41  C   UNL     1     -12.396  12.484  64.246  1.00  0.00    -0.456 A  
HETATM   42  C   UNL     1     -11.087  12.198  64.610  1.00  0.00    -0.366 A  
HETATM   43  H   UNL     1      -8.696  11.994  65.462  1.00  0.00     0.000 HD 
HETATM   44  N   UNL     1     -13.150  13.394  64.911  1.00  0.00    -0.685 NA 
HETATM   45  C   UNL     1     -13.013  11.852  63.032  1.00  0.00     0.179 C  
HETATM   46  C   UNL     1     -12.577  14.048  65.952  1.00  0.00    -0.449 A  
ENDBRANCH  35  38
ENDBRANCH  25  34
ENDBRANCH  24  25
ENDBRANCH   6  21
TORSDOF 8
ENDMDL
MODEL       30
REMARK 921   NORMALIZED FREE ENERGY PREDICTED BY IDOCK:   -6.70 KCAL/MOL
REMARK 922        TOTAL FREE ENERGY PREDICTED BY IDOCK:  -11.65 KCAL/MOL
REMARK 923 INTER-LIGAND FREE ENERGY PREDICTED BY IDOCK:   -9.90 KCAL/MOL
REMARK 924 INTRA-LIGAND FREE ENERGY PREDICTED BY IDOCK:   -1.75 KCAL/MOL
REMARK 927      BINDING AFFINITY PREDICTED BY RF-SCORE:    0.00 PKD
ROOT
HETATM    1  C   UNL     1     -11.622  13.577  67.788  1.00  0.00    -0.339 C  
HETATM    2  S   UNL     1      -9.881  13.707  68.285  1.00  0.00    -0.229 SA 
HETATM    3  C   UNL     1      -9.861  15.503  68.102  1.00  0.00    -0.216 C  
HETATM    4  C   UNL     1     -10.440  16.013  66.784  1.00  0.00    -0.308 C  
HETATM    5  CA  UNL     1     -11.282  15.291  65.994  1.00  0.00    -0.231 C  
HETATM    6  CA  UNL     1     -12.040  12.169  67.240  1.00  0.00     0.116 C  
HETATM    7  O   UNL     1     -12.756  12.787  64.800  1.00  0.00    -0.644 OA 
HETATM    8  N   UNL     1     -11.743  14.075  66.432  1.00  0.00    -0.372 N  
HETATM    9  C   UNL     1     -11.647  15.794  64.607  1.00  0.00    -0.218 C  
HETATM   10  OXT UNL     1     -11.053  16.695  64.033  1.00  0.00    -0.914 OA 
HETATM   11  O   UNL     1     -12.737  15.244  64.038  1.00  0.00    -0.710 OA 
HETATM   12  C   UNL     1     -12.318  12.971  65.911  1.00  0.00    -0.368 C  
ENDROOT
BRANCH   4  13
HETATM   13  C   UNL     1      -9.826  17.375  66.442  1.00  0.00    -0.302 C  
BRANCH  13  14
HETATM   14  S   UNL     1      -8.604  18.010  67.617  1.00  0.00    -0.249 SA 
BRANCH  14  15
HETATM   15  C   UNL     1      -7.143  18.082  66.718  1.00  0.00    -0.205 A  
HETATM   16  N   UNL     1      -6.783  18.972  65.829  1.00  0.00    -0.253 NA 
HETATM   17  C   UNL     1      -6.059  15.999  67.684  1.00  0.00    -0.156 C  
HETATM   18  N   UNL     1      -5.552  18.566  65.368  1.00  0.00    -0.184 NA 
HETATM   19  N   UNL     1      -6.153  17.149  66.828  1.00  0.00    -0.193 NA 
HETATM   20  N   UNL     1      -5.161  17.453  65.973  1.00  0.00    -0.322 NA 
ENDBRANCH  14  15
ENDBRANCH  13  14
ENDBRANCH   4  13
BRANCH   6  21
HETATM   21  N   UNL     1     -10.923  11.178  67.174  1.00  0.00    -0.280 N  
HETATM   22  H   UNL     1     -10.291  11.211  66.373  1.00  0.00     0.000 HD 
HETATM   23  O   UNL     1     -11.300  10.231  69.218  1.00  0.00    -0.229 OA 
HETATM   24  C   UNL     1     -10.703  10.217  68.146  1.00  0.00    -0.244 C  
BRANCH  24  25
HETATM   25  CA  UNL     1      -9.791   9.043  67.673  1.00  0.00    -0.173 C  
BRANCH  25  26
HETATM   26  C   UNL     1      -8.595   9.562  66.867  1.00  0.00    -0.132 A  
HETATM   27  O   UNL     1      -5.254  10.892  64.752  1.00  0.00    -0.240 OA 
HETATM   28  C   UNL     1      -8.546   9.440  65.467  1.00  0.00    -0.169 A  
HETATM   29  C   UNL     1      -6.409  10.649  66.785  1.00  0.00    -0.084 A  
HETATM   30  C   UNL     1      -6.367  10.469  65.412  1.00  0.00    -0.098 A  
HETATM   31  C   UNL     1      -7.434   9.883  64.743  1.00  0.00    -0.136 A  
HETATM   32  H   UNL     1      -4.524  11.294  65.210  1.00  0.00     0.000 HD 
HETATM   33  C   UNL     1      -7.521  10.215  67.506  1.00  0.00    -0.090 A  
ENDBRANCH  25  26
BRANCH  25  34
HETATM   34  N   UNL     1      -9.348   8.321  68.881  1.00  0.00    -0.147 N  
HETATM   35  C   UNL     1     -10.037   7.232  69.370  1.00  0.00    -0.183 C  
HETATM   36  H   UNL     1      -8.509   8.635  69.368  1.00  0.00     0.000 HD 
HETATM   37  O   UNL     1     -11.006   6.732  68.809  1.00  0.00    -0.239 OA 
BRANCH  35  38
HETATM   38  C   UNL     1      -9.540   6.597  70.614  1.00  0.00    -0.177 A  
HETATM   39  O   UNL     1     -10.258   4.380  69.911  1.00  0.00    -0.163 OA 
HETATM   40  C   UNL     1      -9.674   5.222  70.822  1.00  0.00    -0.185 A  
HETATM   41  C   UNL     1      -8.693   5.459  72.988  1.00  0.00    -0.121 A  
HETATM   42  C   UNL     1      -9.229   4.639  72.004  1.00  0.00    -0.167 A  
HETATM   43  H   UNL     1     -10.348   3.446  70.053  1.00  0.00     0.000 HD 
HETATM   44  N   UNL     1      -8.557   6.798  72.820  1.00  0.00    -0.121 NA 
HETATM   45  C   UNL     1      -8.315   4.904  74.330  1.00  0.00    -0.101 C  
HETATM   46  C   UNL     1      -8.983   7.333  71.648  1.00  0.00    -0.124 A  
ENDBRANCH  35  38
ENDBRANCH  25  34
ENDBRANCH  24  25
ENDBRANCH   6  21
TORSDOF 8
ENDMDL
MODEL       31
REMARK 921   NORMALIZED FREE ENERGY PREDICTED BY IDOCK:   -6.67 KCAL/MOL
REMARK 922        TOTAL FREE ENERGY PREDICTED BY IDOCK:  -11.60 KCAL/MOL
REMARK 923 INTER-LIGAND FREE ENERGY PREDICTED BY IDOCK:  -10.32 KCAL/MOL
REMARK 924 INTRA-LIGAND FREE ENERGY PREDICTED BY IDOCK:   -1.28 KCAL/MOL
REMARK 927      BINDING AFFINITY PREDICTED BY RF-SCORE:    0.00 PKD
ROOT
HETATM    1  C   UNL     1      -6.822  10.515  67.711  1.00  0.00    -0.073 C  
HETATM    2  S   UNL     1      -8.439  10.028  67.047  1.00  0.00    -0.125 SA 
HETATM    3  C   UNL     1      -8.718  11.638  66.280  1.00  0.00    -0.136 C  
HETATM    4  C   UNL     1      -8.468  12.831  67.199  1.00  0.00    -0.181 C  
HETATM    5  CA  UNL     1      -7.707  12.775  68.328  1.00  0.00    -0.136 C  
HETATM    6  CA  UNL     1      -6.342   9.671  68.943  1.00  0.00    -0.042 C  
HETATM    7  O   UNL     1      -6.186  11.530  70.778  1.00  0.00    -0.325 OA 
HETATM    8  N   UNL     1      -7.024  11.623  68.625  1.00  0.00    -0.081 N  
HETATM    9  C   UNL     1      -7.679  13.951  69.290  1.00  0.00     0.202 C  
HETATM   10  OXT UNL     1      -8.479  14.875  69.257  1.00  0.00    -0.179 OA 
HETATM   11  O   UNL     1      -6.656  13.984  70.165  1.00  0.00    -0.100 OA 
HETATM   12  C   UNL     1      -6.424  11.056  69.693  1.00  0.00    -0.123 C  
ENDROOT
BRANCH   4  13
HETATM   13  C   UNL     1      -9.301  14.030  66.732  1.00  0.00    -0.277 C  
BRANCH  13  14
HETATM   14  S   UNL     1     -11.067  13.967  67.126  1.00  0.00    -0.312 SA 
BRANCH  14  15
HETATM   15  C   UNL     1     -11.826  13.591  65.633  1.00  0.00    -0.369 A  
HETATM   16  N   UNL     1     -12.492  12.511  65.313  1.00  0.00    -0.647 NA 
HETATM   17  C   UNL     1     -11.215  15.727  64.405  1.00  0.00    -0.236 C  
HETATM   18  N   UNL     1     -12.861  12.672  63.997  1.00  0.00    -0.733 NA 
HETATM   19  N   UNL     1     -11.793  14.420  64.550  1.00  0.00    -0.443 NA 
HETATM   20  N   UNL     1     -12.436  13.835  63.523  1.00  0.00    -0.813 NA 
ENDBRANCH  14  15
ENDBRANCH  13  14
ENDBRANCH   4  13
BRANCH   6  21
HETATM   21  N   UNL     1      -7.319   8.634  69.395  1.00  0.00    -0.071 N  
HETATM   22  H   UNL     1      -7.637   7.938  68.719  1.00  0.00     0.000 HD 
HETATM   23  O   UNL     1      -7.345   9.251  71.595  1.00  0.00    -0.333 OA 
HETATM   24  C   UNL     1      -7.815   8.571  70.686  1.00  0.00    -0.091 C  
BRANCH  24  25
HETATM   25  CA  UNL     1      -9.114   7.719  70.819  1.00  0.00    -0.149 C  
BRANCH  25  26
HETATM   26  C   UNL     1     -10.319   8.600  71.166  1.00  0.00    -0.294 A  
HETATM   27  O   UNL     1     -13.646  10.984  71.976  1.00  0.00    -0.380 OA 
HETATM   28  C   UNL     1     -11.201   8.258  72.207  1.00  0.00    -0.443 A  
HETATM   29  C   UNL     1     -11.678  10.588  70.752  1.00  0.00    -0.454 A  
HETATM   30  C   UNL     1     -12.557  10.198  71.751  1.00  0.00    -0.403 A  
HETATM   31  C   UNL     1     -12.320   9.048  72.493  1.00  0.00    -0.276 A  
HETATM   32  H   UNL     1     -13.808  11.771  71.468  1.00  0.00     0.000 HD 
HETATM   33  C   UNL     1     -10.558   9.804  70.473  1.00  0.00    -0.376 A  
ENDBRANCH  25  26
BRANCH  25  34
HETATM   34  N   UNL     1      -9.314   7.023  69.533  1.00  0.00    -0.148 N  
HETATM   35  C   UNL     1      -9.841   5.752  69.469  1.00  0.00    -0.178 C  
HETATM   36  H   UNL     1      -9.054   7.496  68.668  1.00  0.00     0.000 HD 
HETATM   37  O   UNL     1     -10.257   5.138  70.446  1.00  0.00    -0.240 OA 
BRANCH  35  38
HETATM   38  C   UNL     1      -9.964   5.117  68.135  1.00  0.00    -0.203 A  
HETATM   39  O   UNL     1      -8.597   3.211  68.782  1.00  0.00    -0.071 OA 
HETATM   40  C   UNL     1      -9.344   3.895  67.859  1.00  0.00    -0.177 A  
HETATM   41  C   UNL     1     -10.133   4.009  65.607  1.00  0.00    -0.116 A  
HETATM   42  C   UNL     1      -9.444   3.320  66.597  1.00  0.00    -0.118 A  
HETATM   43  H   UNL     1      -8.176   2.381  68.595  1.00  0.00     0.000 HD 
HETATM   44  N   UNL     1     -10.739   5.200  65.840  1.00  0.00    -0.164 NA 
HETATM   45  C   UNL     1     -10.163   3.499  64.196  1.00  0.00    -0.219 C  
HETATM   46  C   UNL     1     -10.638   5.724  67.087  1.00  0.00    -0.291 A  
ENDBRANCH  35  38
ENDBRANCH  25  34
ENDBRANCH  24  25
ENDBRANCH   6  21
TORSDOF 8
ENDMDL
MODEL       32
REMARK 921   NORMALIZED FREE ENERGY PREDICTED BY IDOCK:   -6.66 KCAL/MOL
REMARK 922        TOTAL FREE ENERGY PREDICTED BY IDOCK:  -11.60 KCAL/MOL
REMARK 923 INTER-LIGAND FREE ENERGY PREDICTED BY IDOCK:   -9.52 KCAL/MOL
REMARK 924 INTRA-LIGAND FREE ENERGY PREDICTED BY IDOCK:   -2.07 KCAL/MOL
REMARK 927      BINDING AFFINITY PREDICTED BY RF-SCORE:    0.00 PKD
ROOT
HETATM    1  C   UNL     1      -8.425   8.108  69.669  1.00  0.00    -0.126 C  
HETATM    2  S   UNL     1      -9.039   9.625  68.884  1.00  0.00    -0.150 SA 
HETATM    3  C   UNL     1      -9.956  10.131  70.355  1.00  0.00     0.079 C  
HETATM    4  C   UNL     1     -10.833   9.039  70.963  1.00  0.00    -0.345 C  
HETATM    5  CA  UNL     1     -10.654   7.708  70.737  1.00  0.00    -0.221 C  
HETATM    6  CA  UNL     1      -7.997   6.982  68.665  1.00  0.00    -0.120 C  
HETATM    7  O   UNL     1      -9.670   5.079  69.326  1.00  0.00    -0.147 OA 
HETATM    8  N   UNL     1      -9.567   7.284  70.015  1.00  0.00    -0.168 N  
HETATM    9  C   UNL     1     -11.692   6.705  71.216  1.00  0.00    -0.334 C  
HETATM   10  OXT UNL     1     -12.814   7.016  71.590  1.00  0.00    -0.366 OA 
HETATM   11  O   UNL     1     -11.294   5.421  71.291  1.00  0.00    -0.014 OA 
HETATM   12  C   UNL     1      -9.167   6.178  69.353  1.00  0.00    -0.133 C  
ENDROOT
BRANCH   4  13
HETATM   13  C   UNL     1     -11.994   9.676  71.733  1.00  0.00    -0.347 C  
BRANCH  13  14
HETATM   14  S   UNL     1     -13.149  10.663  70.749  1.00  0.00    -0.095 SA 
BRANCH  14  15
HETATM   15  C   UNL     1     -13.087  12.226  71.456  1.00  0.00    -0.257 A  
HETATM   16  N   UNL     1     -13.579  12.615  72.604  1.00  0.00    -0.376 NA 
HETATM   17  C   UNL     1     -11.799  13.378  69.596  1.00  0.00    -0.331 C  
HETATM   18  N   UNL     1     -13.305  13.961  72.695  1.00  0.00    -0.545 NA 
HETATM   19  N   UNL     1     -12.500  13.297  70.848  1.00  0.00    -0.366 NA 
HETATM   20  N   UNL     1     -12.648  14.385  71.624  1.00  0.00    -0.338 NA 
ENDBRANCH  14  15
ENDBRANCH  13  14
ENDBRANCH   4  13
BRANCH   6  21
HETATM   21  N   UNL     1      -8.211   7.327  67.227  1.00  0.00    -0.114 N  
HETATM   22  H   UNL     1      -9.014   7.906  66.980  1.00  0.00     0.000 HD 
HETATM   23  O   UNL     1      -6.294   6.360  66.446  1.00  0.00    -0.039 OA 
HETATM   24  C   UNL     1      -7.372   6.899  66.212  1.00  0.00    -0.076 C  
BRANCH  24  25
HETATM   25  CA  UNL     1      -8.007   6.995  64.791  1.00  0.00    -0.122 C  
BRANCH  25  26
HETATM   26  C   UNL     1      -8.641   5.662  64.377  1.00  0.00     0.016 A  
HETATM   27  O   UNL     1     -10.489   2.080  63.302  1.00  0.00    -0.133 OA 
HETATM   28  C   UNL     1      -8.579   5.202  63.050  1.00  0.00    -0.098 A  
HETATM   29  C   UNL     1      -9.892   3.644  64.952  1.00  0.00    -0.164 A  
HETATM   30  C   UNL     1      -9.858   3.241  63.626  1.00  0.00    -0.149 A  
HETATM   31  C   UNL     1      -9.192   4.001  62.673  1.00  0.00    -0.111 A  
HETATM   32  H   UNL     1     -10.945   1.560  63.954  1.00  0.00     0.000 HD 
HETATM   33  C   UNL     1      -9.273   4.836  65.329  1.00  0.00    -0.155 A  
ENDBRANCH  25  26
BRANCH  25  34
HETATM   34  N   UNL     1      -9.014   8.074  64.833  1.00  0.00    -0.347 N  
HETATM   35  C   UNL     1      -8.703   9.371  64.489  1.00  0.00    -0.203 C  
HETATM   36  H   UNL     1      -9.965   7.853  65.126  1.00  0.00     0.000 HD 
HETATM   37  O   UNL     1      -7.611   9.715  64.048  1.00  0.00    -0.117 OA 
BRANCH  35  38
HETATM   38  C   UNL     1      -9.768  10.395  64.604  1.00  0.00    -0.392 A  
HETATM   39  O   UNL     1      -9.295  11.309  62.399  1.00  0.00    -0.501 OA 
HETATM   40  C   UNL     1     -10.008  11.303  63.569  1.00  0.00    -0.376 A  
HETATM   41  C   UNL     1     -11.697  12.356  64.892  1.00  0.00    -0.365 A  
HETATM   42  C   UNL     1     -10.993  12.277  63.697  1.00  0.00    -0.532 A  
HETATM   43  H   UNL     1      -9.458  11.926  61.696  1.00  0.00     0.000 HD 
HETATM   44  N   UNL     1     -11.482  11.495  65.918  1.00  0.00    -0.240 NA 
HETATM   45  C   UNL     1     -12.678  13.465  65.134  1.00  0.00    -0.459 C  
HETATM   46  C   UNL     1     -10.528  10.545  65.754  1.00  0.00    -0.143 A  
ENDBRANCH  35  38
ENDBRANCH  25  34
ENDBRANCH  24  25
ENDBRANCH   6  21
TORSDOF 8
ENDMDL
MODEL       33
REMARK 921   NORMALIZED FREE ENERGY PREDICTED BY IDOCK:   -6.63 KCAL/MOL
REMARK 922        TOTAL FREE ENERGY PREDICTED BY IDOCK:  -11.55 KCAL/MOL
REMARK 923 INTER-LIGAND FREE ENERGY PREDICTED BY IDOCK:  -10.61 KCAL/MOL
REMARK 924 INTRA-LIGAND FREE ENERGY PREDICTED BY IDOCK:   -0.94 KCAL/MOL
REMARK 927      BINDING AFFINITY PREDICTED BY RF-SCORE:    0.00 PKD
ROOT
HETATM    1  C   UNL     1      -8.895  15.140  69.290  1.00  0.00    -0.207 C  
HETATM    2  S   UNL     1      -8.011  14.042  68.146  1.00  0.00    -0.163 SA 
HETATM    3  C   UNL     1      -7.002  15.385  67.483  1.00  0.00    -0.194 C  
HETATM    4  C   UNL     1      -7.788  16.628  67.077  1.00  0.00    -0.233 C  
HETATM    5  CA  UNL     1      -9.036  16.923  67.537  1.00  0.00    -0.222 C  
HETATM    6  CA  UNL     1     -10.294  14.605  69.756  1.00  0.00     0.065 C  
HETATM    7  O   UNL     1     -11.868  16.477  68.822  1.00  0.00    -0.104 OA 
HETATM    8  N   UNL     1      -9.603  16.134  68.506  1.00  0.00    -0.208 N  
HETATM    9  C   UNL     1      -9.825  18.070  66.926  1.00  0.00    -0.330 C  
HETATM   10  OXT UNL     1      -9.523  18.618  65.876  1.00  0.00    -0.477 OA 
HETATM   11  O   UNL     1     -10.863  18.533  67.647  1.00  0.00    -0.412 OA 
HETATM   12  C   UNL     1     -10.828  15.892  69.017  1.00  0.00    -0.266 C  
ENDROOT
BRANCH   4  13
HETATM   13  C   UNL     1      -7.022  17.396  65.994  1.00  0.00    -0.211 C  
BRANCH  13  14
HETATM   14  S   UNL     1      -5.491  18.201  66.530  1.00  0.00    -0.164 SA 
BRANCH  14  15
HETATM   15  C   UNL     1      -5.823  18.730  68.129  1.00  0.00    -0.207 A  
HETATM   16  N   UNL     1      -5.412  18.208  69.256  1.00  0.00    -0.197 NA 
HETATM   17  C   UNL     1      -7.277  20.721  67.522  1.00  0.00    -0.326 C  
HETATM   18  N   UNL     1      -5.981  18.967  70.253  1.00  0.00    -0.195 NA 
HETATM   19  N   UNL     1      -6.616  19.804  68.410  1.00  0.00    -0.264 NA 
HETATM   20  N   UNL     1      -6.720  19.944  69.743  1.00  0.00    -0.330 NA 
ENDBRANCH  14  15
ENDBRANCH  13  14
ENDBRANCH   4  13
BRANCH   6  21
HETATM   21  N   UNL     1     -10.688  13.300  69.144  1.00  0.00    -0.436 N  
HETATM   22  H   UNL     1     -10.170  12.969  68.329  1.00  0.00     0.000 HD 
HETATM   23  O   UNL     1     -12.267  12.754  70.703  1.00  0.00    -0.370 OA 
HETATM   24  C   UNL     1     -11.723  12.517  69.627  1.00  0.00    -0.302 C  
BRANCH  24  25
HETATM   25  CA  UNL     1     -12.237  11.456  68.607  1.00  0.00     0.032 C  
BRANCH  25  26
HETATM   26  C   UNL     1     -11.607  11.666  67.226  1.00  0.00    -0.316 A  
HETATM   27  O   UNL     1      -9.953  12.116  63.422  1.00  0.00    -0.469 OA 
HETATM   28  C   UNL     1     -11.834  12.841  66.488  1.00  0.00    -0.471 A  
HETATM   29  C   UNL     1     -10.206  10.861  65.394  1.00  0.00    -0.339 A  
HETATM   30  C   UNL     1     -10.489  12.008  64.669  1.00  0.00    -0.297 A  
HETATM   31  C   UNL     1     -11.285  13.009  65.212  1.00  0.00    -0.316 A  
HETATM   32  H   UNL     1      -9.409  11.432  63.051  1.00  0.00     0.000 HD 
HETATM   33  C   UNL     1     -10.747  10.698  66.669  1.00  0.00    -0.246 A  
ENDBRANCH  25  26
BRANCH  25  34
HETATM   34  N   UNL     1     -11.899  10.126  69.152  1.00  0.00    -0.495 N  
HETATM   35  C   UNL     1     -10.648   9.844  69.655  1.00  0.00    -0.250 C  
HETATM   36  H   UNL     1     -12.611   9.397  69.156  1.00  0.00     0.000 HD 
HETATM   37  O   UNL     1      -9.756  10.678  69.767  1.00  0.00    -0.074 OA 
BRANCH  35  38
HETATM   38  C   UNL     1     -10.389   8.468  70.141  1.00  0.00    -0.214 A  
HETATM   39  O   UNL     1      -8.355   8.256  68.823  1.00  0.00    -0.122 OA 
HETATM   40  C   UNL     1      -9.272   7.750  69.707  1.00  0.00    -0.150 A  
HETATM   41  C   UNL     1      -9.988   5.867  70.992  1.00  0.00    -0.190 A  
HETATM   42  C   UNL     1      -9.051   6.450  70.149  1.00  0.00    -0.154 A  
HETATM   43  H   UNL     1      -7.596   7.768  68.528  1.00  0.00     0.000 HD 
HETATM   44  N   UNL     1     -11.087   6.535  71.425  1.00  0.00    -0.257 NA 
HETATM   45  C   UNL     1      -9.869   4.427  71.397  1.00  0.00    -0.262 C  
HETATM   46  C   UNL     1     -11.262   7.808  70.991  1.00  0.00    -0.266 A  
ENDBRANCH  35  38
ENDBRANCH  25  34
ENDBRANCH  24  25
ENDBRANCH   6  21
TORSDOF 8
ENDMDL
MODEL       34
REMARK 921   NORMALIZED FREE ENERGY PREDICTED BY IDOCK:   -6.60 KCAL/MOL
REMARK 922        TOTAL FREE ENERGY PREDICTED BY IDOCK:  -11.50 KCAL/MOL
REMARK 923 INTER-LIGAND FREE ENERGY PREDICTED BY IDOCK:   -9.73 KCAL/MOL
REMARK 924 INTRA-LIGAND FREE ENERGY PREDICTED BY IDOCK:   -1.77 KCAL/MOL
REMARK 927      BINDING AFFINITY PREDICTED BY RF-SCORE:    0.00 PKD
ROOT
HETATM    1  C   UNL     1     -11.007  14.695  68.692  1.00  0.00    -0.256 C  
HETATM    2  S   UNL     1      -9.630  13.765  69.422  1.00  0.00     0.853 SA 
HETATM    3  C   UNL     1      -8.575  15.225  69.533  1.00  0.00    -0.184 C  
HETATM    4  C   UNL     1      -8.496  16.052  68.252  1.00  0.00    -0.177 C  
HETATM    5  CA  UNL     1      -9.422  15.997  67.255  1.00  0.00    -0.215 C  
HETATM    6  CA  UNL     1     -12.023  13.823  67.875  1.00  0.00    -0.356 C  
HETATM    7  O   UNL     1     -11.773  14.881  65.495  1.00  0.00    -0.313 OA 
HETATM    8  N   UNL     1     -10.559  15.249  67.428  1.00  0.00    -0.276 N  
HETATM    9  C   UNL     1      -9.161  16.697  65.931  1.00  0.00    -0.140 C  
HETATM   10  OXT UNL     1      -8.066  17.120  65.590  1.00  0.00    -0.407 OA 
HETATM   11  O   UNL     1     -10.234  16.914  65.147  1.00  0.00    -0.595 OA 
HETATM   12  C   UNL     1     -11.537  14.713  66.668  1.00  0.00    -0.350 C  
ENDROOT
BRANCH   4  13
HETATM   13  C   UNL     1      -7.174  16.825  68.214  1.00  0.00    -0.173 C  
BRANCH  13  14
HETATM   14  S   UNL     1      -7.156  18.405  69.097  1.00  0.00    -0.140 SA 
BRANCH  14  15
HETATM   15  C   UNL     1      -8.497  19.267  68.459  1.00  0.00    -0.366 A  
HETATM   16  N   UNL     1      -9.738  19.256  68.873  1.00  0.00    -0.429 NA 
HETATM   17  C   UNL     1      -7.262  20.455  66.585  1.00  0.00    -0.268 C  
HETATM   18  N   UNL     1     -10.430  20.074  68.010  1.00  0.00    -0.365 NA 
HETATM   19  N   UNL     1      -8.407  20.088  67.373  1.00  0.00    -0.324 NA 
HETATM   20  N   UNL     1      -9.624  20.585  67.090  1.00  0.00    -0.441 NA 
ENDBRANCH  14  15
ENDBRANCH  13  14
ENDBRANCH   4  13
BRANCH   6  21
HETATM   21  N   UNL     1     -11.663  12.374  67.795  1.00  0.00    -0.353 N  
HETATM   22  H   UNL     1     -11.407  11.889  68.655  1.00  0.00     0.000 HD 
HETATM   23  O   UNL     1     -12.132  12.119  65.573  1.00  0.00    -0.517 OA 
HETATM   24  C   UNL     1     -11.661  11.659  66.610  1.00  0.00    -0.115 C  
BRANCH  24  25
HETATM   25  CA  UNL     1     -10.850  10.329  66.681  1.00  0.00    -0.045 C  
BRANCH  25  26
HETATM   26  C   UNL     1      -9.420  10.524  66.167  1.00  0.00    -0.222 A  
HETATM   27  O   UNL     1      -5.578  11.132  64.657  1.00  0.00    -0.461 OA 
HETATM   28  C   UNL     1      -8.426  11.111  66.970  1.00  0.00    -0.146 A  
HETATM   29  C   UNL     1      -7.760  10.300  64.388  1.00  0.00    -0.104 A  
HETATM   30  C   UNL     1      -6.816  10.927  65.185  1.00  0.00     0.290 A  
HETATM   31  C   UNL     1      -7.132  11.320  66.479  1.00  0.00    -0.097 A  
HETATM   32  H   UNL     1      -5.362  10.863  63.771  1.00  0.00     0.000 HD 
HETATM   33  C   UNL     1      -9.048  10.084  64.880  1.00  0.00    -0.265 A  
ENDBRANCH  25  26
BRANCH  25  34
HETATM   34  N   UNL     1     -10.855   9.889  68.091  1.00  0.00    -0.343 N  
HETATM   35  C   UNL     1     -10.566   8.590  68.448  1.00  0.00    -0.111 C  
HETATM   36  H   UNL     1     -11.079  10.565  68.820  1.00  0.00     0.000 HD 
HETATM   37  O   UNL     1     -10.207   7.730  67.651  1.00  0.00    -0.187 OA 
BRANCH  35  38
HETATM   38  C   UNL     1     -10.638   8.232  69.884  1.00  0.00    -0.232 A  
HETATM   39  O   UNL     1      -9.110  10.013  70.529  1.00  0.00    -0.311 OA 
HETATM   40  C   UNL     1      -9.916   8.949  70.842  1.00  0.00    -0.242 A  
HETATM   41  C   UNL     1     -10.717   7.475  72.543  1.00  0.00    -0.285 A  
HETATM   42  C   UNL     1      -9.970   8.589  72.184  1.00  0.00    -0.387 A  
HETATM   43  H   UNL     1      -8.620  10.500  71.180  1.00  0.00     0.000 HD 
HETATM   44  N   UNL     1     -11.423   6.754  71.636  1.00  0.00    -0.267 NA 
HETATM   45  C   UNL     1     -10.708   6.965  73.954  1.00  0.00    -0.122 C  
HETATM   46  C   UNL     1     -11.365   7.143  70.338  1.00  0.00    -0.289 A  
ENDBRANCH  35  38
ENDBRANCH  25  34
ENDBRANCH  24  25
ENDBRANCH   6  21
TORSDOF 8
ENDMDL
MODEL       35
REMARK 921   NORMALIZED FREE ENERGY PREDICTED BY IDOCK:   -6.59 KCAL/MOL
REMARK 922        TOTAL FREE ENERGY PREDICTED BY IDOCK:  -11.49 KCAL/MOL
REMARK 923 INTER-LIGAND FREE ENERGY PREDICTED BY IDOCK:   -9.33 KCAL/MOL
REMARK 924 INTRA-LIGAND FREE ENERGY PREDICTED BY IDOCK:   -2.16 KCAL/MOL
REMARK 927      BINDING AFFINITY PREDICTED BY RF-SCORE:    0.00 PKD
ROOT
HETATM    1  C   UNL     1     -11.481  12.735  67.151  1.00  0.00    -0.337 C  
HETATM    2  S   UNL     1      -9.947  11.863  66.724  1.00  0.00    -0.198 SA 
HETATM    3  C   UNL     1     -10.581  10.269  67.287  1.00  0.00    -0.267 C  
HETATM    4  C   UNL     1     -11.222  10.294  68.672  1.00  0.00    -0.263 C  
HETATM    5  CA  UNL     1     -11.685  11.425  69.275  1.00  0.00    -0.337 C  
HETATM    6  CA  UNL     1     -11.312  14.277  67.378  1.00  0.00    -0.332 C  
HETATM    7  O   UNL     1     -12.048  14.486  69.881  1.00  0.00    -0.301 OA 
HETATM    8  N   UNL     1     -11.690  12.608  68.580  1.00  0.00    -0.309 N  
HETATM    9  C   UNL     1     -12.119  11.391  70.732  1.00  0.00    -0.332 C  
HETATM   10  OXT UNL     1     -11.866  10.470  71.495  1.00  0.00    -0.255 OA 
HETATM   11  O   UNL     1     -12.890  12.412  71.150  1.00  0.00    -0.317 OA 
HETATM   12  C   UNL     1     -11.781  13.928  68.842  1.00  0.00    -0.337 C  
ENDROOT
BRANCH   4  13
HETATM   13  C   UNL     1     -11.135   8.903  69.309  1.00  0.00     0.092 C  
BRANCH  13  14
HETATM   14  S   UNL     1      -9.484   8.164  69.372  1.00  0.00    -0.163 SA 
BRANCH  14  15
HETATM   15  C   UNL     1      -9.124   8.061  71.047  1.00  0.00    -0.148 A  
HETATM   16  N   UNL     1      -8.826   9.032  71.872  1.00  0.00    -0.350 NA 
HETATM   17  C   UNL     1      -9.371   5.546  71.284  1.00  0.00    -0.147 C  
HETATM   18  N   UNL     1      -8.582   8.433  73.087  1.00  0.00    -0.353 NA 
HETATM   19  N   UNL     1      -9.089   6.882  71.732  1.00  0.00    -0.139 NA 
HETATM   20  N   UNL     1      -8.740   7.119  73.009  1.00  0.00    -0.123 NA 
ENDBRANCH  14  15
ENDBRANCH  13  14
ENDBRANCH   4  13
BRANCH   6  21
HETATM   21  N   UNL     1      -9.906  14.767  67.250  1.00  0.00    -0.229 N  
HETATM   22  H   UNL     1      -9.293  14.312  66.574  1.00  0.00     0.000 HD 
HETATM   23  O   UNL     1     -10.115  16.520  68.701  1.00  0.00    -0.230 OA 
HETATM   24  C   UNL     1      -9.394  15.809  68.006  1.00  0.00    -0.197 C  
BRANCH  24  25
HETATM   25  CA  UNL     1      -7.836  15.858  68.033  1.00  0.00    -0.136 C  
BRANCH  25  26
HETATM   26  C   UNL     1      -7.335  17.189  68.604  1.00  0.00    -0.238 A  
HETATM   27  O   UNL     1      -6.102  20.840  70.202  1.00  0.00    -0.441 OA 
HETATM   28  C   UNL     1      -6.297  17.234  69.553  1.00  0.00    -0.235 A  
HETATM   29  C   UNL     1      -7.456  19.626  68.713  1.00  0.00    -0.364 A  
HETATM   30  C   UNL     1      -6.467  19.636  69.683  1.00  0.00    -0.336 A  
HETATM   31  C   UNL     1      -5.871  18.451  70.097  1.00  0.00    -0.189 A  
HETATM   32  H   UNL     1      -6.509  21.650  69.919  1.00  0.00     0.000 HD 
HETATM   33  C   UNL     1      -7.875  18.414  68.164  1.00  0.00    -0.304 A  
ENDBRANCH  25  26
BRANCH  25  34
HETATM   34  N   UNL     1      -7.377  14.718  68.851  1.00  0.00    -0.122 N  
HETATM   35  C   UNL     1      -6.548  13.744  68.339  1.00  0.00    -0.096 C  
HETATM   36  H   UNL     1      -7.681  14.650  69.821  1.00  0.00     0.000 HD 
HETATM   37  O   UNL     1      -6.065  13.785  67.212  1.00  0.00    -0.321 OA 
BRANCH  35  38
HETATM   38  C   UNL     1      -6.174  12.615  69.224  1.00  0.00    -0.105 A  
HETATM   39  O   UNL     1      -6.730  10.952  67.537  1.00  0.00    -0.070 OA 
HETATM   40  C   UNL     1      -6.283  11.292  68.787  1.00  0.00    -0.045 A  
HETATM   41  C   UNL     1      -5.561  10.529  70.933  1.00  0.00    -0.092 A  
HETATM   42  C   UNL     1      -5.954  10.238  69.633  1.00  0.00    -0.046 A  
HETATM   43  H   UNL     1      -6.804  10.053  67.240  1.00  0.00     0.000 HD 
HETATM   44  N   UNL     1      -5.453  11.802  71.389  1.00  0.00    -0.371 NA 
HETATM   45  C   UNL     1      -5.319   9.431  71.926  1.00  0.00    -0.076 C  
HETATM   46  C   UNL     1      -5.763  12.807  70.533  1.00  0.00    -0.168 A  
ENDBRANCH  35  38
ENDBRANCH  25  34
ENDBRANCH  24  25
ENDBRANCH   6  21
TORSDOF 8
ENDMDL
MODEL       36
REMARK 921   NORMALIZED FREE ENERGY PREDICTED BY IDOCK:   -6.47 KCAL/MOL
REMARK 922        TOTAL FREE ENERGY PREDICTED BY IDOCK:  -11.31 KCAL/MOL
REMARK 923 INTER-LIGAND FREE ENERGY PREDICTED BY IDOCK:   -9.87 KCAL/MOL
REMARK 924 INTRA-LIGAND FREE ENERGY PREDICTED BY IDOCK:   -1.44 KCAL/MOL
REMARK 927      BINDING AFFINITY PREDICTED BY RF-SCORE:    0.00 PKD
ROOT
HETATM    1  C   UNL     1      -7.675  11.954  67.025  1.00  0.00    -0.146 C  
HETATM    2  S   UNL     1      -9.319  11.329  66.579  1.00  0.00    -0.190 SA 
HETATM    3  C   UNL     1      -9.897  12.951  66.038  1.00  0.00    -0.255 C  
HETATM    4  C   UNL     1      -9.624  14.083  67.026  1.00  0.00    -0.253 C  
HETATM    5  CA  UNL     1      -8.681  14.026  68.007  1.00  0.00    -0.180 C  
HETATM    6  CA  UNL     1      -6.904  11.074  68.070  1.00  0.00    -0.067 C  
HETATM    7  O   UNL     1      -6.640  12.776  70.041  1.00  0.00     0.027 OA 
HETATM    8  N   UNL     1      -7.837  12.946  68.070  1.00  0.00    -0.136 N  
HETATM    9  C   UNL     1      -8.617  15.111  69.070  1.00  0.00    -0.219 C  
HETATM   10  OXT UNL     1      -9.506  15.928  69.261  1.00  0.00    -0.235 OA 
HETATM   11  O   UNL     1      -7.470  15.195  69.770  1.00  0.00    -0.203 OA 
HETATM   12  C   UNL     1      -7.006  12.369  68.964  1.00  0.00    -0.071 C  
ENDROOT
BRANCH   4  13
HETATM   13  C   UNL     1     -10.649  15.205  66.824  1.00  0.00    -0.298 C  
BRANCH  13  14
HETATM   14  S   UNL     1     -10.145  16.546  65.717  1.00  0.00    -0.261 SA 
BRANCH  14  15
HETATM   15  C   UNL     1      -9.673  17.817  66.770  1.00  0.00    -0.309 A  
HETATM   16  N   UNL     1     -10.438  18.603  67.483  1.00  0.00    -0.410 NA 
HETATM   17  C   UNL     1      -7.165  17.602  66.443  1.00  0.00    -0.284 C  
HETATM   18  N   UNL     1      -9.589  19.478  68.120  1.00  0.00    -0.349 NA 
HETATM   19  N   UNL     1      -8.372  18.175  66.971  1.00  0.00    -0.234 NA 
HETATM   20  N   UNL     1      -8.325  19.224  67.812  1.00  0.00    -0.292 NA 
ENDBRANCH  14  15
ENDBRANCH  13  14
ENDBRANCH   4  13
BRANCH   6  21
HETATM   21  N   UNL     1      -7.672   9.889  68.561  1.00  0.00    -0.080 N  
HETATM   22  H   UNL     1      -8.130   9.289  67.875  1.00  0.00     0.000 HD 
HETATM   23  O   UNL     1      -7.124  10.127  70.766  1.00  0.00    -0.333 OA 
HETATM   24  C   UNL     1      -7.792   9.566  69.902  1.00  0.00    -0.138 C  
BRANCH  24  25
HETATM   25  CA  UNL     1      -8.966   8.587  70.209  1.00  0.00    -0.149 C  
BRANCH  25  26
HETATM   26  C   UNL     1     -10.241   9.351  70.582  1.00  0.00    -0.353 A  
HETATM   27  O   UNL     1     -13.658  11.453  71.727  1.00  0.00    -0.189 OA 
HETATM   28  C   UNL     1     -10.676  10.460  69.835  1.00  0.00    -0.331 A  
HETATM   29  C   UNL     1     -12.177   9.655  72.041  1.00  0.00    -0.330 A  
HETATM   30  C   UNL     1     -12.552  10.775  71.315  1.00  0.00    -0.426 A  
HETATM   31  C   UNL     1     -11.821  11.175  70.204  1.00  0.00    -0.449 A  
HETATM   32  H   UNL     1     -14.158  11.180  72.487  1.00  0.00     0.000 HD 
HETATM   33  C   UNL     1     -11.040   8.938  71.668  1.00  0.00    -0.420 A  
ENDBRANCH  25  26
BRANCH  25  34
HETATM   34  N   UNL     1      -9.172   7.760  69.003  1.00  0.00    -0.144 N  
HETATM   35  C   UNL     1      -9.258   6.387  69.070  1.00  0.00    -0.129 C  
HETATM   36  H   UNL     1      -9.253   8.218  68.096  1.00  0.00     0.000 HD 
HETATM   37  O   UNL     1      -9.255   5.755  70.121  1.00  0.00    -0.147 OA 
BRANCH  35  38
HETATM   38  C   UNL     1      -9.422   5.638  67.801  1.00  0.00    -0.121 A  
HETATM   39  O   UNL     1     -11.569   6.680  67.324  1.00  0.00    -0.747 OA 
HETATM   40  C   UNL     1     -10.554   5.817  67.002  1.00  0.00    -0.300 A  
HETATM   41  C   UNL     1      -9.744   4.153  65.491  1.00  0.00    -0.202 A  
HETATM   42  C   UNL     1     -10.712   5.091  65.826  1.00  0.00    -0.132 A  
HETATM   43  H   UNL     1     -12.338   6.802  66.781  1.00  0.00     0.000 HD 
HETATM   44  N   UNL     1      -8.639   3.950  66.250  1.00  0.00    -0.110 NA 
HETATM   45  C   UNL     1      -9.925   3.252  64.304  1.00  0.00    -0.166 C  
HETATM   46  C   UNL     1      -8.506   4.689  67.380  1.00  0.00    -0.104 A  
ENDBRANCH  35  38
ENDBRANCH  25  34
ENDBRANCH  24  25
ENDBRANCH   6  21
TORSDOF 8
ENDMDL
MODEL       37
REMARK 921   NORMALIZED FREE ENERGY PREDICTED BY IDOCK:   -6.45 KCAL/MOL
REMARK 922        TOTAL FREE ENERGY PREDICTED BY IDOCK:  -11.29 KCAL/MOL
REMARK 923 INTER-LIGAND FREE ENERGY PREDICTED BY IDOCK:   -8.33 KCAL/MOL
REMARK 924 INTRA-LIGAND FREE ENERGY PREDICTED BY IDOCK:   -2.96 KCAL/MOL
REMARK 927      BINDING AFFINITY PREDICTED BY RF-SCORE:    0.00 PKD
ROOT
HETATM    1  C   UNL     1     -11.961  12.026  67.094  1.00  0.00    -0.030 C  
HETATM    2  S   UNL     1     -11.404  12.125  68.818  1.00  0.00    -0.313 SA 
HETATM    3  C   UNL     1     -11.951  13.835  69.000  1.00  0.00    -0.360 C  
HETATM    4  C   UNL     1     -11.504  14.767  67.877  1.00  0.00    -0.361 C  
HETATM    5  CA  UNL     1     -11.115  14.340  66.644  1.00  0.00    -0.321 C  
HETATM    6  CA  UNL     1     -11.248  10.920  66.240  1.00  0.00     0.157 C  
HETATM    7  O   UNL     1     -10.094  12.386  64.405  1.00  0.00    -0.305 OA 
HETATM    8  N   UNL     1     -11.224  13.010  66.324  1.00  0.00    -0.293 N  
HETATM    9  C   UNL     1     -10.493  15.315  65.658  1.00  0.00    -0.358 C  
HETATM   10  OXT UNL     1     -10.088  16.427  65.966  1.00  0.00    -0.316 OA 
HETATM   11  O   UNL     1     -10.472  14.931  64.368  1.00  0.00    -0.065 OA 
HETATM   12  C   UNL     1     -10.736  12.153  65.402  1.00  0.00    -0.284 C  
ENDROOT
BRANCH   4  13
HETATM   13  C   UNL     1     -11.435  16.208  68.395  1.00  0.00    -0.298 C  
BRANCH  13  14
HETATM   14  S   UNL     1     -10.287  16.502  69.764  1.00  0.00    -0.085 SA 
BRANCH  14  15
HETATM   15  C   UNL     1      -8.760  16.701  69.006  1.00  0.00    -0.193 A  
HETATM   16  N   UNL     1      -7.830  15.801  68.809  1.00  0.00    -0.166 NA 
HETATM   17  C   UNL     1      -8.979  19.172  68.467  1.00  0.00    -0.363 C  
HETATM   18  N   UNL     1      -6.786  16.463  68.205  1.00  0.00    -0.129 NA 
HETATM   19  N   UNL     1      -8.319  17.896  68.518  1.00  0.00    -0.302 NA 
HETATM   20  N   UNL     1      -7.077  17.744  68.024  1.00  0.00    -0.204 NA 
ENDBRANCH  14  15
ENDBRANCH  13  14
ENDBRANCH   4  13
BRANCH   6  21
HETATM   21  N   UNL     1     -10.193  10.159  66.978  1.00  0.00    -0.222 N  
HETATM   22  H   UNL     1     -10.269  10.084  67.993  1.00  0.00     0.000 HD 
HETATM   23  O   UNL     1      -9.058   9.442  65.130  1.00  0.00    -0.210 OA 
HETATM   24  C   UNL     1      -9.118   9.552  66.351  1.00  0.00    -0.159 C  
BRANCH  24  25
HETATM   25  CA  UNL     1      -7.941   9.210  67.316  1.00  0.00    -0.102 C  
BRANCH  25  26
HETATM   26  C   UNL     1      -7.206  10.477  67.763  1.00  0.00    -0.085 A  
HETATM   27  O   UNL     1      -5.142  13.853  69.086  1.00  0.00    -0.074 OA 
HETATM   28  C   UNL     1      -6.391  11.204  66.877  1.00  0.00    -0.114 A  
HETATM   29  C   UNL     1      -6.655  12.103  69.502  1.00  0.00    -0.065 A  
HETATM   30  C   UNL     1      -5.820  12.769  68.619  1.00  0.00    -0.064 A  
HETATM   31  C   UNL     1      -5.694  12.339  67.304  1.00  0.00    -0.131 A  
HETATM   32  H   UNL     1      -5.228  14.147  69.986  1.00  0.00     0.000 HD 
HETATM   33  C   UNL     1      -7.357  10.976  69.074  1.00  0.00    -0.123 A  
ENDBRANCH  25  26
BRANCH  25  34
HETATM   34  N   UNL     1      -8.517   8.490  68.469  1.00  0.00    -0.130 N  
HETATM   35  C   UNL     1      -8.652   7.119  68.476  1.00  0.00    -0.124 C  
HETATM   36  H   UNL     1      -8.824   9.022  69.282  1.00  0.00     0.000 HD 
HETATM   37  O   UNL     1      -8.237   6.390  67.581  1.00  0.00    -0.116 OA 
BRANCH  35  38
HETATM   38  C   UNL     1      -9.281   6.489  69.661  1.00  0.00    -0.143 A  
HETATM   39  O   UNL     1     -11.384   7.663  69.320  1.00  0.00    -0.429 OA 
HETATM   40  C   UNL     1     -10.597   6.788  70.022  1.00  0.00    -0.220 A  
HETATM   41  C   UNL     1     -10.390   5.370  71.934  1.00  0.00    -0.212 A  
HETATM   42  C   UNL     1     -11.170   6.211  71.150  1.00  0.00    -0.355 A  
HETATM   43  H   UNL     1     -12.279   7.866  69.565  1.00  0.00     0.000 HD 
HETATM   44  N   UNL     1      -9.107   5.067  71.616  1.00  0.00    -0.139 NA 
HETATM   45  C   UNL     1     -10.913   4.823  73.230  1.00  0.00    -0.390 C  
HETATM   46  C   UNL     1      -8.585   5.631  70.498  1.00  0.00    -0.129 A  
ENDBRANCH  35  38
ENDBRANCH  25  34
ENDBRANCH  24  25
ENDBRANCH   6  21
TORSDOF 8
ENDMDL
MODEL       38
REMARK 921   NORMALIZED FREE ENERGY PREDICTED BY IDOCK:   -6.43 KCAL/MOL
REMARK 922        TOTAL FREE ENERGY PREDICTED BY IDOCK:  -11.25 KCAL/MOL
REMARK 923 INTER-LIGAND FREE ENERGY PREDICTED BY IDOCK:   -9.67 KCAL/MOL
REMARK 924 INTRA-LIGAND FREE ENERGY PREDICTED BY IDOCK:   -1.57 KCAL/MOL
REMARK 927      BINDING AFFINITY PREDICTED BY RF-SCORE:    0.00 PKD
ROOT
HETATM    1  C   UNL     1     -10.420   8.567  69.599  1.00  0.00    -0.221 C  
HETATM    2  S   UNL     1     -10.806   8.057  67.901  1.00  0.00     0.127 SA 
HETATM    3  C   UNL     1     -10.447   6.320  68.236  1.00  0.00    -0.228 C  
HETATM    4  C   UNL     1      -9.119   6.073  68.948  1.00  0.00    -0.121 C  
HETATM    5  CA  UNL     1      -8.451   7.021  69.661  1.00  0.00    -0.134 C  
HETATM    6  CA  UNL     1     -10.036  10.080  69.755  1.00  0.00    -0.248 C  
HETATM    7  O   UNL     1      -7.589   9.872  70.661  1.00  0.00    -0.288 OA 
HETATM    8  N   UNL     1      -9.030   8.249  69.861  1.00  0.00    -0.139 N  
HETATM    9  C   UNL     1      -7.042   6.748  70.163  1.00  0.00    -0.071 C  
HETATM   10  OXT UNL     1      -6.352   5.816  69.775  1.00  0.00    -0.031 OA 
HETATM   11  O   UNL     1      -6.590   7.551  71.144  1.00  0.00    -0.039 OA 
HETATM   12  C   UNL     1      -8.652   9.491  70.229  1.00  0.00    -0.226 C  
ENDROOT
BRANCH   4  13
HETATM   13  C   UNL     1      -8.612   4.664  68.622  1.00  0.00    -0.089 C  
BRANCH  13  14
HETATM   14  S   UNL     1      -9.293   3.325  69.634  1.00  0.00    -0.146 SA 
BRANCH  14  15
HETATM   15  C   UNL     1      -8.496   3.483  71.146  1.00  0.00    -0.068 A  
HETATM   16  N   UNL     1      -7.353   2.966  71.516  1.00  0.00    -0.039 NA 
HETATM   17  C   UNL     1     -10.223   4.961  72.276  1.00  0.00    -0.196 C  
HETATM   18  N   UNL     1      -7.173   3.347  72.826  1.00  0.00    -0.044 NA 
HETATM   19  N   UNL     1      -9.014   4.190  72.192  1.00  0.00    -0.113 NA 
HETATM   20  N   UNL     1      -8.185   4.095  73.246  1.00  0.00    -0.090 NA 
ENDBRANCH  14  15
ENDBRANCH  13  14
ENDBRANCH   4  13
BRANCH   6  21
HETATM   21  N   UNL     1     -10.007  10.842  68.470  1.00  0.00    -0.170 N  
HETATM   22  H   UNL     1      -9.598  10.394  67.649  1.00  0.00     0.000 HD 
HETATM   23  O   UNL     1     -11.174  12.656  69.223  1.00  0.00    -0.243 OA 
HETATM   24  C   UNL     1     -10.507  12.126  68.338  1.00  0.00    -0.231 C  
BRANCH  24  25
HETATM   25  CA  UNL     1      -9.988  12.875  67.073  1.00  0.00    -0.244 C  
BRANCH  25  26
HETATM   26  C   UNL     1     -10.781  12.470  65.826  1.00  0.00    -0.299 A  
HETATM   27  O   UNL     1     -12.911  11.231  62.459  1.00  0.00    -0.592 OA 
HETATM   28  C   UNL     1     -12.124  12.851  65.655  1.00  0.00    -0.511 A  
HETATM   29  C   UNL     1     -10.900  11.321  63.673  1.00  0.00    -0.410 A  
HETATM   30  C   UNL     1     -12.236  11.669  63.557  1.00  0.00    -0.246 A  
HETATM   31  C   UNL     1     -12.852  12.446  64.531  1.00  0.00    -0.305 A  
HETATM   32  H   UNL     1     -12.490  10.700  61.793  1.00  0.00     0.000 HD 
HETATM   33  C   UNL     1     -10.172  11.732  64.790  1.00  0.00    -0.324 A  
ENDBRANCH  25  26
BRANCH  25  34
HETATM   34  N   UNL     1     -10.114  14.322  67.339  1.00  0.00    -0.245 N  
HETATM   35  C   UNL     1      -9.802  15.266  66.386  1.00  0.00    -0.275 C  
HETATM   36  H   UNL     1     -10.441  14.631  68.254  1.00  0.00     0.000 HD 
HETATM   37  O   UNL     1      -9.481  14.990  65.235  1.00  0.00    -0.108 OA 
BRANCH  35  38
HETATM   38  C   UNL     1      -9.919  16.696  66.759  1.00  0.00    -0.284 A  
HETATM   39  O   UNL     1     -11.141  17.250  64.730  1.00  0.00    -0.954 OA 
HETATM   40  C   UNL     1     -10.572  17.606  65.925  1.00  0.00    -0.203 A  
HETATM   41  C   UNL     1     -10.033  19.374  67.439  1.00  0.00    -0.371 A  
HETATM   42  C   UNL     1     -10.654  18.951  66.271  1.00  0.00    -0.463 A  
HETATM   43  H   UNL     1     -11.585  17.869  64.162  1.00  0.00     0.000 HD 
HETATM   44  N   UNL     1      -9.384  18.517  68.266  1.00  0.00    -0.315 NA 
HETATM   45  C   UNL     1      -9.979  20.830  67.796  1.00  0.00    -0.228 C  
HETATM   46  C   UNL     1      -9.340  17.209  67.909  1.00  0.00    -0.249 A  
ENDBRANCH  35  38
ENDBRANCH  25  34
ENDBRANCH  24  25
ENDBRANCH   6  21
TORSDOF 8
ENDMDL
MODEL       39
REMARK 921   NORMALIZED FREE ENERGY PREDICTED BY IDOCK:   -6.42 KCAL/MOL
REMARK 922        TOTAL FREE ENERGY PREDICTED BY IDOCK:  -11.24 KCAL/MOL
REMARK 923 INTER-LIGAND FREE ENERGY PREDICTED BY IDOCK:   -8.96 KCAL/MOL
REMARK 924 INTRA-LIGAND FREE ENERGY PREDICTED BY IDOCK:   -2.27 KCAL/MOL
REMARK 927      BINDING AFFINITY PREDICTED BY RF-SCORE:    0.00 PKD
ROOT
HETATM    1  C   UNL     1      -5.381  11.050  68.415  1.00  0.00    -0.043 C  
HETATM    2  S   UNL     1      -6.365  12.002  67.223  1.00  0.00    -0.151 SA 
HETATM    3  C   UNL     1      -5.496  13.542  67.588  1.00  0.00    -0.007 C  
HETATM    4  C   UNL     1      -5.366  13.860  69.076  1.00  0.00    -0.080 C  
HETATM    5  CA  UNL     1      -5.480  12.931  70.065  1.00  0.00    -0.114 C  
HETATM    6  CA  UNL     1      -6.067   9.733  68.922  1.00  0.00    -0.041 C  
HETATM    7  O   UNL     1      -6.262  10.239  71.482  1.00  0.00    -0.307 OA 
HETATM    8  N   UNL     1      -5.609  11.605  69.735  1.00  0.00    -0.074 N  
HETATM    9  C   UNL     1      -5.541  13.367  71.520  1.00  0.00    -0.107 C  
HETATM   10  OXT UNL     1      -5.736  14.520  71.876  1.00  0.00    -0.101 OA 
HETATM   11  O   UNL     1      -5.286  12.418  72.440  1.00  0.00    -0.347 OA 
HETATM   12  C   UNL     1      -6.006  10.456  70.322  1.00  0.00    -0.096 C  
ENDROOT
BRANCH   4  13
HETATM   13  C   UNL     1      -5.230  15.374  69.272  1.00  0.00    -0.096 C  
BRANCH  13  14
HETATM   14  S   UNL     1      -6.021  16.408  68.014  1.00  0.00    -0.125 SA 
BRANCH  14  15
HETATM   15  C   UNL     1      -7.700  16.276  68.346  1.00  0.00    -0.169 A  
HETATM   16  N   UNL     1      -8.295  15.506  69.221  1.00  0.00    -0.245 NA 
HETATM   17  C   UNL     1      -8.507  17.985  66.649  1.00  0.00    -0.262 C  
HETATM   18  N   UNL     1      -9.643  15.736  69.071  1.00  0.00    -0.226 NA 
HETATM   19  N   UNL     1      -8.651  16.989  67.676  1.00  0.00    -0.208 NA 
HETATM   20  N   UNL     1      -9.869  16.641  68.128  1.00  0.00    -0.244 NA 
ENDBRANCH  14  15
ENDBRANCH  13  14
ENDBRANCH   4  13
BRANCH   6  21
HETATM   21  N   UNL     1      -7.439   9.504  68.374  1.00  0.00    -0.077 N  
HETATM   22  H   UNL     1      -8.013  10.317  68.148  1.00  0.00     0.000 HD 
HETATM   23  O   UNL     1      -7.280   7.230  68.230  1.00  0.00    -0.088 OA 
HETATM   24  C   UNL     1      -7.969   8.244  68.158  1.00  0.00    -0.123 C  
BRANCH  24  25
HETATM   25  CA  UNL     1      -9.521   8.232  68.011  1.00  0.00    -0.140 C  
BRANCH  25  26
HETATM   26  C   UNL     1     -10.199   7.871  69.337  1.00  0.00    -0.206 A  
HETATM   27  O   UNL     1     -12.135   6.997  72.928  1.00  0.00    -0.457 OA 
HETATM   28  C   UNL     1     -10.737   6.591  69.561  1.00  0.00    -0.322 A  
HETATM   29  C   UNL     1     -10.925   8.499  71.584  1.00  0.00    -0.362 A  
HETATM   30  C   UNL     1     -11.490   7.245  71.755  1.00  0.00    -0.267 A  
HETATM   31  C   UNL     1     -11.388   6.281  70.760  1.00  0.00    -0.397 A  
HETATM   32  H   UNL     1     -12.205   7.656  73.609  1.00  0.00     0.000 HD 
HETATM   33  C   UNL     1     -10.270   8.805  70.391  1.00  0.00    -0.228 A  
ENDBRANCH  25  26
BRANCH  25  34
HETATM   34  N   UNL     1      -9.927   9.575  67.552  1.00  0.00    -0.175 N  
HETATM   35  C   UNL     1      -9.938   9.914  66.217  1.00  0.00    -0.256 C  
HETATM   36  H   UNL     1     -10.206  10.272  68.242  1.00  0.00     0.000 HD 
HETATM   37  O   UNL     1      -9.699   9.121  65.312  1.00  0.00    -0.157 OA 
BRANCH  35  38
HETATM   38  C   UNL     1     -10.319  11.300  65.854  1.00  0.00    -0.304 A  
HETATM   39  O   UNL     1     -10.164  10.847  63.469  1.00  0.00    -0.380 OA 
HETATM   40  C   UNL     1     -10.411  11.694  64.517  1.00  0.00    -0.308 A  
HETATM   41  C   UNL     1     -10.936  13.919  65.214  1.00  0.00    -0.331 A  
HETATM   42  C   UNL     1     -10.744  13.004  64.187  1.00  0.00    -0.429 A  
HETATM   43  H   UNL     1     -10.227  11.115  62.560  1.00  0.00     0.000 HD 
HETATM   44  N   UNL     1     -10.846  13.569  66.522  1.00  0.00    -0.282 NA 
HETATM   45  C   UNL     1     -11.169  15.371  64.917  1.00  0.00    -0.410 C  
HETATM   46  C   UNL     1     -10.539  12.279  66.810  1.00  0.00    -0.224 A  
ENDBRANCH  35  38
ENDBRANCH  25  34
ENDBRANCH  24  25
ENDBRANCH   6  21
TORSDOF 8
ENDMDL
MODEL       40
REMARK 921   NORMALIZED FREE ENERGY PREDICTED BY IDOCK:   -6.39 KCAL/MOL
REMARK 922        TOTAL FREE ENERGY PREDICTED BY IDOCK:  -11.19 KCAL/MOL
REMARK 923 INTER-LIGAND FREE ENERGY PREDICTED BY IDOCK:   -9.20 KCAL/MOL
REMARK 924 INTRA-LIGAND FREE ENERGY PREDICTED BY IDOCK:   -1.98 KCAL/MOL
REMARK 927      BINDING AFFINITY PREDICTED BY RF-SCORE:    0.00 PKD
ROOT
HETATM    1  C   UNL     1      -8.585   9.334  70.524  1.00  0.00    -0.233 C  
HETATM    2  S   UNL     1      -8.466   8.770  68.803  1.00  0.00    -0.129 SA 
HETATM    3  C   UNL     1      -9.443  10.154  68.179  1.00  0.00    -0.142 C  
HETATM    4  C   UNL     1     -10.746  10.403  68.935  1.00  0.00    -0.255 C  
HETATM    5  CA  UNL     1     -10.989   9.957  70.199  1.00  0.00    -0.301 C  
HETATM    6  CA  UNL     1      -8.367   8.210  71.596  1.00  0.00    -0.131 C  
HETATM    7  O   UNL     1     -10.686   8.235  72.809  1.00  0.00    -0.343 OA 
HETATM    8  N   UNL     1      -9.985   9.340  70.902  1.00  0.00    -0.283 N  
HETATM    9  C   UNL     1     -12.382  10.073  70.796  1.00  0.00    -0.303 C  
HETATM   10  OXT UNL     1     -13.382  10.326  70.141  1.00  0.00     0.004 OA 
HETATM   11  O   UNL     1     -12.470   9.961  72.135  1.00  0.00    -0.318 OA 
HETATM   12  C   UNL     1      -9.857   8.547  71.987  1.00  0.00    -0.312 C  
ENDROOT
BRANCH   4  13
HETATM   13  C   UNL     1     -11.755  11.097  68.014  1.00  0.00    -0.212 C  
BRANCH  13  14
HETATM   14  S   UNL     1     -11.142  12.545  67.118  1.00  0.00    -0.292 SA 
BRANCH  14  15
HETATM   15  C   UNL     1     -11.797  12.381  65.539  1.00  0.00    -0.412 A  
HETATM   16  N   UNL     1     -12.884  12.924  65.054  1.00  0.00    -0.798 NA 
HETATM   17  C   UNL     1     -10.017  10.831  64.603  1.00  0.00    -0.324 C  
HETATM   18  N   UNL     1     -12.997  12.452  63.766  1.00  0.00    -0.775 NA 
HETATM   19  N   UNL     1     -11.229  11.603  64.573  1.00  0.00    -0.299 NA 
HETATM   20  N   UNL     1     -11.990  11.644  63.465  1.00  0.00    -0.370 NA 
ENDBRANCH  14  15
ENDBRANCH  13  14
ENDBRANCH   4  13
BRANCH   6  21
HETATM   21  N   UNL     1      -8.143   6.848  71.021  1.00  0.00    -0.106 N  
HETATM   22  H   UNL     1      -8.458   6.666  70.068  1.00  0.00     0.000 HD 
HETATM   23  O   UNL     1      -6.962   6.016  72.791  1.00  0.00    -0.074 OA 
HETATM   24  C   UNL     1      -7.529   5.823  71.719  1.00  0.00    -0.095 C  
BRANCH  24  25
HETATM   25  CA  UNL     1      -7.792   4.408  71.116  1.00  0.00    -0.072 C  
BRANCH  25  26
HETATM   26  C   UNL     1      -8.921   3.691  71.863  1.00  0.00    -0.149 A  
HETATM   27  O   UNL     1     -12.090   1.808  73.818  1.00  0.00    -0.163 OA 
HETATM   28  C   UNL     1      -9.003   2.287  71.894  1.00  0.00    -0.124 A  
HETATM   29  C   UNL     1     -10.950   3.775  73.221  1.00  0.00    -0.282 A  
HETATM   30  C   UNL     1     -11.032   2.392  73.191  1.00  0.00    -0.131 A  
HETATM   31  C   UNL     1     -10.058   1.640  72.547  1.00  0.00    -0.206 A  
HETATM   32  H   UNL     1     -12.756   2.323  74.259  1.00  0.00     0.000 HD 
HETATM   33  C   UNL     1      -9.894   4.420  72.577  1.00  0.00    -0.213 A  
ENDBRANCH  25  26
BRANCH  25  34
HETATM   34  N   UNL     1      -8.129   4.596  69.691  1.00  0.00    -0.065 N  
HETATM   35  C   UNL     1      -7.674   3.734  68.718  1.00  0.00    -0.053 C  
HETATM   36  H   UNL     1      -8.714   5.385  69.420  1.00  0.00     0.000 HD 
HETATM   37  O   UNL     1      -7.035   2.715  68.956  1.00  0.00    -0.043 OA 
BRANCH  35  38
HETATM   38  C   UNL     1      -8.028   4.028  67.309  1.00  0.00    -0.092 A  
HETATM   39  O   UNL     1      -9.431   2.049  67.123  1.00  0.00    -0.373 OA 
HETATM   40  C   UNL     1      -8.877   3.183  66.589  1.00  0.00    -0.145 A  
HETATM   41  C   UNL     1      -8.590   4.552  64.652  1.00  0.00    -0.139 A  
HETATM   42  C   UNL     1      -9.183   3.452  65.259  1.00  0.00    -0.150 A  
HETATM   43  H   UNL     1     -10.008   1.474  66.634  1.00  0.00     0.000 HD 
HETATM   44  N   UNL     1      -7.756   5.387  65.321  1.00  0.00    -0.086 NA 
HETATM   45  C   UNL     1      -8.782   4.817  63.188  1.00  0.00    -0.126 C  
HETATM   46  C   UNL     1      -7.494   5.106  66.622  1.00  0.00    -0.087 A  
ENDBRANCH  35  38
ENDBRANCH  25  34
ENDBRANCH  24  25
ENDBRANCH   6  21
TORSDOF 8
ENDMDL
MODEL       41
REMARK 921   NORMALIZED FREE ENERGY PREDICTED BY IDOCK:   -6.38 KCAL/MOL
REMARK 922        TOTAL FREE ENERGY PREDICTED BY IDOCK:  -11.17 KCAL/MOL
REMARK 923 INTER-LIGAND FREE ENERGY PREDICTED BY IDOCK:   -9.69 KCAL/MOL
REMARK 924 INTRA-LIGAND FREE ENERGY PREDICTED BY IDOCK:   -1.48 KCAL/MOL
REMARK 927      BINDING AFFINITY PREDICTED BY RF-SCORE:    0.00 PKD
ROOT
HETATM    1  C   UNL     1     -10.366   8.340  69.708  1.00  0.00    -0.216 C  
HETATM    2  S   UNL     1     -10.641   7.882  67.973  1.00  0.00    -0.076 SA 
HETATM    3  C   UNL     1     -10.178   6.160  68.253  1.00  0.00    -0.175 C  
HETATM    4  C   UNL     1      -8.869   5.970  69.015  1.00  0.00    -0.121 C  
HETATM    5  CA  UNL     1      -8.300   6.928  69.798  1.00  0.00    -0.132 C  
HETATM    6  CA  UNL     1     -10.095   9.867  69.944  1.00  0.00    -0.257 C  
HETATM    7  O   UNL     1      -7.682   9.783  70.955  1.00  0.00    -0.292 OA 
HETATM    8  N   UNL     1      -8.970   8.104  70.022  1.00  0.00    -0.142 N  
HETATM    9  C   UNL     1      -6.899   6.728  70.355  1.00  0.00    -0.062 C  
HETATM   10  OXT UNL     1      -6.130   5.863  69.962  1.00  0.00    -0.024 OA 
HETATM   11  O   UNL     1      -6.548   7.515  71.389  1.00  0.00    -0.042 OA 
HETATM   12  C   UNL     1      -8.696   9.352  70.458  1.00  0.00    -0.231 C  
ENDROOT
BRANCH   4  13
HETATM   13  C   UNL     1      -8.252   4.614  68.657  1.00  0.00    -0.082 C  
BRANCH  13  14
HETATM   14  S   UNL     1      -9.329   3.468  67.759  1.00  0.00    -0.182 SA 
BRANCH  14  15
HETATM   15  C   UNL     1      -8.532   3.217  66.259  1.00  0.00    -0.108 A  
HETATM   16  N   UNL     1      -7.358   2.679  66.047  1.00  0.00    -0.066 NA 
HETATM   17  C   UNL     1     -10.331   4.199  64.761  1.00  0.00    -0.188 C  
HETATM   18  N   UNL     1      -7.153   2.746  64.688  1.00  0.00    -0.049 NA 
HETATM   19  N   UNL     1      -9.061   3.596  65.061  1.00  0.00    -0.135 NA 
HETATM   20  N   UNL     1      -8.189   3.306  64.078  1.00  0.00    -0.089 NA 
ENDBRANCH  14  15
ENDBRANCH  13  14
ENDBRANCH   4  13
BRANCH   6  21
HETATM   21  N   UNL     1     -10.061  10.686  68.694  1.00  0.00    -0.175 N  
HETATM   22  H   UNL     1      -9.663  10.270  67.852  1.00  0.00     0.000 HD 
HETATM   23  O   UNL     1     -11.198  12.480  69.535  1.00  0.00    -0.197 OA 
HETATM   24  C   UNL     1     -10.543  11.981  68.624  1.00  0.00    -0.229 C  
BRANCH  24  25
HETATM   25  CA  UNL     1     -10.020  12.780  67.390  1.00  0.00    -0.212 C  
BRANCH  25  26
HETATM   26  C   UNL     1     -10.753  12.365  66.111  1.00  0.00    -0.292 A  
HETATM   27  O   UNL     1     -12.769  11.372  62.595  1.00  0.00    -0.834 OA 
HETATM   28  C   UNL     1     -10.145  11.532  65.154  1.00  0.00    -0.313 A  
HETATM   29  C   UNL     1     -12.739  12.440  64.689  1.00  0.00    -0.372 A  
HETATM   30  C   UNL     1     -12.094  11.660  63.742  1.00  0.00    -0.234 A  
HETATM   31  C   UNL     1     -10.808  11.188  63.971  1.00  0.00    -0.351 A  
HETATM   32  H   UNL     1     -13.649  11.694  62.439  1.00  0.00     0.000 HD 
HETATM   33  C   UNL     1     -12.080  12.776  65.872  1.00  0.00    -0.485 A  
ENDBRANCH  25  26
BRANCH  25  34
HETATM   34  N   UNL     1     -10.221  14.213  67.681  1.00  0.00    -0.239 N  
HETATM   35  C   UNL     1      -9.741  15.198  66.845  1.00  0.00    -0.239 C  
HETATM   36  H   UNL     1     -10.729  14.482  68.522  1.00  0.00     0.000 HD 
HETATM   37  O   UNL     1      -9.191  14.971  65.772  1.00  0.00    -0.241 OA 
BRANCH  35  38
HETATM   38  C   UNL     1      -9.954  16.610  67.241  1.00  0.00    -0.270 A  
HETATM   39  O   UNL     1     -10.804  17.223  65.045  1.00  0.00    -0.686 OA 
HETATM   40  C   UNL     1     -10.467  17.542  66.334  1.00  0.00    -0.277 A  
HETATM   41  C   UNL     1     -10.247  19.259  67.982  1.00  0.00    -0.408 A  
HETATM   42  C   UNL     1     -10.639  18.871  66.707  1.00  0.00    -0.480 A  
HETATM   43  H   UNL     1     -11.153  17.856  64.429  1.00  0.00     0.000 HD 
HETATM   44  N   UNL     1      -9.738  18.380  68.882  1.00  0.00    -0.326 NA 
HETATM   45  C   UNL     1     -10.289  20.701  68.393  1.00  0.00     0.114 C  
HETATM   46  C   UNL     1      -9.601  17.088  68.493  1.00  0.00    -0.273 A  
ENDBRANCH  35  38
ENDBRANCH  25  34
ENDBRANCH  24  25
ENDBRANCH   6  21
TORSDOF 8
ENDMDL
MODEL       42
REMARK 921   NORMALIZED FREE ENERGY PREDICTED BY IDOCK:   -6.34 KCAL/MOL
REMARK 922        TOTAL FREE ENERGY PREDICTED BY IDOCK:  -11.12 KCAL/MOL
REMARK 923 INTER-LIGAND FREE ENERGY PREDICTED BY IDOCK:   -9.97 KCAL/MOL
REMARK 924 INTRA-LIGAND FREE ENERGY PREDICTED BY IDOCK:   -1.16 KCAL/MOL
REMARK 927      BINDING AFFINITY PREDICTED BY RF-SCORE:    0.00 PKD
ROOT
HETATM    1  C   UNL     1      -6.886  11.343  67.969  1.00  0.00    -0.067 C  
HETATM    2  S   UNL     1      -6.774  11.413  69.779  1.00  0.00    -0.015 SA 
HETATM    3  C   UNL     1      -7.332   9.708  69.977  1.00  0.00    -0.130 C  
HETATM    4  C   UNL     1      -8.590   9.356  69.187  1.00  0.00    -0.140 C  
HETATM    5  CA  UNL     1      -9.032  10.060  68.108  1.00  0.00    -0.122 C  
HETATM    6  CA  UNL     1      -7.033  12.740  67.270  1.00  0.00    -0.080 C  
HETATM    7  O   UNL     1      -9.364  12.463  66.111  1.00  0.00    -0.225 OA 
HETATM    8  N   UNL     1      -8.267  11.085  67.611  1.00  0.00    -0.115 N  
HETATM    9  C   UNL     1     -10.397   9.764  67.509  1.00  0.00    -0.237 C  
HETATM   10  OXT UNL     1     -11.252   9.090  68.066  1.00  0.00     0.101 OA 
HETATM   11  O   UNL     1     -10.615  10.220  66.261  1.00  0.00    -0.176 OA 
HETATM   12  C   UNL     1      -8.422  12.156  66.804  1.00  0.00    -0.138 C  
ENDROOT
BRANCH   4  13
HETATM   13  C   UNL     1      -9.324   8.197  69.870  1.00  0.00    -0.159 C  
BRANCH  13  14
HETATM   14  S   UNL     1      -9.790   8.466  71.599  1.00  0.00    -0.248 SA 
BRANCH  14  15
HETATM   15  C   UNL     1     -11.493   8.257  71.621  1.00  0.00    -0.278 A  
HETATM   16  N   UNL     1     -12.171   7.152  71.796  1.00  0.00    -0.328 NA 
HETATM   17  C   UNL     1     -12.128  10.683  71.222  1.00  0.00    -0.299 C  
HETATM   18  N   UNL     1     -13.497   7.501  71.686  1.00  0.00    -0.373 NA 
HETATM   19  N   UNL     1     -12.373   9.281  71.425  1.00  0.00    -0.326 NA 
HETATM   20  N   UNL     1     -13.629   8.801  71.458  1.00  0.00    -0.355 NA 
ENDBRANCH  14  15
ENDBRANCH  13  14
ENDBRANCH   4  13
BRANCH   6  21
HETATM   21  N   UNL     1      -7.104  13.895  68.216  1.00  0.00    -0.095 N  
HETATM   22  H   UNL     1      -7.826  13.889  68.937  1.00  0.00     0.000 HD 
HETATM   23  O   UNL     1      -5.238  14.967  67.448  1.00  0.00    -0.335 OA 
HETATM   24  C   UNL     1      -6.238  14.974  68.161  1.00  0.00    -0.136 C  
BRANCH  24  25
HETATM   25  CA  UNL     1      -6.753  16.232  68.925  1.00  0.00    -0.156 C  
BRANCH  25  26
HETATM   26  C   UNL     1      -6.937  17.420  67.974  1.00  0.00    -0.187 A  
HETATM   27  O   UNL     1      -7.529  20.574  65.309  1.00  0.00    -0.511 OA 
HETATM   28  C   UNL     1      -7.376  18.671  68.442  1.00  0.00    -0.309 A  
HETATM   29  C   UNL     1      -6.843  18.364  65.723  1.00  0.00    -0.310 A  
HETATM   30  C   UNL     1      -7.324  19.571  66.206  1.00  0.00    -0.268 A  
HETATM   31  C   UNL     1      -7.578  19.740  67.561  1.00  0.00    -0.310 A  
HETATM   32  H   UNL     1      -7.356  20.458  64.381  1.00  0.00     0.000 HD 
HETATM   33  C   UNL     1      -6.634  17.301  66.603  1.00  0.00    -0.268 A  
ENDBRANCH  25  26
BRANCH  25  34
HETATM   34  N   UNL     1      -8.028  15.860  69.569  1.00  0.00    -0.179 N  
HETATM   35  C   UNL     1      -9.198  15.748  68.851  1.00  0.00    -0.227 C  
HETATM   36  H   UNL     1      -8.043  15.682  70.573  1.00  0.00     0.000 HD 
HETATM   37  O   UNL     1      -9.262  15.862  67.632  1.00  0.00    -0.205 OA 
BRANCH  35  38
HETATM   38  C   UNL     1     -10.438  15.411  69.592  1.00  0.00    -0.286 A  
HETATM   39  O   UNL     1     -10.796  13.375  68.308  1.00  0.00    -0.240 OA 
HETATM   40  C   UNL     1     -11.167  14.259  69.288  1.00  0.00    -0.273 A  
HETATM   41  C   UNL     1     -12.799  14.865  70.925  1.00  0.00    -0.373 A  
HETATM   42  C   UNL     1     -12.343  13.965  69.970  1.00  0.00    -0.378 A  
HETATM   43  H   UNL     1     -11.291  12.592  68.101  1.00  0.00     0.000 HD 
HETATM   44  N   UNL     1     -12.118  15.996  71.237  1.00  0.00    -0.423 NA 
HETATM   45  C   UNL     1     -14.124  14.665  71.599  1.00  0.00    -0.571 C  
HETATM   46  C   UNL     1     -10.965  16.243  70.566  1.00  0.00    -0.219 A  
ENDBRANCH  35  38
ENDBRANCH  25  34
ENDBRANCH  24  25
ENDBRANCH   6  21
TORSDOF 8
ENDMDL
MODEL       43
REMARK 921   NORMALIZED FREE ENERGY PREDICTED BY IDOCK:   -6.33 KCAL/MOL
REMARK 922        TOTAL FREE ENERGY PREDICTED BY IDOCK:  -11.10 KCAL/MOL
REMARK 923 INTER-LIGAND FREE ENERGY PREDICTED BY IDOCK:   -9.11 KCAL/MOL
REMARK 924 INTRA-LIGAND FREE ENERGY PREDICTED BY IDOCK:   -1.99 KCAL/MOL
REMARK 927      BINDING AFFINITY PREDICTED BY RF-SCORE:    0.00 PKD
ROOT
HETATM    1  C   UNL     1      -9.705   4.889  69.759  1.00  0.00    -0.192 C  
HETATM    2  S   UNL     1      -7.986   5.418  70.007  1.00  0.00    -0.082 SA 
HETATM    3  C   UNL     1      -7.755   4.331  71.430  1.00  0.00    -0.072 C  
HETATM    4  C   UNL     1      -8.861   4.415  72.479  1.00  0.00    -0.122 C  
HETATM    5  CA  UNL     1     -10.110   4.898  72.230  1.00  0.00    -0.191 C  
HETATM    6  CA  UNL     1     -10.595   5.913  68.973  1.00  0.00    -0.290 C  
HETATM    7  O   UNL     1     -12.410   6.467  70.776  1.00  0.00    -0.284 OA 
HETATM    8  N   UNL     1     -10.460   5.235  70.947  1.00  0.00    -0.236 N  
HETATM    9  C   UNL     1     -11.081   5.134  73.376  1.00  0.00    -0.320 C  
HETATM   10  OXT UNL     1     -10.751   5.148  74.553  1.00  0.00    -0.343 OA 
HETATM   11  O   UNL     1     -12.380   5.255  73.044  1.00  0.00    -0.013 OA 
HETATM   12  C   UNL     1     -11.410   5.962  70.322  1.00  0.00    -0.162 C  
ENDROOT
BRANCH   4  13
HETATM   13  C   UNL     1      -8.309   4.006  73.849  1.00  0.00    -0.091 C  
BRANCH  13  14
HETATM   14  S   UNL     1      -6.965   5.032  74.497  1.00  0.00    -0.078 SA 
BRANCH  14  15
HETATM   15  C   UNL     1      -7.332   6.616  73.947  1.00  0.00    -0.083 A  
HETATM   16  N   UNL     1      -8.384   7.344  74.219  1.00  0.00    -0.181 NA 
HETATM   17  C   UNL     1      -5.249   6.967  72.538  1.00  0.00    -0.037 C  
HETATM   18  N   UNL     1      -8.231   8.511  73.507  1.00  0.00    -0.399 NA 
HETATM   19  N   UNL     1      -6.525   7.317  73.099  1.00  0.00    -0.063 NA 
HETATM   20  N   UNL     1      -7.097   8.501  72.818  1.00  0.00    -0.267 NA 
ENDBRANCH  14  15
ENDBRANCH  13  14
ENDBRANCH   4  13
BRANCH   6  21
HETATM   21  N   UNL     1      -9.892   7.178  68.598  1.00  0.00    -0.151 N  
HETATM   22  H   UNL     1      -9.126   7.502  69.190  1.00  0.00     0.000 HD 
HETATM   23  O   UNL     1     -11.006   7.517  66.633  1.00  0.00    -0.079 OA 
HETATM   24  C   UNL     1     -10.228   7.933  67.487  1.00  0.00    -0.242 C  
BRANCH  24  25
HETATM   25  CA  UNL     1      -9.686   9.394  67.533  1.00  0.00    -0.157 C  
BRANCH  25  26
HETATM   26  C   UNL     1      -9.511   9.963  66.121  1.00  0.00    -0.254 A  
HETATM   27  O   UNL     1      -9.026  11.644  62.333  1.00  0.00    -0.453 OA 
HETATM   28  C   UNL     1      -8.483   9.516  65.272  1.00  0.00    -0.159 A  
HETATM   29  C   UNL     1     -10.225  11.486  64.349  1.00  0.00    -0.350 A  
HETATM   30  C   UNL     1      -9.172  11.061  63.555  1.00  0.00    -0.221 A  
HETATM   31  C   UNL     1      -8.308  10.067  63.998  1.00  0.00    -0.170 A  
HETATM   32  H   UNL     1      -9.617  12.324  62.030  1.00  0.00     0.000 HD 
HETATM   33  C   UNL     1     -10.404  10.930  65.616  1.00  0.00    -0.305 A  
ENDBRANCH  25  26
BRANCH  25  34
HETATM   34  N   UNL     1     -10.648  10.193  68.316  1.00  0.00    -0.211 N  
HETATM   35  C   UNL     1     -10.297  11.396  68.888  1.00  0.00    -0.184 C  
HETATM   36  H   UNL     1     -11.599   9.845  68.437  1.00  0.00     0.000 HD 
HETATM   37  O   UNL     1      -9.206  11.933  68.729  1.00  0.00    -0.103 OA 
BRANCH  35  38
HETATM   38  C   UNL     1     -11.319  12.107  69.693  1.00  0.00    -0.223 A  
HETATM   39  O   UNL     1     -11.025  14.182  68.456  1.00  0.00    -0.238 OA 
HETATM   40  C   UNL     1     -11.628  13.447  69.443  1.00  0.00    -0.307 A  
HETATM   41  C   UNL     1     -13.159  13.432  71.278  1.00  0.00    -0.238 A  
HETATM   42  C   UNL     1     -12.570  14.113  70.220  1.00  0.00    -0.367 A  
HETATM   43  H   UNL     1     -11.235  15.092  68.285  1.00  0.00     0.000 HD 
HETATM   44  N   UNL     1     -12.874  12.134  71.551  1.00  0.00    -0.347 NA 
HETATM   45  C   UNL     1     -14.083  14.137  72.227  1.00  0.00    -0.630 C  
HETATM   46  C   UNL     1     -11.966  11.508  70.762  1.00  0.00    -0.214 A  
ENDBRANCH  35  38
ENDBRANCH  25  34
ENDBRANCH  24  25
ENDBRANCH   6  21
TORSDOF 8
ENDMDL
MODEL       44
REMARK 921   NORMALIZED FREE ENERGY PREDICTED BY IDOCK:   -6.31 KCAL/MOL
REMARK 922        TOTAL FREE ENERGY PREDICTED BY IDOCK:  -11.08 KCAL/MOL
REMARK 923 INTER-LIGAND FREE ENERGY PREDICTED BY IDOCK:   -8.18 KCAL/MOL
REMARK 924 INTRA-LIGAND FREE ENERGY PREDICTED BY IDOCK:   -2.89 KCAL/MOL
REMARK 927      BINDING AFFINITY PREDICTED BY RF-SCORE:    0.00 PKD
ROOT
HETATM    1  C   UNL     1      -7.448  10.568  65.837  1.00  0.00    -0.147 C  
HETATM    2  S   UNL     1      -9.153  10.034  65.514  1.00  0.00    -0.203 SA 
HETATM    3  C   UNL     1      -9.737  11.723  65.261  1.00  0.00    -0.211 C  
HETATM    4  C   UNL     1      -9.316  12.711  66.346  1.00  0.00    -0.198 C  
HETATM    5  CA  UNL     1      -8.268  12.509  67.192  1.00  0.00    -0.168 C  
HETATM    6  CA  UNL     1      -6.590   9.546  66.660  1.00  0.00    -0.068 C  
HETATM    7  O   UNL     1      -6.044  10.968  68.789  1.00  0.00    -0.043 OA 
HETATM    8  N   UNL     1      -7.456  11.417  67.013  1.00  0.00    -0.140 N  
HETATM    9  C   UNL     1      -8.046  13.443  68.370  1.00  0.00    -0.138 C  
HETATM   10  OXT UNL     1      -8.880  14.242  68.770  1.00  0.00    -0.168 OA 
HETATM   11  O   UNL     1      -6.823  13.415  68.934  1.00  0.00    -0.104 OA 
HETATM   12  C   UNL     1      -6.546  10.713  67.719  1.00  0.00    -0.060 C  
ENDROOT
BRANCH   4  13
HETATM   13  C   UNL     1     -10.321  13.865  66.415  1.00  0.00    -0.289 C  
BRANCH  13  14
HETATM   14  S   UNL     1     -12.032  13.404  66.788  1.00  0.00    -0.375 SA 
BRANCH  14  15
HETATM   15  C   UNL     1     -12.028  13.073  68.472  1.00  0.00    -0.261 A  
HETATM   16  N   UNL     1     -11.979  11.909  69.069  1.00  0.00    -0.290 NA 
HETATM   17  C   UNL     1     -12.144  15.476  69.281  1.00  0.00    -0.259 C  
HETATM   18  N   UNL     1     -12.045  12.173  70.417  1.00  0.00    -0.352 NA 
HETATM   19  N   UNL     1     -12.102  14.047  69.424  1.00  0.00    -0.339 NA 
HETATM   20  N   UNL     1     -12.121  13.478  70.643  1.00  0.00    -0.338 NA 
ENDBRANCH  14  15
ENDBRANCH  13  14
ENDBRANCH   4  13
BRANCH   6  21
HETATM   21  N   UNL     1      -7.333   8.319  67.083  1.00  0.00    -0.087 N  
HETATM   22  H   UNL     1      -8.176   8.061  66.569  1.00  0.00     0.000 HD 
HETATM   23  O   UNL     1      -5.839   7.654  68.679  1.00  0.00    -0.026 OA 
HETATM   24  C   UNL     1      -6.932   7.516  68.136  1.00  0.00    -0.072 C  
BRANCH  24  25
HETATM   25  CA  UNL     1      -8.057   6.577  68.672  1.00  0.00    -0.118 C  
BRANCH  25  26
HETATM   26  C   UNL     1      -9.093   7.361  69.482  1.00  0.00    -0.143 A  
HETATM   27  O   UNL     1     -11.954   9.377  71.754  1.00  0.00    -0.360 OA 
HETATM   28  C   UNL     1      -8.723   8.462  70.275  1.00  0.00    -0.140 A  
HETATM   29  C   UNL     1     -11.405   7.705  70.196  1.00  0.00    -0.147 A  
HETATM   30  C   UNL     1     -11.002   8.754  71.007  1.00  0.00    -0.268 A  
HETATM   31  C   UNL     1      -9.671   9.151  71.042  1.00  0.00    -0.359 A  
HETATM   32  H   UNL     1     -12.864   9.106  71.730  1.00  0.00     0.000 HD 
HETATM   33  C   UNL     1     -10.461   7.024  69.426  1.00  0.00    -0.227 A  
ENDBRANCH  25  26
BRANCH  25  34
HETATM   34  N   UNL     1      -8.676   5.925  67.501  1.00  0.00    -0.106 N  
HETATM   35  C   UNL     1      -8.647   4.558  67.331  1.00  0.00    -0.104 C  
HETATM   36  H   UNL     1      -9.137   6.502  66.798  1.00  0.00     0.000 HD 
HETATM   37  O   UNL     1      -8.190   3.779  68.161  1.00  0.00    -0.082 OA 
BRANCH  35  38
HETATM   38  C   UNL     1      -9.258   3.997  66.102  1.00  0.00    -0.155 A  
HETATM   39  O   UNL     1     -11.127   5.554  66.176  1.00  0.00    -0.747 OA 
HETATM   40  C   UNL     1     -10.452   4.514  65.592  1.00  0.00    -0.229 A  
HETATM   41  C   UNL     1     -10.422   2.864  63.864  1.00  0.00    -0.133 A  
HETATM   42  C   UNL     1     -11.031   3.964  64.453  1.00  0.00    -0.046 A  
HETATM   43  H   UNL     1     -11.939   5.905  65.830  1.00  0.00     0.000 HD 
HETATM   44  N   UNL     1      -9.267   2.335  64.340  1.00  0.00    -0.123 NA 
HETATM   45  C   UNL     1     -11.069   2.152  62.713  1.00  0.00    -0.235 C  
HETATM   46  C   UNL     1      -8.718   2.906  65.441  1.00  0.00    -0.124 A  
ENDBRANCH  35  38
ENDBRANCH  25  34
ENDBRANCH  24  25
ENDBRANCH   6  21
TORSDOF 8
ENDMDL
MODEL       45
REMARK 921   NORMALIZED FREE ENERGY PREDICTED BY IDOCK:   -6.30 KCAL/MOL
REMARK 922        TOTAL FREE ENERGY PREDICTED BY IDOCK:  -11.06 KCAL/MOL
REMARK 923 INTER-LIGAND FREE ENERGY PREDICTED BY IDOCK:   -9.00 KCAL/MOL
REMARK 924 INTRA-LIGAND FREE ENERGY PREDICTED BY IDOCK:   -2.05 KCAL/MOL
REMARK 927      BINDING AFFINITY PREDICTED BY RF-SCORE:    0.00 PKD
ROOT
HETATM    1  C   UNL     1      -8.019   9.823  66.499  1.00  0.00    -0.112 C  
HETATM    2  S   UNL     1      -9.127   8.727  65.569  1.00  0.00    -0.117 SA 
HETATM    3  C   UNL     1     -10.087  10.102  64.902  1.00  0.00    -0.207 C  
HETATM    4  C   UNL     1     -10.534  11.128  65.941  1.00  0.00    -0.310 C  
HETATM    5  CA  UNL     1      -9.945  11.280  67.160  1.00  0.00    -0.192 C  
HETATM    6  CA  UNL     1      -7.299   9.143  67.716  1.00  0.00    -0.084 C  
HETATM    7  O   UNL     1      -8.234  10.575  69.698  1.00  0.00    -0.128 OA 
HETATM    8  N   UNL     1      -8.816  10.562  67.460  1.00  0.00    -0.131 N  
HETATM    9  C   UNL     1     -10.580  12.181  68.207  1.00  0.00    -0.217 C  
HETATM   10  OXT UNL     1     -11.723  12.609  68.132  1.00  0.00    -0.315 OA 
HETATM   11  O   UNL     1      -9.786  12.571  69.222  1.00  0.00     0.339 OA 
HETATM   12  C   UNL     1      -8.113  10.202  68.555  1.00  0.00    -0.106 C  
ENDROOT
BRANCH   4  13
HETATM   13  C   UNL     1     -11.800  11.841  65.455  1.00  0.00     0.045 C  
BRANCH  13  14
HETATM   14  S   UNL     1     -11.729  12.523  63.779  1.00  0.00    -0.531 SA 
BRANCH  14  15
HETATM   15  C   UNL     1     -11.792  14.223  64.006  1.00  0.00    -0.237 A  
HETATM   16  N   UNL     1     -12.704  15.062  63.586  1.00  0.00    -0.377 NA 
HETATM   17  C   UNL     1      -9.645  14.458  65.340  1.00  0.00     0.030 C  
HETATM   18  N   UNL     1     -12.281  16.309  63.984  1.00  0.00    -0.743 NA 
HETATM   19  N   UNL     1     -10.829  14.923  64.671  1.00  0.00    -0.339 NA 
HETATM   20  N   UNL     1     -11.135  16.233  64.647  1.00  0.00    -0.645 NA 
ENDBRANCH  14  15
ENDBRANCH  13  14
ENDBRANCH   4  13
BRANCH   6  21
HETATM   21  N   UNL     1      -7.682   7.715  67.936  1.00  0.00    -0.113 N  
HETATM   22  H   UNL     1      -8.159   7.219  67.184  1.00  0.00     0.000 HD 
HETATM   23  O   UNL     1      -6.693   7.500  69.985  1.00  0.00    -0.044 OA 
HETATM   24  C   UNL     1      -7.420   7.033  69.112  1.00  0.00    -0.095 C  
BRANCH  24  25
HETATM   25  CA  UNL     1      -8.272   5.739  69.290  1.00  0.00    -0.105 C  
BRANCH  25  26
HETATM   26  C   UNL     1      -9.481   5.993  70.198  1.00  0.00    -0.182 A  
HETATM   27  O   UNL     1     -12.856   6.647  72.561  1.00  0.00    -0.444 OA 
HETATM   28  C   UNL     1      -9.618   5.339  71.435  1.00  0.00    -0.209 A  
HETATM   29  C   UNL     1     -11.601   7.127  70.632  1.00  0.00    -0.354 A  
HETATM   30  C   UNL     1     -11.733   6.430  71.823  1.00  0.00    -0.324 A  
HETATM   31  C   UNL     1     -10.743   5.549  72.241  1.00  0.00    -0.285 A  
HETATM   32  H   UNL     1     -13.533   7.250  72.275  1.00  0.00     0.000 HD 
HETATM   33  C   UNL     1     -10.475   6.924  69.833  1.00  0.00    -0.239 A  
ENDBRANCH  25  26
BRANCH  25  34
HETATM   34  N   UNL     1      -8.696   5.307  67.944  1.00  0.00    -0.103 N  
HETATM   35  C   UNL     1      -9.036   3.999  67.675  1.00  0.00    -0.129 C  
HETATM   36  H   UNL     1      -8.739   5.994  67.193  1.00  0.00     0.000 HD 
HETATM   37  O   UNL     1      -9.094   3.121  68.529  1.00  0.00    -0.123 OA 
BRANCH  35  38
HETATM   38  C   UNL     1      -9.408   3.650  66.283  1.00  0.00    -0.187 A  
HETATM   39  O   UNL     1     -11.126   5.371  66.183  1.00  0.00    -0.748 OA 
HETATM   40  C   UNL     1     -10.421   4.342  65.614  1.00  0.00    -0.193 A  
HETATM   41  C   UNL     1     -10.145   2.909  63.722  1.00  0.00    -0.169 A  
HETATM   42  C   UNL     1     -10.782   3.990  64.318  1.00  0.00    -0.191 A  
HETATM   43  H   UNL     1     -11.814   5.842  65.729  1.00  0.00     0.000 HD 
HETATM   44  N   UNL     1      -9.164   2.212  64.348  1.00  0.00    -0.124 NA 
HETATM   45  C   UNL     1     -10.581   2.405  62.378  1.00  0.00    -0.131 C  
HETATM   46  C   UNL     1      -8.823   2.593  65.605  1.00  0.00    -0.134 A  
ENDBRANCH  35  38
ENDBRANCH  25  34
ENDBRANCH  24  25
ENDBRANCH   6  21
TORSDOF 8
ENDMDL
MODEL       46
REMARK 921   NORMALIZED FREE ENERGY PREDICTED BY IDOCK:   -6.26 KCAL/MOL
REMARK 922        TOTAL FREE ENERGY PREDICTED BY IDOCK:  -11.00 KCAL/MOL
REMARK 923 INTER-LIGAND FREE ENERGY PREDICTED BY IDOCK:   -8.75 KCAL/MOL
REMARK 924 INTRA-LIGAND FREE ENERGY PREDICTED BY IDOCK:   -2.25 KCAL/MOL
REMARK 927      BINDING AFFINITY PREDICTED BY RF-SCORE:    0.00 PKD
ROOT
HETATM    1  C   UNL     1      -9.780  14.629  69.238  1.00  0.00    -0.041 C  
HETATM    2  S   UNL     1      -8.156  13.857  69.484  1.00  0.00     0.836 SA 
HETATM    3  C   UNL     1      -7.282  15.433  69.381  1.00  0.00    -0.203 C  
HETATM    4  C   UNL     1      -7.672  16.298  68.185  1.00  0.00    -0.159 C  
HETATM    5  CA  UNL     1      -8.837  16.157  67.493  1.00  0.00    -0.189 C  
HETATM    6  CA  UNL     1     -10.887  13.661  68.694  1.00  0.00    -0.263 C  
HETATM    7  O   UNL     1     -11.460  14.808  66.412  1.00  0.00    -0.350 OA 
HETATM    8  N   UNL     1      -9.784  15.269  67.937  1.00  0.00    -0.211 N  
HETATM    9  C   UNL     1      -9.052  16.921  66.196  1.00  0.00    -0.230 C  
HETATM   10  OXT UNL     1      -8.158  17.486  65.584  1.00  0.00    -0.508 OA 
HETATM   11  O   UNL     1     -10.324  17.024  65.767  1.00  0.00    -0.483 OA 
HETATM   12  C   UNL     1     -10.875  14.638  67.456  1.00  0.00    -0.286 C  
ENDROOT
BRANCH   4  13
HETATM   13  C   UNL     1      -6.512  17.230  67.819  1.00  0.00    -0.152 C  
BRANCH  13  14
HETATM   14  S   UNL     1      -6.434  18.791  68.733  1.00  0.00    -0.261 SA 
BRANCH  14  15
HETATM   15  C   UNL     1      -7.864  19.624  68.281  1.00  0.00    -0.320 A  
HETATM   16  N   UNL     1      -9.047  19.564  68.837  1.00  0.00    -0.344 NA 
HETATM   17  C   UNL     1      -6.895  20.896  66.309  1.00  0.00    -0.133 C  
HETATM   18  N   UNL     1      -9.860  20.379  68.084  1.00  0.00    -0.263 NA 
HETATM   19  N   UNL     1      -7.927  20.474  67.215  1.00  0.00    -0.334 NA 
HETATM   20  N   UNL     1      -9.183  20.938  67.090  1.00  0.00    -0.233 NA 
ENDBRANCH  14  15
ENDBRANCH  13  14
ENDBRANCH   4  13
BRANCH   6  21
HETATM   21  N   UNL     1     -10.409  12.271  68.423  1.00  0.00    -0.221 N  
HETATM   22  H   UNL     1      -9.403  12.103  68.378  1.00  0.00     0.000 HD 
HETATM   23  O   UNL     1     -12.468  11.283  68.447  1.00  0.00    -0.403 OA 
HETATM   24  C   UNL     1     -11.263  11.199  68.228  1.00  0.00    -0.279 C  
BRANCH  24  25
HETATM   25  CA  UNL     1     -10.587   9.974  67.539  1.00  0.00    -0.280 C  
BRANCH  25  26
HETATM   26  C   UNL     1     -10.094  10.332  66.133  1.00  0.00    -0.307 A  
HETATM   27  O   UNL     1      -8.726  11.440  62.351  1.00  0.00    -0.450 OA 
HETATM   28  C   UNL     1      -9.057   9.612  65.514  1.00  0.00    -0.252 A  
HETATM   29  C   UNL     1     -10.223  11.738  64.139  1.00  0.00    -0.363 A  
HETATM   30  C   UNL     1      -9.165  11.041  63.576  1.00  0.00    -0.221 A  
HETATM   31  C   UNL     1      -8.588   9.969  64.245  1.00  0.00    -0.197 A  
HETATM   32  H   UNL     1      -9.121  12.173  61.893  1.00  0.00     0.000 HD 
HETATM   33  C   UNL     1     -10.695  11.376  65.401  1.00  0.00    -0.313 A  
ENDBRANCH  25  26
BRANCH  25  34
HETATM   34  N   UNL     1      -9.469   9.548  68.405  1.00  0.00    -0.137 N  
HETATM   35  C   UNL     1      -9.657   8.685  69.461  1.00  0.00    -0.170 C  
HETATM   36  H   UNL     1      -8.533   9.903  68.215  1.00  0.00     0.000 HD 
HETATM   37  O   UNL     1     -10.728   8.143  69.716  1.00  0.00    -0.245 OA 
BRANCH  35  38
HETATM   38  C   UNL     1      -8.483   8.347  70.301  1.00  0.00    -0.126 A  
HETATM   39  O   UNL     1      -7.361   7.189  68.479  1.00  0.00    -0.094 OA 
HETATM   40  C   UNL     1      -7.408   7.625  69.777  1.00  0.00    -0.081 A  
HETATM   41  C   UNL     1      -6.352   7.650  71.921  1.00  0.00    -0.039 A  
HETATM   42  C   UNL     1      -6.322   7.291  70.580  1.00  0.00    -0.038 A  
HETATM   43  H   UNL     1      -6.631   6.698  68.122  1.00  0.00     0.000 HD 
HETATM   44  N   UNL     1      -7.385   8.344  72.461  1.00  0.00    -0.206 NA 
HETATM   45  C   UNL     1      -5.271   7.205  72.861  1.00  0.00    -0.037 C  
HETATM   46  C   UNL     1      -8.419   8.671  71.647  1.00  0.00    -0.167 A  
ENDBRANCH  35  38
ENDBRANCH  25  34
ENDBRANCH  24  25
ENDBRANCH   6  21
TORSDOF 8
ENDMDL
MODEL       47
REMARK 921   NORMALIZED FREE ENERGY PREDICTED BY IDOCK:   -6.21 KCAL/MOL
REMARK 922        TOTAL FREE ENERGY PREDICTED BY IDOCK:  -10.93 KCAL/MOL
REMARK 923 INTER-LIGAND FREE ENERGY PREDICTED BY IDOCK:   -8.88 KCAL/MOL
REMARK 924 INTRA-LIGAND FREE ENERGY PREDICTED BY IDOCK:   -2.05 KCAL/MOL
REMARK 927      BINDING AFFINITY PREDICTED BY RF-SCORE:    0.00 PKD
ROOT
HETATM    1  C   UNL     1     -11.474  12.712  67.140  1.00  0.00    -0.346 C  
HETATM    2  S   UNL     1      -9.974  11.882  66.543  1.00  0.00    -0.207 SA 
HETATM    3  C   UNL     1     -10.588  10.243  66.982  1.00  0.00    -0.239 C  
HETATM    4  C   UNL     1     -11.149  10.133  68.398  1.00  0.00    -0.273 C  
HETATM    5  CA  UNL     1     -11.569  11.200  69.134  1.00  0.00    -0.324 C  
HETATM    6  CA  UNL     1     -11.281  14.224  67.507  1.00  0.00    -0.307 C  
HETATM    7  O   UNL     1     -11.872  14.187  70.057  1.00  0.00    -0.286 OA 
HETATM    8  N   UNL     1     -11.603  12.445  68.560  1.00  0.00    -0.291 N  
HETATM    9  C   UNL     1     -11.920  11.024  70.603  1.00  0.00    -0.365 C  
HETATM   10  OXT UNL     1     -11.631  10.032  71.256  1.00  0.00    -0.367 OA 
HETATM   11  O   UNL     1     -12.658  12.001  71.163  1.00  0.00    -0.367 OA 
HETATM   12  C   UNL     1     -11.669  13.734  68.955  1.00  0.00    -0.331 C  
ENDROOT
BRANCH   4  13
HETATM   13  C   UNL     1     -11.038   8.686  68.889  1.00  0.00     0.257 C  
BRANCH  13  14
HETATM   14  S   UNL     1      -9.366   7.993  68.937  1.00  0.00    -0.150 SA 
BRANCH  14  15
HETATM   15  C   UNL     1      -9.506   6.482  68.135  1.00  0.00    -0.114 A  
HETATM   16  N   UNL     1     -10.094   5.392  68.557  1.00  0.00    -0.175 NA 
HETATM   17  C   UNL     1      -8.252   7.114  66.020  1.00  0.00    -0.129 C  
HETATM   18  N   UNL     1      -9.894   4.450  67.574  1.00  0.00    -0.160 NA 
HETATM   19  N   UNL     1      -8.966   6.237  66.906  1.00  0.00    -0.117 NA 
HETATM   20  N   UNL     1      -9.204   4.959  66.562  1.00  0.00    -0.129 NA 
ENDBRANCH  14  15
ENDBRANCH  13  14
ENDBRANCH   4  13
BRANCH   6  21
HETATM   21  N   UNL     1      -9.880  14.721  67.349  1.00  0.00    -0.221 N  
HETATM   22  H   UNL     1      -9.288  14.287  66.640  1.00  0.00     0.000 HD 
HETATM   23  O   UNL     1     -10.044  16.431  68.855  1.00  0.00    -0.228 OA 
HETATM   24  C   UNL     1      -9.345  15.741  68.117  1.00  0.00    -0.194 C  
BRANCH  24  25
HETATM   25  CA  UNL     1      -7.787  15.793  68.095  1.00  0.00    -0.131 C  
BRANCH  25  26
HETATM   26  C   UNL     1      -7.272  17.150  68.587  1.00  0.00    -0.229 A  
HETATM   27  O   UNL     1      -6.001  20.875  69.971  1.00  0.00    -0.440 OA 
HETATM   28  C   UNL     1      -6.218  17.241  69.514  1.00  0.00    -0.251 A  
HETATM   29  C   UNL     1      -7.385  19.591  68.571  1.00  0.00    -0.368 A  
HETATM   30  C   UNL     1      -6.378  19.647  69.522  1.00  0.00    -0.328 A  
HETATM   31  C   UNL     1      -5.778  18.483  69.986  1.00  0.00    -0.242 A  
HETATM   32  H   UNL     1      -6.412  21.671  69.653  1.00  0.00     0.000 HD 
HETATM   33  C   UNL     1      -7.817  18.353  68.094  1.00  0.00    -0.304 A  
ENDBRANCH  25  26
BRANCH  25  34
HETATM   34  N   UNL     1      -7.301  14.694  68.952  1.00  0.00    -0.121 N  
HETATM   35  C   UNL     1      -6.478  13.703  68.465  1.00  0.00    -0.090 C  
HETATM   36  H   UNL     1      -7.582  14.668  69.932  1.00  0.00     0.000 HD 
HETATM   37  O   UNL     1      -6.022  13.696  67.326  1.00  0.00    -0.332 OA 
BRANCH  35  38
HETATM   38  C   UNL     1      -6.075  12.617  69.390  1.00  0.00    -0.107 A  
HETATM   39  O   UNL     1      -6.650  10.877  67.789  1.00  0.00    -0.062 OA 
HETATM   40  C   UNL     1      -6.180  11.275  69.014  1.00  0.00    -0.056 A  
HETATM   41  C   UNL     1      -5.409  10.613  71.176  1.00  0.00    -0.085 A  
HETATM   42  C   UNL     1      -5.825  10.263  69.898  1.00  0.00    -0.051 A  
HETATM   43  H   UNL     1      -6.722   9.965  67.534  1.00  0.00     0.000 HD 
HETATM   44  N   UNL     1      -5.303  11.906  71.574  1.00  0.00    -0.365 NA 
HETATM   45  C   UNL     1      -5.136   9.562  72.211  1.00  0.00    -0.077 C  
HETATM   46  C   UNL     1      -5.640  12.870  70.681  1.00  0.00    -0.179 A  
ENDBRANCH  35  38
ENDBRANCH  25  34
ENDBRANCH  24  25
ENDBRANCH   6  21
TORSDOF 8
ENDMDL
MODEL       48
REMARK 921   NORMALIZED FREE ENERGY PREDICTED BY IDOCK:   -6.19 KCAL/MOL
REMARK 922        TOTAL FREE ENERGY PREDICTED BY IDOCK:  -10.90 KCAL/MOL
REMARK 923 INTER-LIGAND FREE ENERGY PREDICTED BY IDOCK:   -9.38 KCAL/MOL
REMARK 924 INTRA-LIGAND FREE ENERGY PREDICTED BY IDOCK:   -1.52 KCAL/MOL
REMARK 927      BINDING AFFINITY PREDICTED BY RF-SCORE:    0.00 PKD
ROOT
HETATM    1  C   UNL     1      -8.160   7.397  67.573  1.00  0.00    -0.114 C  
HETATM    2  S   UNL     1      -7.829   8.051  69.233  1.00  0.00    -0.116 SA 
HETATM    3  C   UNL     1      -6.835   6.620  69.705  1.00  0.00    -0.058 C  
HETATM    4  C   UNL     1      -7.482   5.271  69.405  1.00  0.00    -0.065 C  
HETATM    5  CA  UNL     1      -8.483   5.093  68.498  1.00  0.00    -0.088 C  
HETATM    6  CA  UNL     1      -9.441   7.984  66.884  1.00  0.00    -0.191 C  
HETATM    7  O   UNL     1     -10.875   5.813  66.593  1.00  0.00    -0.297 OA 
HETATM    8  N   UNL     1      -8.881   6.147  67.715  1.00  0.00    -0.112 N  
HETATM    9  C   UNL     1      -9.207   3.759  68.410  1.00  0.00    -0.157 C  
HETATM   10  OXT UNL     1      -9.123   2.884  69.260  1.00  0.00    -0.107 OA 
HETATM   11  O   UNL     1      -9.908   3.532  67.284  1.00  0.00    -0.106 OA 
HETATM   12  C   UNL     1      -9.937   6.488  66.946  1.00  0.00    -0.173 C  
ENDROOT
BRANCH   4  13
HETATM   13  C   UNL     1      -6.932   4.207  70.360  1.00  0.00    -0.034 C  
BRANCH  13  14
HETATM   14  S   UNL     1      -7.206   4.511  72.124  1.00  0.00    -0.068 SA 
BRANCH  14  15
HETATM   15  C   UNL     1      -8.501   3.465  72.543  1.00  0.00    -0.084 A  
HETATM   16  N   UNL     1      -8.438   2.232  72.977  1.00  0.00    -0.065 NA 
HETATM   17  C   UNL     1     -10.400   5.074  72.043  1.00  0.00    -0.213 C  
HETATM   18  N   UNL     1      -9.741   1.818  73.125  1.00  0.00    -0.076 NA 
HETATM   19  N   UNL     1      -9.813   3.824  72.440  1.00  0.00    -0.151 NA 
HETATM   20  N   UNL     1     -10.588   2.785  72.798  1.00  0.00    -0.132 NA 
ENDBRANCH  14  15
ENDBRANCH  13  14
ENDBRANCH   4  13
BRANCH   6  21
HETATM   21  N   UNL     1     -10.205   8.951  67.730  1.00  0.00    -0.214 N  
HETATM   22  H   UNL     1     -10.984   8.599  68.287  1.00  0.00     0.000 HD 
HETATM   23  O   UNL     1      -8.880  10.763  67.303  1.00  0.00    -0.133 OA 
HETATM   24  C   UNL     1      -9.907  10.301  67.795  1.00  0.00    -0.169 C  
BRANCH  24  25
HETATM   25  CA  UNL     1     -11.066  11.174  68.366  1.00  0.00    -0.247 C  
BRANCH  25  26
HETATM   26  C   UNL     1     -11.595  10.596  69.684  1.00  0.00    -0.368 A  
HETATM   27  O   UNL     1     -13.143   8.966  73.199  1.00  0.00    -0.788 OA 
HETATM   28  C   UNL     1     -10.800   9.761  70.489  1.00  0.00    -0.387 A  
HETATM   29  C   UNL     1     -13.392  10.360  71.322  1.00  0.00    -0.334 A  
HETATM   30  C   UNL     1     -12.602   9.500  72.069  1.00  0.00    -0.376 A  
HETATM   31  C   UNL     1     -11.303   9.208  71.672  1.00  0.00    -0.446 A  
HETATM   32  H   UNL     1     -14.031   9.166  73.470  1.00  0.00     0.000 HD 
HETATM   33  C   UNL     1     -12.887  10.918  70.147  1.00  0.00    -0.144 A  
ENDBRANCH  25  26
BRANCH  25  34
HETATM   34  N   UNL     1     -10.534  12.537  68.556  1.00  0.00    -0.235 N  
HETATM   35  C   UNL     1     -11.020  13.612  67.845  1.00  0.00    -0.259 C  
HETATM   36  H   UNL     1      -9.786  12.688  69.232  1.00  0.00     0.000 HD 
HETATM   37  O   UNL     1     -11.971  13.544  67.073  1.00  0.00    -0.386 OA 
BRANCH  35  38
HETATM   38  C   UNL     1     -10.395  14.937  68.073  1.00  0.00    -0.244 A  
HETATM   39  O   UNL     1     -12.376  15.818  69.177  1.00  0.00    -0.573 OA 
HETATM   40  C   UNL     1     -11.093  15.961  68.717  1.00  0.00    -0.328 A  
HETATM   41  C   UNL     1      -9.233  17.426  68.393  1.00  0.00    -0.277 A  
HETATM   42  C   UNL     1     -10.506  17.209  68.903  1.00  0.00    -0.346 A  
HETATM   43  H   UNL     1     -12.850  16.514  69.616  1.00  0.00     0.000 HD 
HETATM   44  N   UNL     1      -8.533  16.455  67.755  1.00  0.00    -0.166 NA 
HETATM   45  C   UNL     1      -8.604  18.787  68.450  1.00  0.00    -0.373 C  
HETATM   46  C   UNL     1      -9.126  15.244  67.608  1.00  0.00    -0.183 A  
ENDBRANCH  35  38
ENDBRANCH  25  34
ENDBRANCH  24  25
ENDBRANCH   6  21
TORSDOF 8
ENDMDL
MODEL       49
REMARK 921   NORMALIZED FREE ENERGY PREDICTED BY IDOCK:   -6.16 KCAL/MOL
REMARK 922        TOTAL FREE ENERGY PREDICTED BY IDOCK:  -10.86 KCAL/MOL
REMARK 923 INTER-LIGAND FREE ENERGY PREDICTED BY IDOCK:   -9.39 KCAL/MOL
REMARK 924 INTRA-LIGAND FREE ENERGY PREDICTED BY IDOCK:   -1.47 KCAL/MOL
REMARK 927      BINDING AFFINITY PREDICTED BY RF-SCORE:    0.00 PKD
ROOT
HETATM    1  C   UNL     1      -6.739  10.653  67.724  1.00  0.00    -0.068 C  
HETATM    2  S   UNL     1      -8.354  10.238  67.008  1.00  0.00    -0.126 SA 
HETATM    3  C   UNL     1      -8.545  11.864  66.249  1.00  0.00    -0.016 C  
HETATM    4  C   UNL     1      -8.275  13.038  67.187  1.00  0.00    -0.132 C  
HETATM    5  CA  UNL     1      -7.551  12.942  68.336  1.00  0.00    -0.133 C  
HETATM    6  CA  UNL     1      -6.330   9.780  68.961  1.00  0.00    -0.041 C  
HETATM    7  O   UNL     1      -6.154  11.617  70.818  1.00  0.00    -0.342 OA 
HETATM    8  N   UNL     1      -6.923  11.761  68.642  1.00  0.00    -0.086 N  
HETATM    9  C   UNL     1      -7.504  14.108  69.310  1.00  0.00     0.018 C  
HETATM   10  OXT UNL     1      -8.265  15.064  69.263  1.00  0.00    -0.182 OA 
HETATM   11  O   UNL     1      -6.507  14.092  70.215  1.00  0.00    -0.147 OA 
HETATM   12  C   UNL     1      -6.379  11.161  69.722  1.00  0.00    -0.130 C  
ENDROOT
BRANCH   4  13
HETATM   13  C   UNL     1      -9.045  14.273  66.707  1.00  0.00    -0.249 C  
BRANCH  13  14
HETATM   14  S   UNL     1     -10.827  14.053  66.475  1.00  0.00    -0.303 SA 
BRANCH  14  15
HETATM   15  C   UNL     1     -11.505  14.407  68.012  1.00  0.00    -0.310 A  
HETATM   16  N   UNL     1     -12.031  13.577  68.875  1.00  0.00    -0.349 NA 
HETATM   17  C   UNL     1     -11.132  16.918  67.967  1.00  0.00    -0.190 C  
HETATM   18  N   UNL     1     -12.469  14.351  69.925  1.00  0.00    -0.309 NA 
HETATM   19  N   UNL     1     -11.592  15.672  68.515  1.00  0.00    -0.374 NA 
HETATM   20  N   UNL     1     -12.205  15.633  69.712  1.00  0.00    -0.332 NA 
ENDBRANCH  14  15
ENDBRANCH  13  14
ENDBRANCH   4  13
BRANCH   6  21
HETATM   21  N   UNL     1      -7.361   8.780  69.375  1.00  0.00    -0.070 N  
HETATM   22  H   UNL     1      -7.661   8.082  68.694  1.00  0.00     0.000 HD 
HETATM   23  O   UNL     1      -7.490   9.436  71.560  1.00  0.00    -0.337 OA 
HETATM   24  C   UNL     1      -7.928   8.754  70.637  1.00  0.00    -0.122 C  
BRANCH  24  25
HETATM   25  CA  UNL     1      -9.258   7.942  70.711  1.00  0.00    -0.157 C  
BRANCH  25  26
HETATM   26  C   UNL     1     -10.448   8.857  71.018  1.00  0.00    -0.316 A  
HETATM   27  O   UNL     1     -13.640  11.364  71.985  1.00  0.00    -0.364 OA 
HETATM   28  C   UNL     1     -10.694  10.018  70.263  1.00  0.00    -0.367 A  
HETATM   29  C   UNL     1     -12.418   9.391  72.361  1.00  0.00    -0.254 A  
HETATM   30  C   UNL     1     -12.604  10.555  71.631  1.00  0.00    -0.393 A  
HETATM   31  C   UNL     1     -11.761  10.868  70.573  1.00  0.00    -0.441 A  
HETATM   32  H   UNL     1     -14.217  11.149  72.709  1.00  0.00     0.000 HD 
HETATM   33  C   UNL     1     -11.358   8.540  72.046  1.00  0.00    -0.425 A  
ENDBRANCH  25  26
BRANCH  25  34
HETATM   34  N   UNL     1      -9.428   7.262  69.412  1.00  0.00    -0.155 N  
HETATM   35  C   UNL     1      -9.313   5.895  69.287  1.00  0.00    -0.128 C  
HETATM   36  H   UNL     1      -9.635   7.820  68.584  1.00  0.00     0.000 HD 
HETATM   37  O   UNL     1      -9.148   5.137  70.236  1.00  0.00    -0.120 OA 
BRANCH  35  38
HETATM   38  C   UNL     1      -9.457   5.306  67.934  1.00  0.00    -0.146 A  
HETATM   39  O   UNL     1     -11.531   6.503  67.502  1.00  0.00    -0.721 OA 
HETATM   40  C   UNL     1     -10.544   5.633  67.119  1.00  0.00    -0.270 A  
HETATM   41  C   UNL     1      -9.747   4.114  65.455  1.00  0.00    -0.202 A  
HETATM   42  C   UNL     1     -10.684   5.055  65.862  1.00  0.00    -0.196 A  
HETATM   43  H   UNL     1     -12.270   6.725  66.948  1.00  0.00     0.000 HD 
HETATM   44  N   UNL     1      -8.686   3.770  66.227  1.00  0.00    -0.113 NA 
HETATM   45  C   UNL     1      -9.918   3.365  64.166  1.00  0.00    -0.185 C  
HETATM   46  C   UNL     1      -8.568   4.366  67.439  1.00  0.00    -0.104 A  
ENDBRANCH  35  38
ENDBRANCH  25  34
ENDBRANCH  24  25
ENDBRANCH   6  21
TORSDOF 8
ENDMDL
MODEL       50
REMARK 921   NORMALIZED FREE ENERGY PREDICTED BY IDOCK:   -6.13 KCAL/MOL
REMARK 922        TOTAL FREE ENERGY PREDICTED BY IDOCK:  -10.81 KCAL/MOL
REMARK 923 INTER-LIGAND FREE ENERGY PREDICTED BY IDOCK:   -8.96 KCAL/MOL
REMARK 924 INTRA-LIGAND FREE ENERGY PREDICTED BY IDOCK:   -1.85 KCAL/MOL
REMARK 927      BINDING AFFINITY PREDICTED BY RF-SCORE:    0.00 PKD
ROOT
HETATM    1  C   UNL     1      -6.244   9.083  65.256  1.00  0.00    -0.063 C  
HETATM    2  S   UNL     1      -6.644   9.391  67.000  1.00  0.00    -0.068 SA 
HETATM    3  C   UNL     1      -5.841   7.872  67.554  1.00  0.00    -0.038 C  
HETATM    4  C   UNL     1      -6.234   6.623  66.769  1.00  0.00    -0.040 C  
HETATM    5  CA  UNL     1      -6.776   6.650  65.519  1.00  0.00    -0.051 C  
HETATM    6  CA  UNL     1      -7.174   9.823  64.233  1.00  0.00    -0.129 C  
HETATM    7  O   UNL     1      -8.242   7.786  62.984  1.00  0.00    -0.122 OA 
HETATM    8  N   UNL     1      -6.887   7.846  64.856  1.00  0.00    -0.054 N  
HETATM    9  C   UNL     1      -7.325   5.376  64.897  1.00  0.00    -0.068 C  
HETATM   10  OXT UNL     1      -7.538   4.350  65.526  1.00  0.00    -0.083 OA 
HETATM   11  O   UNL     1      -7.502   5.391  63.562  1.00  0.00    -0.050 OA 
HETATM   12  C   UNL     1      -7.565   8.356  63.806  1.00  0.00    -0.135 C  
ENDROOT
BRANCH   4  13
HETATM   13  C   UNL     1      -6.052   5.380  67.646  1.00  0.00    -0.026 C  
BRANCH  13  14
HETATM   14  S   UNL     1      -7.563   4.698  68.374  1.00  0.00    -0.069 SA 
BRANCH  14  15
HETATM   15  C   UNL     1      -7.809   5.625  69.798  1.00  0.00    -0.087 A  
HETATM   16  N   UNL     1      -6.948   6.382  70.430  1.00  0.00    -0.062 NA 
HETATM   17  C   UNL     1     -10.246   5.020  70.169  1.00  0.00    -0.259 C  
HETATM   18  N   UNL     1      -7.614   6.872  71.530  1.00  0.00    -0.086 NA 
HETATM   19  N   UNL     1      -8.993   5.655  70.473  1.00  0.00    -0.136 NA 
HETATM   20  N   UNL     1      -8.864   6.431  71.564  1.00  0.00    -0.137 NA 
ENDBRANCH  14  15
ENDBRANCH  13  14
ENDBRANCH   4  13
BRANCH   6  21
HETATM   21  N   UNL     1      -8.267  10.623  64.864  1.00  0.00    -0.325 N  
HETATM   22  H   UNL     1      -8.071  11.106  65.741  1.00  0.00     0.000 HD 
HETATM   23  O   UNL     1      -9.788  10.347  63.182  1.00  0.00    -0.299 OA 
HETATM   24  C   UNL     1      -9.533  10.742  64.316  1.00  0.00    -0.264 C  
BRANCH  24  25
HETATM   25  CA  UNL     1     -10.612  11.235  65.329  1.00  0.00    -0.261 C  
BRANCH  25  26
HETATM   26  C   UNL     1     -10.518  10.469  66.653  1.00  0.00    -0.290 A  
HETATM   27  O   UNL     1     -10.384   8.445  70.299  1.00  0.00    -0.197 OA 
HETATM   28  C   UNL     1     -10.408   9.068  66.684  1.00  0.00    -0.289 A  
HETATM   29  C   UNL     1     -10.460  10.463  69.096  1.00  0.00    -0.248 A  
HETATM   30  C   UNL     1     -10.403   9.079  69.094  1.00  0.00    -0.219 A  
HETATM   31  C   UNL     1     -10.360   8.374  67.898  1.00  0.00    -0.279 A  
HETATM   32  H   UNL     1     -10.413   8.928  71.118  1.00  0.00     0.000 HD 
HETATM   33  C   UNL     1     -10.499  11.155  67.885  1.00  0.00    -0.220 A  
ENDBRANCH  25  26
BRANCH  25  34
HETATM   34  N   UNL     1     -10.393  12.681  65.531  1.00  0.00    -0.282 N  
HETATM   35  C   UNL     1     -11.433  13.584  65.500  1.00  0.00    -0.304 C  
HETATM   36  H   UNL     1      -9.446  13.020  65.698  1.00  0.00     0.000 HD 
HETATM   37  O   UNL     1     -12.611  13.261  65.388  1.00  0.00    -0.478 OA 
BRANCH  35  38
HETATM   38  C   UNL     1     -11.111  15.021  65.670  1.00  0.00    -0.349 A  
HETATM   39  O   UNL     1     -10.504  14.732  68.009  1.00  0.00    -0.241 OA 
HETATM   40  C   UNL     1     -10.670  15.518  66.899  1.00  0.00    -0.317 A  
HETATM   41  C   UNL     1     -10.613  17.723  65.980  1.00  0.00    -0.229 A  
HETATM   42  C   UNL     1     -10.395  16.873  67.056  1.00  0.00    -0.307 A  
HETATM   43  H   UNL     1     -10.204  15.070  68.844  1.00  0.00     0.000 HD 
HETATM   44  N   UNL     1     -11.048  17.272  64.777  1.00  0.00    -0.920 NA 
HETATM   45  C   UNL     1     -10.457  19.208  66.130  1.00  0.00    -0.558 C  
HETATM   46  C   UNL     1     -11.288  15.943  64.652  1.00  0.00    -0.322 A  
ENDBRANCH  35  38
ENDBRANCH  25  34
ENDBRANCH  24  25
ENDBRANCH   6  21
TORSDOF 8
ENDMDL
MODEL       51
REMARK 921   NORMALIZED FREE ENERGY PREDICTED BY IDOCK:   -6.12 KCAL/MOL
REMARK 922        TOTAL FREE ENERGY PREDICTED BY IDOCK:  -10.80 KCAL/MOL
REMARK 923 INTER-LIGAND FREE ENERGY PREDICTED BY IDOCK:   -8.72 KCAL/MOL
REMARK 924 INTRA-LIGAND FREE ENERGY PREDICTED BY IDOCK:   -2.08 KCAL/MOL
REMARK 927      BINDING AFFINITY PREDICTED BY RF-SCORE:    0.00 PKD
ROOT
HETATM    1  C   UNL     1     -10.702   8.057  69.967  1.00  0.00    -0.244 C  
HETATM    2  S   UNL     1     -10.626   7.443  68.261  1.00  0.00    -0.113 SA 
HETATM    3  C   UNL     1     -10.480   5.721  68.783  1.00  0.00    -0.242 C  
HETATM    4  C   UNL     1      -9.422   5.471  69.855  1.00  0.00    -0.203 C  
HETATM    5  CA  UNL     1      -8.924   6.440  70.673  1.00  0.00    -0.144 C  
HETATM    6  CA  UNL     1     -10.287   9.560  70.138  1.00  0.00    -0.255 C  
HETATM    7  O   UNL     1      -8.209   9.318  71.710  1.00  0.00    -0.287 OA 
HETATM    8  N   UNL     1      -9.462   7.702  70.630  1.00  0.00    -0.163 N  
HETATM    9  C   UNL     1      -7.731   6.146  71.568  1.00  0.00    -0.101 C  
HETATM   10  OXT UNL     1      -7.017   5.162  71.446  1.00  0.00    -0.049 OA 
HETATM   11  O   UNL     1      -7.526   6.999  72.590  1.00  0.00    -0.084 OA 
HETATM   12  C   UNL     1      -9.129   8.951  71.018  1.00  0.00    -0.243 C  
ENDROOT
BRANCH   4  13
HETATM   13  C   UNL     1      -8.928   4.023  69.769  1.00  0.00    -0.100 C  
BRANCH  13  14
HETATM   14  S   UNL     1      -8.470   3.441  68.116  1.00  0.00    -0.090 SA 
BRANCH  14  15
HETATM   15  C   UNL     1      -7.437   4.667  67.502  1.00  0.00    -0.078 A  
HETATM   16  N   UNL     1      -6.289   5.073  67.981  1.00  0.00    -0.035 NA 
HETATM   17  C   UNL     1      -8.857   5.324  65.503  1.00  0.00    -0.153 C  
HETATM   18  N   UNL     1      -5.880   6.099  67.160  1.00  0.00    -0.016 NA 
HETATM   19  N   UNL     1      -7.733   5.406  66.394  1.00  0.00    -0.098 NA 
HETATM   20  N   UNL     1      -6.758   6.309  66.189  1.00  0.00    -0.054 NA 
ENDBRANCH  14  15
ENDBRANCH  13  14
ENDBRANCH   4  13
BRANCH   6  21
HETATM   21  N   UNL     1      -9.854  10.226  68.872  1.00  0.00    -0.185 N  
HETATM   22  H   UNL     1      -9.266   9.701  68.224  1.00  0.00     0.000 HD 
HETATM   23  O   UNL     1     -11.058  12.145  69.169  1.00  0.00    -0.232 OA 
HETATM   24  C   UNL     1     -10.211  11.521  68.536  1.00  0.00    -0.213 C  
BRANCH  24  25
HETATM   25  CA  UNL     1      -9.314  12.151  67.426  1.00  0.00    -0.181 C  
BRANCH  25  26
HETATM   26  C   UNL     1     -10.148  12.565  66.209  1.00  0.00    -0.264 A  
HETATM   27  O   UNL     1     -12.533  13.637  62.959  1.00  0.00    -1.020 OA 
HETATM   28  C   UNL     1     -10.201  13.903  65.779  1.00  0.00    -0.331 A  
HETATM   29  C   UNL     1     -11.656  11.981  64.378  1.00  0.00    -0.411 A  
HETATM   30  C   UNL     1     -11.729  13.315  64.009  1.00  0.00    -0.430 A  
HETATM   31  C   UNL     1     -10.995  14.279  64.689  1.00  0.00    -0.379 A  
HETATM   32  H   UNL     1     -13.035  12.978  62.494  1.00  0.00     0.000 HD 
HETATM   33  C   UNL     1     -10.859  11.606  65.460  1.00  0.00    -0.334 A  
ENDBRANCH  25  26
BRANCH  25  34
HETATM   34  N   UNL     1      -8.629  13.313  68.026  1.00  0.00    -0.169 N  
HETATM   35  C   UNL     1      -7.300  13.580  67.781  1.00  0.00    -0.163 C  
HETATM   36  H   UNL     1      -9.155  13.936  68.638  1.00  0.00     0.000 HD 
HETATM   37  O   UNL     1      -6.611  12.937  66.996  1.00  0.00    -0.140 OA 
BRANCH  35  38
HETATM   38  C   UNL     1      -6.688  14.746  68.461  1.00  0.00    -0.097 A  
HETATM   39  O   UNL     1      -6.519  13.570  70.585  1.00  0.00    -0.399 OA 
HETATM   40  C   UNL     1      -6.333  14.686  69.812  1.00  0.00    -0.152 A  
HETATM   41  C   UNL     1      -5.639  16.971  69.725  1.00  0.00    -0.204 A  
HETATM   42  C   UNL     1      -5.783  15.794  70.448  1.00  0.00    -0.114 A  
HETATM   43  H   UNL     1      -6.277  13.530  71.503  1.00  0.00     0.000 HD 
HETATM   44  N   UNL     1      -5.982  17.063  68.416  1.00  0.00    -0.141 NA 
HETATM   45  C   UNL     1      -5.173  18.231  70.393  1.00  0.00    -0.252 C  
HETATM   46  C   UNL     1      -6.497  15.959  67.820  1.00  0.00    -0.156 A  
ENDBRANCH  35  38
ENDBRANCH  25  34
ENDBRANCH  24  25
ENDBRANCH   6  21
TORSDOF 8
ENDMDL
MODEL       52
REMARK 921   NORMALIZED FREE ENERGY PREDICTED BY IDOCK:   -6.11 KCAL/MOL
REMARK 922        TOTAL FREE ENERGY PREDICTED BY IDOCK:  -10.79 KCAL/MOL
REMARK 923 INTER-LIGAND FREE ENERGY PREDICTED BY IDOCK:   -8.66 KCAL/MOL
REMARK 924 INTRA-LIGAND FREE ENERGY PREDICTED BY IDOCK:   -2.13 KCAL/MOL
REMARK 927      BINDING AFFINITY PREDICTED BY RF-SCORE:    0.00 PKD
ROOT
HETATM    1  C   UNL     1      -5.126  11.292  68.707  1.00  0.00    -0.040 C  
HETATM    2  S   UNL     1      -6.308  11.311  70.085  1.00  0.00    -0.050 SA 
HETATM    3  C   UNL     1      -6.202   9.525  70.328  1.00  0.00    -0.061 C  
HETATM    4  C   UNL     1      -6.353   8.701  69.052  1.00  0.00    -0.044 C  
HETATM    5  CA  UNL     1      -6.153   9.196  67.799  1.00  0.00    -0.050 C  
HETATM    6  CA  UNL     1      -5.237  12.518  67.736  1.00  0.00    -0.101 C  
HETATM    7  O   UNL     1      -5.855  11.312  65.496  1.00  0.00    -0.069 OA 
HETATM    8  N   UNL     1      -5.683  10.476  67.646  1.00  0.00    -0.044 N  
HETATM    9  C   UNL     1      -6.522   8.364  66.581  1.00  0.00    -0.056 C  
HETATM   10  OXT UNL     1      -7.214   7.358  66.630  1.00  0.00    -0.076 OA 
HETATM   11  O   UNL     1      -5.975   8.743  65.410  1.00  0.00    -0.048 OA 
HETATM   12  C   UNL     1      -5.611  11.412  66.676  1.00  0.00    -0.138 C  
ENDROOT
BRANCH   4  13
HETATM   13  C   UNL     1      -6.883   7.305  69.397  1.00  0.00    -0.050 C  
BRANCH  13  14
HETATM   14  S   UNL     1      -8.570   7.239  70.050  1.00  0.00    -0.141 SA 
BRANCH  14  15
HETATM   15  C   UNL     1      -9.559   7.716  68.731  1.00  0.00    -0.153 A  
HETATM   16  N   UNL     1     -10.222   6.954  67.899  1.00  0.00    -0.162 NA 
HETATM   17  C   UNL     1      -9.266  10.225  68.990  1.00  0.00    -0.183 C  
HETATM   18  N   UNL     1     -10.820   7.808  67.001  1.00  0.00    -0.246 NA 
HETATM   19  N   UNL     1      -9.752   9.020  68.376  1.00  0.00    -0.153 NA 
HETATM   20  N   UNL     1     -10.537   9.072  67.286  1.00  0.00    -0.269 NA 
ENDBRANCH  14  15
ENDBRANCH  13  14
ENDBRANCH   4  13
BRANCH   6  21
HETATM   21  N   UNL     1      -6.331  13.477  68.079  1.00  0.00    -0.119 N  
HETATM   22  H   UNL     1      -7.167  13.116  68.539  1.00  0.00     0.000 HD 
HETATM   23  O   UNL     1      -5.227  15.367  67.426  1.00  0.00    -0.330 OA 
HETATM   24  C   UNL     1      -6.265  14.832  67.804  1.00  0.00    -0.139 C  
BRANCH  24  25
HETATM   25  CA  UNL     1      -7.650  15.548  67.838  1.00  0.00    -0.133 C  
BRANCH  25  26
HETATM   26  C   UNL     1      -7.524  17.018  67.426  1.00  0.00    -0.184 A  
HETATM   27  O   UNL     1      -7.067  21.034  66.393  1.00  0.00    -0.509 OA 
HETATM   28  C   UNL     1      -7.369  17.391  66.079  1.00  0.00    -0.265 A  
HETATM   29  C   UNL     1      -7.437  19.385  68.026  1.00  0.00    -0.316 A  
HETATM   30  C   UNL     1      -7.236  19.718  66.696  1.00  0.00    -0.233 A  
HETATM   31  C   UNL     1      -7.216  18.734  65.716  1.00  0.00    -0.235 A  
HETATM   32  H   UNL     1      -7.080  21.707  67.064  1.00  0.00     0.000 HD 
HETATM   33  C   UNL     1      -7.597  18.047  68.388  1.00  0.00    -0.288 A  
ENDBRANCH  25  26
BRANCH  25  34
HETATM   34  N   UNL     1      -8.544  14.812  66.922  1.00  0.00    -0.294 N  
HETATM   35  C   UNL     1      -9.869  14.586  67.226  1.00  0.00    -0.236 C  
HETATM   36  H   UNL     1      -8.171  14.461  66.041  1.00  0.00     0.000 HD 
HETATM   37  O   UNL     1     -10.426  15.038  68.221  1.00  0.00    -0.231 OA 
BRANCH  35  38
HETATM   38  C   UNL     1     -10.678  13.800  66.264  1.00  0.00    -0.285 A  
HETATM   39  O   UNL     1      -8.830  12.305  65.745  1.00  0.00    -0.406 OA 
HETATM   40  C   UNL     1     -10.127  12.714  65.579  1.00  0.00    -0.265 A  
HETATM   41  C   UNL     1     -12.187  12.417  64.404  1.00  0.00    -0.437 A  
HETATM   42  C   UNL     1     -10.887  11.999  64.659  1.00  0.00    -0.357 A  
HETATM   43  H   UNL     1      -8.456  11.567  65.280  1.00  0.00     0.000 HD 
HETATM   44  N   UNL     1     -12.747  13.472  65.047  1.00  0.00    -0.681 NA 
HETATM   45  C   UNL     1     -13.007  11.764  63.331  1.00  0.00    -0.177 C  
HETATM   46  C   UNL     1     -11.986  14.136  65.952  1.00  0.00    -0.409 A  
ENDBRANCH  35  38
ENDBRANCH  25  34
ENDBRANCH  24  25
ENDBRANCH   6  21
TORSDOF 8
ENDMDL
MODEL       53
REMARK 921   NORMALIZED FREE ENERGY PREDICTED BY IDOCK:   -6.09 KCAL/MOL
REMARK 922        TOTAL FREE ENERGY PREDICTED BY IDOCK:  -10.75 KCAL/MOL
REMARK 923 INTER-LIGAND FREE ENERGY PREDICTED BY IDOCK:   -8.73 KCAL/MOL
REMARK 924 INTRA-LIGAND FREE ENERGY PREDICTED BY IDOCK:   -2.02 KCAL/MOL
REMARK 927      BINDING AFFINITY PREDICTED BY RF-SCORE:    0.00 PKD
ROOT
HETATM    1  C   UNL     1     -10.642  12.115  66.446  1.00  0.00    -0.241 C  
HETATM    2  S   UNL     1     -11.875  11.719  67.718  1.00  0.00    -0.090 SA 
HETATM    3  C   UNL     1     -11.906  13.408  68.353  1.00  0.00    -0.366 C  
HETATM    4  C   UNL     1     -10.529  14.011  68.621  1.00  0.00    -0.249 C  
HETATM    5  CA  UNL     1      -9.376  13.551  68.060  1.00  0.00    -0.213 C  
HETATM    6  CA  UNL     1      -9.823  10.883  65.926  1.00  0.00    -0.236 C  
HETATM    7  O   UNL     1      -7.398  11.578  66.624  1.00  0.00    -0.133 OA 
HETATM    8  N   UNL     1      -9.433  12.561  67.112  1.00  0.00    -0.202 N  
HETATM    9  C   UNL     1      -8.032  14.077  68.538  1.00  0.00    -0.141 C  
HETATM   10  OXT UNL     1      -7.880  14.720  69.566  1.00  0.00    -0.140 OA 
HETATM   11  O   UNL     1      -6.983  13.868  67.720  1.00  0.00    -0.141 OA 
HETATM   12  C   UNL     1      -8.600  11.668  66.538  1.00  0.00    -0.164 C  
ENDROOT
BRANCH   4  13
HETATM   13  C   UNL     1     -10.639  15.096  69.697  1.00  0.00    -0.263 C  
BRANCH  13  14
HETATM   14  S   UNL     1     -12.319  15.610  70.134  1.00  0.00    -0.249 SA 
BRANCH  14  15
HETATM   15  C   UNL     1     -12.356  15.539  71.848  1.00  0.00    -0.395 A  
HETATM   16  N   UNL     1     -11.948  16.441  72.705  1.00  0.00    -0.549 NA 
HETATM   17  C   UNL     1     -13.407  13.238  72.061  1.00  0.00    -0.489 C  
HETATM   18  N   UNL     1     -12.152  15.896  73.952  1.00  0.00    -0.453 NA 
HETATM   19  N   UNL     1     -12.825  14.461  72.541  1.00  0.00    -0.368 NA 
HETATM   20  N   UNL     1     -12.687  14.686  73.860  1.00  0.00    -0.450 NA 
ENDBRANCH  14  15
ENDBRANCH  13  14
ENDBRANCH   4  13
BRANCH   6  21
HETATM   21  N   UNL     1     -10.162   9.591  66.598  1.00  0.00    -0.247 N  
HETATM   22  H   UNL     1     -10.986   9.558  67.198  1.00  0.00     0.000 HD 
HETATM   23  O   UNL     1      -8.522   8.349  65.605  1.00  0.00    -0.146 OA 
HETATM   24  C   UNL     1      -9.412   8.438  66.446  1.00  0.00    -0.227 C  
BRANCH  24  25
HETATM   25  CA  UNL     1      -9.675   7.368  67.550  1.00  0.00    -0.148 C  
BRANCH  25  26
HETATM   26  C   UNL     1      -9.449   5.951  67.012  1.00  0.00    -0.134 A  
HETATM   27  O   UNL     1      -8.812   2.049  65.681  1.00  0.00    -0.116 OA 
HETATM   28  C   UNL     1     -10.419   5.301  66.229  1.00  0.00    -0.311 A  
HETATM   29  C   UNL     1      -8.044   3.963  66.808  1.00  0.00    -0.096 A  
HETATM   30  C   UNL     1      -9.039   3.330  66.082  1.00  0.00    -0.153 A  
HETATM   31  C   UNL     1     -10.220   3.993  65.773  1.00  0.00    -0.059 A  
HETATM   32  H   UNL     1      -8.004   1.595  65.892  1.00  0.00     0.000 HD 
HETATM   33  C   UNL     1      -8.239   5.270  67.256  1.00  0.00    -0.104 A  
ENDBRANCH  25  26
BRANCH  25  34
HETATM   34  N   UNL     1      -8.764   7.665  68.673  1.00  0.00    -0.129 N  
HETATM   35  C   UNL     1      -9.170   7.558  69.985  1.00  0.00    -0.151 C  
HETATM   36  H   UNL     1      -7.809   7.958  68.472  1.00  0.00     0.000 HD 
HETATM   37  O   UNL     1     -10.270   7.136  70.325  1.00  0.00    -0.194 OA 
BRANCH  35  38
HETATM   38  C   UNL     1      -8.198   7.918  71.045  1.00  0.00    -0.100 A  
HETATM   39  O   UNL     1      -8.886   6.072  72.472  1.00  0.00    -0.132 OA 
HETATM   40  C   UNL     1      -8.105   7.170  72.221  1.00  0.00    -0.097 A  
HETATM   41  C   UNL     1      -6.443   8.677  73.043  1.00  0.00    -0.036 A  
HETATM   42  C   UNL     1      -7.208   7.531  73.220  1.00  0.00    -0.093 A  
HETATM   43  H   UNL     1      -8.823   5.563  73.272  1.00  0.00     0.000 HD 
HETATM   44  N   UNL     1      -6.515   9.429  71.917  1.00  0.00    -0.298 NA 
HETATM   45  C   UNL     1      -5.554   9.185  74.140  1.00  0.00    -0.113 C  
HETATM   46  C   UNL     1      -7.386   9.038  70.953  1.00  0.00    -0.111 A  
ENDBRANCH  35  38
ENDBRANCH  25  34
ENDBRANCH  24  25
ENDBRANCH   6  21
TORSDOF 8
ENDMDL
MODEL       54
REMARK 921   NORMALIZED FREE ENERGY PREDICTED BY IDOCK:   -6.07 KCAL/MOL
REMARK 922        TOTAL FREE ENERGY PREDICTED BY IDOCK:  -10.72 KCAL/MOL
REMARK 923 INTER-LIGAND FREE ENERGY PREDICTED BY IDOCK:   -8.35 KCAL/MOL
REMARK 924 INTRA-LIGAND FREE ENERGY PREDICTED BY IDOCK:   -2.37 KCAL/MOL
REMARK 927      BINDING AFFINITY PREDICTED BY RF-SCORE:    0.00 PKD
ROOT
HETATM    1  C   UNL     1      -9.818  11.620  65.572  1.00  0.00    -0.234 C  
HETATM    2  S   UNL     1     -11.375  11.394  66.477  1.00  0.00     0.001 SA 
HETATM    3  C   UNL     1     -11.318  13.054  67.186  1.00  0.00    -0.305 C  
HETATM    4  C   UNL     1      -9.979  13.428  67.818  1.00  0.00    -0.233 C  
HETATM    5  CA  UNL     1      -8.802  12.806  67.530  1.00  0.00    -0.187 C  
HETATM    6  CA  UNL     1      -9.084  10.287  65.195  1.00  0.00    -0.197 C  
HETATM    7  O   UNL     1      -6.837  10.580  66.505  1.00  0.00    -0.098 OA 
HETATM    8  N   UNL     1      -8.764  11.858  66.539  1.00  0.00    -0.185 N  
HETATM    9  C   UNL     1      -7.559  13.105  68.352  1.00  0.00    -0.133 C  
HETATM   10  OXT UNL     1      -7.578  13.694  69.423  1.00  0.00     0.144 OA 
HETATM   11  O   UNL     1      -6.381  12.753  67.804  1.00  0.00    -0.104 OA 
HETATM   12  C   UNL     1      -7.953  10.858  66.134  1.00  0.00    -0.155 C  
ENDROOT
BRANCH   4  13
HETATM   13  C   UNL     1     -10.196  14.494  68.897  1.00  0.00    -0.229 C  
BRANCH  13  14
HETATM   14  S   UNL     1     -11.919  14.931  69.242  1.00  0.00    -0.266 SA 
BRANCH  14  15
HETATM   15  C   UNL     1     -12.432  13.769  70.397  1.00  0.00    -0.314 A  
HETATM   16  N   UNL     1     -12.125  12.499  70.459  1.00  0.00    -0.345 NA 
HETATM   17  C   UNL     1     -13.877  15.315  71.800  1.00  0.00    -0.521 C  
HETATM   18  N   UNL     1     -12.819  11.995  71.535  1.00  0.00    -0.353 NA 
HETATM   19  N   UNL     1     -13.284  14.062  71.422  1.00  0.00    -0.340 NA 
HETATM   20  N   UNL     1     -13.531  12.944  72.128  1.00  0.00    -0.549 NA 
ENDBRANCH  14  15
ENDBRANCH  13  14
ENDBRANCH   4  13
BRANCH   6  21
HETATM   21  N   UNL     1      -9.765   9.050  65.685  1.00  0.00    -0.462 N  
HETATM   22  H   UNL     1     -10.740   9.117  65.979  1.00  0.00     0.000 HD 
HETATM   23  O   UNL     1      -8.035   7.620  65.259  1.00  0.00    -0.114 OA 
HETATM   24  C   UNL     1      -9.138   7.818  65.761  1.00  0.00    -0.011 C  
BRANCH  24  25
HETATM   25  CA  UNL     1      -9.868   6.799  66.689  1.00  0.00    -0.152 C  
BRANCH  25  26
HETATM   26  C   UNL     1      -9.558   5.356  66.276  1.00  0.00    -0.175 A  
HETATM   27  O   UNL     1      -8.674   1.475  65.025  1.00  0.00    -0.098 OA 
HETATM   28  C   UNL     1      -8.679   4.552  67.024  1.00  0.00    -0.104 A  
HETATM   29  C   UNL     1      -9.869   3.479  64.743  1.00  0.00    -0.152 A  
HETATM   30  C   UNL     1      -8.960   2.729  65.471  1.00  0.00    -0.135 A  
HETATM   31  C   UNL     1      -8.374   3.247  66.619  1.00  0.00    -0.102 A  
HETATM   32  H   UNL     1      -9.075   1.120  64.240  1.00  0.00     0.000 HD 
HETATM   33  C   UNL     1     -10.179   4.777  65.151  1.00  0.00     0.026 A  
ENDBRANCH  25  26
BRANCH  25  34
HETATM   34  N   UNL     1      -9.420   7.067  68.070  1.00  0.00    -0.126 N  
HETATM   35  C   UNL     1     -10.271   6.943  69.146  1.00  0.00    -0.187 C  
HETATM   36  H   UNL     1      -8.454   7.352  68.232  1.00  0.00     0.000 HD 
HETATM   37  O   UNL     1     -11.422   6.528  69.060  1.00  0.00    -0.283 OA 
BRANCH  35  38
HETATM   38  C   UNL     1      -9.743   7.275  70.491  1.00  0.00    -0.176 A  
HETATM   39  O   UNL     1     -11.204   9.207  70.720  1.00  0.00    -0.248 OA 
HETATM   40  C   UNL     1     -10.227   8.376  71.203  1.00  0.00    -0.202 A  
HETATM   41  C   UNL     1      -8.667   7.923  72.955  1.00  0.00    -0.202 A  
HETATM   42  C   UNL     1      -9.707   8.694  72.453  1.00  0.00    -0.313 A  
HETATM   43  H   UNL     1     -11.532   9.955  71.203  1.00  0.00     0.000 HD 
HETATM   44  N   UNL     1      -8.170   6.853  72.286  1.00  0.00    -0.104 NA 
HETATM   45  C   UNL     1      -7.983   8.297  74.237  1.00  0.00    -0.293 C  
HETATM   46  C   UNL     1      -8.712   6.558  71.078  1.00  0.00    -0.138 A  
ENDBRANCH  35  38
ENDBRANCH  25  34
ENDBRANCH  24  25
ENDBRANCH   6  21
TORSDOF 8
ENDMDL
MODEL       55
REMARK 921   NORMALIZED FREE ENERGY PREDICTED BY IDOCK:   -6.06 KCAL/MOL
REMARK 922        TOTAL FREE ENERGY PREDICTED BY IDOCK:  -10.71 KCAL/MOL
REMARK 923 INTER-LIGAND FREE ENERGY PREDICTED BY IDOCK:   -8.78 KCAL/MOL
REMARK 924 INTRA-LIGAND FREE ENERGY PREDICTED BY IDOCK:   -1.93 KCAL/MOL
REMARK 927      BINDING AFFINITY PREDICTED BY RF-SCORE:    0.00 PKD
ROOT
HETATM    1  C   UNL     1     -11.273  11.475  67.407  1.00  0.00    -0.304 C  
HETATM    2  S   UNL     1      -9.628  10.759  67.131  1.00  0.00    -0.162 SA 
HETATM    3  C   UNL     1     -10.105   9.155  67.808  1.00  0.00    -0.203 C  
HETATM    4  C   UNL     1     -10.821   9.222  69.155  1.00  0.00    -0.154 C  
HETATM    5  CA  UNL     1     -11.443  10.336  69.631  1.00  0.00    -0.235 C  
HETATM    6  CA  UNL     1     -11.296  13.040  67.499  1.00  0.00    -0.305 C  
HETATM    7  O   UNL     1     -12.188  13.373  69.937  1.00  0.00    -0.314 OA 
HETATM    8  N   UNL     1     -11.545  11.446  68.831  1.00  0.00    -0.293 N  
HETATM    9  C   UNL     1     -11.951  10.376  71.063  1.00  0.00    -0.382 C  
HETATM   10  OXT UNL     1     -11.636   9.561  71.918  1.00  0.00    -0.371 OA 
HETATM   11  O   UNL     1     -12.856  11.330  71.351  1.00  0.00    -0.406 OA 
HETATM   12  C   UNL     1     -11.802  12.765  68.967  1.00  0.00    -0.297 C  
ENDROOT
BRANCH   4  13
HETATM   13  C   UNL     1     -10.611   7.911  69.920  1.00  0.00    -0.242 C  
BRANCH  13  14
HETATM   14  S   UNL     1      -8.952   7.192  69.816  1.00  0.00    -0.141 SA 
BRANCH  14  15
HETATM   15  C   UNL     1      -9.226   5.528  69.493  1.00  0.00    -0.121 A  
HETATM   16  N   UNL     1      -9.631   4.599  70.320  1.00  0.00    -0.180 NA 
HETATM   17  C   UNL     1      -8.601   5.563  67.032  1.00  0.00    -0.109 C  
HETATM   18  N   UNL     1      -9.652   3.431  69.593  1.00  0.00    -0.146 NA 
HETATM   19  N   UNL     1      -9.016   4.962  68.270  1.00  0.00    -0.107 NA 
HETATM   20  N   UNL     1      -9.276   3.644  68.340  1.00  0.00    -0.149 NA 
ENDBRANCH  14  15
ENDBRANCH  13  14
ENDBRANCH   4  13
BRANCH   6  21
HETATM   21  N   UNL     1      -9.950  13.682  67.391  1.00  0.00    -0.231 N  
HETATM   22  H   UNL     1      -9.290  13.558  68.160  1.00  0.00     0.000 HD 
HETATM   23  O   UNL     1     -10.216  14.477  65.266  1.00  0.00    -0.367 OA 
HETATM   24  C   UNL     1      -9.555  14.436  66.300  1.00  0.00    -0.298 C  
BRANCH  24  25
HETATM   25  CA  UNL     1      -8.324  15.352  66.582  1.00  0.00    -0.220 C  
BRANCH  25  26
HETATM   26  C   UNL     1      -8.728  16.830  66.601  1.00  0.00    -0.281 A  
HETATM   27  O   UNL     1      -9.861  20.841  66.789  1.00  0.00    -0.620 OA 
HETATM   28  C   UNL     1      -7.822  17.842  66.234  1.00  0.00    -0.299 A  
HETATM   29  C   UNL     1     -10.399  18.564  67.015  1.00  0.00    -0.433 A  
HETATM   30  C   UNL     1      -9.469  19.541  66.696  1.00  0.00    -0.360 A  
HETATM   31  C   UNL     1      -8.187  19.192  66.289  1.00  0.00    -0.309 A  
HETATM   32  H   UNL     1     -10.738  21.080  67.068  1.00  0.00     0.000 HD 
HETATM   33  C   UNL     1     -10.037  17.218  66.952  1.00  0.00    -0.304 A  
ENDBRANCH  25  26
BRANCH  25  34
HETATM   34  N   UNL     1      -7.759  14.936  67.881  1.00  0.00    -0.129 N  
HETATM   35  C   UNL     1      -6.766  13.986  67.969  1.00  0.00    -0.144 C  
HETATM   36  H   UNL     1      -8.113  15.364  68.736  1.00  0.00     0.000 HD 
HETATM   37  O   UNL     1      -6.221  13.477  66.995  1.00  0.00    -0.099 OA 
BRANCH  35  38
HETATM   38  C   UNL     1      -6.290  13.601  69.320  1.00  0.00    -0.108 A  
HETATM   39  O   UNL     1      -6.174  11.241  68.739  1.00  0.00    -0.044 OA 
HETATM   40  C   UNL     1      -6.022  12.267  69.635  1.00  0.00    -0.121 A  
HETATM   41  C   UNL     1      -5.499  12.906  71.877  1.00  0.00     0.175 A  
HETATM   42  C   UNL     1      -5.601  11.912  70.913  1.00  0.00    -0.071 A  
HETATM   43  H   UNL     1      -5.992  10.334  68.953  1.00  0.00     0.000 HD 
HETATM   44  N   UNL     1      -5.760  14.209  71.605  1.00  0.00    -0.222 NA 
HETATM   45  C   UNL     1      -5.175  12.565  73.302  1.00  0.00     0.501 C  
HETATM   46  C   UNL     1      -6.150  14.524  70.344  1.00  0.00    -0.176 A  
ENDBRANCH  35  38
ENDBRANCH  25  34
ENDBRANCH  24  25
ENDBRANCH   6  21
TORSDOF 8
ENDMDL
MODEL       56
REMARK 921   NORMALIZED FREE ENERGY PREDICTED BY IDOCK:   -6.04 KCAL/MOL
REMARK 922        TOTAL FREE ENERGY PREDICTED BY IDOCK:  -10.68 KCAL/MOL
REMARK 923 INTER-LIGAND FREE ENERGY PREDICTED BY IDOCK:   -8.69 KCAL/MOL
REMARK 924 INTRA-LIGAND FREE ENERGY PREDICTED BY IDOCK:   -1.99 KCAL/MOL
REMARK 927      BINDING AFFINITY PREDICTED BY RF-SCORE:    0.00 PKD
ROOT
HETATM    1  C   UNL     1      -9.960   7.517  68.913  1.00  0.00    -0.168 C  
HETATM    2  S   UNL     1      -8.158   7.475  68.700  1.00  0.00    -0.125 SA 
HETATM    3  C   UNL     1      -7.933   6.255  70.011  1.00  0.00    -0.111 C  
HETATM    4  C   UNL     1      -8.657   6.583  71.315  1.00  0.00    -0.127 C  
HETATM    5  CA  UNL     1      -9.710   7.443  71.404  1.00  0.00    -0.167 C  
HETATM    6  CA  UNL     1     -10.648   8.826  68.390  1.00  0.00    -0.137 C  
HETATM    7  O   UNL     1     -11.684   9.753  70.608  1.00  0.00    -0.272 OA 
HETATM    8  N   UNL     1     -10.245   7.976  70.259  1.00  0.00    -0.197 N  
HETATM    9  C   UNL     1     -10.237   7.867  72.766  1.00  0.00    -0.314 C  
HETATM   10  OXT UNL     1      -9.636   7.681  73.814  1.00  0.00    -0.285 OA 
HETATM   11  O   UNL     1     -11.471   8.405  72.788  1.00  0.00    -0.350 OA 
HETATM   12  C   UNL     1     -11.042   9.007  69.907  1.00  0.00    -0.142 C  
ENDROOT
BRANCH   4  13
HETATM   13  C   UNL     1      -7.937   5.913  72.490  1.00  0.00    -0.102 C  
BRANCH  13  14
HETATM   14  S   UNL     1      -7.755   4.115  72.384  1.00  0.00    -0.083 SA 
BRANCH  14  15
HETATM   15  C   UNL     1      -9.287   3.501  72.859  1.00  0.00    -0.100 A  
HETATM   16  N   UNL     1     -10.070   3.930  73.816  1.00  0.00    -0.121 NA 
HETATM   17  C   UNL     1      -9.432   1.624  71.157  1.00  0.00    -0.125 C  
HETATM   18  N   UNL     1     -11.154   3.084  73.824  1.00  0.00    -0.220 NA 
HETATM   19  N   UNL     1      -9.874   2.422  72.266  1.00  0.00    -0.138 NA 
HETATM   20  N   UNL     1     -11.041   2.159  72.881  1.00  0.00    -0.065 NA 
ENDBRANCH  14  15
ENDBRANCH  13  14
ENDBRANCH   4  13
BRANCH   6  21
HETATM   21  N   UNL     1      -9.699   9.843  67.844  1.00  0.00    -0.139 N  
HETATM   22  H   UNL     1      -9.236  10.475  68.497  1.00  0.00     0.000 HD 
HETATM   23  O   UNL     1      -9.789   9.135  65.673  1.00  0.00    -0.264 OA 
HETATM   24  C   UNL     1      -9.418   9.970  66.494  1.00  0.00    -0.175 C  
BRANCH  24  25
HETATM   25  CA  UNL     1      -8.771  11.337  66.114  1.00  0.00    -0.179 C  
BRANCH  25  26
HETATM   26  C   UNL     1      -9.802  12.282  65.489  1.00  0.00    -0.223 A  
HETATM   27  O   UNL     1     -12.520  14.965  63.807  1.00  0.00    -1.048 OA 
HETATM   28  C   UNL     1     -10.322  12.053  64.203  1.00  0.00    -0.381 A  
HETATM   29  C   UNL     1     -11.196  14.284  65.627  1.00  0.00    -0.314 A  
HETATM   30  C   UNL     1     -11.652  14.060  64.338  1.00  0.00    -0.369 A  
HETATM   31  C   UNL     1     -11.236  12.942  63.625  1.00  0.00    -0.418 A  
HETATM   32  H   UNL     1     -12.804  15.729  64.295  1.00  0.00     0.000 HD 
HETATM   33  C   UNL     1     -10.291  13.394  66.206  1.00  0.00    -0.291 A  
ENDBRANCH  25  26
BRANCH  25  34
HETATM   34  N   UNL     1      -8.200  11.909  67.349  1.00  0.00    -0.156 N  
HETATM   35  C   UNL     1      -6.842  12.059  67.520  1.00  0.00    -0.128 C  
HETATM   36  H   UNL     1      -8.829  12.201  68.096  1.00  0.00     0.000 HD 
HETATM   37  O   UNL     1      -6.015  11.814  66.648  1.00  0.00    -0.144 OA 
BRANCH  35  38
HETATM   38  C   UNL     1      -6.360  12.604  68.812  1.00  0.00    -0.080 A  
HETATM   39  O   UNL     1      -5.361  10.485  69.470  1.00  0.00    -0.038 OA 
HETATM   40  C   UNL     1      -5.654  11.801  69.712  1.00  0.00    -0.091 A  
HETATM   41  C   UNL     1      -5.561  13.624  71.255  1.00  0.00    -0.214 A  
HETATM   42  C   UNL     1      -5.228  12.314  70.933  1.00  0.00    -0.153 A  
HETATM   43  H   UNL     1      -4.881   9.940  70.082  1.00  0.00     0.000 HD 
HETATM   44  N   UNL     1      -6.251  14.425  70.406  1.00  0.00    -0.179 NA 
HETATM   45  C   UNL     1      -5.240  14.187  72.608  1.00  0.00    -0.243 C  
HETATM   46  C   UNL     1      -6.635  13.900  69.215  1.00  0.00    -0.113 A  
ENDBRANCH  35  38
ENDBRANCH  25  34
ENDBRANCH  24  25
ENDBRANCH   6  21
TORSDOF 8
ENDMDL
MODEL       57
REMARK 921   NORMALIZED FREE ENERGY PREDICTED BY IDOCK:   -5.99 KCAL/MOL
REMARK 922        TOTAL FREE ENERGY PREDICTED BY IDOCK:  -10.61 KCAL/MOL
REMARK 923 INTER-LIGAND FREE ENERGY PREDICTED BY IDOCK:   -7.99 KCAL/MOL
REMARK 924 INTRA-LIGAND FREE ENERGY PREDICTED BY IDOCK:   -2.62 KCAL/MOL
REMARK 927      BINDING AFFINITY PREDICTED BY RF-SCORE:    0.00 PKD
ROOT
HETATM    1  C   UNL     1     -11.390  10.718  67.400  1.00  0.00    -0.160 C  
HETATM    2  S   UNL     1     -11.104  11.210  69.123  1.00  0.00    -0.270 SA 
HETATM    3  C   UNL     1     -12.005  12.763  68.932  1.00  0.00    -0.244 C  
HETATM    4  C   UNL     1     -11.607  13.581  67.707  1.00  0.00    -0.374 C  
HETATM    5  CA  UNL     1     -10.976  13.061  66.617  1.00  0.00    -0.279 C  
HETATM    6  CA  UNL     1     -10.359   9.677  66.839  1.00  0.00    -0.238 C  
HETATM    7  O   UNL     1      -9.287  11.054  64.888  1.00  0.00    -0.211 OA 
HETATM    8  N   UNL     1     -10.770  11.707  66.539  1.00  0.00    -0.260 N  
HETATM    9  C   UNL     1     -10.436  13.981  65.535  1.00  0.00    -0.327 C  
HETATM   10  OXT UNL     1     -10.311  15.190  65.671  1.00  0.00    -0.305 OA 
HETATM   11  O   UNL     1     -10.163  13.411  64.346  1.00  0.00    -0.401 OA 
HETATM   12  C   UNL     1      -9.999  10.845  65.843  1.00  0.00    -0.243 C  
ENDROOT
BRANCH   4  13
HETATM   13  C   UNL     1     -11.903  15.064  67.955  1.00  0.00    -0.241 C  
BRANCH  13  14
HETATM   14  S   UNL     1     -11.240  15.755  69.492  1.00  0.00    -0.347 SA 
BRANCH  14  15
HETATM   15  C   UNL     1      -9.678  16.324  69.067  1.00  0.00    -0.252 A  
HETATM   16  N   UNL     1      -8.518  15.772  69.320  1.00  0.00    -0.252 NA 
HETATM   17  C   UNL     1     -10.411  18.444  67.878  1.00  0.00    -0.401 C  
HETATM   18  N   UNL     1      -7.572  16.632  68.813  1.00  0.00    -0.215 NA 
HETATM   19  N   UNL     1      -9.466  17.495  68.400  1.00  0.00    -0.283 NA 
HETATM   20  N   UNL     1      -8.144  17.688  68.250  1.00  0.00    -0.268 NA 
ENDBRANCH  14  15
ENDBRANCH  13  14
ENDBRANCH   4  13
BRANCH   6  21
HETATM   21  N   UNL     1      -9.283   9.298  67.804  1.00  0.00    -0.129 N  
HETATM   22  H   UNL     1      -9.435   9.477  68.797  1.00  0.00     0.000 HD 
HETATM   23  O   UNL     1      -7.909   8.303  66.274  1.00  0.00    -0.094 OA 
HETATM   24  C   UNL     1      -8.088   8.715  67.417  1.00  0.00    -0.102 C  
BRANCH  24  25
HETATM   25  CA  UNL     1      -6.965   8.810  68.494  1.00  0.00    -0.065 C  
BRANCH  25  26
HETATM   26  C   UNL     1      -6.573  10.268  68.757  1.00  0.00    -0.052 A  
HETATM   27  O   UNL     1      -5.630  14.279  69.414  1.00  0.00    -0.086 OA 
HETATM   28  C   UNL     1      -6.266  10.722  70.052  1.00  0.00    -0.119 A  
HETATM   29  C   UNL     1      -6.160  12.531  67.934  1.00  0.00    -0.101 A  
HETATM   30  C   UNL     1      -5.912  12.960  69.228  1.00  0.00    -0.093 A  
HETATM   31  C   UNL     1      -5.945  12.064  70.289  1.00  0.00    -0.143 A  
HETATM   32  H   UNL     1      -5.607  14.892  68.688  1.00  0.00     0.000 HD 
HETATM   33  C   UNL     1      -6.472  11.192  67.697  1.00  0.00    -0.065 A  
ENDBRANCH  25  26
BRANCH  25  34
HETATM   34  N   UNL     1      -7.478   8.166  69.719  1.00  0.00    -0.082 N  
HETATM   35  C   UNL     1      -7.730   6.813  69.776  1.00  0.00    -0.113 C  
HETATM   36  H   UNL     1      -7.651   8.737  70.545  1.00  0.00     0.000 HD 
HETATM   37  O   UNL     1      -7.476   6.034  68.863  1.00  0.00    -0.082 OA 
BRANCH  35  38
HETATM   38  C   UNL     1      -8.285   6.262  71.036  1.00  0.00    -0.123 A  
HETATM   39  O   UNL     1      -7.003   4.203  70.842  1.00  0.00    -0.032 OA 
HETATM   40  C   UNL     1      -7.901   5.001  71.500  1.00  0.00    -0.110 A  
HETATM   41  C   UNL     1      -9.413   5.223  73.337  1.00  0.00    -0.137 A  
HETATM   42  C   UNL     1      -8.447   4.482  72.670  1.00  0.00    -0.114 A  
HETATM   43  H   UNL     1      -6.742   3.346  71.157  1.00  0.00     0.000 HD 
HETATM   44  N   UNL     1      -9.813   6.446  72.907  1.00  0.00    -0.165 NA 
HETATM   45  C   UNL     1     -10.128   4.658  74.529  1.00  0.00    -0.266 C  
HETATM   46  C   UNL     1      -9.247   6.932  71.774  1.00  0.00    -0.142 A  
ENDBRANCH  35  38
ENDBRANCH  25  34
ENDBRANCH  24  25
ENDBRANCH   6  21
TORSDOF 8
ENDMDL
MODEL       58
REMARK 921   NORMALIZED FREE ENERGY PREDICTED BY IDOCK:   -5.97 KCAL/MOL
REMARK 922        TOTAL FREE ENERGY PREDICTED BY IDOCK:  -10.58 KCAL/MOL
REMARK 923 INTER-LIGAND FREE ENERGY PREDICTED BY IDOCK:   -8.13 KCAL/MOL
REMARK 924 INTRA-LIGAND FREE ENERGY PREDICTED BY IDOCK:   -2.45 KCAL/MOL
REMARK 927      BINDING AFFINITY PREDICTED BY RF-SCORE:    0.00 PKD
ROOT
HETATM    1  C   UNL     1     -10.150  11.771  65.904  1.00  0.00    -0.234 C  
HETATM    2  S   UNL     1     -11.444  11.615  67.168  1.00  0.00    -0.210 SA 
HETATM    3  C   UNL     1     -11.294  13.341  67.674  1.00  0.00    -0.296 C  
HETATM    4  C   UNL     1      -9.863  13.805  67.934  1.00  0.00    -0.232 C  
HETATM    5  CA  UNL     1      -8.759  13.177  67.441  1.00  0.00    -0.206 C  
HETATM    6  CA  UNL     1      -9.467  10.419  65.500  1.00  0.00    -0.215 C  
HETATM    7  O   UNL     1      -6.992  10.889  66.210  1.00  0.00    -0.130 OA 
HETATM    8  N   UNL     1      -8.911  12.129  66.568  1.00  0.00    -0.203 N  
HETATM    9  C   UNL     1      -7.373  13.583  67.915  1.00  0.00    -0.149 C  
HETATM   10  OXT UNL     1      -7.169  14.283  68.896  1.00  0.00    -0.116 OA 
HETATM   11  O   UNL     1      -6.339  13.196  67.144  1.00  0.00    -0.257 OA 
HETATM   12  C   UNL     1      -8.174  11.107  66.085  1.00  0.00    -0.128 C  
ENDROOT
BRANCH   4  13
HETATM   13  C   UNL     1      -9.868  14.975  68.923  1.00  0.00    -0.233 C  
BRANCH  13  14
HETATM   14  S   UNL     1     -11.199  16.184  68.709  1.00  0.00    -0.358 SA 
BRANCH  14  15
HETATM   15  C   UNL     1     -10.479  17.458  67.812  1.00  0.00    -0.376 A  
HETATM   16  N   UNL     1     -10.031  18.606  68.252  1.00  0.00    -0.364 NA 
HETATM   17  C   UNL     1     -10.610  16.365  65.524  1.00  0.00    -0.330 C  
HETATM   18  N   UNL     1      -9.593  19.291  67.142  1.00  0.00    -0.316 NA 
HETATM   19  N   UNL     1     -10.309  17.414  66.459  1.00  0.00    -0.328 NA 
HETATM   20  N   UNL     1      -9.761  18.569  66.042  1.00  0.00    -0.516 NA 
ENDBRANCH  14  15
ENDBRANCH  13  14
ENDBRANCH   4  13
BRANCH   6  21
HETATM   21  N   UNL     1      -9.963   9.229  66.257  1.00  0.00    -0.287 N  
HETATM   22  H   UNL     1     -10.803   9.332  66.827  1.00  0.00     0.000 HD 
HETATM   23  O   UNL     1      -8.441   7.743  65.423  1.00  0.00    -0.141 OA 
HETATM   24  C   UNL     1      -9.339   7.994  66.222  1.00  0.00    -0.184 C  
BRANCH  24  25
HETATM   25  CA  UNL     1      -9.749   7.050  67.394  1.00  0.00    -0.141 C  
BRANCH  25  26
HETATM   26  C   UNL     1      -9.642   5.578  66.983  1.00  0.00    -0.144 A  
HETATM   27  O   UNL     1      -9.301   1.611  65.737  1.00  0.00    -0.304 OA 
HETATM   28  C   UNL     1      -8.885   4.661  67.734  1.00  0.00    -0.115 A  
HETATM   29  C   UNL     1     -10.205   3.762  65.449  1.00  0.00     0.031 A  
HETATM   30  C   UNL     1      -9.411   2.893  66.181  1.00  0.00    -0.042 A  
HETATM   31  C   UNL     1      -8.763   3.326  67.331  1.00  0.00    -0.136 A  
HETATM   32  H   UNL     1      -9.744   1.315  64.950  1.00  0.00     0.000 HD 
HETATM   33  C   UNL     1     -10.333   5.090  65.856  1.00  0.00    -0.223 A  
ENDBRANCH  25  26
BRANCH  25  34
HETATM   34  N   UNL     1      -8.857   7.354  68.531  1.00  0.00    -0.127 N  
HETATM   35  C   UNL     1      -9.162   8.331  69.453  1.00  0.00    -0.155 C  
HETATM   36  H   UNL     1      -7.992   6.826  68.637  1.00  0.00     0.000 HD 
HETATM   37  O   UNL     1     -10.215   8.960  69.454  1.00  0.00    -0.197 OA 
BRANCH  35  38
HETATM   38  C   UNL     1      -8.185   8.594  70.536  1.00  0.00    -0.127 A  
HETATM   39  O   UNL     1      -6.539   9.509  68.995  1.00  0.00    -0.049 OA 
HETATM   40  C   UNL     1      -6.938   9.161  70.259  1.00  0.00    -0.059 A  
HETATM   41  C   UNL     1      -6.348   8.980  72.567  1.00  0.00     0.101 A  
HETATM   42  C   UNL     1      -6.018   9.380  71.279  1.00  0.00    -0.076 A  
HETATM   43  H   UNL     1      -5.692   9.894  68.806  1.00  0.00     0.000 HD 
HETATM   44  N   UNL     1      -7.547   8.420  72.867  1.00  0.00    -0.289 NA 
HETATM   45  C   UNL     1      -5.347   9.073  73.681  1.00  0.00    -0.106 C  
HETATM   46  C   UNL     1      -8.429   8.238  71.853  1.00  0.00    -0.160 A  
ENDBRANCH  35  38
ENDBRANCH  25  34
ENDBRANCH  24  25
ENDBRANCH   6  21
TORSDOF 8
ENDMDL
MODEL       59
REMARK 921   NORMALIZED FREE ENERGY PREDICTED BY IDOCK:   -5.94 KCAL/MOL
REMARK 922        TOTAL FREE ENERGY PREDICTED BY IDOCK:  -10.54 KCAL/MOL
REMARK 923 INTER-LIGAND FREE ENERGY PREDICTED BY IDOCK:   -9.72 KCAL/MOL
REMARK 924 INTRA-LIGAND FREE ENERGY PREDICTED BY IDOCK:   -0.82 KCAL/MOL
REMARK 927      BINDING AFFINITY PREDICTED BY RF-SCORE:    0.00 PKD
ROOT
HETATM    1  C   UNL     1     -11.545  14.116  67.848  1.00  0.00    -0.338 C  
HETATM    2  S   UNL     1     -10.284  13.022  68.561  1.00  0.00    -0.174 SA 
HETATM    3  C   UNL     1      -9.301  14.400  69.186  1.00  0.00     0.064 C  
HETATM    4  C   UNL     1      -9.032  15.503  68.165  1.00  0.00    -0.179 C  
HETATM    5  CA  UNL     1      -9.777  15.697  67.042  1.00  0.00    -0.227 C  
HETATM    6  CA  UNL     1     -12.388  13.474  66.692  1.00  0.00    -0.297 C  
HETATM    7  O   UNL     1     -11.773  15.059  64.701  1.00  0.00    -0.414 OA 
HETATM    8  N   UNL     1     -10.907  14.945  66.843  1.00  0.00    -0.313 N  
HETATM    9  C   UNL     1      -9.318  16.685  65.981  1.00  0.00    -0.235 C  
HETATM   10  OXT UNL     1      -8.193  17.161  65.938  1.00  0.00    -0.526 OA 
HETATM   11  O   UNL     1     -10.251  17.094  65.101  1.00  0.00    -0.494 OA 
HETATM   12  C   UNL     1     -11.731  14.616  65.825  1.00  0.00    -0.302 C  
ENDROOT
BRANCH   4  13
HETATM   13  C   UNL     1      -7.742  16.245  68.531  1.00  0.00    -0.189 C  
BRANCH  13  14
HETATM   14  S   UNL     1      -6.204  15.320  68.296  1.00  0.00    -0.131 SA 
BRANCH  14  15
HETATM   15  C   UNL     1      -5.942  14.536  69.801  1.00  0.00    -0.122 A  
HETATM   16  N   UNL     1      -5.633  15.075  70.952  1.00  0.00    -0.123 NA 
HETATM   17  C   UNL     1      -6.344  12.158  69.008  1.00  0.00    -0.087 C  
HETATM   18  N   UNL     1      -5.490  14.028  71.833  1.00  0.00    -0.218 NA 
HETATM   19  N   UNL     1      -6.011  13.182  69.959  1.00  0.00    -0.136 NA 
HETATM   20  N   UNL     1      -5.718  12.868  71.233  1.00  0.00    -0.351 NA 
ENDBRANCH  14  15
ENDBRANCH  13  14
ENDBRANCH   4  13
BRANCH   6  21
HETATM   21  N   UNL     1     -11.982  12.080  66.336  1.00  0.00    -0.171 N  
HETATM   22  H   UNL     1     -12.428  11.305  66.826  1.00  0.00     0.000 HD 
HETATM   23  O   UNL     1     -10.587  12.652  64.619  1.00  0.00    -0.300 OA 
HETATM   24  C   UNL     1     -11.029  11.790  65.374  1.00  0.00    -0.297 C  
BRANCH  24  25
HETATM   25  CA  UNL     1     -10.454  10.344  65.476  1.00  0.00    -0.122 C  
BRANCH  25  26
HETATM   26  C   UNL     1      -9.094  10.239  64.779  1.00  0.00    -0.256 A  
HETATM   27  O   UNL     1      -5.355   9.847  62.969  1.00  0.00    -0.085 OA 
HETATM   28  C   UNL     1      -8.995  10.035  63.392  1.00  0.00    -0.277 A  
HETATM   29  C   UNL     1      -6.653  10.245  64.888  1.00  0.00    -0.105 A  
HETATM   30  C   UNL     1      -6.588   9.993  63.527  1.00  0.00    -0.132 A  
HETATM   31  C   UNL     1      -7.749   9.904  62.768  1.00  0.00    -0.131 A  
HETATM   32  H   UNL     1      -4.561   9.909  63.488  1.00  0.00     0.000 HD 
HETATM   33  C   UNL     1      -7.895  10.384  65.508  1.00  0.00    -0.152 A  
ENDBRANCH  25  26
BRANCH  25  34
HETATM   34  N   UNL     1     -10.346  10.017  66.912  1.00  0.00    -0.235 N  
HETATM   35  C   UNL     1     -10.438   8.722  67.371  1.00  0.00    -0.279 C  
HETATM   36  H   UNL     1     -10.199  10.771  67.582  1.00  0.00     0.000 HD 
HETATM   37  O   UNL     1     -10.531   7.744  66.636  1.00  0.00    -0.292 OA 
BRANCH  35  38
HETATM   38  C   UNL     1     -10.360   8.495  68.834  1.00  0.00    -0.226 A  
HETATM   39  O   UNL     1     -11.809  10.387  69.325  1.00  0.00    -0.466 OA 
HETATM   40  C   UNL     1     -11.038   9.328  69.728  1.00  0.00    -0.150 A  
HETATM   41  C   UNL     1     -10.113   8.105  71.561  1.00  0.00    -0.188 A  
HETATM   42  C   UNL     1     -10.938   9.123  71.100  1.00  0.00    -0.390 A  
HETATM   43  H   UNL     1     -12.270  10.953  69.933  1.00  0.00     0.000 HD 
HETATM   44  N   UNL     1      -9.435   7.286  70.719  1.00  0.00    -0.164 NA 
HETATM   45  C   UNL     1      -9.866   7.921  73.029  1.00  0.00    -0.355 C  
HETATM   46  C   UNL     1      -9.570   7.500  69.386  1.00  0.00    -0.155 A  
ENDBRANCH  35  38
ENDBRANCH  25  34
ENDBRANCH  24  25
ENDBRANCH   6  21
TORSDOF 8
ENDMDL
MODEL       60
REMARK 921   NORMALIZED FREE ENERGY PREDICTED BY IDOCK:   -5.94 KCAL/MOL
REMARK 922        TOTAL FREE ENERGY PREDICTED BY IDOCK:  -10.53 KCAL/MOL
REMARK 923 INTER-LIGAND FREE ENERGY PREDICTED BY IDOCK:   -8.20 KCAL/MOL
REMARK 924 INTRA-LIGAND FREE ENERGY PREDICTED BY IDOCK:   -2.33 KCAL/MOL
REMARK 927      BINDING AFFINITY PREDICTED BY RF-SCORE:    0.00 PKD
ROOT
HETATM    1  C   UNL     1      -8.048  10.366  69.331  1.00  0.00    -0.155 C  
HETATM    2  S   UNL     1      -8.095  11.303  67.777  1.00  0.00    -0.124 SA 
HETATM    3  C   UNL     1      -9.153  12.590  68.471  1.00  0.00    -0.061 C  
HETATM    4  C   UNL     1     -10.377  12.071  69.221  1.00  0.00     0.163 C  
HETATM    5  CA  UNL     1     -10.483  10.808  69.720  1.00  0.00    -0.083 C  
HETATM    6  CA  UNL     1      -7.704   8.845  69.166  1.00  0.00    -0.092 C  
HETATM    7  O   UNL     1      -9.889   7.746  70.099  1.00  0.00    -0.183 OA 
HETATM    8  N   UNL     1      -9.403   9.963  69.657  1.00  0.00    -0.217 N  
HETATM    9  C   UNL     1     -11.810  10.313  70.271  1.00  0.00    -0.288 C  
HETATM   10  OXT UNL     1     -12.876  10.883  70.089  1.00  0.00    -0.244 OA 
HETATM   11  O   UNL     1     -11.761   9.224  71.062  1.00  0.00    -0.280 OA 
HETATM   12  C   UNL     1      -9.153   8.641  69.755  1.00  0.00    -0.150 C  
ENDROOT
BRANCH   4  13
HETATM   13  C   UNL     1     -11.485  13.128  69.201  1.00  0.00    -0.305 C  
BRANCH  13  14
HETATM   14  S   UNL     1     -11.927  13.779  67.570  1.00  0.00    -0.338 SA 
BRANCH  14  15
HETATM   15  C   UNL     1     -11.370  15.402  67.591  1.00  0.00    -0.290 A  
HETATM   16  N   UNL     1     -11.403  16.257  68.581  1.00  0.00    -0.361 NA 
HETATM   17  C   UNL     1     -10.538  15.496  65.194  1.00  0.00    -0.431 C  
HETATM   18  N   UNL     1     -10.879  17.429  68.085  1.00  0.00    -0.341 NA 
HETATM   19  N   UNL     1     -10.819  16.016  66.504  1.00  0.00    -0.230 NA 
HETATM   20  N   UNL     1     -10.521  17.290  66.816  1.00  0.00    -0.295 NA 
ENDBRANCH  14  15
ENDBRANCH  13  14
ENDBRANCH   4  13
BRANCH   6  21
HETATM   21  N   UNL     1      -7.517   8.408  67.749  1.00  0.00    -0.096 N  
HETATM   22  H   UNL     1      -7.390   9.123  67.033  1.00  0.00     0.000 HD 
HETATM   23  O   UNL     1      -7.468   6.165  68.179  1.00  0.00    -0.086 OA 
HETATM   24  C   UNL     1      -7.507   7.079  67.360  1.00  0.00    -0.097 C  
BRANCH  24  25
HETATM   25  CA  UNL     1      -7.740   6.870  65.833  1.00  0.00    -0.098 C  
BRANCH  25  26
HETATM   26  C   UNL     1      -8.283   5.467  65.543  1.00  0.00    -0.127 A  
HETATM   27  O   UNL     1      -9.851   1.703  64.660  1.00  0.00    -0.317 OA 
HETATM   28  C   UNL     1      -7.439   4.432  65.101  1.00  0.00    -0.073 A  
HETATM   29  C   UNL     1     -10.153   3.899  65.443  1.00  0.00    -0.099 A  
HETATM   30  C   UNL     1      -9.306   2.913  64.961  1.00  0.00    -0.133 A  
HETATM   31  C   UNL     1      -7.949   3.163  64.803  1.00  0.00    -0.086 A  
HETATM   32  H   UNL     1     -10.780   1.532  64.769  1.00  0.00     0.000 HD 
HETATM   33  C   UNL     1      -9.643   5.161  65.748  1.00  0.00    -0.138 A  
ENDBRANCH  25  26
BRANCH  25  34
HETATM   34  N   UNL     1      -8.687   7.912  65.389  1.00  0.00    -0.339 N  
HETATM   35  C   UNL     1      -8.256   9.111  64.866  1.00  0.00    -0.153 C  
HETATM   36  H   UNL     1      -9.689   7.739  65.472  1.00  0.00     0.000 HD 
HETATM   37  O   UNL     1      -7.077   9.375  64.651  1.00  0.00    -0.094 OA 
BRANCH  35  38
HETATM   38  C   UNL     1      -9.280  10.113  64.487  1.00  0.00    -0.305 A  
HETATM   39  O   UNL     1     -10.617   9.675  66.472  1.00  0.00    -0.174 OA 
HETATM   40  C   UNL     1     -10.396  10.342  65.296  1.00  0.00    -0.197 A  
HETATM   41  C   UNL     1     -11.223  11.918  63.701  1.00  0.00    -0.441 A  
HETATM   42  C   UNL     1     -11.366  11.266  64.919  1.00  0.00    -0.023 A  
HETATM   43  H   UNL     1     -11.375   9.831  67.022  1.00  0.00     0.000 HD 
HETATM   44  N   UNL     1     -10.156  11.711  62.890  1.00  0.00    -0.258 NA 
HETATM   45  C   UNL     1     -12.299  12.827  63.185  1.00  0.00    -0.278 C  
HETATM   46  C   UNL     1      -9.218  10.818  63.296  1.00  0.00    -0.283 A  
ENDBRANCH  35  38
ENDBRANCH  25  34
ENDBRANCH  24  25
ENDBRANCH   6  21
TORSDOF 8
ENDMDL
MODEL       61
REMARK 921   NORMALIZED FREE ENERGY PREDICTED BY IDOCK:   -5.93 KCAL/MOL
REMARK 922        TOTAL FREE ENERGY PREDICTED BY IDOCK:  -10.52 KCAL/MOL
REMARK 923 INTER-LIGAND FREE ENERGY PREDICTED BY IDOCK:   -7.91 KCAL/MOL
REMARK 924 INTRA-LIGAND FREE ENERGY PREDICTED BY IDOCK:   -2.60 KCAL/MOL
REMARK 927      BINDING AFFINITY PREDICTED BY RF-SCORE:    0.00 PKD
ROOT
HETATM    1  C   UNL     1      -8.970   8.325  65.671  1.00  0.00    -0.109 C  
HETATM    2  S   UNL     1      -7.422   8.789  66.497  1.00  0.00    -0.085 SA 
HETATM    3  C   UNL     1      -6.561   7.307  65.931  1.00  0.00    -0.052 C  
HETATM    4  C   UNL     1      -7.323   6.004  66.159  1.00  0.00    -0.081 C  
HETATM    5  CA  UNL     1      -8.669   5.935  66.356  1.00  0.00    -0.131 C  
HETATM    6  CA  UNL     1     -10.256   8.993  66.272  1.00  0.00    -0.167 C  
HETATM    7  O   UNL     1     -11.580   6.879  67.064  1.00  0.00     0.072 OA 
HETATM    8  N   UNL     1      -9.428   7.072  66.241  1.00  0.00    -0.123 N  
HETATM    9  C   UNL     1      -9.313   4.624  66.777  1.00  0.00    -0.146 C  
HETATM   10  OXT UNL     1      -8.685   3.660  67.190  1.00  0.00    -0.105 OA 
HETATM   11  O   UNL     1     -10.645   4.528  66.601  1.00  0.00    -0.112 OA 
HETATM   12  C   UNL     1     -10.655   7.503  66.600  1.00  0.00    -0.039 C  
ENDROOT
BRANCH   4  13
HETATM   13  C   UNL     1      -6.335   4.837  66.263  1.00  0.00    -0.036 C  
BRANCH  13  14
HETATM   14  S   UNL     1      -5.253   4.845  67.715  1.00  0.00    -0.011 SA 
BRANCH  14  15
HETATM   15  C   UNL     1      -6.322   5.041  69.044  1.00  0.00    -0.031 A  
HETATM   16  N   UNL     1      -6.806   6.153  69.537  1.00  0.00    -0.063 NA 
HETATM   17  C   UNL     1      -6.576   2.584  69.629  1.00  0.00    -0.033 C  
HETATM   18  N   UNL     1      -7.573   5.784  70.617  1.00  0.00    -0.089 NA 
HETATM   19  N   UNL     1      -6.790   3.996  69.785  1.00  0.00    -0.040 NA 
HETATM   20  N   UNL     1      -7.568   4.468  70.776  1.00  0.00    -0.052 NA 
ENDBRANCH  14  15
ENDBRANCH  13  14
ENDBRANCH   4  13
BRANCH   6  21
HETATM   21  N   UNL     1      -9.997   9.867  67.457  1.00  0.00    -0.176 N  
HETATM   22  H   UNL     1      -9.109   9.769  67.948  1.00  0.00     0.000 HD 
HETATM   23  O   UNL     1     -11.908  11.107  67.280  1.00  0.00    -0.525 OA 
HETATM   24  C   UNL     1     -10.906  10.803  67.921  1.00  0.00    -0.264 C  
BRANCH  24  25
HETATM   25  CA  UNL     1     -10.632  11.272  69.383  1.00  0.00    -0.099 C  
BRANCH  25  26
HETATM   26  C   UNL     1     -11.537  12.448  69.765  1.00  0.00    -0.302 A  
HETATM   27  O   UNL     1     -13.933  15.659  70.929  1.00  0.00    -0.827 OA 
HETATM   28  C   UNL     1     -11.624  13.598  68.959  1.00  0.00    -0.356 A  
HETATM   29  C   UNL     1     -13.134  13.480  71.299  1.00  0.00    -0.339 A  
HETATM   30  C   UNL     1     -13.160  14.619  70.511  1.00  0.00    -0.202 A  
HETATM   31  C   UNL     1     -12.425  14.683  69.334  1.00  0.00    -0.104 A  
HETATM   32  H   UNL     1     -14.437  15.616  71.734  1.00  0.00     0.000 HD 
HETATM   33  C   UNL     1     -12.342  12.395  70.921  1.00  0.00    -0.358 A  
ENDBRANCH  25  26
BRANCH  25  34
HETATM   34  N   UNL     1     -10.864  10.111  70.265  1.00  0.00    -0.300 N  
HETATM   35  C   UNL     1      -9.834   9.292  70.671  1.00  0.00    -0.270 C  
HETATM   36  H   UNL     1     -11.812   9.911  70.581  1.00  0.00     0.000 HD 
HETATM   37  O   UNL     1      -8.654   9.500  70.410  1.00  0.00    -0.200 OA 
BRANCH  35  38
HETATM   38  C   UNL     1     -10.169   8.125  71.522  1.00  0.00    -0.261 A  
HETATM   39  O   UNL     1      -8.735   8.883  73.336  1.00  0.00    -0.178 OA 
HETATM   40  C   UNL     1      -9.611   7.978  72.794  1.00  0.00    -0.277 A  
HETATM   41  C   UNL     1     -10.739   5.886  73.043  1.00  0.00    -0.256 A  
HETATM   42  C   UNL     1      -9.911   6.866  73.575  1.00  0.00    -0.293 A  
HETATM   43  H   UNL     1      -8.356   8.783  74.201  1.00  0.00     0.000 HD 
HETATM   44  N   UNL     1     -11.290   5.996  71.808  1.00  0.00    -0.280 NA 
HETATM   45  C   UNL     1     -10.993   4.608  73.787  1.00  0.00    -0.368 C  
HETATM   46  C   UNL     1     -10.992   7.101  71.081  1.00  0.00    -0.248 A  
ENDBRANCH  35  38
ENDBRANCH  25  34
ENDBRANCH  24  25
ENDBRANCH   6  21
TORSDOF 8
ENDMDL
MODEL       62
REMARK 921   NORMALIZED FREE ENERGY PREDICTED BY IDOCK:   -5.93 KCAL/MOL
REMARK 922        TOTAL FREE ENERGY PREDICTED BY IDOCK:  -10.51 KCAL/MOL
REMARK 923 INTER-LIGAND FREE ENERGY PREDICTED BY IDOCK:   -8.76 KCAL/MOL
REMARK 924 INTRA-LIGAND FREE ENERGY PREDICTED BY IDOCK:   -1.75 KCAL/MOL
REMARK 927      BINDING AFFINITY PREDICTED BY RF-SCORE:    0.00 PKD
ROOT
HETATM    1  C   UNL     1     -11.160   7.835  70.155  1.00  0.00    -0.209 C  
HETATM    2  S   UNL     1     -10.974   7.253  68.446  1.00  0.00     0.111 SA 
HETATM    3  C   UNL     1     -10.701   5.543  68.954  1.00  0.00    -0.137 C  
HETATM    4  C   UNL     1      -9.663   5.367  70.060  1.00  0.00    -0.248 C  
HETATM    5  CA  UNL     1      -9.277   6.363  70.906  1.00  0.00    -0.158 C  
HETATM    6  CA  UNL     1     -10.879   9.365  70.358  1.00  0.00    -0.269 C  
HETATM    7  O   UNL     1      -8.843   9.275  72.000  1.00  0.00    -0.245 OA 
HETATM    8  N   UNL     1      -9.918   7.575  70.858  1.00  0.00    -0.181 N  
HETATM    9  C   UNL     1      -8.096   6.157  71.840  1.00  0.00    -0.107 C  
HETATM   10  OXT UNL     1      -7.297   5.238  71.732  1.00  0.00    -0.083 OA 
HETATM   11  O   UNL     1      -7.998   7.010  72.877  1.00  0.00    -0.104 OA 
HETATM   12  C   UNL     1      -9.705   8.843  71.271  1.00  0.00    -0.289 C  
ENDROOT
BRANCH   4  13
HETATM   13  C   UNL     1      -9.047   3.967  69.975  1.00  0.00    -0.120 C  
BRANCH  13  14
HETATM   14  S   UNL     1      -7.576   3.812  68.931  1.00  0.00    -0.053 SA 
BRANCH  14  15
HETATM   15  C   UNL     1      -8.132   4.186  67.350  1.00  0.00    -0.099 A  
HETATM   16  N   UNL     1      -8.727   3.396  66.493  1.00  0.00    -0.119 NA 
HETATM   17  C   UNL     1      -7.422   6.623  67.319  1.00  0.00    -0.092 C  
HETATM   18  N   UNL     1      -8.931   4.152  65.362  1.00  0.00    -0.126 NA 
HETATM   19  N   UNL     1      -7.983   5.416  66.778  1.00  0.00    -0.101 NA 
HETATM   20  N   UNL     1      -8.478   5.387  65.528  1.00  0.00    -0.136 NA 
ENDBRANCH  14  15
ENDBRANCH  13  14
ENDBRANCH   4  13
BRANCH   6  21
HETATM   21  N   UNL     1     -10.460  10.082  69.115  1.00  0.00    -0.206 N  
HETATM   22  H   UNL     1     -10.041   9.540  68.359  1.00  0.00     0.000 HD 
HETATM   23  O   UNL     1     -11.269  12.131  69.720  1.00  0.00    -0.145 OA 
HETATM   24  C   UNL     1     -10.612  11.447  68.940  1.00  0.00    -0.202 C  
BRANCH  24  25
HETATM   25  CA  UNL     1      -9.730  12.035  67.796  1.00  0.00    -0.192 C  
BRANCH  25  26
HETATM   26  C   UNL     1     -10.439  11.932  66.442  1.00  0.00    -0.258 A  
HETATM   27  O   UNL     1     -12.388  11.512  62.777  1.00  0.00    -0.860 OA 
HETATM   28  C   UNL     1     -11.572  12.711  66.147  1.00  0.00    -0.445 A  
HETATM   29  C   UNL     1     -10.618  10.943  64.215  1.00  0.00    -0.336 A  
HETATM   30  C   UNL     1     -11.761  11.688  63.972  1.00  0.00    -0.246 A  
HETATM   31  C   UNL     1     -12.236  12.584  64.921  1.00  0.00    -0.534 A  
HETATM   32  H   UNL     1     -12.063  10.899  62.127  1.00  0.00     0.000 HD 
HETATM   33  C   UNL     1      -9.951  11.076  65.433  1.00  0.00    -0.313 A  
ENDBRANCH  25  26
BRANCH  25  34
HETATM   34  N   UNL     1      -9.445  13.441  68.144  1.00  0.00    -0.214 N  
HETATM   35  C   UNL     1      -8.262  14.052  67.787  1.00  0.00    -0.168 C  
HETATM   36  H   UNL     1     -10.141  13.975  68.662  1.00  0.00     0.000 HD 
HETATM   37  O   UNL     1      -7.402  13.517  67.095  1.00  0.00    -0.078 OA 
BRANCH  35  38
HETATM   38  C   UNL     1      -8.046  15.454  68.218  1.00  0.00    -0.136 A  
HETATM   39  O   UNL     1     -10.119  16.214  67.195  1.00  0.00    -0.257 OA 
HETATM   40  C   UNL     1      -8.971  16.453  67.904  1.00  0.00    -0.196 A  
HETATM   41  C   UNL     1      -7.565  18.077  68.951  1.00  0.00    -0.218 A  
HETATM   42  C   UNL     1      -8.747  17.770  68.290  1.00  0.00    -0.277 A  
HETATM   43  H   UNL     1     -10.748  16.893  66.981  1.00  0.00     0.000 HD 
HETATM   44  N   UNL     1      -6.644  17.131  69.262  1.00  0.00    -0.231 NA 
HETATM   45  C   UNL     1      -7.212  19.498  69.276  1.00  0.00    -0.346 C  
HETATM   46  C   UNL     1      -6.902  15.852  68.889  1.00  0.00    -0.138 A  
ENDBRANCH  35  38
ENDBRANCH  25  34
ENDBRANCH  24  25
ENDBRANCH   6  21
TORSDOF 8
ENDMDL
MODEL       63
REMARK 921   NORMALIZED FREE ENERGY PREDICTED BY IDOCK:   -5.86 KCAL/MOL
REMARK 922        TOTAL FREE ENERGY PREDICTED BY IDOCK:  -10.41 KCAL/MOL
REMARK 923 INTER-LIGAND FREE ENERGY PREDICTED BY IDOCK:   -8.72 KCAL/MOL
REMARK 924 INTRA-LIGAND FREE ENERGY PREDICTED BY IDOCK:   -1.69 KCAL/MOL
REMARK 927      BINDING AFFINITY PREDICTED BY RF-SCORE:    0.00 PKD
ROOT
HETATM    1  C   UNL     1      -5.828  10.243  68.397  1.00  0.00    -0.040 C  
HETATM    2  S   UNL     1      -6.910  11.262  67.356  1.00  0.00    -0.105 SA 
HETATM    3  C   UNL     1      -5.944  12.759  67.649  1.00  0.00    -0.150 C  
HETATM    4  C   UNL     1      -5.625  13.032  69.117  1.00  0.00    -0.073 C  
HETATM    5  CA  UNL     1      -5.654  12.080  70.091  1.00  0.00    -0.139 C  
HETATM    6  CA  UNL     1      -6.497   8.938  68.953  1.00  0.00    -0.048 C  
HETATM    7  O   UNL     1      -6.363   9.379  71.529  1.00  0.00    -0.195 OA 
HETATM    8  N   UNL     1      -5.873  10.769  69.748  1.00  0.00    -0.054 N  
HETATM    9  C   UNL     1      -5.523  12.477  71.552  1.00  0.00     0.084 C  
HETATM   10  OXT UNL     1      -5.629  13.626  71.956  1.00  0.00    -0.364 OA 
HETATM   11  O   UNL     1      -5.196  11.494  72.412  1.00  0.00    -0.326 OA 
HETATM   12  C   UNL     1      -6.240   9.619  70.351  1.00  0.00    -0.071 C  
ENDROOT
BRANCH   4  13
HETATM   13  C   UNL     1      -5.408  14.534  69.330  1.00  0.00    -0.089 C  
BRANCH  13  14
HETATM   14  S   UNL     1      -6.865  15.583  69.102  1.00  0.00    -0.169 SA 
BRANCH  14  15
HETATM   15  C   UNL     1      -6.462  16.594  67.775  1.00  0.00    -0.146 A  
HETATM   16  N   UNL     1      -5.755  16.294  66.715  1.00  0.00    -0.294 NA 
HETATM   17  C   UNL     1      -7.647  18.689  68.583  1.00  0.00    -0.314 C  
HETATM   18  N   UNL     1      -5.682  17.450  65.972  1.00  0.00    -0.253 NA 
HETATM   19  N   UNL     1      -6.840  17.902  67.691  1.00  0.00    -0.183 NA 
HETATM   20  N   UNL     1      -6.342  18.437  66.562  1.00  0.00    -0.176 NA 
ENDBRANCH  14  15
ENDBRANCH  13  14
ENDBRANCH   4  13
BRANCH   6  21
HETATM   21  N   UNL     1      -7.933   8.773  68.570  1.00  0.00    -0.110 N  
HETATM   22  H   UNL     1      -8.583   9.530  68.786  1.00  0.00     0.000 HD 
HETATM   23  O   UNL     1      -7.679   6.780  67.483  1.00  0.00    -0.106 OA 
HETATM   24  C   UNL     1      -8.424   7.644  67.937  1.00  0.00    -0.123 C  
BRANCH  24  25
HETATM   25  CA  UNL     1      -9.974   7.496  68.032  1.00  0.00    -0.172 C  
BRANCH  25  26
HETATM   26  C   UNL     1     -10.401   7.029  69.427  1.00  0.00    -0.218 A  
HETATM   27  O   UNL     1     -11.698   5.749  73.180  1.00  0.00    -0.509 OA 
HETATM   28  C   UNL     1      -9.828   5.893  70.027  1.00  0.00    -0.225 A  
HETATM   29  C   UNL     1     -11.785   7.306  71.421  1.00  0.00    -0.317 A  
HETATM   30  C   UNL     1     -11.238   6.154  71.965  1.00  0.00    -0.286 A  
HETATM   31  C   UNL     1     -10.250   5.452  71.286  1.00  0.00    -0.287 A  
HETATM   32  H   UNL     1     -12.373   6.230  73.645  1.00  0.00     0.000 HD 
HETATM   33  C   UNL     1     -11.358   7.750  70.170  1.00  0.00    -0.121 A  
ENDBRANCH  25  26
BRANCH  25  34
HETATM   34  N   UNL     1     -10.559   8.812  67.706  1.00  0.00    -0.402 N  
HETATM   35  C   UNL     1     -10.221   9.493  66.557  1.00  0.00    -0.237 C  
HETATM   36  H   UNL     1     -11.231   9.228  68.349  1.00  0.00     0.000 HD 
HETATM   37  O   UNL     1      -9.487   9.037  65.687  1.00  0.00    -0.244 OA 
BRANCH  35  38
HETATM   38  C   UNL     1     -10.828  10.827  66.337  1.00  0.00    -0.172 A  
HETATM   39  O   UNL     1     -11.264  11.155  68.708  1.00  0.00    -0.208 OA 
HETATM   40  C   UNL     1     -11.314  11.582  67.407  1.00  0.00    -0.298 A  
HETATM   41  C   UNL     1     -12.042  13.269  65.879  1.00  0.00    -0.441 A  
HETATM   42  C   UNL     1     -11.905  12.822  67.187  1.00  0.00    -0.415 A  
HETATM   43  H   UNL     1     -11.594  11.668  69.435  1.00  0.00     0.000 HD 
HETATM   44  N   UNL     1     -11.588  12.556  64.818  1.00  0.00    -0.324 NA 
HETATM   45  C   UNL     1     -12.786  14.536  65.574  1.00  0.00    -0.193 C  
HETATM   46  C   UNL     1     -10.999  11.360  65.069  1.00  0.00    -0.204 A  
ENDBRANCH  35  38
ENDBRANCH  25  34
ENDBRANCH  24  25
ENDBRANCH   6  21
TORSDOF 8
ENDMDL
MODEL       64
REMARK 921   NORMALIZED FREE ENERGY PREDICTED BY IDOCK:   -5.84 KCAL/MOL
REMARK 922        TOTAL FREE ENERGY PREDICTED BY IDOCK:  -10.38 KCAL/MOL
REMARK 923 INTER-LIGAND FREE ENERGY PREDICTED BY IDOCK:   -7.95 KCAL/MOL
REMARK 924 INTRA-LIGAND FREE ENERGY PREDICTED BY IDOCK:   -2.43 KCAL/MOL
REMARK 927      BINDING AFFINITY PREDICTED BY RF-SCORE:    0.00 PKD
ROOT
HETATM    1  C   UNL     1     -11.377  11.757  66.105  1.00  0.00    -0.280 C  
HETATM    2  S   UNL     1      -9.741  11.227  65.525  1.00  0.00    -0.238 SA 
HETATM    3  C   UNL     1     -10.001   9.519  66.050  1.00  0.00    -0.278 C  
HETATM    4  C   UNL     1     -10.520   9.365  67.477  1.00  0.00    -0.343 C  
HETATM    5  CA  UNL     1     -11.147  10.357  68.169  1.00  0.00    -0.285 C  
HETATM    6  CA  UNL     1     -11.499  13.293  66.398  1.00  0.00    -0.329 C  
HETATM    7  O   UNL     1     -12.057  13.259  68.955  1.00  0.00    -0.316 OA 
HETATM    8  N   UNL     1     -11.442  11.539  67.537  1.00  0.00    -0.297 N  
HETATM    9  C   UNL     1     -11.447  10.185  69.649  1.00  0.00    -0.198 C  
HETATM   10  OXT UNL     1     -10.956   9.307  70.344  1.00  0.00    -0.231 OA 
HETATM   11  O   UNL     1     -12.368  11.015  70.173  1.00  0.00    -0.310 OA 
HETATM   12  C   UNL     1     -11.771  12.805  67.873  1.00  0.00    -0.357 C  
ENDROOT
BRANCH   4  13
HETATM   13  C   UNL     1     -10.109   7.998  68.034  1.00  0.00    -0.194 C  
BRANCH  13  14
HETATM   14  S   UNL     1      -9.001   7.020  66.989  1.00  0.00    -0.129 SA 
BRANCH  14  15
HETATM   15  C   UNL     1      -7.468   7.768  67.172  1.00  0.00    -0.096 A  
HETATM   16  N   UNL     1      -6.809   8.489  66.300  1.00  0.00    -0.072 NA 
HETATM   17  C   UNL     1      -7.014   7.011  69.552  1.00  0.00    -0.062 C  
HETATM   18  N   UNL     1      -5.620   8.820  66.907  1.00  0.00    -0.040 NA 
HETATM   19  N   UNL     1      -6.719   7.666  68.308  1.00  0.00    -0.060 NA 
HETATM   20  N   UNL     1      -5.556   8.320  68.134  1.00  0.00    -0.034 NA 
ENDBRANCH  14  15
ENDBRANCH  13  14
ENDBRANCH   4  13
BRANCH   6  21
HETATM   21  N   UNL     1     -10.232  14.060  66.195  1.00  0.00    -0.293 N  
HETATM   22  H   UNL     1      -9.556  13.709  65.516  1.00  0.00     0.000 HD 
HETATM   23  O   UNL     1     -10.766  15.802  67.573  1.00  0.00    -0.306 OA 
HETATM   24  C   UNL     1      -9.931  15.222  66.884  1.00  0.00    -0.239 C  
BRANCH  24  25
HETATM   25  CA  UNL     1      -8.418  15.599  66.848  1.00  0.00    -0.251 C  
BRANCH  25  26
HETATM   26  C   UNL     1      -8.224  17.116  66.934  1.00  0.00    -0.251 A  
HETATM   27  O   UNL     1      -7.668  21.235  67.305  1.00  0.00    -0.691 OA 
HETATM   28  C   UNL     1      -7.277  17.780  66.133  1.00  0.00    -0.346 A  
HETATM   29  C   UNL     1      -8.817  19.276  67.911  1.00  0.00    -0.355 A  
HETATM   30  C   UNL     1      -7.842  19.894  67.145  1.00  0.00    -0.290 A  
HETATM   31  C   UNL     1      -7.080  19.161  66.243  1.00  0.00    -0.258 A  
HETATM   32  H   UNL     1      -8.189  21.736  67.922  1.00  0.00     0.000 HD 
HETATM   33  C   UNL     1      -9.019  17.900  67.794  1.00  0.00    -0.254 A  
ENDBRANCH  25  26
BRANCH  25  34
HETATM   34  N   UNL     1      -7.771  14.913  67.984  1.00  0.00    -0.113 N  
HETATM   35  C   UNL     1      -7.237  13.649  67.860  1.00  0.00    -0.148 C  
HETATM   36  H   UNL     1      -7.718  15.387  68.885  1.00  0.00     0.000 HD 
HETATM   37  O   UNL     1      -7.181  13.035  66.799  1.00  0.00     0.243 OA 
BRANCH  35  38
HETATM   38  C   UNL     1      -6.645  13.023  69.066  1.00  0.00    -0.105 A  
HETATM   39  O   UNL     1      -7.265  10.780  68.354  1.00  0.00    -0.079 OA 
HETATM   40  C   UNL     1      -6.688  11.639  69.253  1.00  0.00    -0.115 A  
HETATM   41  C   UNL     1      -5.619  11.897  71.374  1.00  0.00     0.232 A  
HETATM   42  C   UNL     1      -6.153  11.063  70.401  1.00  0.00    -0.131 A  
HETATM   43  H   UNL     1      -7.294   9.840  68.481  1.00  0.00     0.000 HD 
HETATM   44  N   UNL     1      -5.570  13.244  71.226  1.00  0.00    -0.302 NA 
HETATM   45  C   UNL     1      -5.146  11.343  72.686  1.00  0.00     0.388 C  
HETATM   46  C   UNL     1      -6.083  13.772  70.087  1.00  0.00    -0.139 A  
ENDBRANCH  35  38
ENDBRANCH  25  34
ENDBRANCH  24  25
ENDBRANCH   6  21
TORSDOF 8
ENDMDL
MODEL       65
REMARK 921   NORMALIZED FREE ENERGY PREDICTED BY IDOCK:   -5.75 KCAL/MOL
REMARK 922        TOTAL FREE ENERGY PREDICTED BY IDOCK:  -10.25 KCAL/MOL
REMARK 923 INTER-LIGAND FREE ENERGY PREDICTED BY IDOCK:   -8.14 KCAL/MOL
REMARK 924 INTRA-LIGAND FREE ENERGY PREDICTED BY IDOCK:   -2.11 KCAL/MOL
REMARK 927      BINDING AFFINITY PREDICTED BY RF-SCORE:    0.00 PKD
ROOT
HETATM    1  C   UNL     1      -8.035  10.057  69.334  1.00  0.00    -0.145 C  
HETATM    2  S   UNL     1      -8.120  11.028  67.803  1.00  0.00    -0.119 SA 
HETATM    3  C   UNL     1      -9.178  12.288  68.546  1.00  0.00    -0.087 C  
HETATM    4  C   UNL     1     -10.382  11.739  69.306  1.00  0.00     0.084 C  
HETATM    5  CA  UNL     1     -10.466  10.463  69.777  1.00  0.00    -0.240 C  
HETATM    6  CA  UNL     1      -7.679   8.543  69.128  1.00  0.00    -0.091 C  
HETATM    7  O   UNL     1      -9.835   7.401  70.075  1.00  0.00    -0.178 OA 
HETATM    8  N   UNL     1      -9.380   9.632  69.675  1.00  0.00    -0.196 N  
HETATM    9  C   UNL     1     -11.778   9.942  70.341  1.00  0.00    -0.258 C  
HETATM   10  OXT UNL     1     -12.853  10.505  70.192  1.00  0.00    -0.264 OA 
HETATM   11  O   UNL     1     -11.704   8.837  71.106  1.00  0.00    -0.277 OA 
HETATM   12  C   UNL     1      -9.114   8.310  69.738  1.00  0.00    -0.147 C  
ENDROOT
BRANCH   4  13
HETATM   13  C   UNL     1     -11.501  12.785  69.331  1.00  0.00    -0.257 C  
BRANCH  13  14
HETATM   14  S   UNL     1     -11.789  13.671  67.778  1.00  0.00    -0.356 SA 
BRANCH  14  15
HETATM   15  C   UNL     1     -11.133  15.234  68.050  1.00  0.00    -0.312 A  
HETATM   16  N   UNL     1     -10.940  15.844  69.191  1.00  0.00    -0.262 NA 
HETATM   17  C   UNL     1     -10.725  15.847  65.620  1.00  0.00    -0.339 C  
HETATM   18  N   UNL     1     -10.435  17.084  68.875  1.00  0.00    -0.336 NA 
HETATM   19  N   UNL     1     -10.741  16.064  67.040  1.00  0.00    -0.308 NA 
HETATM   20  N   UNL     1     -10.312  17.227  67.563  1.00  0.00    -0.335 NA 
ENDBRANCH  14  15
ENDBRANCH  13  14
ENDBRANCH   4  13
BRANCH   6  21
HETATM   21  N   UNL     1      -7.514   8.141  67.697  1.00  0.00    -0.093 N  
HETATM   22  H   UNL     1      -7.413   8.874  66.995  1.00  0.00     0.000 HD 
HETATM   23  O   UNL     1      -7.421   5.890  68.076  1.00  0.00    -0.082 OA 
HETATM   24  C   UNL     1      -7.491   6.821  67.279  1.00  0.00    -0.096 C  
BRANCH  24  25
HETATM   25  CA  UNL     1      -7.751   6.642  65.752  1.00  0.00    -0.092 C  
BRANCH  25  26
HETATM   26  C   UNL     1      -8.370   5.272  65.453  1.00  0.00    -0.136 A  
HETATM   27  O   UNL     1      -9.971   1.486  64.741  1.00  0.00    -0.333 OA 
HETATM   28  C   UNL     1      -9.760   5.067  65.511  1.00  0.00    -0.083 A  
HETATM   29  C   UNL     1      -8.112   2.921  64.842  1.00  0.00    -0.086 A  
HETATM   30  C   UNL     1      -9.481   2.738  64.956  1.00  0.00    -0.086 A  
HETATM   31  C   UNL     1     -10.313   3.804  65.273  1.00  0.00     0.055 A  
HETATM   32  H   UNL     1      -9.402   0.757  64.524  1.00  0.00     0.000 HD 
HETATM   33  C   UNL     1      -7.561   4.182  65.072  1.00  0.00    -0.077 A  
ENDBRANCH  25  26
BRANCH  25  34
HETATM   34  N   UNL     1      -8.648   7.736  65.331  1.00  0.00    -0.288 N  
HETATM   35  C   UNL     1      -8.170   8.871  64.712  1.00  0.00    -0.163 C  
HETATM   36  H   UNL     1      -9.650   7.651  65.502  1.00  0.00     0.000 HD 
HETATM   37  O   UNL     1      -6.996   9.027  64.391  1.00  0.00    -0.088 OA 
BRANCH  35  38
HETATM   38  C   UNL     1      -9.141   9.935  64.364  1.00  0.00    -0.299 A  
HETATM   39  O   UNL     1      -7.766  10.758  62.533  1.00  0.00    -0.255 OA 
HETATM   40  C   UNL     1      -8.896  10.815  63.307  1.00  0.00    -0.185 A  
HETATM   41  C   UNL     1     -10.927  11.971  63.804  1.00  0.00    -0.426 A  
HETATM   42  C   UNL     1      -9.801  11.827  63.005  1.00  0.00    -0.264 A  
HETATM   43  H   UNL     1      -7.599  11.356  61.815  1.00  0.00     0.000 HD 
HETATM   44  N   UNL     1     -11.190  11.138  64.842  1.00  0.00    -0.052 NA 
HETATM   45  C   UNL     1     -11.870  13.121  63.605  1.00  0.00    -0.549 C  
HETATM   46  C   UNL     1     -10.297  10.149  65.098  1.00  0.00    -0.038 A  
ENDBRANCH  35  38
ENDBRANCH  25  34
ENDBRANCH  24  25
ENDBRANCH   6  21
TORSDOF 8
ENDMDL
MODEL       66
REMARK 921   NORMALIZED FREE ENERGY PREDICTED BY IDOCK:   -5.71 KCAL/MOL
REMARK 922        TOTAL FREE ENERGY PREDICTED BY IDOCK:  -10.19 KCAL/MOL
REMARK 923 INTER-LIGAND FREE ENERGY PREDICTED BY IDOCK:   -9.54 KCAL/MOL
REMARK 924 INTRA-LIGAND FREE ENERGY PREDICTED BY IDOCK:   -0.65 KCAL/MOL
REMARK 927      BINDING AFFINITY PREDICTED BY RF-SCORE:    0.00 PKD
ROOT
HETATM    1  C   UNL     1      -8.985  15.448  69.348  1.00  0.00    -0.258 C  
HETATM    2  S   UNL     1      -7.734  14.845  68.179  1.00  0.00    -0.126 SA 
HETATM    3  C   UNL     1      -6.817  16.400  68.207  1.00  0.00    -0.133 C  
HETATM    4  C   UNL     1      -7.675  17.646  68.010  1.00  0.00    -0.232 C  
HETATM    5  CA  UNL     1      -9.020  17.684  68.222  1.00  0.00    -0.276 C  
HETATM    6  CA  UNL     1     -10.357  14.690  69.283  1.00  0.00    -0.173 C  
HETATM    7  O   UNL     1     -11.960  16.641  68.594  1.00  0.00     0.148 OA 
HETATM    8  N   UNL     1      -9.653  16.586  68.747  1.00  0.00    -0.240 N  
HETATM    9  C   UNL     1      -9.825  18.906  67.807  1.00  0.00    -0.337 C  
HETATM   10  OXT UNL     1      -9.397  19.783  67.071  1.00  0.00    -0.321 OA 
HETATM   11  O   UNL     1     -11.046  19.034  68.360  1.00  0.00     0.308 OA 
HETATM   12  C   UNL     1     -10.909  16.103  68.852  1.00  0.00    -0.305 C  
ENDROOT
BRANCH   4  13
HETATM   13  C   UNL     1      -6.823  18.775  67.422  1.00  0.00    -0.204 C  
BRANCH  13  14
HETATM   14  S   UNL     1      -5.141  18.919  68.077  1.00  0.00    -0.173 SA 
BRANCH  14  15
HETATM   15  C   UNL     1      -5.349  19.576  69.649  1.00  0.00    -0.199 A  
HETATM   16  N   UNL     1      -5.545  20.826  69.985  1.00  0.00    -0.475 NA 
HETATM   17  C   UNL     1      -5.147  17.402  70.944  1.00  0.00    -0.236 C  
HETATM   18  N   UNL     1      -5.606  20.841  71.360  1.00  0.00    -0.578 NA 
HETATM   19  N   UNL     1      -5.307  18.821  70.785  1.00  0.00    -0.246 NA 
HETATM   20  N   UNL     1      -5.460  19.620  71.856  1.00  0.00    -0.463 NA 
ENDBRANCH  14  15
ENDBRANCH  13  14
ENDBRANCH   4  13
BRANCH   6  21
HETATM   21  N   UNL     1     -10.422  13.625  68.235  1.00  0.00    -0.242 N  
HETATM   22  H   UNL     1     -10.873  13.845  67.347  1.00  0.00     0.000 HD 
HETATM   23  O   UNL     1      -9.187  12.075  69.371  1.00  0.00     0.589 OA 
HETATM   24  C   UNL     1      -9.900  12.355  68.412  1.00  0.00    -0.198 C  
BRANCH  24  25
HETATM   25  CA  UNL     1     -10.454  11.303  67.403  1.00  0.00    -0.212 C  
BRANCH  25  26
HETATM   26  C   UNL     1     -10.984  11.980  66.134  1.00  0.00    -0.343 A  
HETATM   27  O   UNL     1     -12.413  13.947  62.744  1.00  0.00    -0.901 OA 
HETATM   28  C   UNL     1     -10.362  11.789  64.887  1.00  0.00    -0.334 A  
HETATM   29  C   UNL     1     -12.602  13.442  65.032  1.00  0.00    -0.459 A  
HETATM   30  C   UNL     1     -11.937  13.274  63.827  1.00  0.00    -0.491 A  
HETATM   31  C   UNL     1     -10.831  12.439  63.740  1.00  0.00    -0.500 A  
HETATM   32  H   UNL     1     -13.170  14.519  62.803  1.00  0.00     0.000 HD 
HETATM   33  C   UNL     1     -12.140  12.787  66.173  1.00  0.00    -0.429 A  
ENDBRANCH  25  26
BRANCH  25  34
HETATM   34  N   UNL     1      -9.351  10.373  67.091  1.00  0.00    -0.156 N  
HETATM   35  C   UNL     1      -9.568   9.026  66.904  1.00  0.00    -0.185 C  
HETATM   36  H   UNL     1      -8.403  10.738  67.012  1.00  0.00     0.000 HD 
HETATM   37  O   UNL     1     -10.681   8.510  66.898  1.00  0.00    -0.265 OA 
BRANCH  35  38
HETATM   38  C   UNL     1      -8.393   8.163  66.638  1.00  0.00    -0.111 A  
HETATM   39  O   UNL     1      -8.698   8.285  64.227  1.00  0.00    -0.400 OA 
HETATM   40  C   UNL     1      -8.020   7.838  65.331  1.00  0.00    -0.125 A  
HETATM   41  C   UNL     1      -6.254   6.471  66.179  1.00  0.00    -0.038 A  
HETATM   42  C   UNL     1      -6.931   7.006  65.091  1.00  0.00    -0.052 A  
HETATM   43  H   UNL     1      -8.445   8.065  63.338  1.00  0.00     0.000 HD 
HETATM   44  N   UNL     1      -6.596   6.760  67.459  1.00  0.00    -0.052 NA 
HETATM   45  C   UNL     1      -5.155   5.468  65.982  1.00  0.00    -0.005 C  
HETATM   46  C   UNL     1      -7.650   7.590  67.658  1.00  0.00    -0.113 A  
ENDBRANCH  35  38
ENDBRANCH  25  34
ENDBRANCH  24  25
ENDBRANCH   6  21
TORSDOF 8
ENDMDL
MODEL       67
REMARK 921   NORMALIZED FREE ENERGY PREDICTED BY IDOCK:   -5.69 KCAL/MOL
REMARK 922        TOTAL FREE ENERGY PREDICTED BY IDOCK:  -10.17 KCAL/MOL
REMARK 923 INTER-LIGAND FREE ENERGY PREDICTED BY IDOCK:   -8.57 KCAL/MOL
REMARK 924 INTRA-LIGAND FREE ENERGY PREDICTED BY IDOCK:   -1.59 KCAL/MOL
REMARK 927      BINDING AFFINITY PREDICTED BY RF-SCORE:    0.00 PKD
ROOT
HETATM    1  C   UNL     1      -7.589  11.779  67.524  1.00  0.00    -0.135 C  
HETATM    2  S   UNL     1      -9.390  11.875  67.729  1.00  0.00    -0.191 SA 
HETATM    3  C   UNL     1      -9.543  13.273  66.598  1.00  0.00    -0.262 C  
HETATM    4  C   UNL     1      -8.566  14.416  66.865  1.00  0.00    -0.191 C  
HETATM    5  CA  UNL     1      -7.408  14.277  67.570  1.00  0.00    -0.179 C  
HETATM    6  CA  UNL     1      -6.834  11.073  68.703  1.00  0.00    -0.064 C  
HETATM    7  O   UNL     1      -5.314  13.028  69.550  1.00  0.00    -0.075 OA 
HETATM    8  N   UNL     1      -7.015  13.029  67.983  1.00  0.00    -0.096 N  
HETATM    9  C   UNL     1      -6.600  15.503  67.961  1.00  0.00    -0.143 C  
HETATM   10  OXT UNL     1      -7.027  16.647  67.898  1.00  0.00    -0.137 OA 
HETATM   11  O   UNL     1      -5.320  15.287  68.320  1.00  0.00    -0.100 OA 
HETATM   12  C   UNL     1      -6.162  12.488  68.879  1.00  0.00    -0.080 C  
ENDROOT
BRANCH   4  13
HETATM   13  C   UNL     1      -9.152  15.732  66.344  1.00  0.00    -0.322 C  
BRANCH  13  14
HETATM   14  S   UNL     1     -10.486  16.450  67.335  1.00  0.00    -0.300 SA 
BRANCH  14  15
HETATM   15  C   UNL     1     -10.540  18.097  66.851  1.00  0.00    -0.308 A  
HETATM   16  N   UNL     1     -10.882  18.588  65.688  1.00  0.00    -0.364 NA 
HETATM   17  C   UNL     1      -9.771  19.111  69.048  1.00  0.00    -0.361 C  
HETATM   18  N   UNL     1     -10.719  19.950  65.791  1.00  0.00    -0.425 NA 
HETATM   19  N   UNL     1     -10.188  19.127  67.673  1.00  0.00    -0.377 NA 
HETATM   20  N   UNL     1     -10.294  20.288  67.001  1.00  0.00    -0.362 NA 
ENDBRANCH  14  15
ENDBRANCH  13  14
ENDBRANCH   4  13
BRANCH   6  21
HETATM   21  N   UNL     1      -7.720  10.636  69.825  1.00  0.00    -0.362 N  
HETATM   22  H   UNL     1      -7.998  11.328  70.522  1.00  0.00     0.000 HD 
HETATM   23  O   UNL     1      -8.045   8.502  69.077  1.00  0.00    -0.111 OA 
HETATM   24  C   UNL     1      -8.182   9.338  69.966  1.00  0.00    -0.154 C  
BRANCH  24  25
HETATM   25  CA  UNL     1      -8.703   9.009  71.398  1.00  0.00    -0.128 C  
BRANCH  25  26
HETATM   26  C   UNL     1     -10.234   8.961  71.432  1.00  0.00    -0.375 A  
HETATM   27  O   UNL     1     -14.404   8.831  71.383  1.00  0.00    -0.468 OA 
HETATM   28  C   UNL     1     -10.920   7.932  72.102  1.00  0.00    -0.339 A  
HETATM   29  C   UNL     1     -12.397   9.912  70.810  1.00  0.00    -0.363 A  
HETATM   30  C   UNL     1     -13.044   8.858  71.436  1.00  0.00    -0.269 A  
HETATM   31  C   UNL     1     -12.319   7.875  72.097  1.00  0.00    -0.331 A  
HETATM   32  H   UNL     1     -14.900   9.504  70.931  1.00  0.00     0.000 HD 
HETATM   33  C   UNL     1     -11.003   9.973  70.823  1.00  0.00    -0.375 A  
ENDBRANCH  25  26
BRANCH  25  34
HETATM   34  N   UNL     1      -8.119   7.710  71.787  1.00  0.00    -0.100 N  
HETATM   35  C   UNL     1      -7.644   7.480  73.060  1.00  0.00    -0.092 C  
HETATM   36  H   UNL     1      -8.065   6.964  71.096  1.00  0.00     0.000 HD 
HETATM   37  O   UNL     1      -7.741   8.287  73.979  1.00  0.00    -0.191 OA 
BRANCH  35  38
HETATM   38  C   UNL     1      -7.036   6.159  73.346  1.00  0.00    -0.084 A  
HETATM   39  O   UNL     1      -8.710   4.970  72.040  1.00  0.00    -0.126 OA 
HETATM   40  C   UNL     1      -7.591   4.984  72.831  1.00  0.00    -0.096 A  
HETATM   41  C   UNL     1      -5.934   3.703  73.981  1.00  0.00    -0.011 A  
HETATM   42  C   UNL     1      -7.028   3.747  73.127  1.00  0.00    -0.049 A  
HETATM   43  H   UNL     1      -9.086   4.172  71.689  1.00  0.00     0.000 HD 
HETATM   44  N   UNL     1      -5.377   4.824  74.504  1.00  0.00    -0.012 NA 
HETATM   45  C   UNL     1      -5.367   2.391  74.436  1.00  0.00     0.000 C  
HETATM   46  C   UNL     1      -5.939   6.016  74.180  1.00  0.00    -0.063 A  
ENDBRANCH  35  38
ENDBRANCH  25  34
ENDBRANCH  24  25
ENDBRANCH   6  21
TORSDOF 8
ENDMDL
MODEL       68
REMARK 921   NORMALIZED FREE ENERGY PREDICTED BY IDOCK:   -5.68 KCAL/MOL
REMARK 922        TOTAL FREE ENERGY PREDICTED BY IDOCK:  -10.15 KCAL/MOL
REMARK 923 INTER-LIGAND FREE ENERGY PREDICTED BY IDOCK:   -8.10 KCAL/MOL
REMARK 924 INTRA-LIGAND FREE ENERGY PREDICTED BY IDOCK:   -2.05 KCAL/MOL
REMARK 927      BINDING AFFINITY PREDICTED BY RF-SCORE:    0.00 PKD
ROOT
HETATM    1  C   UNL     1      -7.957   7.571  69.603  1.00  0.00    -0.125 C  
HETATM    2  S   UNL     1      -7.564   9.012  70.635  1.00  0.00    -0.133 SA 
HETATM    3  C   UNL     1      -8.330   8.292  72.102  1.00  0.00    -0.174 C  
HETATM    4  C   UNL     1      -9.730   7.728  71.877  1.00  0.00    -0.216 C  
HETATM    5  CA  UNL     1     -10.222   7.382  70.654  1.00  0.00    -0.199 C  
HETATM    6  CA  UNL     1      -8.002   7.865  68.063  1.00  0.00    -0.128 C  
HETATM    7  O   UNL     1     -10.496   7.278  67.527  1.00  0.00    -0.216 OA 
HETATM    8  N   UNL     1      -9.399   7.428  69.557  1.00  0.00    -0.156 N  
HETATM    9  C   UNL     1     -11.691   7.023  70.495  1.00  0.00    -0.312 C  
HETATM   10  OXT UNL     1     -12.540   7.247  71.345  1.00  0.00    -0.355 OA 
HETATM   11  O   UNL     1     -12.025   6.353  69.377  1.00  0.00    -0.048 OA 
HETATM   12  C   UNL     1      -9.516   7.448  68.213  1.00  0.00    -0.142 C  
ENDROOT
BRANCH   4  13
HETATM   13  C   UNL     1     -10.514   7.745  73.193  1.00  0.00    -0.349 C  
BRANCH  13  14
HETATM   14  S   UNL     1     -10.096   6.443  74.379  1.00  0.00    -0.319 SA 
BRANCH  14  15
HETATM   15  C   UNL     1      -9.912   5.032  73.418  1.00  0.00    -0.157 A  
HETATM   16  N   UNL     1     -10.824   4.402  72.722  1.00  0.00    -0.170 NA 
HETATM   17  C   UNL     1      -7.433   4.674  73.828  1.00  0.00    -0.086 C  
HETATM   18  N   UNL     1     -10.191   3.313  72.169  1.00  0.00    -0.123 NA 
HETATM   19  N   UNL     1      -8.729   4.366  73.289  1.00  0.00    -0.100 NA 
HETATM   20  N   UNL     1      -8.910   3.284  72.511  1.00  0.00    -0.084 NA 
ENDBRANCH  14  15
ENDBRANCH  13  14
ENDBRANCH   4  13
BRANCH   6  21
HETATM   21  N   UNL     1      -7.759   9.295  67.702  1.00  0.00    -0.092 N  
HETATM   22  H   UNL     1      -7.617   9.968  68.456  1.00  0.00     0.000 HD 
HETATM   23  O   UNL     1      -7.695   8.980  65.441  1.00  0.00    -0.092 OA 
HETATM   24  C   UNL     1      -7.718   9.751  66.396  1.00  0.00    -0.102 C  
BRANCH  24  25
HETATM   25  CA  UNL     1      -7.894  11.295  66.264  1.00  0.00    -0.069 C  
BRANCH  25  26
HETATM   26  C   UNL     1      -9.340  11.659  65.912  1.00  0.00    -0.232 A  
HETATM   27  O   UNL     1     -13.268  12.762  65.040  1.00  0.00    -0.768 OA 
HETATM   28  C   UNL     1      -9.740  11.866  64.580  1.00  0.00    -0.138 A  
HETATM   29  C   UNL     1     -11.633  12.135  66.608  1.00  0.00    -0.416 A  
HETATM   30  C   UNL     1     -11.986  12.381  65.291  1.00  0.00    -0.404 A  
HETATM   31  C   UNL     1     -11.055  12.234  64.270  1.00  0.00    -0.401 A  
HETATM   32  H   UNL     1     -13.905  12.862  65.738  1.00  0.00     0.000 HD 
HETATM   33  C   UNL     1     -10.325  11.760  66.916  1.00  0.00    -0.247 A  
ENDBRANCH  25  26
BRANCH  25  34
HETATM   34  N   UNL     1      -7.491  11.892  67.553  1.00  0.00    -0.126 N  
HETATM   35  C   UNL     1      -6.299  12.567  67.700  1.00  0.00    -0.140 C  
HETATM   36  H   UNL     1      -8.113  11.803  68.357  1.00  0.00     0.000 HD 
HETATM   37  O   UNL     1      -5.528  12.796  66.774  1.00  0.00    -0.223 OA 
BRANCH  35  38
HETATM   38  C   UNL     1      -5.961  13.095  69.043  1.00  0.00    -0.084 A  
HETATM   39  O   UNL     1      -5.336  10.898  69.883  1.00  0.00    -0.041 OA 
HETATM   40  C   UNL     1      -5.503  12.248  70.056  1.00  0.00    -0.111 A  
HETATM   41  C   UNL     1      -5.433  14.098  71.566  1.00  0.00    -0.216 A  
HETATM   42  C   UNL     1      -5.213  12.749  71.320  1.00  0.00    -0.163 A  
HETATM   43  H   UNL     1      -5.025  10.323  70.571  1.00  0.00     0.000 HD 
HETATM   44  N   UNL     1      -5.884  14.945  70.607  1.00  0.00    -0.146 NA 
HETATM   45  C   UNL     1      -5.260  14.666  72.944  1.00  0.00    -0.185 C  
HETATM   46  C   UNL     1      -6.139  14.428  69.379  1.00  0.00    -0.107 A  
ENDBRANCH  35  38
ENDBRANCH  25  34
ENDBRANCH  24  25
ENDBRANCH   6  21
TORSDOF 8
ENDMDL
MODEL       69
REMARK 921   NORMALIZED FREE ENERGY PREDICTED BY IDOCK:   -5.60 KCAL/MOL
REMARK 922        TOTAL FREE ENERGY PREDICTED BY IDOCK:  -10.04 KCAL/MOL
REMARK 923 INTER-LIGAND FREE ENERGY PREDICTED BY IDOCK:   -7.83 KCAL/MOL
REMARK 924 INTRA-LIGAND FREE ENERGY PREDICTED BY IDOCK:   -2.21 KCAL/MOL
REMARK 927      BINDING AFFINITY PREDICTED BY RF-SCORE:    0.00 PKD
ROOT
HETATM    1  C   UNL     1     -11.133  11.234  67.494  1.00  0.00    -0.286 C  
HETATM    2  S   UNL     1      -9.459  10.538  67.401  1.00  0.00    -0.154 SA 
HETATM    3  C   UNL     1      -9.956   8.987  68.180  1.00  0.00    -0.175 C  
HETATM    4  C   UNL     1     -10.770   9.152  69.461  1.00  0.00    -0.226 C  
HETATM    5  CA  UNL     1     -11.447  10.287  69.791  1.00  0.00    -0.256 C  
HETATM    6  CA  UNL     1     -11.191  12.801  67.447  1.00  0.00    -0.294 C  
HETATM    7  O   UNL     1     -12.268  13.319  69.776  1.00  0.00    -0.290 OA 
HETATM    8  N   UNL     1     -11.510  11.321  68.891  1.00  0.00    -0.267 N  
HETATM    9  C   UNL     1     -12.060  10.436  71.174  1.00  0.00    -0.386 C  
HETATM   10  OXT UNL     1     -11.794   9.705  72.117  1.00  0.00    -0.212 OA 
HETATM   11  O   UNL     1     -13.001  11.389  71.311  1.00  0.00    -0.385 OA 
HETATM   12  C   UNL     1     -11.800  12.639  68.893  1.00  0.00    -0.302 C  
ENDROOT
BRANCH   4  13
HETATM   13  C   UNL     1     -10.593   7.916  70.350  1.00  0.00    -0.228 C  
BRANCH  13  14
HETATM   14  S   UNL     1      -8.969   7.119  70.281  1.00  0.00    -0.152 SA 
BRANCH  14  15
HETATM   15  C   UNL     1      -8.227   7.530  71.773  1.00  0.00    -0.106 A  
HETATM   16  N   UNL     1      -8.379   8.622  72.479  1.00  0.00    -0.400 NA 
HETATM   17  C   UNL     1      -6.855   5.412  72.054  1.00  0.00    -0.066 C  
HETATM   18  N   UNL     1      -7.540   8.489  73.562  1.00  0.00    -0.371 NA 
HETATM   19  N   UNL     1      -7.330   6.722  72.408  1.00  0.00    -0.087 NA 
HETATM   20  N   UNL     1      -6.895   7.331  73.525  1.00  0.00    -0.065 NA 
ENDBRANCH  14  15
ENDBRANCH  13  14
ENDBRANCH   4  13
BRANCH   6  21
HETATM   21  N   UNL     1      -9.853  13.464  67.381  1.00  0.00    -0.223 N  
HETATM   22  H   UNL     1      -9.203  13.323  68.154  1.00  0.00     0.000 HD 
HETATM   23  O   UNL     1     -10.101  14.328  65.281  1.00  0.00    -0.364 OA 
HETATM   24  C   UNL     1      -9.453  14.261  66.322  1.00  0.00    -0.252 C  
BRANCH  24  25
HETATM   25  CA  UNL     1      -8.240  15.183  66.654  1.00  0.00    -0.048 C  
BRANCH  25  26
HETATM   26  C   UNL     1      -8.660  16.656  66.696  1.00  0.00    -0.293 A  
HETATM   27  O   UNL     1      -9.804  20.668  66.668  1.00  0.00    -0.616 OA 
HETATM   28  C   UNL     1      -9.823  17.068  67.371  1.00  0.00    -0.262 A  
HETATM   29  C   UNL     1      -8.268  18.988  66.082  1.00  0.00    -0.246 A  
HETATM   30  C   UNL     1      -9.445  19.356  66.714  1.00  0.00    -0.333 A  
HETATM   31  C   UNL     1     -10.219  18.410  67.374  1.00  0.00    -0.393 A  
HETATM   32  H   UNL     1      -9.274  21.316  66.216  1.00  0.00     0.000 HD 
HETATM   33  C   UNL     1      -7.869  17.651  66.087  1.00  0.00    -0.269 A  
ENDBRANCH  25  26
BRANCH  25  34
HETATM   34  N   UNL     1      -7.701  14.744  67.956  1.00  0.00    -0.115 N  
HETATM   35  C   UNL     1      -6.793  13.713  68.055  1.00  0.00    -0.138 C  
HETATM   36  H   UNL     1      -8.009  15.217  68.805  1.00  0.00     0.000 HD 
HETATM   37  O   UNL     1      -6.303  13.142  67.087  1.00  0.00    -0.257 OA 
BRANCH  35  38
HETATM   38  C   UNL     1      -6.340  13.314  69.409  1.00  0.00    -0.111 A  
HETATM   39  O   UNL     1      -6.092  10.980  68.770  1.00  0.00    -0.043 OA 
HETATM   40  C   UNL     1      -6.017  11.986  69.698  1.00  0.00    -0.120 A  
HETATM   41  C   UNL     1      -5.593  12.587  71.971  1.00  0.00     0.657 A  
HETATM   42  C   UNL     1      -5.618  11.617  70.978  1.00  0.00    -0.009 A  
HETATM   43  H   UNL     1      -5.872  10.077  68.966  1.00  0.00     0.000 HD 
HETATM   44  N   UNL     1      -5.908  13.883  71.725  1.00  0.00    -0.358 NA 
HETATM   45  C   UNL     1      -5.296  12.222  73.396  1.00  0.00     0.805 C  
HETATM   46  C   UNL     1      -6.275  14.214  70.461  1.00  0.00    -0.138 A  
ENDBRANCH  35  38
ENDBRANCH  25  34
ENDBRANCH  24  25
ENDBRANCH   6  21
TORSDOF 8
ENDMDL
MODEL       70
REMARK 921   NORMALIZED FREE ENERGY PREDICTED BY IDOCK:   -5.55 KCAL/MOL
REMARK 922        TOTAL FREE ENERGY PREDICTED BY IDOCK:   -9.96 KCAL/MOL
REMARK 923 INTER-LIGAND FREE ENERGY PREDICTED BY IDOCK:   -8.57 KCAL/MOL
REMARK 924 INTRA-LIGAND FREE ENERGY PREDICTED BY IDOCK:   -1.39 KCAL/MOL
REMARK 927      BINDING AFFINITY PREDICTED BY RF-SCORE:    0.00 PKD
ROOT
HETATM    1  C   UNL     1      -8.103  10.962  65.885  1.00  0.00    -0.120 C  
HETATM    2  S   UNL     1      -9.801  10.348  65.701  1.00  0.00    -0.277 SA 
HETATM    3  C   UNL     1     -10.477  12.004  65.452  1.00  0.00    -0.275 C  
HETATM    4  C   UNL     1     -10.022  13.036  66.481  1.00  0.00    -0.262 C  
HETATM    5  CA  UNL     1      -8.907  12.901  67.251  1.00  0.00    -0.206 C  
HETATM    6  CA  UNL     1      -7.143   9.998  66.666  1.00  0.00    -0.091 C  
HETATM    7  O   UNL     1      -6.507  11.498  68.715  1.00  0.00    -0.051 OA 
HETATM    8  N   UNL     1      -8.063  11.840  67.039  1.00  0.00    -0.164 N  
HETATM    9  C   UNL     1      -8.641  13.874  68.389  1.00  0.00    -0.169 C  
HETATM   10  OXT UNL     1      -9.478  14.647  68.830  1.00  0.00    -0.207 OA 
HETATM   11  O   UNL     1      -7.381  13.913  68.861  1.00  0.00    -0.109 OA 
HETATM   12  C   UNL     1      -7.074  11.194  67.692  1.00  0.00    -0.089 C  
ENDROOT
BRANCH   4  13
HETATM   13  C   UNL     1     -11.069  14.149  66.597  1.00  0.00    -0.312 C  
BRANCH  13  14
HETATM   14  S   UNL     1     -10.982  15.449  65.340  1.00  0.00    -0.357 SA 
BRANCH  14  15
HETATM   15  C   UNL     1      -9.624  16.395  65.796  1.00  0.00    -0.192 A  
HETATM   16  N   UNL     1      -8.414  15.988  66.083  1.00  0.00    -0.298 NA 
HETATM   17  C   UNL     1     -10.759  18.665  65.710  1.00  0.00    -0.179 C  
HETATM   18  N   UNL     1      -7.708  17.118  66.427  1.00  0.00    -0.284 NA 
HETATM   19  N   UNL     1      -9.673  17.751  65.937  1.00  0.00    -0.546 NA 
HETATM   20  N   UNL     1      -8.471  18.200  66.341  1.00  0.00    -0.369 NA 
ENDBRANCH  14  15
ENDBRANCH  13  14
ENDBRANCH   4  13
BRANCH   6  21
HETATM   21  N   UNL     1      -7.798   8.753  67.170  1.00  0.00    -0.096 N  
HETATM   22  H   UNL     1      -8.688   8.471  66.757  1.00  0.00     0.000 HD 
HETATM   23  O   UNL     1      -6.114   8.133  68.583  1.00  0.00    -0.042 OA 
HETATM   24  C   UNL     1      -7.258   7.963  68.171  1.00  0.00    -0.090 C  
BRANCH  24  25
HETATM   25  CA  UNL     1      -8.287   6.995  68.831  1.00  0.00    -0.125 C  
BRANCH  25  26
HETATM   26  C   UNL     1      -9.349   7.770  69.618  1.00  0.00    -0.153 A  
HETATM   27  O   UNL     1     -12.231   9.985  71.666  1.00  0.00    -0.385 OA 
HETATM   28  C   UNL     1     -10.616   7.219  69.877  1.00  0.00    -0.244 A  
HETATM   29  C   UNL     1     -10.048   9.780  70.819  1.00  0.00    -0.200 A  
HETATM   30  C   UNL     1     -11.305   9.229  71.015  1.00  0.00    -0.320 A  
HETATM   31  C   UNL     1     -11.594   7.947  70.564  1.00  0.00    -0.155 A  
HETATM   32  H   UNL     1     -12.034  10.862  71.974  1.00  0.00     0.000 HD 
HETATM   33  C   UNL     1      -9.071   9.050  70.141  1.00  0.00    -0.206 A  
ENDBRANCH  25  26
BRANCH  25  34
HETATM   34  N   UNL     1      -8.898   6.202  67.747  1.00  0.00    -0.112 N  
HETATM   35  C   UNL     1      -8.395   4.975  67.372  1.00  0.00    -0.106 C  
HETATM   36  H   UNL     1      -9.715   6.571  67.262  1.00  0.00     0.000 HD 
HETATM   37  O   UNL     1      -7.469   4.414  67.949  1.00  0.00    -0.068 OA 
BRANCH  35  38
HETATM   38  C   UNL     1      -9.049   4.271  66.244  1.00  0.00    -0.129 A  
HETATM   39  O   UNL     1     -10.933   5.810  66.218  1.00  0.00    -0.681 OA 
HETATM   40  C   UNL     1     -10.270   4.715  65.729  1.00  0.00    -0.258 A  
HETATM   41  C   UNL     1     -10.291   2.875  64.204  1.00  0.00    -0.047 A  
HETATM   42  C   UNL     1     -10.889   4.032  64.688  1.00  0.00    -0.122 A  
HETATM   43  H   UNL     1     -11.763   6.112  65.868  1.00  0.00     0.000 HD 
HETATM   44  N   UNL     1      -9.110   2.414  64.688  1.00  0.00    -0.123 NA 
HETATM   45  C   UNL     1     -10.976   2.029  63.172  1.00  0.00    -0.245 C  
HETATM   46  C   UNL     1      -8.523   3.114  65.690  1.00  0.00    -0.108 A  
ENDBRANCH  35  38
ENDBRANCH  25  34
ENDBRANCH  24  25
ENDBRANCH   6  21
TORSDOF 8
ENDMDL
MODEL       71
REMARK 921   NORMALIZED FREE ENERGY PREDICTED BY IDOCK:   -5.54 KCAL/MOL
REMARK 922        TOTAL FREE ENERGY PREDICTED BY IDOCK:   -9.95 KCAL/MOL
REMARK 923 INTER-LIGAND FREE ENERGY PREDICTED BY IDOCK:   -9.19 KCAL/MOL
REMARK 924 INTRA-LIGAND FREE ENERGY PREDICTED BY IDOCK:   -0.75 KCAL/MOL
REMARK 927      BINDING AFFINITY PREDICTED BY RF-SCORE:    0.00 PKD
ROOT
HETATM    1  C   UNL     1      -7.651  11.375  69.064  1.00  0.00    -0.084 C  
HETATM    2  S   UNL     1      -9.438  11.085  68.936  1.00  0.00    -0.107 SA 
HETATM    3  C   UNL     1      -9.221   9.532  68.042  1.00  0.00    -0.129 C  
HETATM    4  C   UNL     1      -8.256   9.608  66.861  1.00  0.00    -0.113 C  
HETATM    5  CA  UNL     1      -7.310  10.577  66.714  1.00  0.00    -0.114 C  
HETATM    6  CA  UNL     1      -7.247  12.874  69.282  1.00  0.00     0.172 C  
HETATM    7  O   UNL     1      -5.835  13.320  67.124  1.00  0.00    -0.317 OA 
HETATM    8  N   UNL     1      -7.114  11.488  67.721  1.00  0.00    -0.075 N  
HETATM    9  C   UNL     1      -6.532  10.694  65.414  1.00  0.00    -0.034 C  
HETATM   10  OXT UNL     1      -6.851  10.128  64.378  1.00  0.00    -0.127 OA 
HETATM   11  O   UNL     1      -5.392  11.408  65.461  1.00  0.00    -0.233 OA 
HETATM   12  C   UNL     1      -6.537  12.697  67.886  1.00  0.00    -0.111 C  
ENDROOT
BRANCH   4  13
HETATM   13  C   UNL     1      -8.608   8.528  65.833  1.00  0.00    -0.163 C  
BRANCH  13  14
HETATM   14  S   UNL     1      -9.490   7.083  66.476  1.00  0.00    -0.118 SA 
BRANCH  14  15
HETATM   15  C   UNL     1      -8.249   6.041  67.043  1.00  0.00    -0.105 A  
HETATM   16  N   UNL     1      -7.527   6.159  68.128  1.00  0.00    -0.088 NA 
HETATM   17  C   UNL     1      -8.345   4.352  65.151  1.00  0.00    -0.116 C  
HETATM   18  N   UNL     1      -6.647   5.102  68.111  1.00  0.00    -0.048 NA 
HETATM   19  N   UNL     1      -7.846   4.925  66.370  1.00  0.00    -0.098 NA 
HETATM   20  N   UNL     1      -6.835   4.344  67.040  1.00  0.00    -0.051 NA 
ENDBRANCH  14  15
ENDBRANCH  13  14
ENDBRANCH   4  13
BRANCH   6  21
HETATM   21  N   UNL     1      -8.401  13.825  69.303  1.00  0.00    -0.203 N  
HETATM   22  H   UNL     1      -9.345  13.444  69.227  1.00  0.00     0.000 HD 
HETATM   23  O   UNL     1      -7.172  15.709  69.698  1.00  0.00    -0.200 OA 
HETATM   24  C   UNL     1      -8.252  15.196  69.419  1.00  0.00    -0.197 C  
BRANCH  24  25
HETATM   25  CA  UNL     1      -9.512  16.004  68.982  1.00  0.00    -0.243 C  
BRANCH  25  26
HETATM   26  C   UNL     1      -9.123  17.373  68.416  1.00  0.00    -0.274 A  
HETATM   27  O   UNL     1      -8.155  21.162  66.961  1.00  0.00    -0.613 OA 
HETATM   28  C   UNL     1      -7.789  17.820  68.430  1.00  0.00    -0.284 A  
HETATM   29  C   UNL     1      -9.750  19.480  67.349  1.00  0.00    -0.449 A  
HETATM   30  C   UNL     1      -8.435  19.912  67.423  1.00  0.00    -0.327 A  
HETATM   31  C   UNL     1      -7.447  19.087  67.944  1.00  0.00    -0.278 A  
HETATM   32  H   UNL     1      -8.831  21.726  66.604  1.00  0.00     0.000 HD 
HETATM   33  C   UNL     1     -10.089  18.213  67.826  1.00  0.00    -0.371 A  
ENDBRANCH  25  26
BRANCH  25  34
HETATM   34  N   UNL     1     -10.224  15.192  67.976  1.00  0.00    -0.229 N  
HETATM   35  C   UNL     1      -9.703  14.972  66.720  1.00  0.00    -0.241 C  
HETATM   36  H   UNL     1     -11.126  14.782  68.217  1.00  0.00     0.000 HD 
HETATM   37  O   UNL     1      -8.592  15.353  66.368  1.00  0.00    -0.287 OA 
BRANCH  35  38
HETATM   38  C   UNL     1     -10.510  14.179  65.761  1.00  0.00    -0.320 A  
HETATM   39  O   UNL     1     -10.946  16.110  64.346  1.00  0.00    -0.924 OA 
HETATM   40  C   UNL     1     -11.086  14.778  64.638  1.00  0.00    -0.325 A  
HETATM   41  C   UNL     1     -12.091  12.692  64.048  1.00  0.00    -0.462 A  
HETATM   42  C   UNL     1     -11.863  14.031  63.758  1.00  0.00    -0.160 A  
HETATM   43  H   UNL     1     -11.338  16.516  63.582  1.00  0.00     0.000 HD 
HETATM   44  N   UNL     1     -11.553  12.084  65.134  1.00  0.00    -0.308 NA 
HETATM   45  C   UNL     1     -13.024  11.872  63.206  1.00  0.00    -0.166 C  
HETATM   46  C   UNL     1     -10.784  12.836  65.961  1.00  0.00    -0.272 A  
ENDBRANCH  35  38
ENDBRANCH  25  34
ENDBRANCH  24  25
ENDBRANCH   6  21
TORSDOF 8
ENDMDL
MODEL       72
REMARK 921   NORMALIZED FREE ENERGY PREDICTED BY IDOCK:   -5.46 KCAL/MOL
REMARK 922        TOTAL FREE ENERGY PREDICTED BY IDOCK:   -9.83 KCAL/MOL
REMARK 923 INTER-LIGAND FREE ENERGY PREDICTED BY IDOCK:   -7.05 KCAL/MOL
REMARK 924 INTRA-LIGAND FREE ENERGY PREDICTED BY IDOCK:   -2.78 KCAL/MOL
REMARK 927      BINDING AFFINITY PREDICTED BY RF-SCORE:    0.00 PKD
ROOT
HETATM    1  C   UNL     1      -8.872   9.510  64.317  1.00  0.00    -0.213 C  
HETATM    2  S   UNL     1      -7.103   9.913  64.279  1.00  0.00    -0.131 SA 
HETATM    3  C   UNL     1      -6.617   8.193  64.029  1.00  0.00    -0.067 C  
HETATM    4  C   UNL     1      -7.272   7.202  64.988  1.00  0.00    -0.074 C  
HETATM    5  CA  UNL     1      -8.419   7.457  65.678  1.00  0.00    -0.130 C  
HETATM    6  CA  UNL     1      -9.766  10.568  65.054  1.00  0.00    -0.292 C  
HETATM    7  O   UNL     1     -10.737   9.113  67.002  1.00  0.00    -0.234 OA 
HETATM    8  N   UNL     1      -9.109   8.619  65.436  1.00  0.00    -0.143 N  
HETATM    9  C   UNL     1      -8.889   6.499  66.761  1.00  0.00    -0.129 C  
HETATM   10  OXT UNL     1      -8.188   5.619  67.239  1.00  0.00    -0.102 OA 
HETATM   11  O   UNL     1     -10.177   6.606  67.136  1.00  0.00    -0.169 OA 
HETATM   12  C   UNL     1     -10.059   9.367  66.034  1.00  0.00    -0.231 C  
ENDROOT
BRANCH   4  13
HETATM   13  C   UNL     1      -6.381   5.966  65.146  1.00  0.00    -0.038 C  
BRANCH  13  14
HETATM   14  S   UNL     1      -6.450   4.763  63.795  1.00  0.00    -0.031 SA 
BRANCH  14  15
HETATM   15  C   UNL     1      -8.079   4.221  63.788  1.00  0.00    -0.093 A  
HETATM   16  N   UNL     1      -9.068   4.639  63.040  1.00  0.00    -0.130 NA 
HETATM   17  C   UNL     1      -7.852   2.469  65.611  1.00  0.00    -0.078 C  
HETATM   18  N   UNL     1     -10.173   3.926  63.443  1.00  0.00    -0.187 NA 
HETATM   19  N   UNL     1      -8.547   3.254  64.628  1.00  0.00    -0.097 NA 
HETATM   20  N   UNL     1      -9.863   3.078  64.414  1.00  0.00    -0.149 NA 
ENDBRANCH  14  15
ENDBRANCH  13  14
ENDBRANCH   4  13
BRANCH   6  21
HETATM   21  N   UNL     1      -9.005  11.711  65.645  1.00  0.00    -0.395 N  
HETATM   22  H   UNL     1      -8.033  11.843  65.365  1.00  0.00     0.000 HD 
HETATM   23  O   UNL     1     -10.759  12.617  66.795  1.00  0.00    -0.236 OA 
HETATM   24  C   UNL     1      -9.555  12.599  66.553  1.00  0.00    -0.248 C  
BRANCH  24  25
HETATM   25  CA  UNL     1      -8.495  13.416  67.353  1.00  0.00    -0.196 C  
BRANCH  25  26
HETATM   26  C   UNL     1      -9.058  14.770  67.796  1.00  0.00    -0.186 A  
HETATM   27  O   UNL     1     -10.503  18.457  69.111  1.00  0.00    -0.447 OA 
HETATM   28  C   UNL     1      -9.046  15.885  66.938  1.00  0.00    -0.255 A  
HETATM   29  C   UNL     1     -10.116  16.170  69.496  1.00  0.00    -0.241 A  
HETATM   30  C   UNL     1     -10.045  17.263  68.645  1.00  0.00    -0.341 A  
HETATM   31  C   UNL     1      -9.529  17.128  67.362  1.00  0.00    -0.247 A  
HETATM   32  H   UNL     1     -10.856  18.549  69.988  1.00  0.00     0.000 HD 
HETATM   33  C   UNL     1      -9.642  14.929  69.069  1.00  0.00    -0.204 A  
ENDBRANCH  25  26
BRANCH  25  34
HETATM   34  N   UNL     1      -8.099  12.596  68.516  1.00  0.00    -0.273 N  
HETATM   35  C   UNL     1      -7.083  11.670  68.439  1.00  0.00    -0.083 C  
HETATM   36  H   UNL     1      -8.591  12.719  69.400  1.00  0.00     0.000 HD 
HETATM   37  O   UNL     1      -6.381  11.510  67.445  1.00  0.00    -0.070 OA 
BRANCH  35  38
HETATM   38  C   UNL     1      -6.785  10.863  69.646  1.00  0.00    -0.131 A  
HETATM   39  O   UNL     1      -8.636   9.338  69.232  1.00  0.00    -0.130 OA 
HETATM   40  C   UNL     1      -7.565   9.753  69.980  1.00  0.00    -0.163 A  
HETATM   41  C   UNL     1      -6.262   9.439  71.958  1.00  0.00     0.156 A  
HETATM   42  C   UNL     1      -7.293   9.018  71.129  1.00  0.00    -0.115 A  
HETATM   43  H   UNL     1      -9.166   8.584  69.459  1.00  0.00     0.000 HD 
HETATM   44  N   UNL     1      -5.492  10.516  71.666  1.00  0.00    -0.296 NA 
HETATM   45  C   UNL     1      -6.007   8.762  73.273  1.00  0.00    -0.088 C  
HETATM   46  C   UNL     1      -5.770  11.200  70.528  1.00  0.00    -0.140 A  
ENDBRANCH  35  38
ENDBRANCH  25  34
ENDBRANCH  24  25
ENDBRANCH   6  21
TORSDOF 8
ENDMDL
MODEL       73
REMARK 921   NORMALIZED FREE ENERGY PREDICTED BY IDOCK:   -5.46 KCAL/MOL
REMARK 922        TOTAL FREE ENERGY PREDICTED BY IDOCK:   -9.83 KCAL/MOL
REMARK 923 INTER-LIGAND FREE ENERGY PREDICTED BY IDOCK:   -8.01 KCAL/MOL
REMARK 924 INTRA-LIGAND FREE ENERGY PREDICTED BY IDOCK:   -1.82 KCAL/MOL
REMARK 927      BINDING AFFINITY PREDICTED BY RF-SCORE:    0.00 PKD
ROOT
HETATM    1  C   UNL     1      -8.975  12.068  68.725  1.00  0.00     0.085 C  
HETATM    2  S   UNL     1      -7.604  11.973  67.539  1.00  0.00    -0.158 SA 
HETATM    3  C   UNL     1      -7.625  13.750  67.223  1.00  0.00    -0.055 C  
HETATM    4  C   UNL     1      -9.007  14.326  66.925  1.00  0.00    -0.255 C  
HETATM    5  CA  UNL     1     -10.175  13.716  67.270  1.00  0.00    -0.246 C  
HETATM    6  CA  UNL     1      -9.756  10.723  68.927  1.00  0.00    -0.198 C  
HETATM    7  O   UNL     1     -12.145  11.419  68.114  1.00  0.00    -0.623 OA 
HETATM    8  N   UNL     1     -10.142  12.572  68.026  1.00  0.00    -0.214 N  
HETATM    9  C   UNL     1     -11.500  14.255  66.756  1.00  0.00    -0.367 C  
HETATM   10  OXT UNL     1     -11.596  15.070  65.850  1.00  0.00    -0.291 OA 
HETATM   11  O   UNL     1     -12.605  13.850  67.409  1.00  0.00    -0.068 OA 
HETATM   12  C   UNL     1     -10.965  11.549  68.340  1.00  0.00    -0.221 C  
ENDROOT
BRANCH   4  13
HETATM   13  C   UNL     1      -8.868  15.595  66.078  1.00  0.00    -0.174 C  
BRANCH  13  14
HETATM   14  S   UNL     1      -7.961  16.962  66.844  1.00  0.00    -0.239 SA 
BRANCH  14  15
HETATM   15  C   UNL     1      -9.119  18.222  66.979  1.00  0.00    -0.271 A  
HETATM   16  N   UNL     1     -10.342  18.152  67.438  1.00  0.00    -0.373 NA 
HETATM   17  C   UNL     1      -7.683  20.091  66.035  1.00  0.00    -0.300 C  
HETATM   18  N   UNL     1     -10.871  19.415  67.296  1.00  0.00    -0.493 NA 
HETATM   19  N   UNL     1      -8.877  19.503  66.576  1.00  0.00    -0.341 NA 
HETATM   20  N   UNL     1      -9.982  20.246  66.769  1.00  0.00    -0.460 NA 
ENDBRANCH  14  15
ENDBRANCH  13  14
ENDBRANCH   4  13
BRANCH   6  21
HETATM   21  N   UNL     1      -9.270   9.596  68.074  1.00  0.00    -0.126 N  
HETATM   22  H   UNL     1      -8.358   9.684  67.626  1.00  0.00     0.000 HD 
HETATM   23  O   UNL     1     -11.011   8.181  68.507  1.00  0.00     0.026 OA 
HETATM   24  C   UNL     1      -9.998   8.438  67.861  1.00  0.00    -0.184 C  
BRANCH  24  25
HETATM   25  CA  UNL     1      -9.523   7.616  66.624  1.00  0.00    -0.198 C  
BRANCH  25  26
HETATM   26  C   UNL     1      -8.843   8.518  65.589  1.00  0.00    -0.214 A  
HETATM   27  O   UNL     1      -6.969  10.860  62.688  1.00  0.00    -0.344 OA 
HETATM   28  C   UNL     1      -9.512   9.620  65.025  1.00  0.00    -0.312 A  
HETATM   29  C   UNL     1      -6.897   9.080  64.222  1.00  0.00    -0.083 A  
HETATM   30  C   UNL     1      -7.599  10.128  63.648  1.00  0.00    -0.139 A  
HETATM   31  C   UNL     1      -8.896  10.416  64.053  1.00  0.00    -0.225 A  
HETATM   32  H   UNL     1      -6.082  10.663  62.412  1.00  0.00     0.000 HD 
HETATM   33  C   UNL     1      -7.508   8.291  65.198  1.00  0.00    -0.085 A  
ENDBRANCH  25  26
BRANCH  25  34
HETATM   34  N   UNL     1      -8.597   6.578  67.119  1.00  0.00    -0.112 N  
HETATM   35  C   UNL     1      -9.037   5.321  67.471  1.00  0.00    -0.109 C  
HETATM   36  H   UNL     1      -7.605   6.797  67.202  1.00  0.00     0.000 HD 
HETATM   37  O   UNL     1     -10.194   4.940  67.328  1.00  0.00    -0.183 OA 
BRANCH  35  38
HETATM   38  C   UNL     1      -8.040   4.359  67.998  1.00  0.00    -0.090 A  
HETATM   39  O   UNL     1      -8.940   2.521  66.682  1.00  0.00    -0.129 OA 
HETATM   40  C   UNL     1      -8.040   3.024  67.585  1.00  0.00    -0.079 A  
HETATM   41  C   UNL     1      -6.229   2.567  69.075  1.00  0.00    -0.028 A  
HETATM   42  C   UNL     1      -7.117   2.122  68.105  1.00  0.00    -0.047 A  
HETATM   43  H   UNL     1      -8.940   1.614  66.401  1.00  0.00     0.000 HD 
HETATM   44  N   UNL     1      -6.208   3.854  69.503  1.00  0.00    -0.027 NA 
HETATM   45  C   UNL     1      -5.299   1.611  69.762  1.00  0.00    -0.012 C  
HETATM   46  C   UNL     1      -7.109   4.713  68.962  1.00  0.00    -0.052 A  
ENDBRANCH  35  38
ENDBRANCH  25  34
ENDBRANCH  24  25
ENDBRANCH   6  21
TORSDOF 8
ENDMDL
MODEL       74
REMARK 921   NORMALIZED FREE ENERGY PREDICTED BY IDOCK:   -5.42 KCAL/MOL
REMARK 922        TOTAL FREE ENERGY PREDICTED BY IDOCK:   -9.77 KCAL/MOL
REMARK 923 INTER-LIGAND FREE ENERGY PREDICTED BY IDOCK:   -9.56 KCAL/MOL
REMARK 924 INTRA-LIGAND FREE ENERGY PREDICTED BY IDOCK:   -0.20 KCAL/MOL
REMARK 927      BINDING AFFINITY PREDICTED BY RF-SCORE:    0.00 PKD
ROOT
HETATM    1  C   UNL     1      -9.763   9.297  66.683  1.00  0.00    -0.219 C  
HETATM    2  S   UNL     1     -10.812  10.556  67.463  1.00  0.00    -0.299 SA 
HETATM    3  C   UNL     1      -9.762  11.915  66.907  1.00  0.00    -0.200 C  
HETATM    4  C   UNL     1      -8.273  11.720  67.180  1.00  0.00    -0.169 C  
HETATM    5  CA  UNL     1      -7.695  10.508  67.410  1.00  0.00    -0.102 C  
HETATM    6  CA  UNL     1      -9.900   7.861  67.299  1.00  0.00    -0.195 C  
HETATM    7  O   UNL     1      -7.461   7.467  68.165  1.00  0.00    -0.099 OA 
HETATM    8  N   UNL     1      -8.447   9.367  67.288  1.00  0.00    -0.124 N  
HETATM    9  C   UNL     1      -6.249  10.426  67.873  1.00  0.00    -0.059 C  
HETATM   10  OXT UNL     1      -5.614  11.383  68.290  1.00  0.00    -0.046 OA 
HETATM   11  O   UNL     1      -5.642   9.233  67.729  1.00  0.00    -0.038 OA 
HETATM   12  C   UNL     1      -8.381   8.073  67.667  1.00  0.00    -0.128 C  
ENDROOT
BRANCH   4  13
HETATM   13  C   UNL     1      -7.581  13.083  67.286  1.00  0.00    -0.089 C  
BRANCH  13  14
HETATM   14  S   UNL     1      -8.354  14.276  68.407  1.00  0.00    -0.167 SA 
BRANCH  14  15
HETATM   15  C   UNL     1      -8.460  15.722  67.487  1.00  0.00    -0.168 A  
HETATM   16  N   UNL     1      -8.070  15.927  66.254  1.00  0.00    -0.167 NA 
HETATM   17  C   UNL     1      -9.556  17.165  69.265  1.00  0.00    -0.013 C  
HETATM   18  N   UNL     1      -8.333  17.252  65.992  1.00  0.00    -0.532 NA 
HETATM   19  N   UNL     1      -8.974  16.885  67.981  1.00  0.00    -0.219 NA 
HETATM   20  N   UNL     1      -8.884  17.844  67.043  1.00  0.00    -0.244 NA 
ENDBRANCH  14  15
ENDBRANCH  13  14
ENDBRANCH   4  13
BRANCH   6  21
HETATM   21  N   UNL     1     -10.838   7.777  68.459  1.00  0.00    -0.417 N  
HETATM   22  H   UNL     1     -11.271   8.637  68.797  1.00  0.00     0.000 HD 
HETATM   23  O   UNL     1     -10.817   5.500  68.640  1.00  0.00    -0.177 OA 
HETATM   24  C   UNL     1     -11.149   6.590  69.099  1.00  0.00    -0.326 C  
BRANCH  24  25
HETATM   25  CA  UNL     1     -11.774   6.784  70.514  1.00  0.00    -0.375 C  
BRANCH  25  26
HETATM   26  C   UNL     1     -10.762   6.452  71.616  1.00  0.00    -0.274 A  
HETATM   27  O   UNL     1      -7.913   5.633  74.552  1.00  0.00    -0.103 OA 
HETATM   28  C   UNL     1     -11.057   6.675  72.973  1.00  0.00    -0.238 A  
HETATM   29  C   UNL     1      -8.571   5.611  72.295  1.00  0.00    -0.129 A  
HETATM   30  C   UNL     1      -8.871   5.889  73.620  1.00  0.00    -0.124 A  
HETATM   31  C   UNL     1     -10.113   6.403  73.970  1.00  0.00    -0.328 A  
HETATM   32  H   UNL     1      -7.063   5.281  74.312  1.00  0.00     0.000 HD 
HETATM   33  C   UNL     1      -9.515   5.874  71.302  1.00  0.00    -0.181 A  
ENDBRANCH  25  26
BRANCH  25  34
HETATM   34  N   UNL     1     -12.222   8.187  70.606  1.00  0.00    -0.491 N  
HETATM   35  C   UNL     1     -11.352   9.208  70.923  1.00  0.00    -0.295 C  
HETATM   36  H   UNL     1     -13.201   8.408  70.429  1.00  0.00     0.000 HD 
HETATM   37  O   UNL     1     -10.144   9.052  71.070  1.00  0.00    -0.232 OA 
BRANCH  35  38
HETATM   38  C   UNL     1     -11.901  10.580  71.033  1.00  0.00    -0.438 A  
HETATM   39  O   UNL     1     -13.351   9.980  72.893  1.00  0.00    -0.320 OA 
HETATM   40  C   UNL     1     -12.862  10.895  71.998  1.00  0.00    -0.217 A  
HETATM   41  C   UNL     1     -12.978  13.125  71.147  1.00  0.00    -0.198 A  
HETATM   42  C   UNL     1     -13.390  12.180  72.076  1.00  0.00    -0.470 A  
HETATM   43  H   UNL     1     -14.003  10.195  73.549  1.00  0.00     0.000 HD 
HETATM   44  N   UNL     1     -12.054  12.848  70.193  1.00  0.00    -0.337 NA 
HETATM   45  C   UNL     1     -13.608  14.486  71.103  1.00  0.00    -0.368 C  
HETATM   46  C   UNL     1     -11.543  11.592  70.156  1.00  0.00    -0.249 A  
ENDBRANCH  35  38
ENDBRANCH  25  34
ENDBRANCH  24  25
ENDBRANCH   6  21
TORSDOF 8
ENDMDL
MODEL       75
REMARK 921   NORMALIZED FREE ENERGY PREDICTED BY IDOCK:   -5.40 KCAL/MOL
REMARK 922        TOTAL FREE ENERGY PREDICTED BY IDOCK:   -9.74 KCAL/MOL
REMARK 923 INTER-LIGAND FREE ENERGY PREDICTED BY IDOCK:   -8.36 KCAL/MOL
REMARK 924 INTRA-LIGAND FREE ENERGY PREDICTED BY IDOCK:   -1.38 KCAL/MOL
REMARK 927      BINDING AFFINITY PREDICTED BY RF-SCORE:    0.00 PKD
ROOT
HETATM    1  C   UNL     1     -10.517   8.823  69.026  1.00  0.00    -0.203 C  
HETATM    2  S   UNL     1     -10.596   8.649  67.221  1.00  0.00    -0.158 SA 
HETATM    3  C   UNL     1     -10.666   6.847  67.300  1.00  0.00    -0.351 C  
HETATM    4  C   UNL     1      -9.610   6.209  68.199  1.00  0.00    -0.117 C  
HETATM    5  CA  UNL     1      -8.951   6.875  69.188  1.00  0.00    -0.133 C  
HETATM    6  CA  UNL     1      -9.893  10.173  69.524  1.00  0.00    -0.232 C  
HETATM    7  O   UNL     1      -7.805   9.293  70.834  1.00  0.00    -0.169 OA 
HETATM    8  N   UNL     1      -9.311   8.164  69.491  1.00  0.00    -0.155 N  
HETATM    9  C   UNL     1      -7.774   6.223  69.896  1.00  0.00    -0.105 C  
HETATM   10  OXT UNL     1      -7.207   5.220  69.488  1.00  0.00    -0.058 OA 
HETATM   11  O   UNL     1      -7.412   6.762  71.075  1.00  0.00    -0.081 OA 
HETATM   12  C   UNL     1      -8.794   9.227  70.143  1.00  0.00    -0.213 C  
ENDROOT
BRANCH   4  13
HETATM   13  C   UNL     1      -9.324   4.779  67.730  1.00  0.00    -0.136 C  
BRANCH  13  14
HETATM   14  S   UNL     1      -8.285   4.624  66.255  1.00  0.00    -0.107 SA 
BRANCH  14  15
HETATM   15  C   UNL     1      -9.327   3.957  65.065  1.00  0.00    -0.158 A  
HETATM   16  N   UNL     1     -10.577   4.258  64.823  1.00  0.00    -0.187 NA 
HETATM   17  C   UNL     1      -7.669   2.321  64.055  1.00  0.00    -0.064 C  
HETATM   18  N   UNL     1     -10.977   3.420  63.808  1.00  0.00    -0.289 NA 
HETATM   19  N   UNL     1      -8.943   2.967  64.208  1.00  0.00    -0.107 NA 
HETATM   20  N   UNL     1      -9.984   2.628  63.427  1.00  0.00    -0.121 NA 
ENDBRANCH  14  15
ENDBRANCH  13  14
ENDBRANCH   4  13
BRANCH   6  21
HETATM   21  N   UNL     1      -9.424  11.075  68.428  1.00  0.00    -0.175 N  
HETATM   22  H   UNL     1     -10.043  11.234  67.632  1.00  0.00     0.000 HD 
HETATM   23  O   UNL     1      -7.476  11.711  69.437  1.00  0.00     0.001 OA 
HETATM   24  C   UNL     1      -8.192  11.705  68.439  1.00  0.00    -0.155 C  
BRANCH  24  25
HETATM   25  CA  UNL     1      -7.738  12.222  67.040  1.00  0.00    -0.089 C  
BRANCH  25  26
HETATM   26  C   UNL     1      -8.131  11.238  65.933  1.00  0.00     0.050 A  
HETATM   27  O   UNL     1      -9.202   8.667  62.826  1.00  0.00    -0.401 OA 
HETATM   28  C   UNL     1      -7.348  10.105  65.647  1.00  0.00    -0.144 A  
HETATM   29  C   UNL     1      -9.657  10.554  64.152  1.00  0.00    -0.369 A  
HETATM   30  C   UNL     1      -8.839   9.474  63.860  1.00  0.00    -0.210 A  
HETATM   31  C   UNL     1      -7.695   9.232  64.610  1.00  0.00    -0.116 A  
HETATM   32  H   UNL     1      -9.985   8.833  62.314  1.00  0.00     0.000 HD 
HETATM   33  C   UNL     1      -9.316  11.420  65.191  1.00  0.00    -0.172 A  
ENDBRANCH  25  26
BRANCH  25  34
HETATM   34  N   UNL     1      -8.371  13.539  66.834  1.00  0.00    -0.407 N  
HETATM   35  C   UNL     1      -7.684  14.715  67.037  1.00  0.00     0.041 C  
HETATM   36  H   UNL     1      -9.345  13.579  66.532  1.00  0.00     0.000 HD 
HETATM   37  O   UNL     1      -6.491  14.766  67.319  1.00  0.00    -0.300 OA 
BRANCH  35  38
HETATM   38  C   UNL     1      -8.416  15.990  66.846  1.00  0.00    -0.275 A  
HETATM   39  O   UNL     1     -10.449  15.113  67.856  1.00  0.00    -0.240 OA 
HETATM   40  C   UNL     1      -9.745  16.125  67.258  1.00  0.00    -0.233 A  
HETATM   41  C   UNL     1      -9.783  18.350  66.386  1.00  0.00    -0.339 A  
HETATM   42  C   UNL     1     -10.431  17.317  67.051  1.00  0.00    -0.287 A  
HETATM   43  H   UNL     1     -11.352  15.205  68.135  1.00  0.00     0.000 HD 
HETATM   44  N   UNL     1      -8.497  18.247  65.967  1.00  0.00    -0.511 NA 
HETATM   45  C   UNL     1     -10.514  19.608  66.022  1.00  0.00    -0.622 C  
HETATM   46  C   UNL     1      -7.849  17.078  66.202  1.00  0.00    -0.260 A  
ENDBRANCH  35  38
ENDBRANCH  25  34
ENDBRANCH  24  25
ENDBRANCH   6  21
TORSDOF 8
ENDMDL
MODEL       76
REMARK 921   NORMALIZED FREE ENERGY PREDICTED BY IDOCK:   -5.39 KCAL/MOL
REMARK 922        TOTAL FREE ENERGY PREDICTED BY IDOCK:   -9.73 KCAL/MOL
REMARK 923 INTER-LIGAND FREE ENERGY PREDICTED BY IDOCK:   -8.16 KCAL/MOL
REMARK 924 INTRA-LIGAND FREE ENERGY PREDICTED BY IDOCK:   -1.57 KCAL/MOL
REMARK 927      BINDING AFFINITY PREDICTED BY RF-SCORE:    0.00 PKD
ROOT
HETATM    1  C   UNL     1      -7.592   6.231  66.790  1.00  0.00    -0.099 C  
HETATM    2  S   UNL     1      -7.187   6.854  68.446  1.00  0.00    -0.090 SA 
HETATM    3  C   UNL     1      -6.114   5.451  68.818  1.00  0.00    -0.022 C  
HETATM    4  C   UNL     1      -6.727   4.086  68.519  1.00  0.00    -0.046 C  
HETATM    5  CA  UNL     1      -7.773   3.892  67.668  1.00  0.00    -0.075 C  
HETATM    6  CA  UNL     1      -8.933   6.784  66.194  1.00  0.00    -0.136 C  
HETATM    7  O   UNL     1     -10.299   4.567  65.927  1.00  0.00    -0.269 OA 
HETATM    8  N   UNL     1      -8.255   4.950  66.939  1.00  0.00    -0.107 N  
HETATM    9  C   UNL     1      -8.450   2.534  67.585  1.00  0.00    -0.089 C  
HETATM   10  OXT UNL     1      -8.283   1.641  68.404  1.00  0.00    -0.055 OA 
HETATM   11  O   UNL     1      -9.208   2.308  66.496  1.00  0.00    -0.099 OA 
HETATM   12  C   UNL     1      -9.367   5.269  66.243  1.00  0.00    -0.153 C  
ENDROOT
BRANCH   4  13
HETATM   13  C   UNL     1      -6.081   3.020  69.411  1.00  0.00    -0.024 C  
BRANCH  13  14
HETATM   14  S   UNL     1      -6.110   3.355  71.190  1.00  0.00    -0.015 SA 
BRANCH  14  15
HETATM   15  C   UNL     1      -7.762   3.663  71.541  1.00  0.00    -0.057 A  
HETATM   16  N   UNL     1      -8.789   2.871  71.362  1.00  0.00    -0.077 NA 
HETATM   17  C   UNL     1      -7.474   6.015  72.450  1.00  0.00    -0.099 C  
HETATM   18  N   UNL     1      -9.893   3.591  71.757  1.00  0.00    -0.167 NA 
HETATM   19  N   UNL     1      -8.208   4.845  72.054  1.00  0.00    -0.113 NA 
HETATM   20  N   UNL     1      -9.546   4.799  72.180  1.00  0.00    -0.148 NA 
ENDBRANCH  14  15
ENDBRANCH  13  14
ENDBRANCH   4  13
BRANCH   6  21
HETATM   21  N   UNL     1      -9.681   7.699  67.110  1.00  0.00    -0.168 N  
HETATM   22  H   UNL     1     -10.280   7.286  67.826  1.00  0.00     0.000 HD 
HETATM   23  O   UNL     1      -8.768   9.642  66.329  1.00  0.00    -0.137 OA 
HETATM   24  C   UNL     1      -9.601   9.079  67.035  1.00  0.00    -0.176 C  
BRANCH  24  25
HETATM   25  CA  UNL     1     -10.766   9.816  67.763  1.00  0.00    -0.272 C  
BRANCH  25  26
HETATM   26  C   UNL     1     -10.887   9.355  69.220  1.00  0.00    -0.190 A  
HETATM   27  O   UNL     1     -11.349   8.055  73.157  1.00  0.00    -0.424 OA 
HETATM   28  C   UNL     1      -9.972   8.445  69.779  1.00  0.00    -0.191 A  
HETATM   29  C   UNL     1     -12.046   9.413  71.369  1.00  0.00    -0.442 A  
HETATM   30  C   UNL     1     -11.159   8.477  71.877  1.00  0.00    -0.325 A  
HETATM   31  C   UNL     1     -10.111   8.001  71.099  1.00  0.00    -0.221 A  
HETATM   32  H   UNL     1     -12.065   8.382  73.690  1.00  0.00     0.000 HD 
HETATM   33  C   UNL     1     -11.902   9.862  70.056  1.00  0.00    -0.131 A  
ENDBRANCH  25  26
BRANCH  25  34
HETATM   34  N   UNL     1     -10.485  11.263  67.682  1.00  0.00    -0.186 N  
HETATM   35  C   UNL     1     -11.182  12.091  66.830  1.00  0.00    -0.322 C  
HETATM   36  H   UNL     1      -9.756  11.660  68.273  1.00  0.00     0.000 HD 
HETATM   37  O   UNL     1     -12.129  11.721  66.144  1.00  0.00    -0.422 OA 
BRANCH  35  38
HETATM   38  C   UNL     1     -10.801  13.523  66.787  1.00  0.00    -0.284 A  
HETATM   39  O   UNL     1     -10.282  13.438  64.411  1.00  0.00    -0.569 OA 
HETATM   40  C   UNL     1     -10.374  14.118  65.597  1.00  0.00    -0.333 A  
HETATM   41  C   UNL     1     -10.004  16.171  66.762  1.00  0.00    -0.258 A  
HETATM   42  C   UNL     1      -9.994  15.456  65.572  1.00  0.00    -0.379 A  
HETATM   43  H   UNL     1      -9.992  13.842  63.602  1.00  0.00     0.000 HD 
HETATM   44  N   UNL     1     -10.405  15.620  67.935  1.00  0.00    -0.254 NA 
HETATM   45  C   UNL     1      -9.482  17.577  66.819  1.00  0.00    -0.282 C  
HETATM   46  C   UNL     1     -10.788  14.319  67.921  1.00  0.00    -0.253 A  
ENDBRANCH  35  38
ENDBRANCH  25  34
ENDBRANCH  24  25
ENDBRANCH   6  21
TORSDOF 8
ENDMDL
MODEL       77
REMARK 921   NORMALIZED FREE ENERGY PREDICTED BY IDOCK:   -5.38 KCAL/MOL
REMARK 922        TOTAL FREE ENERGY PREDICTED BY IDOCK:   -9.72 KCAL/MOL
REMARK 923 INTER-LIGAND FREE ENERGY PREDICTED BY IDOCK:   -6.67 KCAL/MOL
REMARK 924 INTRA-LIGAND FREE ENERGY PREDICTED BY IDOCK:   -3.05 KCAL/MOL
REMARK 927      BINDING AFFINITY PREDICTED BY RF-SCORE:    0.00 PKD
ROOT
HETATM    1  C   UNL     1      -7.733   7.468  65.687  1.00  0.00    -0.100 C  
HETATM    2  S   UNL     1      -6.317   7.540  66.821  1.00  0.00    -0.050 SA 
HETATM    3  C   UNL     1      -5.840   5.831  66.488  1.00  0.00    -0.018 C  
HETATM    4  C   UNL     1      -6.984   4.824  66.574  1.00  0.00    -0.067 C  
HETATM    5  CA  UNL     1      -8.300   5.159  66.474  1.00  0.00    -0.108 C  
HETATM    6  CA  UNL     1      -8.855   8.524  65.978  1.00  0.00    -0.173 C  
HETATM    7  O   UNL     1     -10.879   6.952  66.509  1.00  0.00    -0.131 OA 
HETATM    8  N   UNL     1      -8.647   6.452  66.170  1.00  0.00    -0.139 N  
HETATM    9  C   UNL     1      -9.376   4.128  66.773  1.00  0.00    -0.176 C  
HETATM   10  OXT UNL     1      -9.160   3.064  67.334  1.00  0.00    -0.148 OA 
HETATM   11  O   UNL     1     -10.612   4.401  66.313  1.00  0.00    -0.145 OA 
HETATM   12  C   UNL     1      -9.737   7.245  66.244  1.00  0.00     0.002 C  
ENDROOT
BRANCH   4  13
HETATM   13  C   UNL     1      -6.430   3.437  66.916  1.00  0.00    -0.037 C  
BRANCH  13  14
HETATM   14  S   UNL     1      -5.565   3.302  68.501  1.00  0.00    -0.018 SA 
BRANCH  14  15
HETATM   15  C   UNL     1      -6.817   3.306  69.675  1.00  0.00    -0.034 A  
HETATM   16  N   UNL     1      -7.490   2.287  70.145  1.00  0.00    -0.043 NA 
HETATM   17  C   UNL     1      -6.859   5.808  70.103  1.00  0.00    -0.053 C  
HETATM   18  N   UNL     1      -8.406   2.814  71.025  1.00  0.00    -0.056 NA 
HETATM   19  N   UNL     1      -7.287   4.446  70.260  1.00  0.00    -0.048 NA 
HETATM   20  N   UNL     1      -8.289   4.133  71.100  1.00  0.00    -0.082 NA 
ENDBRANCH  14  15
ENDBRANCH  13  14
ENDBRANCH   4  13
BRANCH   6  21
HETATM   21  N   UNL     1      -8.594   9.386  67.171  1.00  0.00    -0.127 N  
HETATM   22  H   UNL     1      -8.379   8.933  68.060  1.00  0.00     0.000 HD 
HETATM   23  O   UNL     1      -8.695  11.385  66.069  1.00  0.00    -0.184 OA 
HETATM   24  C   UNL     1      -8.628  10.770  67.130  1.00  0.00    -0.128 C  
BRANCH  24  25
HETATM   25  CA  UNL     1      -8.765  11.437  68.533  1.00  0.00    -0.149 C  
BRANCH  25  26
HETATM   26  C   UNL     1      -9.692  12.655  68.478  1.00  0.00    -0.131 A  
HETATM   27  O   UNL     1     -12.268  15.937  68.455  1.00  0.00    -0.438 OA 
HETATM   28  C   UNL     1      -9.184  13.955  68.304  1.00  0.00    -0.207 A  
HETATM   29  C   UNL     1     -11.939  13.612  68.558  1.00  0.00    -0.396 A  
HETATM   30  C   UNL     1     -11.405  14.885  68.436  1.00  0.00    -0.303 A  
HETATM   31  C   UNL     1     -10.035  15.066  68.292  1.00  0.00    -0.225 A  
HETATM   32  H   UNL     1     -13.205  15.813  68.553  1.00  0.00     0.000 HD 
HETATM   33  C   UNL     1     -11.091  12.504  68.561  1.00  0.00    -0.297 A  
ENDBRANCH  25  26
BRANCH  25  34
HETATM   34  N   UNL     1      -9.287  10.409  69.456  1.00  0.00    -0.369 N  
HETATM   35  C   UNL     1      -8.450   9.559  70.144  1.00  0.00    -0.205 C  
HETATM   36  H   UNL     1     -10.295  10.327  69.587  1.00  0.00     0.000 HD 
HETATM   37  O   UNL     1      -7.226   9.637  70.114  1.00  0.00    -0.093 OA 
BRANCH  35  38
HETATM   38  C   UNL     1      -9.068   8.531  71.016  1.00  0.00    -0.221 A  
HETATM   39  O   UNL     1     -10.866   8.098  69.435  1.00  0.00    -0.362 OA 
HETATM   40  C   UNL     1     -10.230   7.861  70.626  1.00  0.00    -0.196 A  
HETATM   41  C   UNL     1     -10.249   6.690  72.709  1.00  0.00    -0.187 A  
HETATM   42  C   UNL     1     -10.816   6.916  71.462  1.00  0.00    -0.257 A  
HETATM   43  H   UNL     1     -11.656   7.643  69.170  1.00  0.00     0.000 HD 
HETATM   44  N   UNL     1      -9.126   7.331  73.120  1.00  0.00    -0.142 NA 
HETATM   45  C   UNL     1     -10.910   5.780  73.701  1.00  0.00    -0.228 C  
HETATM   46  C   UNL     1      -8.567   8.231  72.273  1.00  0.00    -0.194 A  
ENDBRANCH  35  38
ENDBRANCH  25  34
ENDBRANCH  24  25
ENDBRANCH   6  21
TORSDOF 8
ENDMDL
MODEL       78
REMARK 921   NORMALIZED FREE ENERGY PREDICTED BY IDOCK:   -5.38 KCAL/MOL
REMARK 922        TOTAL FREE ENERGY PREDICTED BY IDOCK:   -9.71 KCAL/MOL
REMARK 923 INTER-LIGAND FREE ENERGY PREDICTED BY IDOCK:   -9.85 KCAL/MOL
REMARK 924 INTRA-LIGAND FREE ENERGY PREDICTED BY IDOCK:    0.13 KCAL/MOL
REMARK 927      BINDING AFFINITY PREDICTED BY RF-SCORE:    0.00 PKD
ROOT
HETATM    1  C   UNL     1     -12.470  14.174  66.052  1.00  0.00    -0.425 C  
HETATM    2  S   UNL     1     -12.276  12.881  67.311  1.00  0.00     0.147 SA 
HETATM    3  C   UNL     1     -12.331  14.063  68.674  1.00  0.00    -0.008 C  
HETATM    4  C   UNL     1     -11.411  15.270  68.505  1.00  0.00    -0.355 C  
HETATM    5  CA  UNL     1     -10.917  15.687  67.306  1.00  0.00    -0.275 C  
HETATM    6  CA  UNL     1     -11.948  13.781  64.626  1.00  0.00    -0.416 C  
HETATM    7  O   UNL     1     -10.066  15.568  64.285  1.00  0.00     0.413 OA 
HETATM    8  N   UNL     1     -11.338  15.076  66.152  1.00  0.00    -0.314 N  
HETATM    9  C   UNL     1      -9.850  16.769  67.254  1.00  0.00    -0.260 C  
HETATM   10  OXT UNL     1      -9.214  17.143  68.229  1.00  0.00    -0.246 OA 
HETATM   11  O   UNL     1      -9.676  17.381  66.068  1.00  0.00    -0.459 OA 
HETATM   12  C   UNL     1     -10.940  14.970  64.867  1.00  0.00    -0.413 C  
ENDROOT
BRANCH   4  13
HETATM   13  C   UNL     1     -11.038  15.833  69.880  1.00  0.00    -0.331 C  
BRANCH  13  14
HETATM   14  S   UNL     1     -11.173  14.681  71.270  1.00  0.00     0.375 SA 
BRANCH  14  15
HETATM   15  C   UNL     1     -12.131  15.514  72.425  1.00  0.00    -0.433 A  
HETATM   16  N   UNL     1     -11.735  16.325  73.372  1.00  0.00    -0.226 NA 
HETATM   17  C   UNL     1     -14.393  14.648  71.663  1.00  0.00    -0.517 C  
HETATM   18  N   UNL     1     -12.873  16.695  74.052  1.00  0.00    -0.546 NA 
HETATM   19  N   UNL     1     -13.489  15.393  72.495  1.00  0.00    -0.456 NA 
HETATM   20  N   UNL     1     -13.948  16.129  73.522  1.00  0.00    -0.198 NA 
ENDBRANCH  14  15
ENDBRANCH  13  14
ENDBRANCH   4  13
BRANCH   6  21
HETATM   21  N   UNL     1     -11.334  12.420  64.551  1.00  0.00    -0.314 N  
HETATM   22  H   UNL     1     -11.762  11.728  63.936  1.00  0.00     0.000 HD 
HETATM   23  O   UNL     1      -9.539  12.876  65.889  1.00  0.00    -0.224 OA 
HETATM   24  C   UNL     1     -10.213  12.053  65.275  1.00  0.00    -0.271 C  
BRANCH  24  25
HETATM   25  CA  UNL     1     -10.014  10.510  65.386  1.00  0.00    -0.289 C  
BRANCH  25  26
HETATM   26  C   UNL     1      -8.796  10.049  64.579  1.00  0.00    -0.231 A  
HETATM   27  O   UNL     1      -5.467   8.684  62.467  1.00  0.00    -0.070 OA 
HETATM   28  C   UNL     1      -8.881   9.813  63.195  1.00  0.00    -0.257 A  
HETATM   29  C   UNL     1      -6.437   9.423  64.477  1.00  0.00    -0.084 A  
HETATM   30  C   UNL     1      -6.564   9.150  63.124  1.00  0.00    -0.090 A  
HETATM   31  C   UNL     1      -7.773   9.357  62.472  1.00  0.00    -0.116 A  
HETATM   32  H   UNL     1      -4.640   8.542  62.914  1.00  0.00     0.000 HD 
HETATM   33  C   UNL     1      -7.539   9.885  65.196  1.00  0.00    -0.132 A  
ENDBRANCH  25  26
BRANCH  25  34
HETATM   34  N   UNL     1      -9.857  10.192  66.819  1.00  0.00    -0.187 N  
HETATM   35  C   UNL     1     -10.173   8.951  67.327  1.00  0.00    -0.258 C  
HETATM   36  H   UNL     1      -9.505  10.910  67.451  1.00  0.00     0.000 HD 
HETATM   37  O   UNL     1     -10.524   8.001  66.634  1.00  0.00    -0.303 OA 
BRANCH  35  38
HETATM   38  C   UNL     1     -10.022   8.737  68.786  1.00  0.00    -0.197 A  
HETATM   39  O   UNL     1     -11.877  10.221  69.316  1.00  0.00    -0.483 OA 
HETATM   40  C   UNL     1     -10.869   9.375  69.697  1.00  0.00    -0.228 A  
HETATM   41  C   UNL     1      -9.651   8.395  71.505  1.00  0.00    -0.208 A  
HETATM   42  C   UNL     1     -10.703   9.188  71.066  1.00  0.00    -0.363 A  
HETATM   43  H   UNL     1     -12.452  10.654  69.935  1.00  0.00     0.000 HD 
HETATM   44  N   UNL     1      -8.808   7.769  70.646  1.00  0.00    -0.143 NA 
HETATM   45  C   UNL     1      -9.347   8.263  72.968  1.00  0.00    -0.310 C  
HETATM   46  C   UNL     1      -9.009   7.956  69.317  1.00  0.00    -0.145 A  
ENDBRANCH  35  38
ENDBRANCH  25  34
ENDBRANCH  24  25
ENDBRANCH   6  21
TORSDOF 8
ENDMDL
MODEL       79
REMARK 921   NORMALIZED FREE ENERGY PREDICTED BY IDOCK:   -5.37 KCAL/MOL
REMARK 922        TOTAL FREE ENERGY PREDICTED BY IDOCK:   -9.69 KCAL/MOL
REMARK 923 INTER-LIGAND FREE ENERGY PREDICTED BY IDOCK:   -7.25 KCAL/MOL
REMARK 924 INTRA-LIGAND FREE ENERGY PREDICTED BY IDOCK:   -2.44 KCAL/MOL
REMARK 927      BINDING AFFINITY PREDICTED BY RF-SCORE:    0.00 PKD
ROOT
HETATM    1  C   UNL     1     -10.697   8.181  68.635  1.00  0.00    -0.025 C  
HETATM    2  S   UNL     1     -10.273   7.915  66.890  1.00  0.00    -0.303 SA 
HETATM    3  C   UNL     1      -9.848   6.181  67.156  1.00  0.00    -0.141 C  
HETATM    4  C   UNL     1      -8.912   5.931  68.336  1.00  0.00    -0.112 C  
HETATM    5  CA  UNL     1      -8.735   6.806  69.365  1.00  0.00    -0.136 C  
HETATM    6  CA  UNL     1     -10.625   9.676  69.102  1.00  0.00    -0.220 C  
HETATM    7  O   UNL     1      -8.766   9.524  70.939  1.00  0.00    -0.243 OA 
HETATM    8  N   UNL     1      -9.509   7.937  69.430  1.00  0.00    -0.156 N  
HETATM    9  C   UNL     1      -7.636   6.570  70.388  1.00  0.00    -0.096 C  
HETATM   10  OXT UNL     1      -6.726   5.769  70.235  1.00  0.00    -0.045 OA 
HETATM   11  O   UNL     1      -7.745   7.243  71.549  1.00  0.00    -0.086 OA 
HETATM   12  C   UNL     1      -9.492   9.133  70.056  1.00  0.00    -0.198 C  
ENDROOT
BRANCH   4  13
HETATM   13  C   UNL     1      -8.126   4.635  68.109  1.00  0.00    -0.088 C  
BRANCH  13  14
HETATM   14  S   UNL     1      -7.247   4.511  66.531  1.00  0.00    -0.081 SA 
BRANCH  14  15
HETATM   15  C   UNL     1      -6.432   6.013  66.374  1.00  0.00    -0.046 A  
HETATM   16  N   UNL     1      -5.526   6.529  67.165  1.00  0.00    -0.012 NA 
HETATM   17  C   UNL     1      -7.555   6.775  64.228  1.00  0.00    -0.105 C  
HETATM   18  N   UNL     1      -5.219   7.761  66.633  1.00  0.00    -0.024 NA 
HETATM   19  N   UNL     1      -6.675   6.891  65.358  1.00  0.00    -0.050 NA 
HETATM   20  N   UNL     1      -5.918   7.989  65.529  1.00  0.00    -0.038 NA 
ENDBRANCH  14  15
ENDBRANCH  13  14
ENDBRANCH   4  13
BRANCH   6  21
HETATM   21  N   UNL     1     -10.173  10.631  68.044  1.00  0.00    -0.169 N  
HETATM   22  H   UNL     1     -10.236  10.338  67.068  1.00  0.00     0.000 HD 
HETATM   23  O   UNL     1      -9.741  12.381  69.446  1.00  0.00     0.555 OA 
HETATM   24  C   UNL     1      -9.675  11.892  68.322  1.00  0.00    -0.200 C  
BRANCH  24  25
HETATM   25  CA  UNL     1      -8.873  12.524  67.143  1.00  0.00    -0.202 C  
BRANCH  25  26
HETATM   26  C   UNL     1      -9.132  11.773  65.833  1.00  0.00    -0.128 A  
HETATM   27  O   UNL     1      -9.808   9.606  62.332  1.00  0.00    -0.511 OA 
HETATM   28  C   UNL     1     -10.351  11.900  65.144  1.00  0.00    -0.318 A  
HETATM   29  C   UNL     1      -8.379  10.236  64.089  1.00  0.00    -0.161 A  
HETATM   30  C   UNL     1      -9.609  10.343  63.460  1.00  0.00    -0.310 A  
HETATM   31  C   UNL     1     -10.593  11.182  63.967  1.00  0.00    -0.436 A  
HETATM   32  H   UNL     1      -9.134   9.032  61.985  1.00  0.00     0.000 HD 
HETATM   33  C   UNL     1      -8.135  10.959  65.258  1.00  0.00     0.060 A  
ENDBRANCH  25  26
BRANCH  25  34
HETATM   34  N   UNL     1      -9.289  13.937  67.041  1.00  0.00    -0.242 N  
HETATM   35  C   UNL     1      -8.391  14.971  67.187  1.00  0.00    -0.217 C  
HETATM   36  H   UNL     1     -10.268  14.153  66.856  1.00  0.00     0.000 HD 
HETATM   37  O   UNL     1      -7.183  14.808  67.328  1.00  0.00    -0.192 OA 
BRANCH  35  38
HETATM   38  C   UNL     1      -8.909  16.358  67.110  1.00  0.00    -0.214 A  
HETATM   39  O   UNL     1     -10.056  15.941  65.005  1.00  0.00    -0.444 OA 
HETATM   40  C   UNL     1      -9.704  16.770  66.037  1.00  0.00    -0.259 A  
HETATM   41  C   UNL     1      -9.777  18.979  66.947  1.00  0.00    -0.324 A  
HETATM   42  C   UNL     1     -10.164  18.081  65.961  1.00  0.00    -0.304 A  
HETATM   43  H   UNL     1     -10.597  16.221  64.276  1.00  0.00     0.000 HD 
HETATM   44  N   UNL     1      -8.999  18.611  67.996  1.00  0.00    -0.294 NA 
HETATM   45  C   UNL     1     -10.135  20.432  66.847  1.00  0.00    -0.503 C  
HETATM   46  C   UNL     1      -8.584  17.321  68.051  1.00  0.00    -0.234 A  
ENDBRANCH  35  38
ENDBRANCH  25  34
ENDBRANCH  24  25
ENDBRANCH   6  21
TORSDOF 8
ENDMDL
MODEL       80
REMARK 921   NORMALIZED FREE ENERGY PREDICTED BY IDOCK:   -5.37 KCAL/MOL
REMARK 922        TOTAL FREE ENERGY PREDICTED BY IDOCK:   -9.69 KCAL/MOL
REMARK 923 INTER-LIGAND FREE ENERGY PREDICTED BY IDOCK:   -7.93 KCAL/MOL
REMARK 924 INTRA-LIGAND FREE ENERGY PREDICTED BY IDOCK:   -1.76 KCAL/MOL
REMARK 927      BINDING AFFINITY PREDICTED BY RF-SCORE:    0.00 PKD
ROOT
HETATM    1  C   UNL     1      -7.652  11.326  67.897  1.00  0.00    -0.100 C  
HETATM    2  S   UNL     1      -9.423  10.944  67.786  1.00  0.00    -0.159 SA 
HETATM    3  C   UNL     1      -9.735  12.271  66.602  1.00  0.00    -0.222 C  
HETATM    4  C   UNL     1      -9.150  13.625  66.997  1.00  0.00    -0.254 C  
HETATM    5  CA  UNL     1      -8.137  13.783  67.894  1.00  0.00    -0.166 C  
HETATM    6  CA  UNL     1      -6.957  10.824  69.210  1.00  0.00    -0.102 C  
HETATM    7  O   UNL     1      -6.169  13.096  70.244  1.00  0.00    -0.114 OA 
HETATM    8  N   UNL     1      -7.511  12.676  68.409  1.00  0.00    -0.121 N  
HETATM    9  C   UNL     1      -7.757  15.172  68.380  1.00  0.00    -0.118 C  
HETATM   10  OXT UNL     1      -8.449  16.165  68.208  1.00  0.00    -0.171 OA 
HETATM   11  O   UNL     1      -6.548  15.293  68.960  1.00  0.00    -0.108 OA 
HETATM   12  C   UNL     1      -6.717  12.364  69.454  1.00  0.00    -0.032 C  
ENDROOT
BRANCH   4  13
HETATM   13  C   UNL     1      -9.958  14.749  66.342  1.00  0.00    -0.277 C  
BRANCH  13  14
HETATM   14  S   UNL     1     -11.720  14.802  66.756  1.00  0.00    -0.236 SA 
BRANCH  14  15
HETATM   15  C   UNL     1     -11.781  14.383  68.420  1.00  0.00    -0.332 A  
HETATM   16  N   UNL     1     -12.125  13.239  68.954  1.00  0.00    -0.287 NA 
HETATM   17  C   UNL     1     -11.020  16.618  69.352  1.00  0.00    -0.235 C  
HETATM   18  N   UNL     1     -12.052  13.421  70.316  1.00  0.00    -0.358 NA 
HETATM   19  N   UNL     1     -11.478  15.258  69.422  1.00  0.00    -0.293 NA 
HETATM   20  N   UNL     1     -11.659  14.653  70.609  1.00  0.00    -0.272 NA 
ENDBRANCH  14  15
ENDBRANCH  13  14
ENDBRANCH   4  13
BRANCH   6  21
HETATM   21  N   UNL     1      -7.880  10.155  70.177  1.00  0.00    -0.311 N  
HETATM   22  H   UNL     1      -8.432  10.739  70.805  1.00  0.00     0.000 HD 
HETATM   23  O   UNL     1      -7.537   8.026  69.422  1.00  0.00    -0.097 OA 
HETATM   24  C   UNL     1      -8.023   8.780  70.261  1.00  0.00    -0.106 C  
BRANCH  24  25
HETATM   25  CA  UNL     1      -8.676   8.297  71.592  1.00  0.00    -0.163 C  
BRANCH  25  26
HETATM   26  C   UNL     1     -10.196   8.168  71.447  1.00  0.00    -0.248 A  
HETATM   27  O   UNL     1     -14.332   7.712  71.148  1.00  0.00    -0.649 OA 
HETATM   28  C   UNL     1     -11.049   9.263  71.670  1.00  0.00    -0.438 A  
HETATM   29  C   UNL     1     -12.169   6.813  70.956  1.00  0.00    -0.405 A  
HETATM   30  C   UNL     1     -12.986   7.898  71.232  1.00  0.00    -0.199 A  
HETATM   31  C   UNL     1     -12.438   9.128  71.572  1.00  0.00    -0.418 A  
HETATM   32  H   UNL     1     -14.707   6.870  70.915  1.00  0.00     0.000 HD 
HETATM   33  C   UNL     1     -10.783   6.951  71.046  1.00  0.00    -0.258 A  
ENDBRANCH  25  26
BRANCH  25  34
HETATM   34  N   UNL     1      -8.060   7.000  71.935  1.00  0.00    -0.099 N  
HETATM   35  C   UNL     1      -7.742   6.668  73.234  1.00  0.00    -0.091 C  
HETATM   36  H   UNL     1      -7.864   6.332  71.191  1.00  0.00     0.000 HD 
HETATM   37  O   UNL     1      -8.014   7.371  74.202  1.00  0.00    -0.124 OA 
BRANCH  35  38
HETATM   38  C   UNL     1      -7.087   5.361  73.476  1.00  0.00    -0.086 A  
HETATM   39  O   UNL     1      -8.758   4.148  72.188  1.00  0.00    -0.104 OA 
HETATM   40  C   UNL     1      -7.619   4.181  72.951  1.00  0.00    -0.079 A  
HETATM   41  C   UNL     1      -5.895   2.927  74.031  1.00  0.00     0.000 A  
HETATM   42  C   UNL     1      -7.012   2.956  73.206  1.00  0.00    -0.038 A  
HETATM   43  H   UNL     1      -9.119   3.346  71.831  1.00  0.00     0.000 HD 
HETATM   44  N   UNL     1      -5.359   4.054  74.563  1.00  0.00    -0.004 NA 
HETATM   45  C   UNL     1      -5.277   1.624  74.444  1.00  0.00     0.000 C  
HETATM   46  C   UNL     1      -5.964   5.235  74.279  1.00  0.00    -0.052 A  
ENDBRANCH  35  38
ENDBRANCH  25  34
ENDBRANCH  24  25
ENDBRANCH   6  21
TORSDOF 8
ENDMDL
MODEL       81
REMARK 921   NORMALIZED FREE ENERGY PREDICTED BY IDOCK:   -5.36 KCAL/MOL
REMARK 922        TOTAL FREE ENERGY PREDICTED BY IDOCK:   -9.68 KCAL/MOL
REMARK 923 INTER-LIGAND FREE ENERGY PREDICTED BY IDOCK:   -8.51 KCAL/MOL
REMARK 924 INTRA-LIGAND FREE ENERGY PREDICTED BY IDOCK:   -1.17 KCAL/MOL
REMARK 927      BINDING AFFINITY PREDICTED BY RF-SCORE:    0.00 PKD
ROOT
HETATM    1  C   UNL     1      -7.647  11.386  67.871  1.00  0.00    -0.108 C  
HETATM    2  S   UNL     1      -9.448  11.162  67.877  1.00  0.00    -0.180 SA 
HETATM    3  C   UNL     1      -9.724  12.562  66.771  1.00  0.00    -0.234 C  
HETATM    4  C   UNL     1      -8.996  13.842  67.173  1.00  0.00    -0.241 C  
HETATM    5  CA  UNL     1      -7.913  13.873  67.998  1.00  0.00    -0.154 C  
HETATM    6  CA  UNL     1      -6.908  10.769  69.110  1.00  0.00    -0.084 C  
HETATM    7  O   UNL     1      -5.852  12.917  70.168  1.00  0.00    -0.136 OA 
HETATM    8  N   UNL     1      -7.352  12.695  68.422  1.00  0.00    -0.111 N  
HETATM    9  C   UNL     1      -7.378  15.202  68.507  1.00  0.00    -0.119 C  
HETATM   10  OXT UNL     1      -7.990  16.257  68.425  1.00  0.00    -0.160 OA 
HETATM   11  O   UNL     1      -6.125  15.193  69.001  1.00  0.00    -0.095 OA 
HETATM   12  C   UNL     1      -6.517  12.270  69.394  1.00  0.00    -0.105 C  
ENDROOT
BRANCH   4  13
HETATM   13  C   UNL     1      -9.746  15.059  66.622  1.00  0.00    -0.258 C  
BRANCH  13  14
HETATM   14  S   UNL     1     -10.225  14.970  64.879  1.00  0.00    -0.083 SA 
BRANCH  14  15
HETATM   15  C   UNL     1     -11.663  14.033  64.878  1.00  0.00    -0.380 A  
HETATM   16  N   UNL     1     -12.798  14.290  65.476  1.00  0.00    -0.567 NA 
HETATM   17  C   UNL     1     -10.822  12.139  63.411  1.00  0.00    -0.414 C  
HETATM   18  N   UNL     1     -13.618  13.219  65.207  1.00  0.00    -0.009 NA 
HETATM   19  N   UNL     1     -11.774  12.837  64.230  1.00  0.00    -0.355 NA 
HETATM   20  N   UNL     1     -12.999  12.326  64.447  1.00  0.00    -0.764 NA 
ENDBRANCH  14  15
ENDBRANCH  13  14
ENDBRANCH   4  13
BRANCH   6  21
HETATM   21  N   UNL     1      -7.817  10.138  70.115  1.00  0.00    -0.311 N  
HETATM   22  H   UNL     1      -8.291  10.742  70.787  1.00  0.00     0.000 HD 
HETATM   23  O   UNL     1      -7.662   8.010  69.298  1.00  0.00    -0.098 OA 
HETATM   24  C   UNL     1      -8.046   8.775  70.179  1.00  0.00    -0.114 C  
BRANCH  24  25
HETATM   25  CA  UNL     1      -8.652   8.303  71.536  1.00  0.00    -0.155 C  
BRANCH  25  26
HETATM   26  C   UNL     1     -10.179   8.195  71.453  1.00  0.00    -0.248 A  
HETATM   27  O   UNL     1     -14.331   7.979  71.107  1.00  0.00    -0.644 OA 
HETATM   28  C   UNL     1     -10.823   6.946  71.409  1.00  0.00    -0.256 A  
HETATM   29  C   UNL     1     -12.374   9.261  71.334  1.00  0.00    -0.421 A  
HETATM   30  C   UNL     1     -12.977   8.016  71.242  1.00  0.00    -0.179 A  
HETATM   31  C   UNL     1     -12.215   6.856  71.295  1.00  0.00    -0.427 A  
HETATM   32  H   UNL     1     -14.852   8.773  71.071  1.00  0.00     0.000 HD 
HETATM   33  C   UNL     1     -10.987   9.350  71.456  1.00  0.00    -0.429 A  
ENDBRANCH  25  26
BRANCH  25  34
HETATM   34  N   UNL     1      -8.041   6.998  71.858  1.00  0.00    -0.099 N  
HETATM   35  C   UNL     1      -7.738   6.638  73.153  1.00  0.00    -0.095 C  
HETATM   36  H   UNL     1      -7.837   6.346  71.101  1.00  0.00     0.000 HD 
HETATM   37  O   UNL     1      -8.020   7.319  74.133  1.00  0.00    -0.120 OA 
BRANCH  35  38
HETATM   38  C   UNL     1      -7.086   5.325  73.374  1.00  0.00    -0.085 A  
HETATM   39  O   UNL     1      -8.795   4.130  72.120  1.00  0.00    -0.105 OA 
HETATM   40  C   UNL     1      -7.639   4.151  72.856  1.00  0.00    -0.079 A  
HETATM   41  C   UNL     1      -5.899   2.881  73.889  1.00  0.00     0.000 A  
HETATM   42  C   UNL     1      -7.034   2.920  73.091  1.00  0.00    -0.035 A  
HETATM   43  H   UNL     1      -9.171   3.332  71.768  1.00  0.00     0.000 HD 
HETATM   44  N   UNL     1      -5.342   4.002  74.413  1.00  0.00    -0.004 NA 
HETATM   45  C   UNL     1      -5.280   1.571  74.281  1.00  0.00     0.000 C  
HETATM   46  C   UNL     1      -5.946   5.188  74.149  1.00  0.00    -0.050 A  
ENDBRANCH  35  38
ENDBRANCH  25  34
ENDBRANCH  24  25
ENDBRANCH   6  21
TORSDOF 8
ENDMDL
MODEL       82
REMARK 921   NORMALIZED FREE ENERGY PREDICTED BY IDOCK:   -5.26 KCAL/MOL
REMARK 922        TOTAL FREE ENERGY PREDICTED BY IDOCK:   -9.54 KCAL/MOL
REMARK 923 INTER-LIGAND FREE ENERGY PREDICTED BY IDOCK:   -7.52 KCAL/MOL
REMARK 924 INTRA-LIGAND FREE ENERGY PREDICTED BY IDOCK:   -2.02 KCAL/MOL
REMARK 927      BINDING AFFINITY PREDICTED BY RF-SCORE:    0.00 PKD
ROOT
HETATM    1  C   UNL     1     -11.439  10.701  67.269  1.00  0.00     0.134 C  
HETATM    2  S   UNL     1      -9.835   9.958  66.857  1.00  0.00    -0.210 SA 
HETATM    3  C   UNL     1     -10.214   8.421  67.724  1.00  0.00    -0.224 C  
HETATM    4  C   UNL     1     -10.759   8.608  69.138  1.00  0.00    -0.136 C  
HETATM    5  CA  UNL     1     -11.326   9.761  69.588  1.00  0.00    -0.122 C  
HETATM    6  CA  UNL     1     -11.462  12.269  67.227  1.00  0.00    -0.357 C  
HETATM    7  O   UNL     1     -12.050  12.816  69.718  1.00  0.00    -0.296 OA 
HETATM    8  N   UNL     1     -11.534  10.798  68.713  1.00  0.00    -0.288 N  
HETATM    9  C   UNL     1     -11.655   9.927  71.063  1.00  0.00    -0.389 C  
HETATM   10  OXT UNL     1     -11.231   9.189  71.940  1.00  0.00    -0.364 OA 
HETATM   11  O   UNL     1     -12.524  10.907  71.376  1.00  0.00    -0.367 OA 
HETATM   12  C   UNL     1     -11.782  12.124  68.764  1.00  0.00    -0.321 C  
ENDROOT
BRANCH   4  13
HETATM   13  C   UNL     1     -10.447   7.367  69.982  1.00  0.00    -0.226 C  
BRANCH  13  14
HETATM   14  S   UNL     1     -10.625   5.774  69.141  1.00  0.00    -0.291 SA 
BRANCH  14  15
HETATM   15  C   UNL     1      -9.029   5.145  69.072  1.00  0.00    -0.100 A  
HETATM   16  N   UNL     1      -7.994   5.633  68.438  1.00  0.00    -0.099 NA 
HETATM   17  C   UNL     1      -9.416   3.104  70.532  1.00  0.00    -0.165 C  
HETATM   18  N   UNL     1      -6.966   4.745  68.657  1.00  0.00    -0.051 NA 
HETATM   19  N   UNL     1      -8.656   3.989  69.692  1.00  0.00    -0.066 NA 
HETATM   20  N   UNL     1      -7.363   3.737  69.421  1.00  0.00    -0.052 NA 
ENDBRANCH  14  15
ENDBRANCH  13  14
ENDBRANCH   4  13
BRANCH   6  21
HETATM   21  N   UNL     1     -10.144  12.894  66.899  1.00  0.00    -0.237 N  
HETATM   22  H   UNL     1      -9.440  12.324  66.429  1.00  0.00     0.000 HD 
HETATM   23  O   UNL     1     -10.682  15.002  67.596  1.00  0.00    -0.263 OA 
HETATM   24  C   UNL     1      -9.832  14.208  67.202  1.00  0.00    -0.253 C  
BRANCH  24  25
HETATM   25  CA  UNL     1      -8.302  14.511  67.178  1.00  0.00    -0.202 C  
BRANCH  25  26
HETATM   26  C   UNL     1      -8.024  15.979  67.517  1.00  0.00    -0.165 A  
HETATM   27  O   UNL     1      -7.402  20.006  68.414  1.00  0.00    -0.303 OA 
HETATM   28  C   UNL     1      -7.498  16.355  68.766  1.00  0.00    -0.207 A  
HETATM   29  C   UNL     1      -8.045  18.339  66.886  1.00  0.00    -0.259 A  
HETATM   30  C   UNL     1      -7.573  18.683  68.143  1.00  0.00    -0.271 A  
HETATM   31  C   UNL     1      -7.281  17.701  69.082  1.00  0.00    -0.153 A  
HETATM   32  H   UNL     1      -7.602  20.677  67.772  1.00  0.00     0.000 HD 
HETATM   33  C   UNL     1      -8.253  16.997  66.569  1.00  0.00    -0.314 A  
ENDBRANCH  25  26
BRANCH  25  34
HETATM   34  N   UNL     1      -7.662  13.606  68.153  1.00  0.00    -0.125 N  
HETATM   35  C   UNL     1      -7.176  12.370  67.787  1.00  0.00    -0.119 C  
HETATM   36  H   UNL     1      -7.577  13.904  69.124  1.00  0.00     0.000 HD 
HETATM   37  O   UNL     1      -7.159  11.961  66.631  1.00  0.00    -0.060 OA 
BRANCH  35  38
HETATM   38  C   UNL     1      -6.588  11.514  68.845  1.00  0.00    -0.073 A  
HETATM   39  O   UNL     1      -6.303   9.631  67.329  1.00  0.00    -0.066 OA 
HETATM   40  C   UNL     1      -6.187  10.204  68.569  1.00  0.00    -0.044 A  
HETATM   41  C   UNL     1      -5.587   9.910  70.863  1.00  0.00    -0.078 A  
HETATM   42  C   UNL     1      -5.661   9.399  69.574  1.00  0.00    -0.034 A  
HETATM   43  H   UNL     1      -6.030   8.741  67.142  1.00  0.00     0.000 HD 
HETATM   44  N   UNL     1      -5.976  11.175  71.164  1.00  0.00    -0.348 NA 
HETATM   45  C   UNL     1      -5.149   9.046  72.009  1.00  0.00    -0.048 C  
HETATM   46  C   UNL     1      -6.466  11.940  70.157  1.00  0.00     0.098 A  
ENDBRANCH  35  38
ENDBRANCH  25  34
ENDBRANCH  24  25
ENDBRANCH   6  21
TORSDOF 8
ENDMDL
MODEL       83
REMARK 921   NORMALIZED FREE ENERGY PREDICTED BY IDOCK:   -5.19 KCAL/MOL
REMARK 922        TOTAL FREE ENERGY PREDICTED BY IDOCK:   -9.44 KCAL/MOL
REMARK 923 INTER-LIGAND FREE ENERGY PREDICTED BY IDOCK:   -6.93 KCAL/MOL
REMARK 924 INTRA-LIGAND FREE ENERGY PREDICTED BY IDOCK:   -2.51 KCAL/MOL
REMARK 927      BINDING AFFINITY PREDICTED BY RF-SCORE:    0.00 PKD
ROOT
HETATM    1  C   UNL     1     -10.096  10.430  64.850  1.00  0.00    -0.312 C  
HETATM    2  S   UNL     1      -8.344  10.451  64.378  1.00  0.00    -0.104 SA 
HETATM    3  C   UNL     1      -8.270   8.656  64.199  1.00  0.00    -0.155 C  
HETATM    4  C   UNL     1      -8.854   7.876  65.375  1.00  0.00    -0.020 C  
HETATM    5  CA  UNL     1      -9.732   8.401  66.273  1.00  0.00    -0.207 C  
HETATM    6  CA  UNL     1     -10.569  11.688  65.659  1.00  0.00    -0.275 C  
HETATM    7  O   UNL     1     -11.305  10.573  67.910  1.00  0.00    -0.330 OA 
HETATM    8  N   UNL     1     -10.224   9.667  66.077  1.00  0.00    -0.235 N  
HETATM    9  C   UNL     1     -10.104   7.621  67.524  1.00  0.00    -0.202 C  
HETATM   10  OXT UNL     1      -9.491   6.640  67.919  1.00  0.00    -0.120 OA 
HETATM   11  O   UNL     1     -11.220   8.015  68.166  1.00  0.00     0.277 OA 
HETATM   12  C   UNL     1     -10.843  10.629  66.795  1.00  0.00    -0.169 C  
ENDROOT
BRANCH   4  13
HETATM   13  C   UNL     1      -8.204   6.491  65.453  1.00  0.00    -0.135 C  
BRANCH  13  14
HETATM   14  S   UNL     1      -6.426   6.471  65.797  1.00  0.00    -0.044 SA 
BRANCH  14  15
HETATM   15  C   UNL     1      -6.271   5.478  67.189  1.00  0.00    -0.031 A  
HETATM   16  N   UNL     1      -6.611   4.223  67.330  1.00  0.00    -0.045 NA 
HETATM   17  C   UNL     1      -5.231   7.217  68.719  1.00  0.00    -0.017 C  
HETATM   18  N   UNL     1      -6.326   3.899  68.636  1.00  0.00    -0.032 NA 
HETATM   19  N   UNL     1      -5.766   5.929  68.373  1.00  0.00    -0.011 NA 
HETATM   20  N   UNL     1      -5.811   4.937  69.281  1.00  0.00    -0.016 NA 
ENDBRANCH  14  15
ENDBRANCH  13  14
ENDBRANCH   4  13
BRANCH   6  21
HETATM   21  N   UNL     1      -9.485  12.676  65.947  1.00  0.00    -0.436 N  
HETATM   22  H   UNL     1      -8.534  12.330  66.075  1.00  0.00     0.000 HD 
HETATM   23  O   UNL     1     -10.780  14.545  65.730  1.00  0.00    -0.293 OA 
HETATM   24  C   UNL     1      -9.709  14.038  66.050  1.00  0.00    -0.258 C  
BRANCH  24  25
HETATM   25  CA  UNL     1      -8.563  14.809  66.774  1.00  0.00    -0.193 C  
BRANCH  25  26
HETATM   26  C   UNL     1      -9.071  16.128  67.366  1.00  0.00    -0.203 A  
HETATM   27  O   UNL     1     -10.527  19.744  68.855  1.00  0.00    -0.571 OA 
HETATM   28  C   UNL     1      -9.782  16.162  68.579  1.00  0.00    -0.217 A  
HETATM   29  C   UNL     1      -9.305  18.557  67.235  1.00  0.00    -0.286 A  
HETATM   30  C   UNL     1     -10.046  18.552  68.406  1.00  0.00    -0.388 A  
HETATM   31  C   UNL     1     -10.275  17.367  69.093  1.00  0.00    -0.273 A  
HETATM   32  H   UNL     1     -10.370  20.555  68.385  1.00  0.00     0.000 HD 
HETATM   33  C   UNL     1      -8.807  17.357  66.727  1.00  0.00    -0.272 A  
ENDBRANCH  25  26
BRANCH  25  34
HETATM   34  N   UNL     1      -8.035  13.920  67.828  1.00  0.00    -0.155 N  
HETATM   35  C   UNL     1      -6.683  13.720  68.000  1.00  0.00    -0.139 C  
HETATM   36  H   UNL     1      -8.689  13.440  68.445  1.00  0.00     0.000 HD 
HETATM   37  O   UNL     1      -5.821  14.315  67.362  1.00  0.00    -0.348 OA 
BRANCH  35  38
HETATM   38  C   UNL     1      -6.249  12.776  69.057  1.00  0.00    -0.095 A  
HETATM   39  O   UNL     1      -7.173  10.853  67.887  1.00  0.00    -0.084 OA 
HETATM   40  C   UNL     1      -6.512  11.408  68.952  1.00  0.00    -0.062 A  
HETATM   41  C   UNL     1      -5.512  11.055  71.093  1.00  0.00    -0.032 A  
HETATM   42  C   UNL     1      -6.124  10.533  69.961  1.00  0.00    -0.091 A  
HETATM   43  H   UNL     1      -7.352   9.923  67.815  1.00  0.00     0.000 HD 
HETATM   44  N   UNL     1      -5.250  12.379  71.229  1.00  0.00    -0.267 NA 
HETATM   45  C   UNL     1      -5.189  10.177  72.266  1.00  0.00     0.056 C  
HETATM   46  C   UNL     1      -5.624  13.203  70.218  1.00  0.00    -0.141 A  
ENDBRANCH  35  38
ENDBRANCH  25  34
ENDBRANCH  24  25
ENDBRANCH   6  21
TORSDOF 8
ENDMDL
MODEL       84
REMARK 921   NORMALIZED FREE ENERGY PREDICTED BY IDOCK:   -5.17 KCAL/MOL
REMARK 922        TOTAL FREE ENERGY PREDICTED BY IDOCK:   -9.41 KCAL/MOL
REMARK 923 INTER-LIGAND FREE ENERGY PREDICTED BY IDOCK:   -7.84 KCAL/MOL
REMARK 924 INTRA-LIGAND FREE ENERGY PREDICTED BY IDOCK:   -1.57 KCAL/MOL
REMARK 927      BINDING AFFINITY PREDICTED BY RF-SCORE:    0.00 PKD
ROOT
HETATM    1  C   UNL     1      -8.465   9.287  70.551  1.00  0.00    -0.216 C  
HETATM    2  S   UNL     1      -7.690   8.833  68.974  1.00  0.00    -0.092 SA 
HETATM    3  C   UNL     1      -8.058  10.431  68.220  1.00  0.00    -0.113 C  
HETATM    4  C   UNL     1      -9.503  10.895  68.388  1.00  0.00    -0.178 C  
HETATM    5  CA  UNL     1     -10.346  10.423  69.348  1.00  0.00    -0.237 C  
HETATM    6  CA  UNL     1      -8.923   8.070  71.427  1.00  0.00    -0.141 C  
HETATM    7  O   UNL     1     -11.503   8.497  71.544  1.00  0.00    -0.258 OA 
HETATM    8  N   UNL     1      -9.867   9.561  70.303  1.00  0.00    -0.246 N  
HETATM    9  C   UNL     1     -11.821  10.787  69.316  1.00  0.00    -0.288 C  
HETATM   10  OXT UNL     1     -12.376  11.289  68.350  1.00  0.00    -0.545 OA 
HETATM   11  O   UNL     1     -12.508  10.602  70.459  1.00  0.00    -0.316 OA 
HETATM   12  C   UNL     1     -10.359   8.684  71.204  1.00  0.00    -0.230 C  
ENDROOT
BRANCH   4  13
HETATM   13  C   UNL     1      -9.878  11.847  67.248  1.00  0.00    -0.187 C  
BRANCH  13  14
HETATM   14  S   UNL     1      -8.794  13.281  67.027  1.00  0.00    -0.183 SA 
BRANCH  14  15
HETATM   15  C   UNL     1      -9.753  14.414  66.166  1.00  0.00    -0.312 A  
HETATM   16  N   UNL     1     -10.302  14.278  64.986  1.00  0.00    -0.420 NA 
HETATM   17  C   UNL     1      -9.700  16.273  67.894  1.00  0.00    -0.233 C  
HETATM   18  N   UNL     1     -10.928  15.475  64.721  1.00  0.00    -0.428 NA 
HETATM   19  N   UNL     1     -10.043  15.660  66.641  1.00  0.00    -0.264 NA 
HETATM   20  N   UNL     1     -10.773  16.325  65.728  1.00  0.00    -0.294 NA 
ENDBRANCH  14  15
ENDBRANCH  13  14
ENDBRANCH   4  13
BRANCH   6  21
HETATM   21  N   UNL     1      -8.688   6.736  70.797  1.00  0.00    -0.145 N  
HETATM   22  H   UNL     1      -9.240   6.482  69.977  1.00  0.00     0.000 HD 
HETATM   23  O   UNL     1      -6.935   6.130  72.130  1.00  0.00    -0.075 OA 
HETATM   24  C   UNL     1      -7.758   5.826  71.271  1.00  0.00    -0.109 C  
BRANCH  24  25
HETATM   25  CA  UNL     1      -7.983   4.372  70.757  1.00  0.00    -0.064 C  
BRANCH  25  26
HETATM   26  C   UNL     1      -9.057   3.654  71.581  1.00  0.00    -0.171 A  
HETATM   27  O   UNL     1     -12.078   1.788  73.773  1.00  0.00    -0.163 OA 
HETATM   28  C   UNL     1      -9.266   2.268  71.465  1.00  0.00    -0.173 A  
HETATM   29  C   UNL     1     -10.854   3.722  73.236  1.00  0.00    -0.293 A  
HETATM   30  C   UNL     1     -11.070   2.364  73.061  1.00  0.00    -0.031 A  
HETATM   31  C   UNL     1     -10.274   1.626  72.194  1.00  0.00    -0.229 A  
HETATM   32  H   UNL     1     -12.622   2.292  74.366  1.00  0.00     0.000 HD 
HETATM   33  C   UNL     1      -9.844   4.359  72.514  1.00  0.00    -0.213 A  
ENDBRANCH  25  26
BRANCH  25  34
HETATM   34  N   UNL     1      -8.375   4.466  69.336  1.00  0.00    -0.073 N  
HETATM   35  C   UNL     1      -7.947   3.548  68.402  1.00  0.00    -0.070 C  
HETATM   36  H   UNL     1      -8.979   5.231  69.038  1.00  0.00     0.000 HD 
HETATM   37  O   UNL     1      -7.288   2.551  68.680  1.00  0.00    -0.047 OA 
BRANCH  35  38
HETATM   38  C   UNL     1      -8.357   3.749  66.992  1.00  0.00    -0.099 A  
HETATM   39  O   UNL     1      -6.059   3.720  66.194  1.00  0.00    -0.026 OA 
HETATM   40  C   UNL     1      -7.407   3.826  65.971  1.00  0.00    -0.072 A  
HETATM   41  C   UNL     1      -9.150   4.223  64.385  1.00  0.00    -0.150 A  
HETATM   42  C   UNL     1      -7.800   4.040  64.654  1.00  0.00    -0.085 A  
HETATM   43  H   UNL     1      -5.413   3.772  65.499  1.00  0.00     0.000 HD 
HETATM   44  N   UNL     1     -10.096   4.162  65.356  1.00  0.00    -0.213 NA 
HETATM   45  C   UNL     1      -9.618   4.585  63.006  1.00  0.00     0.001 C  
HETATM   46  C   UNL     1      -9.681   3.932  66.627  1.00  0.00    -0.165 A  
ENDBRANCH  35  38
ENDBRANCH  25  34
ENDBRANCH  24  25
ENDBRANCH   6  21
TORSDOF 8
ENDMDL
MODEL       85
REMARK 921   NORMALIZED FREE ENERGY PREDICTED BY IDOCK:   -5.16 KCAL/MOL
REMARK 922        TOTAL FREE ENERGY PREDICTED BY IDOCK:   -9.40 KCAL/MOL
REMARK 923 INTER-LIGAND FREE ENERGY PREDICTED BY IDOCK:   -7.63 KCAL/MOL
REMARK 924 INTRA-LIGAND FREE ENERGY PREDICTED BY IDOCK:   -1.76 KCAL/MOL
REMARK 927      BINDING AFFINITY PREDICTED BY RF-SCORE:    0.00 PKD
ROOT
HETATM    1  C   UNL     1      -6.699  12.794  67.906  1.00  0.00    -0.116 C  
HETATM    2  S   UNL     1      -8.488  12.545  67.725  1.00  0.00    -0.183 SA 
HETATM    3  C   UNL     1      -8.706  14.078  66.797  1.00  0.00    -0.110 C  
HETATM    4  C   UNL     1      -8.048  15.302  67.429  1.00  0.00    -0.205 C  
HETATM    5  CA  UNL     1      -7.039  15.236  68.342  1.00  0.00    -0.111 C  
HETATM    6  CA  UNL     1      -6.052  12.025  69.110  1.00  0.00    -0.080 C  
HETATM    7  O   UNL     1      -5.145  14.024  70.535  1.00  0.00    -0.093 OA 
HETATM    8  N   UNL     1      -6.486  14.019  68.652  1.00  0.00    -0.085 N  
HETATM    9  C   UNL     1      -6.584  16.491  69.070  1.00  0.00    -0.193 C  
HETATM   10  OXT UNL     1      -7.215  17.538  69.077  1.00  0.00    -0.251 OA 
HETATM   11  O   UNL     1      -5.378  16.434  69.665  1.00  0.00    -0.124 OA 
HETATM   12  C   UNL     1      -5.725  13.479  69.626  1.00  0.00    -0.104 C  
ENDROOT
BRANCH   4  13
HETATM   13  C   UNL     1      -8.780  16.572  66.984  1.00  0.00    -0.197 C  
BRANCH  13  14
HETATM   14  S   UNL     1     -10.574  16.424  66.790  1.00  0.00    -0.183 SA 
BRANCH  14  15
HETATM   15  C   UNL     1     -11.126  15.876  68.321  1.00  0.00    -0.345 A  
HETATM   16  N   UNL     1     -11.000  16.461  69.484  1.00  0.00    -0.323 NA 
HETATM   17  C   UNL     1     -12.177  13.703  67.533  1.00  0.00    -0.222 C  
HETATM   18  N   UNL     1     -11.567  15.606  70.400  1.00  0.00    -0.317 NA 
HETATM   19  N   UNL     1     -11.775  14.689  68.498  1.00  0.00    -0.312 NA 
HETATM   20  N   UNL     1     -12.042  14.520  69.805  1.00  0.00    -0.320 NA 
ENDBRANCH  14  15
ENDBRANCH  13  14
ENDBRANCH   4  13
BRANCH   6  21
HETATM   21  N   UNL     1      -7.025  11.250  69.939  1.00  0.00    -0.349 N  
HETATM   22  H   UNL     1      -7.532  11.739  70.677  1.00  0.00     0.000 HD 
HETATM   23  O   UNL     1      -6.844   9.291  68.778  1.00  0.00    -0.059 OA 
HETATM   24  C   UNL     1      -7.272   9.900  69.754  1.00  0.00    -0.118 C  
BRANCH  24  25
HETATM   25  CA  UNL     1      -7.963   9.216  70.974  1.00  0.00    -0.125 C  
BRANCH  25  26
HETATM   26  C   UNL     1      -9.485   9.374  70.907  1.00  0.00    -0.279 A  
HETATM   27  O   UNL     1     -13.628   9.755  70.591  1.00  0.00    -0.600 OA 
HETATM   28  C   UNL     1     -10.330   8.720  71.822  1.00  0.00    -0.413 A  
HETATM   29  C   UNL     1     -11.471  10.325  69.849  1.00  0.00    -0.340 A  
HETATM   30  C   UNL     1     -12.280   9.629  70.733  1.00  0.00    -0.230 A  
HETATM   31  C   UNL     1     -11.722   8.840  71.731  1.00  0.00    -0.416 A  
HETATM   32  H   UNL     1     -14.010  10.295  69.908  1.00  0.00     0.000 HD 
HETATM   33  C   UNL     1     -10.084  10.213  69.945  1.00  0.00    -0.268 A  
ENDBRANCH  25  26
BRANCH  25  34
HETATM   34  N   UNL     1      -7.571   7.793  70.956  1.00  0.00    -0.080 N  
HETATM   35  C   UNL     1      -7.197   7.128  72.103  1.00  0.00    -0.072 C  
HETATM   36  H   UNL     1      -7.578   7.288  70.070  1.00  0.00     0.000 HD 
HETATM   37  O   UNL     1      -7.238   7.627  73.222  1.00  0.00    -0.080 OA 
BRANCH  35  38
HETATM   38  C   UNL     1      -6.779   5.711  71.980  1.00  0.00    -0.063 A  
HETATM   39  O   UNL     1      -8.399   4.964  73.635  1.00  0.00    -0.106 OA 
HETATM   40  C   UNL     1      -7.390   4.712  72.742  1.00  0.00    -0.084 A  
HETATM   41  C   UNL     1      -5.908   3.093  71.798  1.00  0.00    -0.013 A  
HETATM   42  C   UNL     1      -6.973   3.389  72.638  1.00  0.00    -0.042 A  
HETATM   43  H   UNL     1      -8.814   4.285  74.153  1.00  0.00     0.000 HD 
HETATM   44  N   UNL     1      -5.289   4.041  71.051  1.00  0.00    -0.004 NA 
HETATM   45  C   UNL     1      -5.334   1.707  71.744  1.00  0.00    -0.004 C  
HETATM   46  C   UNL     1      -5.733   5.318  71.161  1.00  0.00    -0.016 A  
ENDBRANCH  35  38
ENDBRANCH  25  34
ENDBRANCH  24  25
ENDBRANCH   6  21
TORSDOF 8
ENDMDL
MODEL       86
REMARK 921   NORMALIZED FREE ENERGY PREDICTED BY IDOCK:   -5.15 KCAL/MOL
REMARK 922        TOTAL FREE ENERGY PREDICTED BY IDOCK:   -9.37 KCAL/MOL
REMARK 923 INTER-LIGAND FREE ENERGY PREDICTED BY IDOCK:   -7.44 KCAL/MOL
REMARK 924 INTRA-LIGAND FREE ENERGY PREDICTED BY IDOCK:   -1.93 KCAL/MOL
REMARK 927      BINDING AFFINITY PREDICTED BY RF-SCORE:    0.00 PKD
ROOT
HETATM    1  C   UNL     1     -11.337   6.385  68.834  1.00  0.00    -0.209 C  
HETATM    2  S   UNL     1     -10.816   6.375  67.096  1.00  0.00    -0.398 SA 
HETATM    3  C   UNL     1     -10.599   4.583  67.069  1.00  0.00     0.385 C  
HETATM    4  C   UNL     1      -9.785   4.025  68.233  1.00  0.00    -0.133 C  
HETATM    5  CA  UNL     1      -9.593   4.682  69.411  1.00  0.00    -0.187 C  
HETATM    6  CA  UNL     1     -11.141   7.758  69.567  1.00  0.00     0.006 C  
HETATM    7  O   UNL     1      -9.451   7.073  71.444  1.00  0.00    -0.159 OA 
HETATM    8  N   UNL     1     -10.244   5.869  69.636  1.00  0.00    -0.198 N  
HETATM    9  C   UNL     1      -8.604   4.145  70.433  1.00  0.00    -0.073 C  
HETATM   10  OXT UNL     1      -7.776   3.281  70.188  1.00  0.00    -0.044 OA 
HETATM   11  O   UNL     1      -8.727   4.616  71.689  1.00  0.00    -0.117 OA 
HETATM   12  C   UNL     1     -10.147   6.928  70.467  1.00  0.00    -0.187 C  
ENDROOT
BRANCH   4  13
HETATM   13  C   UNL     1      -9.127   2.704  67.820  1.00  0.00    -0.187 C  
BRANCH  13  14
HETATM   14  S   UNL     1      -7.875   2.819  66.517  1.00  0.00    -0.077 SA 
BRANCH  14  15
HETATM   15  C   UNL     1      -8.753   2.590  65.059  1.00  0.00    -0.112 A  
HETATM   16  N   UNL     1      -9.398   1.523  64.662  1.00  0.00    -0.125 NA 
HETATM   17  C   UNL     1      -8.353   4.892  64.068  1.00  0.00    -0.131 C  
HETATM   18  N   UNL     1      -9.894   1.825  63.415  1.00  0.00    -0.112 NA 
HETATM   19  N   UNL     1      -8.857   3.547  64.093  1.00  0.00    -0.099 NA 
HETATM   20  N   UNL     1      -9.567   3.060  63.059  1.00  0.00    -0.093 NA 
ENDBRANCH  14  15
ENDBRANCH  13  14
ENDBRANCH   4  13
BRANCH   6  21
HETATM   21  N   UNL     1     -10.513   8.820  68.723  1.00  0.00    -0.272 N  
HETATM   22  H   UNL     1     -10.261   8.590  67.761  1.00  0.00     0.000 HD 
HETATM   23  O   UNL     1     -10.695  10.503  70.256  1.00  0.00    -0.253 OA 
HETATM   24  C   UNL     1     -10.257  10.100  69.182  1.00  0.00    -0.214 C  
BRANCH  24  25
HETATM   25  CA  UNL     1      -9.226  10.884  68.314  1.00  0.00    -0.161 C  
BRANCH  25  26
HETATM   26  C   UNL     1      -9.114  10.281  66.909  1.00  0.00    -0.159 A  
HETATM   27  O   UNL     1      -8.788   8.771  63.034  1.00  0.00    -0.431 OA 
HETATM   28  C   UNL     1      -8.176   9.276  66.616  1.00  0.00    -0.115 A  
HETATM   29  C   UNL     1      -9.853  10.182  64.583  1.00  0.00    -0.361 A  
HETATM   30  C   UNL     1      -8.885   9.228  64.313  1.00  0.00    -0.148 A  
HETATM   31  C   UNL     1      -8.055   8.757  65.322  1.00  0.00    -0.129 A  
HETATM   32  H   UNL     1      -9.356   9.093  62.344  1.00  0.00     0.000 HD 
HETATM   33  C   UNL     1      -9.979  10.693  65.875  1.00  0.00    -0.312 A  
ENDBRANCH  25  26
BRANCH  25  34
HETATM   34  N   UNL     1      -9.679  12.288  68.258  1.00  0.00    -0.218 N  
HETATM   35  C   UNL     1      -8.790  13.335  68.155  1.00  0.00    -0.187 C  
HETATM   36  H   UNL     1     -10.678  12.488  68.297  1.00  0.00     0.000 HD 
HETATM   37  O   UNL     1      -7.579  13.189  68.019  1.00  0.00    -0.116 OA 
BRANCH  35  38
HETATM   38  C   UNL     1      -9.336  14.713  68.149  1.00  0.00    -0.197 A  
HETATM   39  O   UNL     1     -10.859  14.246  69.988  1.00  0.00    -0.458 OA 
HETATM   40  C   UNL     1     -10.331  15.096  69.052  1.00  0.00    -0.244 A  
HETATM   41  C   UNL     1     -10.403  17.262  68.046  1.00  0.00    -0.353 A  
HETATM   42  C   UNL     1     -10.856  16.384  69.022  1.00  0.00    -0.331 A  
HETATM   43  H   UNL     1     -11.535  14.507  70.602  1.00  0.00     0.000 HD 
HETATM   44  N   UNL     1      -9.444  16.918  67.150  1.00  0.00    -0.233 NA 
HETATM   45  C   UNL     1     -11.024  18.619  67.884  1.00  0.00    -0.102 C  
HETATM   46  C   UNL     1      -8.939  15.661  67.219  1.00  0.00    -0.199 A  
ENDBRANCH  35  38
ENDBRANCH  25  34
ENDBRANCH  24  25
ENDBRANCH   6  21
TORSDOF 8
ENDMDL
MODEL       87
REMARK 921   NORMALIZED FREE ENERGY PREDICTED BY IDOCK:   -5.13 KCAL/MOL
REMARK 922        TOTAL FREE ENERGY PREDICTED BY IDOCK:   -9.34 KCAL/MOL
REMARK 923 INTER-LIGAND FREE ENERGY PREDICTED BY IDOCK:   -7.81 KCAL/MOL
REMARK 924 INTRA-LIGAND FREE ENERGY PREDICTED BY IDOCK:   -1.53 KCAL/MOL
REMARK 927      BINDING AFFINITY PREDICTED BY RF-SCORE:    0.00 PKD
ROOT
HETATM    1  C   UNL     1      -7.808  12.113  66.846  1.00  0.00    -0.069 C  
HETATM    2  S   UNL     1      -9.478  11.510  66.470  1.00  0.00    -0.210 SA 
HETATM    3  C   UNL     1     -10.112  13.170  66.155  1.00  0.00    -0.291 C  
HETATM    4  C   UNL     1      -9.770  14.196  67.233  1.00  0.00    -0.236 C  
HETATM    5  CA  UNL     1      -8.748  14.052  68.122  1.00  0.00    -0.180 C  
HETATM    6  CA  UNL     1      -6.945  11.142  67.725  1.00  0.00    -0.078 C  
HETATM    7  O   UNL     1      -6.535  12.630  69.838  1.00  0.00    -0.076 OA 
HETATM    8  N   UNL     1      -7.892  12.987  68.000  1.00  0.00    -0.133 N  
HETATM    9  C   UNL     1      -8.606  15.019  69.286  1.00  0.00    -0.167 C  
HETATM   10  OXT UNL     1      -9.484  15.796  69.635  1.00  0.00    -0.276 OA 
HETATM   11  O   UNL     1      -7.407  15.049  69.896  1.00  0.00    -0.190 OA 
HETATM   12  C   UNL     1      -6.985  12.333  68.757  1.00  0.00    -0.098 C  
ENDROOT
BRANCH   4  13
HETATM   13  C   UNL     1     -10.818  15.314  67.236  1.00  0.00    -0.318 C  
BRANCH  13  14
HETATM   14  S   UNL     1     -10.506  16.692  66.103  1.00  0.00    -0.244 SA 
BRANCH  14  15
HETATM   15  C   UNL     1      -9.840  17.922  67.098  1.00  0.00    -0.308 A  
HETATM   16  N   UNL     1     -10.473  18.829  67.798  1.00  0.00    -0.417 NA 
HETATM   17  C   UNL     1      -7.393  17.358  66.726  1.00  0.00    -0.215 C  
HETATM   18  N   UNL     1      -9.497  19.602  68.384  1.00  0.00    -0.366 NA 
HETATM   19  N   UNL     1      -8.498  18.108  67.257  1.00  0.00    -0.239 NA 
HETATM   20  N   UNL     1      -8.287  19.168  68.057  1.00  0.00    -0.294 NA 
ENDBRANCH  14  15
ENDBRANCH  13  14
ENDBRANCH   4  13
BRANCH   6  21
HETATM   21  N   UNL     1      -7.660   9.898  68.147  1.00  0.00    -0.081 N  
HETATM   22  H   UNL     1      -8.180   9.912  69.025  1.00  0.00     0.000 HD 
HETATM   23  O   UNL     1      -7.204   8.690  66.262  1.00  0.00    -0.077 OA 
HETATM   24  C   UNL     1      -7.649   8.729  67.406  1.00  0.00    -0.090 C  
BRANCH  24  25
HETATM   25  CA  UNL     1      -8.068   7.466  68.220  1.00  0.00    -0.125 C  
BRANCH  25  26
HETATM   26  C   UNL     1      -8.991   7.840  69.385  1.00  0.00    -0.142 A  
HETATM   27  O   UNL     1     -11.557   8.726  72.553  1.00  0.00    -0.317 OA 
HETATM   28  C   UNL     1      -8.477   8.327  70.600  1.00  0.00    -0.131 A  
HETATM   29  C   UNL     1     -11.236   8.037  70.329  1.00  0.00    -0.192 A  
HETATM   30  C   UNL     1     -10.696   8.467  71.531  1.00  0.00    -0.247 A  
HETATM   31  C   UNL     1      -9.324   8.631  71.672  1.00  0.00    -0.333 A  
HETATM   32  H   UNL     1     -12.496   8.614  72.456  1.00  0.00     0.000 HD 
HETATM   33  C   UNL     1     -10.391   7.742  69.258  1.00  0.00    -0.220 A  
ENDBRANCH  25  26
BRANCH  25  34
HETATM   34  N   UNL     1      -8.738   6.544  67.282  1.00  0.00    -0.110 N  
HETATM   35  C   UNL     1      -8.154   5.362  66.884  1.00  0.00    -0.105 C  
HETATM   36  H   UNL     1      -9.658   6.789  66.918  1.00  0.00     0.000 HD 
HETATM   37  O   UNL     1      -7.090   4.944  67.330  1.00  0.00    -0.063 OA 
BRANCH  35  38
HETATM   38  C   UNL     1      -8.884   4.521  65.906  1.00  0.00    -0.121 A  
HETATM   39  O   UNL     1      -6.890   3.253  65.326  1.00  0.00    -0.046 OA 
HETATM   40  C   UNL     1      -8.226   3.522  65.183  1.00  0.00    -0.097 A  
HETATM   41  C   UNL     1     -10.254   3.036  64.017  1.00  0.00    -0.148 A  
HETATM   42  C   UNL     1      -8.914   2.756  64.248  1.00  0.00    -0.109 A  
HETATM   43  H   UNL     1      -6.442   2.574  64.835  1.00  0.00     0.000 HD 
HETATM   44  N   UNL     1     -10.919   4.004  64.696  1.00  0.00    -0.229 NA 
HETATM   45  C   UNL     1     -11.011   2.330  62.931  1.00  0.00    -0.231 C  
HETATM   46  C   UNL     1     -10.224   4.721  65.615  1.00  0.00    -0.188 A  
ENDBRANCH  35  38
ENDBRANCH  25  34
ENDBRANCH  24  25
ENDBRANCH   6  21
TORSDOF 8
ENDMDL
MODEL       88
REMARK 921   NORMALIZED FREE ENERGY PREDICTED BY IDOCK:   -5.12 KCAL/MOL
REMARK 922        TOTAL FREE ENERGY PREDICTED BY IDOCK:   -9.34 KCAL/MOL
REMARK 923 INTER-LIGAND FREE ENERGY PREDICTED BY IDOCK:   -7.40 KCAL/MOL
REMARK 924 INTRA-LIGAND FREE ENERGY PREDICTED BY IDOCK:   -1.94 KCAL/MOL
REMARK 927      BINDING AFFINITY PREDICTED BY RF-SCORE:    0.00 PKD
ROOT
HETATM    1  C   UNL     1      -6.854  12.866  67.301  1.00  0.00    -0.057 C  
HETATM    2  S   UNL     1      -8.624  12.659  66.956  1.00  0.00    -0.148 SA 
HETATM    3  C   UNL     1      -8.813  14.363  66.391  1.00  0.00     0.002 C  
HETATM    4  C   UNL     1      -8.217  15.412  67.326  1.00  0.00    -0.222 C  
HETATM    5  CA  UNL     1      -7.264  15.142  68.262  1.00  0.00    -0.110 C  
HETATM    6  CA  UNL     1      -6.267  11.844  68.336  1.00  0.00    -0.050 C  
HETATM    7  O   UNL     1      -5.485  13.466  70.235  1.00  0.00    -0.105 OA 
HETATM    8  N   UNL     1      -6.709  13.889  68.319  1.00  0.00    -0.095 N  
HETATM    9  C   UNL     1      -6.877  16.199  69.284  1.00  0.00    -0.206 C  
HETATM   10  OXT UNL     1      -7.525  17.214  69.491  1.00  0.00    -0.044 OA 
HETATM   11  O   UNL     1      -5.708  16.010  69.925  1.00  0.00    -0.144 OA 
HETATM   12  C   UNL     1      -5.999  13.142  69.190  1.00  0.00    -0.086 C  
ENDROOT
BRANCH   4  13
HETATM   13  C   UNL     1      -8.943  16.748  67.137  1.00  0.00    -0.204 C  
BRANCH  13  14
HETATM   14  S   UNL     1     -10.749  16.687  67.243  1.00  0.00    -0.164 SA 
BRANCH  14  15
HETATM   15  C   UNL     1     -11.066  16.071  68.814  1.00  0.00    -0.338 A  
HETATM   16  N   UNL     1     -10.846  16.647  69.969  1.00  0.00    -0.275 NA 
HETATM   17  C   UNL     1     -12.030  13.833  68.103  1.00  0.00    -0.358 C  
HETATM   18  N   UNL     1     -11.228  15.733  70.924  1.00  0.00    -0.358 NA 
HETATM   19  N   UNL     1     -11.592  14.833  69.038  1.00  0.00    -0.281 NA 
HETATM   20  N   UNL     1     -11.684  14.622  70.363  1.00  0.00    -0.284 NA 
ENDBRANCH  14  15
ENDBRANCH  13  14
ENDBRANCH   4  13
BRANCH   6  21
HETATM   21  N   UNL     1      -7.275  10.896  68.902  1.00  0.00    -0.087 N  
HETATM   22  H   UNL     1      -7.687  11.111  69.811  1.00  0.00     0.000 HD 
HETATM   23  O   UNL     1      -7.368   9.510  67.089  1.00  0.00    -0.087 OA 
HETATM   24  C   UNL     1      -7.676   9.740  68.255  1.00  0.00    -0.085 C  
BRANCH  24  25
HETATM   25  CA  UNL     1      -8.373   8.706  69.191  1.00  0.00    -0.119 C  
BRANCH  25  26
HETATM   26  C   UNL     1      -9.654   9.287  69.800  1.00  0.00    -0.203 A  
HETATM   27  O   UNL     1     -13.216  10.807  71.352  1.00  0.00    -0.364 OA 
HETATM   28  C   UNL     1     -10.028   9.006  71.127  1.00  0.00    -0.365 A  
HETATM   29  C   UNL     1     -11.671  10.650  69.588  1.00  0.00    -0.368 A  
HETATM   30  C   UNL     1     -12.037  10.315  70.881  1.00  0.00    -0.368 A  
HETATM   31  C   UNL     1     -11.218   9.510  71.663  1.00  0.00    -0.378 A  
HETATM   32  H   UNL     1     -13.777  11.358  70.817  1.00  0.00     0.000 HD 
HETATM   33  C   UNL     1     -10.480  10.154  69.056  1.00  0.00    -0.239 A  
ENDBRANCH  25  26
BRANCH  25  34
HETATM   34  N   UNL     1      -8.663   7.508  68.380  1.00  0.00    -0.124 N  
HETATM   35  C   UNL     1      -8.053   6.297  68.628  1.00  0.00    -0.109 C  
HETATM   36  H   UNL     1      -9.333   7.577  67.614  1.00  0.00     0.000 HD 
HETATM   37  O   UNL     1      -7.299   6.097  69.574  1.00  0.00    -0.075 OA 
BRANCH  35  38
HETATM   38  C   UNL     1      -8.375   5.160  67.733  1.00  0.00    -0.105 A  
HETATM   39  O   UNL     1      -6.236   4.076  68.143  1.00  0.00    -0.031 OA 
HETATM   40  C   UNL     1      -7.464   4.120  67.535  1.00  0.00    -0.069 A  
HETATM   41  C   UNL     1      -8.967   3.105  65.980  1.00  0.00    -0.146 A  
HETATM   42  C   UNL     1      -7.764   3.071  66.673  1.00  0.00    -0.076 A  
HETATM   43  H   UNL     1      -5.616   3.369  68.009  1.00  0.00     0.000 HD 
HETATM   44  N   UNL     1      -9.869   4.104  66.144  1.00  0.00    -0.206 NA 
HETATM   45  C   UNL     1      -9.286   2.068  64.943  1.00  0.00    -0.118 C  
HETATM   46  C   UNL     1      -9.554   5.103  67.006  1.00  0.00    -0.147 A  
ENDBRANCH  35  38
ENDBRANCH  25  34
ENDBRANCH  24  25
ENDBRANCH   6  21
TORSDOF 8
ENDMDL
MODEL       89
REMARK 921   NORMALIZED FREE ENERGY PREDICTED BY IDOCK:   -5.12 KCAL/MOL
REMARK 922        TOTAL FREE ENERGY PREDICTED BY IDOCK:   -9.33 KCAL/MOL
REMARK 923 INTER-LIGAND FREE ENERGY PREDICTED BY IDOCK:   -7.15 KCAL/MOL
REMARK 924 INTRA-LIGAND FREE ENERGY PREDICTED BY IDOCK:   -2.19 KCAL/MOL
REMARK 927      BINDING AFFINITY PREDICTED BY RF-SCORE:    0.00 PKD
ROOT
HETATM    1  C   UNL     1      -8.184   8.667  64.686  1.00  0.00    -0.165 C  
HETATM    2  S   UNL     1      -6.455   8.877  65.197  1.00  0.00    -0.064 SA 
HETATM    3  C   UNL     1      -6.029   7.167  64.803  1.00  0.00    -0.037 C  
HETATM    4  C   UNL     1      -6.992   6.126  65.368  1.00  0.00    -0.056 C  
HETATM    5  CA  UNL     1      -8.270   6.403  65.753  1.00  0.00    -0.134 C  
HETATM    6  CA  UNL     1      -9.181   9.698  65.320  1.00  0.00    -0.237 C  
HETATM    7  O   UNL     1     -10.758   8.093  66.658  1.00  0.00    -0.210 OA 
HETATM    8  N   UNL     1      -8.786   7.655  65.532  1.00  0.00    -0.102 N  
HETATM    9  C   UNL     1      -9.089   5.356  66.490  1.00  0.00    -0.135 C  
HETATM   10  OXT UNL     1      -8.612   4.345  66.985  1.00  0.00    -0.104 OA 
HETATM   11  O   UNL     1     -10.421   5.547  66.515  1.00  0.00    -0.245 OA 
HETATM   12  C   UNL     1      -9.818   8.408  65.967  1.00  0.00    -0.012 C  
ENDROOT
BRANCH   4  13
HETATM   13  C   UNL     1      -6.264   4.791  65.552  1.00  0.00    -0.034 C  
BRANCH  13  14
HETATM   14  S   UNL     1      -6.207   3.715  64.097  1.00  0.00    -0.023 SA 
BRANCH  14  15
HETATM   15  C   UNL     1      -7.704   2.875  64.127  1.00  0.00    -0.076 A  
HETATM   16  N   UNL     1      -8.001   1.771  64.764  1.00  0.00    -0.069 NA 
HETATM   17  C   UNL     1      -8.994   4.446  62.606  1.00  0.00    -0.122 C  
HETATM   18  N   UNL     1      -9.305   1.485  64.435  1.00  0.00    -0.130 NA 
HETATM   19  N   UNL     1      -8.803   3.284  63.430  1.00  0.00    -0.092 NA 
HETATM   20  N   UNL     1      -9.802   2.404  63.619  1.00  0.00    -0.126 NA 
ENDBRANCH  14  15
ENDBRANCH  13  14
ENDBRANCH   4  13
BRANCH   6  21
HETATM   21  N   UNL     1      -8.549  10.655  66.278  1.00  0.00    -0.147 N  
HETATM   22  H   UNL     1      -7.636  10.420  66.668  1.00  0.00     0.000 HD 
HETATM   23  O   UNL     1     -10.143  12.282  66.101  1.00  0.00    -0.234 OA 
HETATM   24  C   UNL     1      -9.142  11.846  66.662  1.00  0.00    -0.203 C  
BRANCH  24  25
HETATM   25  CA  UNL     1      -8.539  12.455  67.965  1.00  0.00    -0.180 C  
BRANCH  25  26
HETATM   26  C   UNL     1      -9.053  13.880  68.199  1.00  0.00    -0.193 A  
HETATM   27  O   UNL     1     -10.415  17.747  68.972  1.00  0.00    -0.396 OA 
HETATM   28  C   UNL     1      -8.553  14.969  67.463  1.00  0.00    -0.192 A  
HETATM   29  C   UNL     1     -10.514  15.436  69.387  1.00  0.00    -0.257 A  
HETATM   30  C   UNL     1      -9.967  16.495  68.681  1.00  0.00    -0.248 A  
HETATM   31  C   UNL     1      -9.001  16.272  67.708  1.00  0.00    -0.193 A  
HETATM   32  H   UNL     1     -11.075  17.899  69.637  1.00  0.00     0.000 HD 
HETATM   33  C   UNL     1     -10.074  14.136  69.137  1.00  0.00    -0.023 A  
ENDBRANCH  25  26
BRANCH  25  34
HETATM   34  N   UNL     1      -8.915  11.562  69.079  1.00  0.00    -0.385 N  
HETATM   35  C   UNL     1      -8.262  10.370  69.307  1.00  0.00    -0.158 C  
HETATM   36  H   UNL     1      -9.678  11.835  69.698  1.00  0.00     0.000 HD 
HETATM   37  O   UNL     1      -7.283   9.998  68.669  1.00  0.00    -0.076 OA 
BRANCH  35  38
HETATM   38  C   UNL     1      -8.738   9.520  70.424  1.00  0.00    -0.265 A  
HETATM   39  O   UNL     1     -11.074  10.041  69.986  1.00  0.00    -0.256 OA 
HETATM   40  C   UNL     1     -10.101   9.399  70.706  1.00  0.00    -0.298 A  
HETATM   41  C   UNL     1      -9.585   8.003  72.576  1.00  0.00    -0.240 A  
HETATM   42  C   UNL     1     -10.536   8.619  71.773  1.00  0.00    -0.394 A  
HETATM   43  H   UNL     1     -12.000   9.959  70.178  1.00  0.00     0.000 HD 
HETATM   44  N   UNL     1      -8.254   8.108  72.333  1.00  0.00    -0.138 NA 
HETATM   45  C   UNL     1      -9.990   7.257  73.813  1.00  0.00    -0.368 C  
HETATM   46  C   UNL     1      -7.864   8.860  71.273  1.00  0.00    -0.125 A  
ENDBRANCH  35  38
ENDBRANCH  25  34
ENDBRANCH  24  25
ENDBRANCH   6  21
TORSDOF 8
ENDMDL
MODEL       90
REMARK 921   NORMALIZED FREE ENERGY PREDICTED BY IDOCK:   -5.09 KCAL/MOL
REMARK 922        TOTAL FREE ENERGY PREDICTED BY IDOCK:   -9.29 KCAL/MOL
REMARK 923 INTER-LIGAND FREE ENERGY PREDICTED BY IDOCK:   -9.03 KCAL/MOL
REMARK 924 INTRA-LIGAND FREE ENERGY PREDICTED BY IDOCK:   -0.25 KCAL/MOL
REMARK 927      BINDING AFFINITY PREDICTED BY RF-SCORE:    0.00 PKD
ROOT
HETATM    1  C   UNL     1      -7.089  10.896  67.926  1.00  0.00    -0.081 C  
HETATM    2  S   UNL     1      -8.468  11.748  67.110  1.00  0.00    -0.175 SA 
HETATM    3  C   UNL     1      -7.562  13.305  66.987  1.00  0.00     0.177 C  
HETATM    4  C   UNL     1      -6.895  13.755  68.284  1.00  0.00    -0.109 C  
HETATM    5  CA  UNL     1      -6.609  12.920  69.321  1.00  0.00    -0.085 C  
HETATM    6  CA  UNL     1      -7.505   9.639  68.766  1.00  0.00    -0.075 C  
HETATM    7  O   UNL     1      -6.742  10.376  71.159  1.00  0.00    -0.274 OA 
HETATM    8  N   UNL     1      -6.821  11.571  69.181  1.00  0.00    -0.104 N  
HETATM    9  C   UNL     1      -6.133  13.486  70.649  1.00  0.00    -0.055 C  
HETATM   10  OXT UNL     1      -6.208  14.669  70.949  1.00  0.00    -0.138 OA 
HETATM   11  O   UNL     1      -5.531  12.621  71.487  1.00  0.00    -0.373 OA 
HETATM   12  C   UNL     1      -6.943  10.485  69.972  1.00  0.00    -0.146 C  
ENDROOT
BRANCH   4  13
HETATM   13  C   UNL     1      -6.731  15.278  68.280  1.00  0.00    -0.121 C  
BRANCH  13  14
HETATM   14  S   UNL     1      -7.490  16.152  66.888  1.00  0.00    -0.212 SA 
BRANCH  14  15
HETATM   15  C   UNL     1      -9.155  16.242  67.295  1.00  0.00    -0.203 A  
HETATM   16  N   UNL     1      -9.698  16.724  68.384  1.00  0.00    -0.238 NA 
HETATM   17  C   UNL     1     -10.069  15.179  65.178  1.00  0.00    -0.296 C  
HETATM   18  N   UNL     1     -11.053  16.527  68.249  1.00  0.00    -0.353 NA 
HETATM   19  N   UNL     1     -10.147  15.770  66.486  1.00  0.00    -0.269 NA 
HETATM   20  N   UNL     1     -11.335  15.943  67.092  1.00  0.00    -0.062 NA 
ENDBRANCH  14  15
ENDBRANCH  13  14
ENDBRANCH   4  13
BRANCH   6  21
HETATM   21  N   UNL     1      -8.977   9.376  68.793  1.00  0.00    -0.131 N  
HETATM   22  H   UNL     1      -9.606  10.161  68.962  1.00  0.00     0.000 HD 
HETATM   23  O   UNL     1      -8.853   7.171  68.211  1.00  0.00    -0.128 OA 
HETATM   24  C   UNL     1      -9.527   8.121  68.599  1.00  0.00    -0.147 C  
BRANCH  24  25
HETATM   25  CA  UNL     1     -10.999   7.998  69.097  1.00  0.00     0.078 C  
BRANCH  25  26
HETATM   26  C   UNL     1     -11.076   7.210  70.409  1.00  0.00    -0.309 A  
HETATM   27  O   UNL     1     -11.207   5.165  74.043  1.00  0.00    -0.424 OA 
HETATM   28  C   UNL     1     -12.311   6.856  70.980  1.00  0.00    -0.401 A  
HETATM   29  C   UNL     1      -9.965   6.102  72.281  1.00  0.00    -0.186 A  
HETATM   30  C   UNL     1     -11.197   5.813  72.846  1.00  0.00    -0.276 A  
HETATM   31  C   UNL     1     -12.373   6.169  72.198  1.00  0.00    -0.125 A  
HETATM   32  H   UNL     1     -10.403   4.921  74.486  1.00  0.00     0.000 HD 
HETATM   33  C   UNL     1      -9.904   6.780  71.064  1.00  0.00    -0.192 A  
ENDBRANCH  25  26
BRANCH  25  34
HETATM   34  N   UNL     1     -11.520   9.369  69.266  1.00  0.00    -0.423 N  
HETATM   35  C   UNL     1     -11.389  10.053  70.455  1.00  0.00    -0.320 C  
HETATM   36  H   UNL     1     -11.988   9.822  68.482  1.00  0.00     0.000 HD 
HETATM   37  O   UNL     1     -10.771   9.624  71.423  1.00  0.00    -0.327 OA 
BRANCH  35  38
HETATM   38  C   UNL     1     -11.981  11.410  70.544  1.00  0.00    -0.451 A  
HETATM   39  O   UNL     1     -10.513  12.295  68.817  1.00  0.00    -0.283 OA 
HETATM   40  C   UNL     1     -11.520  12.451  69.734  1.00  0.00    -0.149 A  
HETATM   41  C   UNL     1     -13.039  13.951  70.806  1.00  0.00    -0.137 A  
HETATM   42  C   UNL     1     -12.063  13.726  69.843  1.00  0.00    -0.412 A  
HETATM   43  H   UNL     1     -10.199  13.003  68.267  1.00  0.00     0.000 HD 
HETATM   44  N   UNL     1     -13.502  12.964  71.613  1.00  0.00    -0.270 NA 
HETATM   45  C   UNL     1     -13.568  15.333  71.056  1.00  0.00    -0.486 C  
HETATM   46  C   UNL     1     -12.964  11.727  71.467  1.00  0.00    -0.341 A  
ENDBRANCH  35  38
ENDBRANCH  25  34
ENDBRANCH  24  25
ENDBRANCH   6  21
TORSDOF 8
ENDMDL
MODEL       91
REMARK 921   NORMALIZED FREE ENERGY PREDICTED BY IDOCK:   -5.05 KCAL/MOL
REMARK 922        TOTAL FREE ENERGY PREDICTED BY IDOCK:   -9.22 KCAL/MOL
REMARK 923 INTER-LIGAND FREE ENERGY PREDICTED BY IDOCK:   -7.60 KCAL/MOL
REMARK 924 INTRA-LIGAND FREE ENERGY PREDICTED BY IDOCK:   -1.62 KCAL/MOL
REMARK 927      BINDING AFFINITY PREDICTED BY RF-SCORE:    0.00 PKD
ROOT
HETATM    1  C   UNL     1      -8.951  14.627  69.197  1.00  0.00    -0.025 C  
HETATM    2  S   UNL     1      -7.441  13.879  68.521  1.00  0.00    -0.126 SA 
HETATM    3  C   UNL     1      -6.667  15.482  68.217  1.00  0.00    -0.118 C  
HETATM    4  C   UNL     1      -7.554  16.486  67.485  1.00  0.00    -0.170 C  
HETATM    5  CA  UNL     1      -8.913  16.403  67.432  1.00  0.00    -0.191 C  
HETATM    6  CA  UNL     1     -10.219  13.706  69.134  1.00  0.00     0.118 C  
HETATM    7  O   UNL     1     -11.780  15.129  67.589  1.00  0.00    -0.329 OA 
HETATM    8  N   UNL     1      -9.559  15.434  68.157  1.00  0.00    -0.202 N  
HETATM    9  C   UNL     1      -9.699  17.325  66.515  1.00  0.00    -0.288 C  
HETATM   10  OXT UNL     1      -9.192  17.995  65.627  1.00  0.00    -0.338 OA 
HETATM   11  O   UNL     1     -11.015  17.446  66.773  1.00  0.00    -0.051 OA 
HETATM   12  C   UNL     1     -10.770  14.839  68.186  1.00  0.00    -0.247 C  
ENDROOT
BRANCH   4  13
HETATM   13  C   UNL     1      -6.682  17.494  66.730  1.00  0.00    -0.202 C  
BRANCH  13  14
HETATM   14  S   UNL     1      -5.138  17.972  67.546  1.00  0.00    -0.138 SA 
BRANCH  14  15
HETATM   15  C   UNL     1      -5.611  19.154  68.698  1.00  0.00    -0.200 A  
HETATM   16  N   UNL     1      -5.964  20.396  68.485  1.00  0.00    -0.285 NA 
HETATM   17  C   UNL     1      -5.382  17.706  70.770  1.00  0.00    -0.226 C  
HETATM   18  N   UNL     1      -6.206  20.937  69.726  1.00  0.00    -0.115 NA 
HETATM   19  N   UNL     1      -5.650  18.914  70.040  1.00  0.00    -0.227 NA 
HETATM   20  N   UNL     1      -6.015  20.038  70.682  1.00  0.00    -0.326 NA 
ENDBRANCH  14  15
ENDBRANCH  13  14
ENDBRANCH   4  13
BRANCH   6  21
HETATM   21  N   UNL     1      -9.984  12.380  68.485  1.00  0.00    -0.326 N  
HETATM   22  H   UNL     1      -9.449  12.353  67.616  1.00  0.00     0.000 HD 
HETATM   23  O   UNL     1     -10.943  11.117  70.129  1.00  0.00    -0.138 OA 
HETATM   24  C   UNL     1     -10.456  11.187  69.004  1.00  0.00    -0.206 C  
BRANCH  24  25
HETATM   25  CA  UNL     1     -10.483  10.019  67.971  1.00  0.00    -0.218 C  
BRANCH  25  26
HETATM   26  C   UNL     1     -10.096  10.510  66.572  1.00  0.00    -0.280 A  
HETATM   27  O   UNL     1      -9.031  11.710  62.721  1.00  0.00    -0.601 OA 
HETATM   28  C   UNL     1     -10.939  11.360  65.834  1.00  0.00    -0.268 A  
HETATM   29  C   UNL     1      -8.521  10.557  64.705  1.00  0.00    -0.141 A  
HETATM   30  C   UNL     1      -9.395  11.354  63.983  1.00  0.00    -0.063 A  
HETATM   31  C   UNL     1     -10.596  11.773  64.542  1.00  0.00    -0.364 A  
HETATM   32  H   UNL     1      -8.209  11.423  62.338  1.00  0.00     0.000 HD 
HETATM   33  C   UNL     1      -8.860  10.152  65.996  1.00  0.00    -0.160 A  
ENDBRANCH  25  26
BRANCH  25  34
HETATM   34  N   UNL     1      -9.544   8.987  68.454  1.00  0.00    -0.150 N  
HETATM   35  C   UNL     1      -9.916   7.667  68.577  1.00  0.00    -0.180 C  
HETATM   36  H   UNL     1      -8.593   9.259  68.703  1.00  0.00     0.000 HD 
HETATM   37  O   UNL     1     -11.008   7.232  68.225  1.00  0.00    -0.106 OA 
BRANCH  35  38
HETATM   38  C   UNL     1      -8.918   6.710  69.111  1.00  0.00    -0.131 A  
HETATM   39  O   UNL     1      -7.552   6.827  67.101  1.00  0.00    -0.095 OA 
HETATM   40  C   UNL     1      -7.801   6.340  68.357  1.00  0.00    -0.105 A  
HETATM   41  C   UNL     1      -7.127   4.847  70.097  1.00  0.00    -0.050 A  
HETATM   42  C   UNL     1      -6.883   5.422  68.857  1.00  0.00    -0.055 A  
HETATM   43  H   UNL     1      -6.793   6.576  66.589  1.00  0.00     0.000 HD 
HETATM   44  N   UNL     1      -8.206   5.179  70.849  1.00  0.00    -0.107 NA 
HETATM   45  C   UNL     1      -6.242   3.758  70.627  1.00  0.00    -0.019 C  
HETATM   46  C   UNL     1      -9.072   6.092  70.342  1.00  0.00    -0.153 A  
ENDBRANCH  35  38
ENDBRANCH  25  34
ENDBRANCH  24  25
ENDBRANCH   6  21
TORSDOF 8
ENDMDL
MODEL       92
REMARK 921   NORMALIZED FREE ENERGY PREDICTED BY IDOCK:   -5.02 KCAL/MOL
REMARK 922        TOTAL FREE ENERGY PREDICTED BY IDOCK:   -9.19 KCAL/MOL
REMARK 923 INTER-LIGAND FREE ENERGY PREDICTED BY IDOCK:   -6.91 KCAL/MOL
REMARK 924 INTRA-LIGAND FREE ENERGY PREDICTED BY IDOCK:   -2.27 KCAL/MOL
REMARK 927      BINDING AFFINITY PREDICTED BY RF-SCORE:    0.00 PKD
ROOT
HETATM    1  C   UNL     1     -10.149   7.705  72.343  1.00  0.00    -0.211 C  
HETATM    2  S   UNL     1     -10.790   6.445  71.205  1.00  0.00    -0.268 SA 
HETATM    3  C   UNL     1     -10.903   5.192  72.500  1.00  0.00    -0.223 C  
HETATM    4  C   UNL     1      -9.646   5.047  73.354  1.00  0.00    -0.147 C  
HETATM    5  CA  UNL     1      -8.688   6.008  73.466  1.00  0.00    -0.125 C  
HETATM    6  CA  UNL     1      -9.349   8.862  71.650  1.00  0.00    -0.258 C  
HETATM    7  O   UNL     1      -6.994   8.556  72.751  1.00  0.00    -0.186 OA 
HETATM    8  N   UNL     1      -8.886   7.231  72.876  1.00  0.00    -0.128 N  
HETATM    9  C   UNL     1      -7.376   5.702  74.171  1.00  0.00    -0.089 C  
HETATM   10  OXT UNL     1      -7.004   4.572  74.451  1.00  0.00    -0.067 OA 
HETATM   11  O   UNL     1      -6.645   6.763  74.562  1.00  0.00    -0.086 OA 
HETATM   12  C   UNL     1      -8.150   8.302  72.509  1.00  0.00    -0.152 C  
ENDROOT
BRANCH   4  13
HETATM   13  C   UNL     1      -9.577   3.632  73.938  1.00  0.00    -0.095 C  
BRANCH  13  14
HETATM   14  S   UNL     1      -9.735   2.277  72.748  1.00  0.00    -0.110 SA 
BRANCH  14  15
HETATM   15  C   UNL     1      -8.344   2.418  71.752  1.00  0.00    -0.056 A  
HETATM   16  N   UNL     1      -7.101   2.144  72.054  1.00  0.00    -0.033 NA 
HETATM   17  C   UNL     1      -9.515   3.278  69.670  1.00  0.00    -0.139 C  
HETATM   18  N   UNL     1      -6.362   2.462  70.938  1.00  0.00    -0.022 NA 
HETATM   19  N   UNL     1      -8.389   2.878  70.468  1.00  0.00    -0.051 NA 
HETATM   20  N   UNL     1      -7.143   2.913  69.965  1.00  0.00    -0.034 NA 
ENDBRANCH  14  15
ENDBRANCH  13  14
ENDBRANCH   4  13
BRANCH   6  21
HETATM   21  N   UNL     1      -9.208   8.711  70.170  1.00  0.00    -0.155 N  
HETATM   22  H   UNL     1      -8.473   8.100  69.812  1.00  0.00     0.000 HD 
HETATM   23  O   UNL     1     -11.036   9.962  69.611  1.00  0.00    -0.240 OA 
HETATM   24  C   UNL     1     -10.024   9.361  69.260  1.00  0.00    -0.181 C  
BRANCH  24  25
HETATM   25  CA  UNL     1      -9.438   9.414  67.816  1.00  0.00    -0.132 C  
BRANCH  25  26
HETATM   26  C   UNL     1      -9.571   8.058  67.115  1.00  0.00    -0.227 A  
HETATM   27  O   UNL     1     -10.061   4.407  65.155  1.00  0.00    -0.232 OA 
HETATM   28  C   UNL     1      -8.594   7.599  66.213  1.00  0.00    -0.153 A  
HETATM   29  C   UNL     1     -10.816   5.993  66.717  1.00  0.00    -0.356 A  
HETATM   30  C   UNL     1      -9.862   5.592  65.796  1.00  0.00     0.080 A  
HETATM   31  C   UNL     1      -8.742   6.376  65.549  1.00  0.00    -0.076 A  
HETATM   32  H   UNL     1     -10.827   3.870  65.324  1.00  0.00     0.000 HD 
HETATM   33  C   UNL     1     -10.664   7.209  67.385  1.00  0.00    -0.368 A  
ENDBRANCH  25  26
BRANCH  25  34
HETATM   34  N   UNL     1     -10.170  10.467  67.085  1.00  0.00    -0.212 N  
HETATM   35  C   UNL     1      -9.516  11.517  66.477  1.00  0.00    -0.204 C  
HETATM   36  H   UNL     1     -11.186  10.417  67.029  1.00  0.00     0.000 HD 
HETATM   37  O   UNL     1      -8.295  11.617  66.421  1.00  0.00    -0.162 OA 
BRANCH  35  38
HETATM   38  C   UNL     1     -10.339  12.550  65.803  1.00  0.00    -0.288 A  
HETATM   39  O   UNL     1      -8.650  14.273  66.120  1.00  0.00    -0.320 OA 
HETATM   40  C   UNL     1      -9.873  13.859  65.660  1.00  0.00    -0.205 A  
HETATM   41  C   UNL     1     -11.938  14.476  64.629  1.00  0.00    -0.468 A  
HETATM   42  C   UNL     1     -10.662  14.828  65.049  1.00  0.00    -0.452 A  
HETATM   43  H   UNL     1      -8.333  15.163  66.023  1.00  0.00     0.000 HD 
HETATM   44  N   UNL     1     -12.422  13.216  64.760  1.00  0.00    -0.571 NA 
HETATM   45  C   UNL     1     -12.879  15.509  64.081  1.00  0.00     0.848 C  
HETATM   46  C   UNL     1     -11.619  12.290  65.343  1.00  0.00    -0.363 A  
ENDBRANCH  35  38
ENDBRANCH  25  34
ENDBRANCH  24  25
ENDBRANCH   6  21
TORSDOF 8
ENDMDL
MODEL       93
REMARK 921   NORMALIZED FREE ENERGY PREDICTED BY IDOCK:   -4.98 KCAL/MOL
REMARK 922        TOTAL FREE ENERGY PREDICTED BY IDOCK:   -9.12 KCAL/MOL
REMARK 923 INTER-LIGAND FREE ENERGY PREDICTED BY IDOCK:   -7.59 KCAL/MOL
REMARK 924 INTRA-LIGAND FREE ENERGY PREDICTED BY IDOCK:   -1.53 KCAL/MOL
REMARK 927      BINDING AFFINITY PREDICTED BY RF-SCORE:    0.00 PKD
ROOT
HETATM    1  C   UNL     1      -7.062  10.452  67.084  1.00  0.00    -0.090 C  
HETATM    2  S   UNL     1      -7.008  11.336  68.668  1.00  0.00    -0.091 SA 
HETATM    3  C   UNL     1      -5.866  10.148  69.405  1.00  0.00    -0.037 C  
HETATM    4  C   UNL     1      -6.270   8.686  69.227  1.00  0.00    -0.042 C  
HETATM    5  CA  UNL     1      -7.133   8.247  68.269  1.00  0.00    -0.081 C  
HETATM    6  CA  UNL     1      -8.337  10.741  66.218  1.00  0.00    -0.160 C  
HETATM    7  O   UNL     1      -9.392   8.349  66.089  1.00  0.00    -0.200 OA 
HETATM    8  N   UNL     1      -7.599   9.126  67.325  1.00  0.00    -0.088 N  
HETATM    9  C   UNL     1      -7.635   6.812  68.293  1.00  0.00    -0.107 C  
HETATM   10  OXT UNL     1      -7.511   6.065  69.253  1.00  0.00    -0.084 OA 
HETATM   11  O   UNL     1      -8.173   6.347  67.150  1.00  0.00    -0.111 OA 
HETATM   12  C   UNL     1      -8.607   9.202  66.431  1.00  0.00    -0.125 C  
ENDROOT
BRANCH   4  13
HETATM   13  C   UNL     1      -5.670   7.842  70.356  1.00  0.00    -0.026 C  
BRANCH  13  14
HETATM   14  S   UNL     1      -6.189   8.282  72.034  1.00  0.00    -0.064 SA 
BRANCH  14  15
HETATM   15  C   UNL     1      -7.004   6.886  72.611  1.00  0.00    -0.070 A  
HETATM   16  N   UNL     1      -6.682   5.630  72.433  1.00  0.00    -0.069 NA 
HETATM   17  C   UNL     1      -8.889   8.080  73.821  1.00  0.00    -0.247 C  
HETATM   18  N   UNL     1      -7.669   4.897  73.052  1.00  0.00    -0.092 NA 
HETATM   19  N   UNL     1      -8.154   6.942  73.341  1.00  0.00    -0.101 NA 
HETATM   20  N   UNL     1      -8.573   5.692  73.608  1.00  0.00    -0.120 NA 
ENDBRANCH  14  15
ENDBRANCH  13  14
ENDBRANCH   4  13
BRANCH   6  21
HETATM   21  N   UNL     1      -9.322  11.663  66.863  1.00  0.00    -0.184 N  
HETATM   22  H   UNL     1      -9.056  12.125  67.733  1.00  0.00     0.000 HD 
HETATM   23  O   UNL     1     -10.895  11.551  65.211  1.00  0.00    -0.287 OA 
HETATM   24  C   UNL     1     -10.576  11.921  66.338  1.00  0.00    -0.248 C  
BRANCH  24  25
HETATM   25  CA  UNL     1     -11.573  12.537  67.367  1.00  0.00    -0.370 C  
BRANCH  25  26
HETATM   26  C   UNL     1     -11.660  11.681  68.634  1.00  0.00    -0.373 A  
HETATM   27  O   UNL     1     -11.780   9.281  72.045  1.00  0.00    -0.356 OA 
HETATM   28  C   UNL     1     -11.695  12.265  69.913  1.00  0.00    -0.346 A  
HETATM   29  C   UNL     1     -11.781   9.487  69.704  1.00  0.00     0.199 A  
HETATM   30  C   UNL     1     -11.763  10.091  70.951  1.00  0.00    -0.374 A  
HETATM   31  C   UNL     1     -11.738  11.475  71.067  1.00  0.00     0.349 A  
HETATM   32  H   UNL     1     -11.797   8.334  71.966  1.00  0.00     0.000 HD 
HETATM   33  C   UNL     1     -11.747  10.276  68.553  1.00  0.00     0.056 A  
ENDBRANCH  25  26
BRANCH  25  34
HETATM   34  N   UNL     1     -11.095  13.900  67.675  1.00  0.00    -0.270 N  
HETATM   35  C   UNL     1     -10.829  14.818  66.682  1.00  0.00    -0.319 C  
HETATM   36  H   UNL     1     -10.959  14.169  68.648  1.00  0.00     0.000 HD 
HETATM   37  O   UNL     1     -11.042  14.613  65.492  1.00  0.00    -0.320 OA 
BRANCH  35  38
HETATM   38  C   UNL     1     -10.313  16.147  67.086  1.00  0.00    -0.291 A  
HETATM   39  O   UNL     1     -10.734  17.111  64.891  1.00  0.00    -0.737 OA 
HETATM   40  C   UNL     1     -10.289  17.214  66.183  1.00  0.00    -0.322 A  
HETATM   41  C   UNL     1      -9.251  18.587  67.841  1.00  0.00    -0.290 A  
HETATM   42  C   UNL     1      -9.778  18.451  66.563  1.00  0.00    -0.353 A  
HETATM   43  H   UNL     1     -10.718  17.835  64.278  1.00  0.00     0.000 HD 
HETATM   44  N   UNL     1      -9.252  17.568  68.737  1.00  0.00    -0.261 NA 
HETATM   45  C   UNL     1      -8.572  19.857  68.261  1.00  0.00    -0.259 C  
HETATM   46  C   UNL     1      -9.775  16.381  68.341  1.00  0.00    -0.229 A  
ENDBRANCH  35  38
ENDBRANCH  25  34
ENDBRANCH  24  25
ENDBRANCH   6  21
TORSDOF 8
ENDMDL
MODEL       94
REMARK 921   NORMALIZED FREE ENERGY PREDICTED BY IDOCK:   -4.90 KCAL/MOL
REMARK 922        TOTAL FREE ENERGY PREDICTED BY IDOCK:   -9.01 KCAL/MOL
REMARK 923 INTER-LIGAND FREE ENERGY PREDICTED BY IDOCK:   -8.03 KCAL/MOL
REMARK 924 INTRA-LIGAND FREE ENERGY PREDICTED BY IDOCK:   -0.98 KCAL/MOL
REMARK 927      BINDING AFFINITY PREDICTED BY RF-SCORE:    0.00 PKD
ROOT
HETATM    1  C   UNL     1     -11.602  11.775  68.144  1.00  0.00    -0.323 C  
HETATM    2  S   UNL     1     -10.545  12.533  69.409  1.00  0.00     0.415 SA 
HETATM    3  C   UNL     1     -11.174  14.193  69.080  1.00  0.00    -0.272 C  
HETATM    4  C   UNL     1     -11.197  14.583  67.604  1.00  0.00    -0.335 C  
HETATM    5  CA  UNL     1     -11.175  13.684  66.581  1.00  0.00    -0.313 C  
HETATM    6  CA  UNL     1     -11.088  10.395  67.605  1.00  0.00    -0.293 C  
HETATM    7  O   UNL     1     -10.720  10.964  65.077  1.00  0.00    -0.249 OA 
HETATM    8  N   UNL     1     -11.246  12.342  66.858  1.00  0.00    -0.287 N  
HETATM    9  C   UNL     1     -10.994  14.162  65.149  1.00  0.00    -0.356 C  
HETATM   10  OXT UNL     1     -10.625  15.288  64.850  1.00  0.00    -0.407 OA 
HETATM   11  O   UNL     1     -11.341  13.294  64.180  1.00  0.00    -0.374 OA 
HETATM   12  C   UNL     1     -10.990  11.172  66.236  1.00  0.00    -0.163 C  
ENDROOT
BRANCH   4  13
HETATM   13  C   UNL     1     -11.112  16.107  67.469  1.00  0.00    -0.175 C  
BRANCH  13  14
HETATM   14  S   UNL     1     -10.012  16.944  68.638  1.00  0.00    -0.296 SA 
BRANCH  14  15
HETATM   15  C   UNL     1      -9.819  18.522  67.990  1.00  0.00    -0.341 A  
HETATM   16  N   UNL     1     -10.658  19.201  67.250  1.00  0.00    -0.455 NA 
HETATM   17  C   UNL     1      -7.505  18.983  68.927  1.00  0.00    -0.329 C  
HETATM   18  N   UNL     1     -10.026  20.386  66.954  1.00  0.00    -0.453 NA 
HETATM   19  N   UNL     1      -8.693  19.270  68.171  1.00  0.00    -0.319 NA 
HETATM   20  N   UNL     1      -8.824  20.436  67.512  1.00  0.00    -0.315 NA 
ENDBRANCH  14  15
ENDBRANCH  13  14
ENDBRANCH   4  13
BRANCH   6  21
HETATM   21  N   UNL     1      -9.785   9.954  68.190  1.00  0.00    -0.143 N  
HETATM   22  H   UNL     1      -8.940  10.057  67.627  1.00  0.00     0.000 HD 
HETATM   23  O   UNL     1     -10.601   9.426  70.258  1.00  0.00    -0.214 OA 
HETATM   24  C   UNL     1      -9.668   9.412  69.459  1.00  0.00    -0.183 C  
BRANCH  24  25
HETATM   25  CA  UNL     1      -8.337   8.633  69.689  1.00  0.00    -0.123 C  
BRANCH  25  26
HETATM   26  C   UNL     1      -8.379   7.840  70.999  1.00  0.00    -0.114 A  
HETATM   27  O   UNL     1      -8.395   5.592  74.514  1.00  0.00    -0.106 OA 
HETATM   28  C   UNL     1      -8.154   8.461  72.240  1.00  0.00    -0.186 A  
HETATM   29  C   UNL     1      -8.681   5.725  72.185  1.00  0.00    -0.133 A  
HETATM   30  C   UNL     1      -8.405   6.356  73.387  1.00  0.00    -0.120 A  
HETATM   31  C   UNL     1      -8.157   7.722  73.428  1.00  0.00    -0.208 A  
HETATM   32  H   UNL     1      -8.564   4.658  74.486  1.00  0.00     0.000 HD 
HETATM   33  C   UNL     1      -8.685   6.464  71.001  1.00  0.00    -0.135 A  
ENDBRANCH  25  26
BRANCH  25  34
HETATM   34  N   UNL     1      -8.147   7.740  68.529  1.00  0.00    -0.122 N  
HETATM   35  C   UNL     1      -7.045   7.839  67.708  1.00  0.00    -0.082 C  
HETATM   36  H   UNL     1      -8.851   7.030  68.329  1.00  0.00     0.000 HD 
HETATM   37  O   UNL     1      -6.109   8.604  67.916  1.00  0.00    -0.049 OA 
BRANCH  35  38
HETATM   38  C   UNL     1      -6.962   6.927  66.543  1.00  0.00    -0.066 A  
HETATM   39  O   UNL     1      -7.971   5.080  67.763  1.00  0.00    -0.094 OA 
HETATM   40  C   UNL     1      -7.421   5.610  66.625  1.00  0.00    -0.087 A  
HETATM   41  C   UNL     1      -6.701   5.223  64.380  1.00  0.00    -0.047 A  
HETATM   42  C   UNL     1      -7.314   4.754  65.534  1.00  0.00    -0.073 A  
HETATM   43  H   UNL     1      -8.282   4.185  67.820  1.00  0.00     0.000 HD 
HETATM   44  N   UNL     1      -6.238   6.494  64.271  1.00  0.00    -0.036 NA 
HETATM   45  C   UNL     1      -6.444   4.307  63.220  1.00  0.00    -0.026 C  
HETATM   46  C   UNL     1      -6.375   7.309  65.347  1.00  0.00    -0.038 A  
ENDBRANCH  35  38
ENDBRANCH  25  34
ENDBRANCH  24  25
ENDBRANCH   6  21
TORSDOF 8
ENDMDL
MODEL       95
REMARK 921   NORMALIZED FREE ENERGY PREDICTED BY IDOCK:   -4.89 KCAL/MOL
REMARK 922        TOTAL FREE ENERGY PREDICTED BY IDOCK:   -9.00 KCAL/MOL
REMARK 923 INTER-LIGAND FREE ENERGY PREDICTED BY IDOCK:   -9.06 KCAL/MOL
REMARK 924 INTRA-LIGAND FREE ENERGY PREDICTED BY IDOCK:    0.06 KCAL/MOL
REMARK 927      BINDING AFFINITY PREDICTED BY RF-SCORE:    0.00 PKD
ROOT
HETATM    1  C   UNL     1      -8.002   9.011  69.451  1.00  0.00    -0.100 C  
HETATM    2  S   UNL     1      -8.103   8.251  67.805  1.00  0.00    -0.128 SA 
HETATM    3  C   UNL     1      -8.751   9.754  67.043  1.00  0.00    -0.135 C  
HETATM    4  C   UNL     1      -9.919  10.392  67.790  1.00  0.00    -0.203 C  
HETATM    5  CA  UNL     1     -10.201  10.158  69.102  1.00  0.00    -0.214 C  
HETATM    6  CA  UNL     1      -8.008   7.991  70.642  1.00  0.00    -0.096 C  
HETATM    7  O   UNL     1     -10.194   8.709  71.889  1.00  0.00    -0.276 OA 
HETATM    8  N   UNL     1      -9.341   9.397  69.853  1.00  0.00    -0.198 N  
HETATM    9  C   UNL     1     -11.496  10.673  69.709  1.00  0.00    -0.302 C  
HETATM   10  OXT UNL     1     -12.438  11.087  69.049  1.00  0.00    -0.449 OA 
HETATM   11  O   UNL     1     -11.546  10.732  71.053  1.00  0.00    -0.264 OA 
HETATM   12  C   UNL     1      -9.355   8.719  71.020  1.00  0.00    -0.222 C  
ENDROOT
BRANCH   4  13
HETATM   13  C   UNL     1     -10.776  11.204  66.814  1.00  0.00    -0.276 C  
BRANCH  13  14
HETATM   14  S   UNL     1      -9.970  12.638  66.059  1.00  0.00    -0.253 SA 
BRANCH  14  15
HETATM   15  C   UNL     1     -11.159  13.296  65.010  1.00  0.00    -0.309 A  
HETATM   16  N   UNL     1     -11.830  14.410  65.145  1.00  0.00    -0.372 NA 
HETATM   17  C   UNL     1     -11.116  11.450  63.267  1.00  0.00    -0.113 C  
HETATM   18  N   UNL     1     -12.687  14.467  64.069  1.00  0.00    -0.727 NA 
HETATM   19  N   UNL     1     -11.569  12.675  63.866  1.00  0.00    -0.411 NA 
HETATM   20  N   UNL     1     -12.534  13.410  63.284  1.00  0.00    -0.736 NA 
ENDBRANCH  14  15
ENDBRANCH  13  14
ENDBRANCH   4  13
BRANCH   6  21
HETATM   21  N   UNL     1      -8.143   6.561  70.226  1.00  0.00    -0.119 N  
HETATM   22  H   UNL     1      -9.079   6.164  70.150  1.00  0.00     0.000 HD 
HETATM   23  O   UNL     1      -5.922   6.201  69.829  1.00  0.00    -0.023 OA 
HETATM   24  C   UNL     1      -7.059   5.749  69.939  1.00  0.00    -0.068 C  
BRANCH  24  25
HETATM   25  CA  UNL     1      -7.391   4.226  69.963  1.00  0.00    -0.046 C  
BRANCH  25  26
HETATM   26  C   UNL     1      -8.459   3.909  71.015  1.00  0.00    -0.097 A  
HETATM   27  O   UNL     1     -11.292   2.930  73.917  1.00  0.00    -0.177 OA 
HETATM   28  C   UNL     1      -8.797   4.835  72.018  1.00  0.00    -0.136 A  
HETATM   29  C   UNL     1     -10.105   2.374  71.966  1.00  0.00    -0.204 A  
HETATM   30  C   UNL     1     -10.380   3.287  72.972  1.00  0.00    -0.162 A  
HETATM   31  C   UNL     1      -9.746   4.523  72.998  1.00  0.00    -0.167 A  
HETATM   32  H   UNL     1     -11.725   2.085  73.900  1.00  0.00     0.000 HD 
HETATM   33  C   UNL     1      -9.164   2.689  70.985  1.00  0.00    -0.199 A  
ENDBRANCH  25  26
BRANCH  25  34
HETATM   34  N   UNL     1      -7.850   3.858  68.608  1.00  0.00    -0.067 N  
HETATM   35  C   UNL     1      -9.076   4.259  68.123  1.00  0.00    -0.131 C  
HETATM   36  H   UNL     1      -7.244   3.292  68.016  1.00  0.00     0.000 HD 
HETATM   37  O   UNL     1      -9.836   5.008  68.729  1.00  0.00    -0.153 OA 
BRANCH  35  38
HETATM   38  C   UNL     1      -9.469   3.806  66.768  1.00  0.00    -0.216 A  
HETATM   39  O   UNL     1     -10.700   5.854  66.308  1.00  0.00    -0.485 OA 
HETATM   40  C   UNL     1     -10.252   4.612  65.938  1.00  0.00    -0.276 A  
HETATM   41  C   UNL     1     -10.267   2.888  64.284  1.00  0.00    -0.024 A  
HETATM   42  C   UNL     1     -10.637   4.167  64.678  1.00  0.00    -0.176 A  
HETATM   43  H   UNL     1     -11.232   6.402  65.744  1.00  0.00     0.000 HD 
HETATM   44  N   UNL     1      -9.514   2.078  65.069  1.00  0.00    -0.054 NA 
HETATM   45  C   UNL     1     -10.762   2.308  62.991  1.00  0.00    -0.203 C  
HETATM   46  C   UNL     1      -9.138   2.550  66.285  1.00  0.00    -0.096 A  
ENDBRANCH  35  38
ENDBRANCH  25  34
ENDBRANCH  24  25
ENDBRANCH   6  21
TORSDOF 8
ENDMDL
MODEL       96
REMARK 921   NORMALIZED FREE ENERGY PREDICTED BY IDOCK:   -4.88 KCAL/MOL
REMARK 922        TOTAL FREE ENERGY PREDICTED BY IDOCK:   -8.98 KCAL/MOL
REMARK 923 INTER-LIGAND FREE ENERGY PREDICTED BY IDOCK:   -8.58 KCAL/MOL
REMARK 924 INTRA-LIGAND FREE ENERGY PREDICTED BY IDOCK:   -0.41 KCAL/MOL
REMARK 927      BINDING AFFINITY PREDICTED BY RF-SCORE:    0.00 PKD
ROOT
HETATM    1  C   UNL     1     -10.750  13.146  68.570  1.00  0.00    -0.259 C  
HETATM    2  S   UNL     1      -8.995  12.693  68.654  1.00  0.00     0.145 SA 
HETATM    3  C   UNL     1      -8.443  14.387  68.362  1.00  0.00    -0.165 C  
HETATM    4  C   UNL     1      -9.116  15.079  67.180  1.00  0.00    -0.229 C  
HETATM    5  CA  UNL     1     -10.305  14.685  66.644  1.00  0.00    -0.273 C  
HETATM    6  CA  UNL     1     -11.714  11.960  68.216  1.00  0.00    -0.321 C  
HETATM    7  O   UNL     1     -12.739  12.818  65.965  1.00  0.00    -0.359 OA 
HETATM    8  N   UNL     1     -11.017  13.678  67.247  1.00  0.00    -0.284 N  
HETATM    9  C   UNL     1     -10.800  15.301  65.346  1.00  0.00    -0.387 C  
HETATM   10  OXT UNL     1     -10.099  15.969  64.600  1.00  0.00    -0.172 OA 
HETATM   11  O   UNL     1     -12.109  15.147  65.071  1.00  0.00    -0.190 OA 
HETATM   12  C   UNL     1     -12.020  12.831  66.937  1.00  0.00    -0.310 C  
ENDROOT
BRANCH   4  13
HETATM   13  C   UNL     1      -8.196  16.172  66.626  1.00  0.00    -0.286 C  
BRANCH  13  14
HETATM   14  S   UNL     1      -7.594  17.384  67.830  1.00  0.00    -0.197 SA 
BRANCH  14  15
HETATM   15  C   UNL     1      -8.575  18.769  67.570  1.00  0.00    -0.274 A  
HETATM   16  N   UNL     1      -9.714  19.072  68.138  1.00  0.00    -0.333 NA 
HETATM   17  C   UNL     1      -7.106  19.890  65.829  1.00  0.00    -0.303 C  
HETATM   18  N   UNL     1     -10.118  20.255  67.563  1.00  0.00    -0.400 NA 
HETATM   19  N   UNL     1      -8.260  19.748  66.673  1.00  0.00    -0.307 NA 
HETATM   20  N   UNL     1      -9.236  20.674  66.666  1.00  0.00    -0.129 NA 
ENDBRANCH  14  15
ENDBRANCH  13  14
ENDBRANCH   4  13
BRANCH   6  21
HETATM   21  N   UNL     1     -11.021  10.661  67.961  1.00  0.00    -0.260 N  
HETATM   22  H   UNL     1     -10.933   9.998  68.731  1.00  0.00     0.000 HD 
HETATM   23  O   UNL     1     -10.719  10.970  65.717  1.00  0.00    -0.228 OA 
HETATM   24  C   UNL     1     -10.492  10.312  66.730  1.00  0.00    -0.214 C  
BRANCH  24  25
HETATM   25  CA  UNL     1      -9.456   9.149  66.798  1.00  0.00    -0.175 C  
BRANCH  25  26
HETATM   26  C   UNL     1      -8.284   9.395  65.843  1.00  0.00    -0.115 A  
HETATM   27  O   UNL     1      -5.172  10.159  63.171  1.00  0.00    -0.091 OA 
HETATM   28  C   UNL     1      -7.033   9.830  66.316  1.00  0.00    -0.094 A  
HETATM   29  C   UNL     1      -7.366   9.420  63.579  1.00  0.00    -0.103 A  
HETATM   30  C   UNL     1      -6.160   9.897  64.069  1.00  0.00    -0.123 A  
HETATM   31  C   UNL     1      -5.978  10.089  65.433  1.00  0.00    -0.090 A  
HETATM   32  H   UNL     1      -5.297  10.027  62.238  1.00  0.00     0.000 HD 
HETATM   33  C   UNL     1      -8.415   9.155  64.460  1.00  0.00    -0.195 A  
ENDBRANCH  25  26
BRANCH  25  34
HETATM   34  N   UNL     1      -8.995   9.056  68.197  1.00  0.00    -0.133 N  
HETATM   35  C   UNL     1      -9.109   7.891  68.924  1.00  0.00    -0.141 C  
HETATM   36  H   UNL     1      -8.582   9.877  68.639  1.00  0.00     0.000 HD 
HETATM   37  O   UNL     1      -9.516   6.833  68.454  1.00  0.00    -0.128 OA 
BRANCH  35  38
HETATM   38  C   UNL     1      -8.657   7.905  70.336  1.00  0.00    -0.132 A  
HETATM   39  O   UNL     1     -10.032   5.985  70.921  1.00  0.00    -0.180 OA 
HETATM   40  C   UNL     1      -9.135   6.966  71.253  1.00  0.00    -0.149 A  
HETATM   41  C   UNL     1      -7.871   8.022  72.984  1.00  0.00    -0.149 A  
HETATM   42  C   UNL     1      -8.726   7.004  72.582  1.00  0.00    -0.135 A  
HETATM   43  H   UNL     1     -10.357   5.347  71.545  1.00  0.00     0.000 HD 
HETATM   44  N   UNL     1      -7.396   8.953  72.120  1.00  0.00    -0.336 NA 
HETATM   45  C   UNL     1      -7.499   8.188  74.429  1.00  0.00    -0.252 C  
HETATM   46  C   UNL     1      -7.799   8.876  70.827  1.00  0.00    -0.119 A  
ENDBRANCH  35  38
ENDBRANCH  25  34
ENDBRANCH  24  25
ENDBRANCH   6  21
TORSDOF 8
ENDMDL
MODEL       97
REMARK 921   NORMALIZED FREE ENERGY PREDICTED BY IDOCK:   -4.87 KCAL/MOL
REMARK 922        TOTAL FREE ENERGY PREDICTED BY IDOCK:   -8.96 KCAL/MOL
REMARK 923 INTER-LIGAND FREE ENERGY PREDICTED BY IDOCK:   -9.49 KCAL/MOL
REMARK 924 INTRA-LIGAND FREE ENERGY PREDICTED BY IDOCK:    0.53 KCAL/MOL
REMARK 927      BINDING AFFINITY PREDICTED BY RF-SCORE:    0.00 PKD
ROOT
HETATM    1  C   UNL     1      -7.682   7.831  69.817  1.00  0.00    -0.097 C  
HETATM    2  S   UNL     1      -8.075   9.544  70.274  1.00  0.00    -0.184 SA 
HETATM    3  C   UNL     1      -9.135   9.038  71.645  1.00  0.00    -0.108 C  
HETATM    4  C   UNL     1     -10.161   7.964  71.292  1.00  0.00    -0.218 C  
HETATM    5  CA  UNL     1     -10.054   7.135  70.216  1.00  0.00    -0.188 C  
HETATM    6  CA  UNL     1      -7.213   7.643  68.333  1.00  0.00    -0.090 C  
HETATM    7  O   UNL     1      -9.093   6.065  67.423  1.00  0.00    -0.109 OA 
HETATM    8  N   UNL     1      -8.917   7.167  69.449  1.00  0.00    -0.136 N  
HETATM    9  C   UNL     1     -11.216   6.237  69.825  1.00  0.00    -0.430 C  
HETATM   10  OXT UNL     1     -12.351   6.365  70.262  1.00  0.00    -0.067 OA 
HETATM   11  O   UNL     1     -10.928   5.206  69.008  1.00  0.00     0.130 OA 
HETATM   12  C   UNL     1      -8.518   6.765  68.224  1.00  0.00    -0.125 C  
ENDROOT
BRANCH   4  13
HETATM   13  C   UNL     1     -11.362   8.063  72.238  1.00  0.00    -0.353 C  
BRANCH  13  14
HETATM   14  S   UNL     1     -12.913   8.623  71.491  1.00  0.00    -0.284 SA 
BRANCH  14  15
HETATM   15  C   UNL     1     -12.778  10.334  71.457  1.00  0.00    -0.452 A  
HETATM   16  N   UNL     1     -13.250  11.201  72.317  1.00  0.00    -0.247 NA 
HETATM   17  C   UNL     1     -11.444  10.517  69.305  1.00  0.00    -0.256 C  
HETATM   18  N   UNL     1     -12.916  12.441  71.824  1.00  0.00    -0.362 NA 
HETATM   19  N   UNL     1     -12.146  11.013  70.457  1.00  0.00    -0.348 NA 
HETATM   20  N   UNL     1     -12.242  12.335  70.687  1.00  0.00    -0.357 NA 
ENDBRANCH  14  15
ENDBRANCH  13  14
ENDBRANCH   4  13
BRANCH   6  21
HETATM   21  N   UNL     1      -7.213   8.901  67.524  1.00  0.00    -0.080 N  
HETATM   22  H   UNL     1      -6.345   9.433  67.454  1.00  0.00     0.000 HD 
HETATM   23  O   UNL     1      -9.354   8.708  66.753  1.00  0.00    -0.156 OA 
HETATM   24  C   UNL     1      -8.333   9.380  66.867  1.00  0.00    -0.127 C  
BRANCH  24  25
HETATM   25  CA  UNL     1      -8.232  10.885  66.471  1.00  0.00    -0.157 C  
BRANCH  25  26
HETATM   26  C   UNL     1      -9.561  11.398  65.905  1.00  0.00    -0.254 A  
HETATM   27  O   UNL     1     -13.140  12.927  64.401  1.00  0.00    -0.686 OA 
HETATM   28  C   UNL     1      -9.940  11.141  64.576  1.00  0.00    -0.350 A  
HETATM   29  C   UNL     1     -11.655  12.623  66.198  1.00  0.00    -0.445 A  
HETATM   30  C   UNL     1     -11.977  12.396  64.869  1.00  0.00    -0.398 A  
HETATM   31  C   UNL     1     -11.138  11.644  64.056  1.00  0.00    -0.458 A  
HETATM   32  H   UNL     1     -13.714  13.441  64.957  1.00  0.00     0.000 HD 
HETATM   33  C   UNL     1     -10.464  12.114  66.717  1.00  0.00    -0.245 A  
ENDBRANCH  25  26
BRANCH  25  34
HETATM   34  N   UNL     1      -7.844  11.631  67.684  1.00  0.00    -0.127 N  
HETATM   35  C   UNL     1      -6.655  12.321  67.762  1.00  0.00    -0.108 C  
HETATM   36  H   UNL     1      -8.474  11.636  68.486  1.00  0.00     0.000 HD 
HETATM   37  O   UNL     1      -5.874  12.441  66.824  1.00  0.00    -0.277 OA 
BRANCH  35  38
HETATM   38  C   UNL     1      -6.331  13.006  69.037  1.00  0.00    -0.099 A  
HETATM   39  O   UNL     1      -6.585  15.217  68.054  1.00  0.00    -0.115 OA 
HETATM   40  C   UNL     1      -6.311  14.400  69.120  1.00  0.00    -0.102 A  
HETATM   41  C   UNL     1      -5.627  14.250  71.404  1.00  0.00    -0.206 A  
HETATM   42  C   UNL     1      -5.981  15.034  70.313  1.00  0.00    -0.150 A  
HETATM   43  H   UNL     1      -6.571  16.165  68.110  1.00  0.00     0.000 HD 
HETATM   44  N   UNL     1      -5.629  12.895  71.354  1.00  0.00    -0.383 NA 
HETATM   45  C   UNL     1      -5.138  14.879  72.676  1.00  0.00    -0.138 C  
HETATM   46  C   UNL     1      -5.975  12.308  70.180  1.00  0.00    -0.148 A  
ENDBRANCH  35  38
ENDBRANCH  25  34
ENDBRANCH  24  25
ENDBRANCH   6  21
TORSDOF 8
ENDMDL
MODEL       98
REMARK 921   NORMALIZED FREE ENERGY PREDICTED BY IDOCK:   -4.86 KCAL/MOL
REMARK 922        TOTAL FREE ENERGY PREDICTED BY IDOCK:   -8.95 KCAL/MOL
REMARK 923 INTER-LIGAND FREE ENERGY PREDICTED BY IDOCK:   -8.46 KCAL/MOL
REMARK 924 INTRA-LIGAND FREE ENERGY PREDICTED BY IDOCK:   -0.49 KCAL/MOL
REMARK 927      BINDING AFFINITY PREDICTED BY RF-SCORE:    0.00 PKD
ROOT
HETATM    1  C   UNL     1      -6.744  11.212  67.683  1.00  0.00    -0.071 C  
HETATM    2  S   UNL     1      -6.414  11.239  69.467  1.00  0.00    -0.131 SA 
HETATM    3  C   UNL     1      -6.802   9.487  69.665  1.00  0.00    -0.063 C  
HETATM    4  C   UNL     1      -8.115   9.051  69.020  1.00  0.00    -0.107 C  
HETATM    5  CA  UNL     1      -8.745   9.746  68.032  1.00  0.00    -0.118 C  
HETATM    6  CA  UNL     1      -7.091  12.610  67.063  1.00  0.00     0.085 C  
HETATM    7  O   UNL     1      -9.518  12.167  66.186  1.00  0.00    -0.234 OA 
HETATM    8  N   UNL     1      -8.134  10.847  67.486  1.00  0.00    -0.115 N  
HETATM    9  C   UNL     1     -10.145   9.350  67.592  1.00  0.00    -0.211 C  
HETATM   10  OXT UNL     1     -10.865   8.590  68.222  1.00  0.00    -0.084 OA 
HETATM   11  O   UNL     1     -10.553   9.822  66.399  1.00  0.00    -0.159 OA 
HETATM   12  C   UNL     1      -8.475  11.923  66.747  1.00  0.00    -0.167 C  
ENDROOT
BRANCH   4  13
HETATM   13  C   UNL     1      -8.662   7.815  69.742  1.00  0.00    -0.139 C  
BRANCH  13  14
HETATM   14  S   UNL     1      -7.638   7.169  71.089  1.00  0.00    -0.085 SA 
BRANCH  14  15
HETATM   15  C   UNL     1      -8.659   6.058  71.908  1.00  0.00    -0.137 A  
HETATM   16  N   UNL     1      -8.999   4.849  71.541  1.00  0.00    -0.133 NA 
HETATM   17  C   UNL     1      -9.203   7.523  73.908  1.00  0.00    -0.262 C  
HETATM   18  N   UNL     1      -9.862   4.390  72.509  1.00  0.00    -0.152 NA 
HETATM   19  N   UNL     1      -9.279   6.345  73.089  1.00  0.00    -0.129 NA 
HETATM   20  N   UNL     1     -10.039   5.299  73.458  1.00  0.00    -0.172 NA 
ENDBRANCH  14  15
ENDBRANCH  13  14
ENDBRANCH   4  13
BRANCH   6  21
HETATM   21  N   UNL     1      -7.138  13.728  68.054  1.00  0.00    -0.115 N  
HETATM   22  H   UNL     1      -7.762  13.640  68.856  1.00  0.00     0.000 HD 
HETATM   23  O   UNL     1      -5.473  14.975  67.109  1.00  0.00    -0.222 OA 
HETATM   24  C   UNL     1      -6.375  14.877  67.937  1.00  0.00    -0.159 C  
BRANCH  24  25
HETATM   25  CA  UNL     1      -6.892  16.064  68.807  1.00  0.00    -0.132 C  
BRANCH  25  26
HETATM   26  C   UNL     1      -7.111  17.319  67.955  1.00  0.00    -0.174 A  
HETATM   27  O   UNL     1      -7.624  20.807  65.724  1.00  0.00    -0.487 OA 
HETATM   28  C   UNL     1      -6.812  17.334  66.581  1.00  0.00    -0.272 A  
HETATM   29  C   UNL     1      -7.819  19.650  67.761  1.00  0.00    -0.325 A  
HETATM   30  C   UNL     1      -7.467  19.648  66.420  1.00  0.00    -0.275 A  
HETATM   31  C   UNL     1      -6.980  18.495  65.818  1.00  0.00    -0.287 A  
HETATM   32  H   UNL     1      -7.957  21.596  66.136  1.00  0.00     0.000 HD 
HETATM   33  C   UNL     1      -7.658  18.489  68.519  1.00  0.00    -0.328 A  
ENDBRANCH  25  26
BRANCH  25  34
HETATM   34  N   UNL     1      -8.149  15.625  69.444  1.00  0.00    -0.239 N  
HETATM   35  C   UNL     1      -9.312  15.470  68.723  1.00  0.00    -0.209 C  
HETATM   36  H   UNL     1      -8.156  15.430  70.444  1.00  0.00     0.000 HD 
HETATM   37  O   UNL     1      -9.382  15.600  67.506  1.00  0.00    -0.204 OA 
BRANCH  35  38
HETATM   38  C   UNL     1     -10.536  15.066  69.457  1.00  0.00    -0.245 A  
HETATM   39  O   UNL     1     -10.843  17.284  70.409  1.00  0.00    -0.136 OA 
HETATM   40  C   UNL     1     -11.231  15.979  70.254  1.00  0.00    -0.389 A  
HETATM   41  C   UNL     1     -12.757  14.253  70.890  1.00  0.00    -0.357 A  
HETATM   42  C   UNL     1     -12.363  15.583  70.959  1.00  0.00    -0.471 A  
HETATM   43  H   UNL     1     -11.316  17.904  70.950  1.00  0.00     0.000 HD 
HETATM   44  N   UNL     1     -12.098  13.341  70.132  1.00  0.00    -0.348 NA 
HETATM   45  C   UNL     1     -13.891  13.742  71.730  1.00  0.00    -0.409 C  
HETATM   46  C   UNL     1     -11.010  13.764  69.441  1.00  0.00    -0.097 A  
ENDBRANCH  35  38
ENDBRANCH  25  34
ENDBRANCH  24  25
ENDBRANCH   6  21
TORSDOF 8
ENDMDL
MODEL       99
REMARK 921   NORMALIZED FREE ENERGY PREDICTED BY IDOCK:   -4.78 KCAL/MOL
REMARK 922        TOTAL FREE ENERGY PREDICTED BY IDOCK:   -8.84 KCAL/MOL
REMARK 923 INTER-LIGAND FREE ENERGY PREDICTED BY IDOCK:   -8.49 KCAL/MOL
REMARK 924 INTRA-LIGAND FREE ENERGY PREDICTED BY IDOCK:   -0.35 KCAL/MOL
REMARK 927      BINDING AFFINITY PREDICTED BY RF-SCORE:    0.00 PKD
ROOT
HETATM    1  C   UNL     1      -9.746  10.402  65.822  1.00  0.00    -0.228 C  
HETATM    2  S   UNL     1     -10.815   9.652  67.083  1.00  0.00    -0.001 SA 
HETATM    3  C   UNL     1     -11.410  11.252  67.670  1.00  0.00    -0.282 C  
HETATM    4  C   UNL     1     -10.311  12.276  67.945  1.00  0.00    -0.216 C  
HETATM    5  CA  UNL     1      -9.057  12.205  67.417  1.00  0.00    -0.181 C  
HETATM    6  CA  UNL     1      -8.558   9.493  65.350  1.00  0.00    -0.155 C  
HETATM    7  O   UNL     1      -6.510  10.955  66.071  1.00  0.00    -0.127 OA 
HETATM    8  N   UNL     1      -8.766  11.231  66.496  1.00  0.00    -0.173 N  
HETATM    9  C   UNL     1      -7.969  13.149  67.904  1.00  0.00    -0.158 C  
HETATM   10  OXT UNL     1      -8.062  13.828  68.916  1.00  0.00    -0.072 OA 
HETATM   11  O   UNL     1      -6.890  13.277  67.110  1.00  0.00    -0.120 OA 
HETATM   12  C   UNL     1      -7.673  10.646  65.962  1.00  0.00    -0.151 C  
ENDROOT
BRANCH   4  13
HETATM   13  C   UNL     1     -10.795  13.288  68.989  1.00  0.00    -0.173 C  
BRANCH  13  14
HETATM   14  S   UNL     1     -12.119  14.401  68.456  1.00  0.00    -0.173 SA 
BRANCH  14  15
HETATM   15  C   UNL     1     -11.926  14.512  66.753  1.00  0.00    -0.342 A  
HETATM   16  N   UNL     1     -12.640  13.939  65.819  1.00  0.00    -0.504 NA 
HETATM   17  C   UNL     1      -9.916  16.062  66.750  1.00  0.00    -0.258 C  
HETATM   18  N   UNL     1     -12.061  14.304  64.625  1.00  0.00    -0.443 NA 
HETATM   19  N   UNL     1     -10.933  15.236  66.161  1.00  0.00    -0.325 NA 
HETATM   20  N   UNL     1     -11.017  15.095  64.826  1.00  0.00    -0.398 NA 
ENDBRANCH  14  15
ENDBRANCH  13  14
ENDBRANCH   4  13
BRANCH   6  21
HETATM   21  N   UNL     1      -8.476   8.176  66.052  1.00  0.00    -0.133 N  
HETATM   22  H   UNL     1      -8.763   7.337  65.546  1.00  0.00     0.000 HD 
HETATM   23  O   UNL     1      -7.498   8.965  67.960  1.00  0.00    -0.090 OA 
HETATM   24  C   UNL     1      -8.029   8.037  67.355  1.00  0.00    -0.122 C  
BRANCH  24  25
HETATM   25  CA  UNL     1      -8.435   6.685  68.017  1.00  0.00    -0.116 C  
BRANCH  25  26
HETATM   26  C   UNL     1      -9.398   6.909  69.188  1.00  0.00    -0.140 A  
HETATM   27  O   UNL     1     -12.041   7.379  72.381  1.00  0.00    -0.456 OA 
HETATM   28  C   UNL     1      -8.988   7.575  70.357  1.00  0.00    -0.152 A  
HETATM   29  C   UNL     1     -11.610   6.645  70.190  1.00  0.00    -0.446 A  
HETATM   30  C   UNL     1     -11.162   7.261  71.348  1.00  0.00    -0.248 A  
HETATM   31  C   UNL     1      -9.863   7.743  71.436  1.00  0.00    -0.195 A  
HETATM   32  H   UNL     1     -12.930   7.049  72.321  1.00  0.00     0.000 HD 
HETATM   33  C   UNL     1     -10.740   6.485  69.111  1.00  0.00    -0.323 A  
ENDBRANCH  25  26
BRANCH  25  34
HETATM   34  N   UNL     1      -9.055   5.853  66.967  1.00  0.00    -0.115 N  
HETATM   35  C   UNL     1      -8.817   4.499  66.877  1.00  0.00    -0.112 C  
HETATM   36  H   UNL     1      -9.677   6.293  66.289  1.00  0.00     0.000 HD 
HETATM   37  O   UNL     1      -8.151   3.870  67.694  1.00  0.00    -0.089 OA 
BRANCH  35  38
HETATM   38  C   UNL     1      -9.450   3.754  65.763  1.00  0.00    -0.170 A  
HETATM   39  O   UNL     1      -7.885   1.901  65.953  1.00  0.00    -0.070 OA 
HETATM   40  C   UNL     1      -8.960   2.509  65.360  1.00  0.00    -0.131 A  
HETATM   41  C   UNL     1     -10.593   2.436  63.618  1.00  0.00    -0.130 A  
HETATM   42  C   UNL     1      -9.545   1.830  64.297  1.00  0.00    -0.119 A  
HETATM   43  H   UNL     1      -7.552   1.055  65.679  1.00  0.00     0.000 HD 
HETATM   44  N   UNL     1     -11.086   3.647  63.980  1.00  0.00    -0.278 NA 
HETATM   45  C   UNL     1     -11.176   1.809  62.385  1.00  0.00    -0.210 C  
HETATM   46  C   UNL     1     -10.506   4.274  65.033  1.00  0.00    -0.165 A  
ENDBRANCH  35  38
ENDBRANCH  25  34
ENDBRANCH  24  25
ENDBRANCH   6  21
TORSDOF 8
ENDMDL
MODEL      100
REMARK 921   NORMALIZED FREE ENERGY PREDICTED BY IDOCK:   -4.74 KCAL/MOL
REMARK 922        TOTAL FREE ENERGY PREDICTED BY IDOCK:   -8.78 KCAL/MOL
REMARK 923 INTER-LIGAND FREE ENERGY PREDICTED BY IDOCK:   -9.08 KCAL/MOL
REMARK 924 INTRA-LIGAND FREE ENERGY PREDICTED BY IDOCK:    0.30 KCAL/MOL
REMARK 927      BINDING AFFINITY PREDICTED BY RF-SCORE:    0.00 PKD
ROOT
HETATM    1  C   UNL     1      -6.683   9.162  68.537  1.00  0.00    -0.059 C  
HETATM    2  S   UNL     1      -7.782   9.019  69.974  1.00  0.00    -0.094 SA 
HETATM    3  C   UNL     1      -7.599   7.225  70.058  1.00  0.00    -0.090 C  
HETATM    4  C   UNL     1      -7.796   6.504  68.726  1.00  0.00    -0.110 C  
HETATM    5  CA  UNL     1      -7.687   7.110  67.511  1.00  0.00    -0.111 C  
HETATM    6  CA  UNL     1      -6.894  10.459  67.681  1.00  0.00    -0.075 C  
HETATM    7  O   UNL     1      -7.600   9.421  65.385  1.00  0.00    -0.096 OA 
HETATM    8  N   UNL     1      -7.272   8.416  67.442  1.00  0.00    -0.086 N  
HETATM    9  C   UNL     1      -8.098   6.369  66.249  1.00  0.00    -0.114 C  
HETATM   10  OXT UNL     1      -8.750   5.335  66.250  1.00  0.00    -0.117 OA 
HETATM   11  O   UNL     1      -7.635   6.866  65.086  1.00  0.00    -0.088 OA 
HETATM   12  C   UNL     1      -7.291   9.431  66.553  1.00  0.00    -0.093 C  
ENDROOT
BRANCH   4  13
HETATM   13  C   UNL     1      -8.255   5.064  68.979  1.00  0.00    -0.087 C  
BRANCH  13  14
HETATM   14  S   UNL     1      -9.957   4.869  69.563  1.00  0.00    -0.211 SA 
BRANCH  14  15
HETATM   15  C   UNL     1      -9.795   4.353  71.192  1.00  0.00    -0.188 A  
HETATM   16  N   UNL     1     -10.665   4.455  72.164  1.00  0.00    -0.028 NA 
HETATM   17  C   UNL     1      -7.444   3.412  71.007  1.00  0.00    -0.037 C  
HETATM   18  N   UNL     1     -10.047   3.937  73.279  1.00  0.00    -0.134 NA 
HETATM   19  N   UNL     1      -8.663   3.768  71.680  1.00  0.00    -0.095 NA 
HETATM   20  N   UNL     1      -8.822   3.516  72.991  1.00  0.00    -0.092 NA 
ENDBRANCH  14  15
ENDBRANCH  13  14
ENDBRANCH   4  13
BRANCH   6  21
HETATM   21  N   UNL     1      -7.999  11.342  68.166  1.00  0.00    -0.126 N  
HETATM   22  H   UNL     1      -8.657  10.966  68.849  1.00  0.00     0.000 HD 
HETATM   23  O   UNL     1      -7.325  13.224  67.061  1.00  0.00     0.006 OA 
HETATM   24  C   UNL     1      -8.174  12.645  67.734  1.00  0.00    -0.171 C  
BRANCH  24  25
HETATM   25  CA  UNL     1      -9.598  13.215  68.016  1.00  0.00    -0.220 C  
BRANCH  25  26
HETATM   26  C   UNL     1     -10.382  13.414  66.715  1.00  0.00    -0.263 A  
HETATM   27  O   UNL     1     -12.513  14.094  63.193  1.00  0.00    -1.126 OA 
HETATM   28  C   UNL     1      -9.915  12.901  65.492  1.00  0.00    -0.226 A  
HETATM   29  C   UNL     1     -12.319  14.311  65.526  1.00  0.00    -0.417 A  
HETATM   30  C   UNL     1     -11.807  13.837  64.328  1.00  0.00    -0.417 A  
HETATM   31  C   UNL     1     -10.618  13.118  64.302  1.00  0.00    -0.432 A  
HETATM   32  H   UNL     1     -13.326  14.586  63.211  1.00  0.00     0.000 HD 
HETATM   33  C   UNL     1     -11.621  14.087  66.713  1.00  0.00    -0.406 A  
ENDBRANCH  25  26
BRANCH  25  34
HETATM   34  N   UNL     1     -10.280  12.261  68.911  1.00  0.00    -0.421 N  
HETATM   35  C   UNL     1     -11.526  12.523  69.438  1.00  0.00    -0.263 C  
HETATM   36  H   UNL     1      -9.817  11.383  69.147  1.00  0.00     0.000 HD 
HETATM   37  O   UNL     1     -12.194  13.510  69.148  1.00  0.00    -0.307 OA 
BRANCH  35  38
HETATM   38  C   UNL     1     -12.114  11.523  70.362  1.00  0.00    -0.471 A  
HETATM   39  O   UNL     1     -11.284   9.647  69.054  1.00  0.00    -0.424 OA 
HETATM   40  C   UNL     1     -11.968  10.154  70.128  1.00  0.00    -0.185 A  
HETATM   41  C   UNL     1     -13.308   9.687  72.051  1.00  0.00    -0.457 A  
HETATM   42  C   UNL     1     -12.546   9.224  70.986  1.00  0.00    -0.248 A  
HETATM   43  H   UNL     1     -11.184   8.716  68.895  1.00  0.00     0.000 HD 
HETATM   44  N   UNL     1     -13.475  11.010  72.300  1.00  0.00    -0.167 NA 
HETATM   45  C   UNL     1     -14.059   8.732  72.931  1.00  0.00    -0.017 C  
HETATM   46  C   UNL     1     -12.883  11.890  71.455  1.00  0.00    -0.316 A  
ENDBRANCH  35  38
ENDBRANCH  25  34
ENDBRANCH  24  25
ENDBRANCH   6  21
TORSDOF 8
ENDMDL
MODEL      101
REMARK 921   NORMALIZED FREE ENERGY PREDICTED BY IDOCK:   -4.58 KCAL/MOL
REMARK 922        TOTAL FREE ENERGY PREDICTED BY IDOCK:   -8.54 KCAL/MOL
REMARK 923 INTER-LIGAND FREE ENERGY PREDICTED BY IDOCK:   -6.80 KCAL/MOL
REMARK 924 INTRA-LIGAND FREE ENERGY PREDICTED BY IDOCK:   -1.74 KCAL/MOL
REMARK 927      BINDING AFFINITY PREDICTED BY RF-SCORE:    0.00 PKD
ROOT
HETATM    1  C   UNL     1      -6.939  10.161  66.763  1.00  0.00    -0.091 C  
HETATM    2  S   UNL     1      -8.610   9.849  66.127  1.00  0.00    -0.130 SA 
HETATM    3  C   UNL     1      -8.882  11.584  65.711  1.00  0.00    -0.058 C  
HETATM    4  C   UNL     1      -8.536  12.566  66.827  1.00  0.00    -0.109 C  
HETATM    5  CA  UNL     1      -7.709  12.273  67.869  1.00  0.00    -0.133 C  
HETATM    6  CA  UNL     1      -6.412   9.081  67.771  1.00  0.00    -0.057 C  
HETATM    7  O   UNL     1      -6.081  10.538  69.920  1.00  0.00    -0.057 OA 
HETATM    8  N   UNL     1      -7.047  11.071  67.888  1.00  0.00    -0.079 N  
HETATM    9  C   UNL     1      -7.582  13.235  69.039  1.00  0.00     0.119 C  
HETATM   10  OXT UNL     1      -8.351  14.163  69.241  1.00  0.00     0.097 OA 
HETATM   11  O   UNL     1      -6.507  13.073  69.833  1.00  0.00    -0.073 OA 
HETATM   12  C   UNL     1      -6.402  10.292  68.781  1.00  0.00    -0.047 C  
ENDROOT
BRANCH   4  13
HETATM   13  C   UNL     1      -9.356  13.850  66.661  1.00  0.00    -0.268 C  
BRANCH  13  14
HETATM   14  S   UNL     1      -9.920  14.215  64.979  1.00  0.00    -0.044 SA 
BRANCH  14  15
HETATM   15  C   UNL     1     -11.544  13.659  64.943  1.00  0.00    -0.344 A  
HETATM   16  N   UNL     1     -12.535  14.003  65.724  1.00  0.00    -0.491 NA 
HETATM   17  C   UNL     1     -11.302  12.067  62.980  1.00  0.00     0.030 C  
HETATM   18  N   UNL     1     -13.613  13.250  65.319  1.00  0.00    -0.009 NA 
HETATM   19  N   UNL     1     -11.993  12.727  64.054  1.00  0.00    -0.410 NA 
HETATM   20  N   UNL     1     -13.289  12.467  64.299  1.00  0.00    -0.564 NA 
ENDBRANCH  14  15
ENDBRANCH  13  14
ENDBRANCH   4  13
BRANCH   6  21
HETATM   21  N   UNL     1      -7.394   7.995  68.076  1.00  0.00    -0.094 N  
HETATM   22  H   UNL     1      -8.051   7.716  67.348  1.00  0.00     0.000 HD 
HETATM   23  O   UNL     1      -6.584   7.498  70.154  1.00  0.00    -0.041 OA 
HETATM   24  C   UNL     1      -7.453   7.349  69.299  1.00  0.00    -0.092 C  
BRANCH  24  25
HETATM   25  CA  UNL     1      -8.794   6.591  69.544  1.00  0.00    -0.138 C  
BRANCH  25  26
HETATM   26  C   UNL     1      -9.855   7.522  70.141  1.00  0.00    -0.180 A  
HETATM   27  O   UNL     1     -12.768  10.107  71.636  1.00  0.00    -0.380 OA 
HETATM   28  C   UNL     1     -10.930   7.020  70.896  1.00  0.00    -0.282 A  
HETATM   29  C   UNL     1     -10.748   9.771  70.484  1.00  0.00    -0.381 A  
HETATM   30  C   UNL     1     -11.822   9.241  71.181  1.00  0.00    -0.325 A  
HETATM   31  C   UNL     1     -11.914   7.874  71.406  1.00  0.00    -0.331 A  
HETATM   32  H   UNL     1     -12.705  11.043  71.482  1.00  0.00     0.000 HD 
HETATM   33  C   UNL     1      -9.762   8.920  69.982  1.00  0.00    -0.187 A  
ENDBRANCH  25  26
BRANCH  25  34
HETATM   34  N   UNL     1      -9.232   6.047  68.243  1.00  0.00    -0.118 N  
HETATM   35  C   UNL     1      -9.182   4.699  67.966  1.00  0.00    -0.127 C  
HETATM   36  H   UNL     1      -9.581   6.687  67.530  1.00  0.00     0.000 HD 
HETATM   37  O   UNL     1      -8.856   3.847  68.786  1.00  0.00    -0.093 OA 
BRANCH  35  38
HETATM   38  C   UNL     1      -9.603   4.251  66.617  1.00  0.00    -0.218 A  
HETATM   39  O   UNL     1      -7.664   2.802  66.362  1.00  0.00    -0.075 OA 
HETATM   40  C   UNL     1      -8.834   3.338  65.890  1.00  0.00    -0.137 A  
HETATM   41  C   UNL     1     -10.365   3.511  64.063  1.00  0.00    -0.242 A  
HETATM   42  C   UNL     1      -9.224   2.943  64.614  1.00  0.00    -0.144 A  
HETATM   43  H   UNL     1      -7.142   2.182  65.868  1.00  0.00     0.000 HD 
HETATM   44  N   UNL     1     -11.128   4.405  64.740  1.00  0.00    -0.153 NA 
HETATM   45  C   UNL     1     -10.761   3.220  62.646  1.00  0.00    -0.182 C  
HETATM   46  C   UNL     1     -10.731   4.754  65.990  1.00  0.00    -0.158 A  
ENDBRANCH  35  38
ENDBRANCH  25  34
ENDBRANCH  24  25
ENDBRANCH   6  21
TORSDOF 8
ENDMDL
MODEL      102
REMARK 921   NORMALIZED FREE ENERGY PREDICTED BY IDOCK:   -4.56 KCAL/MOL
REMARK 922        TOTAL FREE ENERGY PREDICTED BY IDOCK:   -8.51 KCAL/MOL
REMARK 923 INTER-LIGAND FREE ENERGY PREDICTED BY IDOCK:   -7.90 KCAL/MOL
REMARK 924 INTRA-LIGAND FREE ENERGY PREDICTED BY IDOCK:   -0.61 KCAL/MOL
REMARK 927      BINDING AFFINITY PREDICTED BY RF-SCORE:    0.00 PKD
ROOT
HETATM    1  C   UNL     1     -11.128   8.600  69.609  1.00  0.00    -0.013 C  
HETATM    2  S   UNL     1     -10.638   8.409  67.872  1.00  0.00    -0.096 SA 
HETATM    3  C   UNL     1     -10.854   6.617  67.907  1.00  0.00    -0.277 C  
HETATM    4  C   UNL     1     -10.187   5.920  69.090  1.00  0.00    -0.275 C  
HETATM    5  CA  UNL     1      -9.834   6.551  70.244  1.00  0.00    -0.168 C  
HETATM    6  CA  UNL     1     -10.605   9.910  70.294  1.00  0.00    -0.301 C  
HETATM    7  O   UNL     1      -9.111   8.905  72.195  1.00  0.00    -0.375 OA 
HETATM    8  N   UNL     1     -10.183   7.865  70.429  1.00  0.00    -0.195 N  
HETATM    9  C   UNL     1      -8.994   5.829  71.285  1.00  0.00    -0.140 C  
HETATM   10  OXT UNL     1      -8.397   4.784  71.069  1.00  0.00    -0.096 OA 
HETATM   11  O   UNL     1      -8.992   6.357  72.523  1.00  0.00    -0.137 OA 
HETATM   12  C   UNL     1      -9.829   8.898  71.223  1.00  0.00    -0.291 C  
ENDROOT
BRANCH   4  13
HETATM   13  C   UNL     1      -9.866   4.467  68.722  1.00  0.00    -0.110 C  
BRANCH  13  14
HETATM   14  S   UNL     1      -9.648   4.129  66.957  1.00  0.00    -0.189 SA 
BRANCH  14  15
HETATM   15  C   UNL     1      -7.947   4.024  66.748  1.00  0.00    -0.097 A  
HETATM   16  N   UNL     1      -7.173   4.784  66.017  1.00  0.00    -0.075 NA 
HETATM   17  C   UNL     1      -7.553   2.019  68.255  1.00  0.00    -0.054 C  
HETATM   18  N   UNL     1      -5.904   4.268  66.149  1.00  0.00    -0.022 NA 
HETATM   19  N   UNL     1      -7.181   3.064  67.341  1.00  0.00    -0.053 NA 
HETATM   20  N   UNL     1      -5.901   3.215  66.956  1.00  0.00    -0.022 NA 
ENDBRANCH  14  15
ENDBRANCH  13  14
ENDBRANCH   4  13
BRANCH   6  21
HETATM   21  N   UNL     1      -9.749  10.764  69.415  1.00  0.00    -0.415 N  
HETATM   22  H   UNL     1     -10.188  11.534  68.910  1.00  0.00     0.000 HD 
HETATM   23  O   UNL     1      -7.761   9.778  69.960  1.00  0.00    -0.137 OA 
HETATM   24  C   UNL     1      -8.389  10.560  69.251  1.00  0.00    -0.137 C  
BRANCH  24  25
HETATM   25  CA  UNL     1      -7.797  11.258  67.988  1.00  0.00    -0.115 C  
BRANCH  25  26
HETATM   26  C   UNL     1      -8.015  10.406  66.733  1.00  0.00    -0.117 A  
HETATM   27  O   UNL     1      -8.633   7.977  63.398  1.00  0.00    -0.400 OA 
HETATM   28  C   UNL     1      -8.976  10.757  65.767  1.00  0.00    -0.203 A  
HETATM   29  C   UNL     1      -7.451   8.458  65.372  1.00  0.00    -0.085 A  
HETATM   30  C   UNL     1      -8.440   8.802  64.463  1.00  0.00    -0.140 A  
HETATM   31  C   UNL     1      -9.194   9.954  64.642  1.00  0.00    -0.313 A  
HETATM   32  H   UNL     1      -8.117   7.189  63.276  1.00  0.00     0.000 HD 
HETATM   33  C   UNL     1      -7.228   9.262  66.489  1.00  0.00    -0.086 A  
ENDBRANCH  25  26
BRANCH  25  34
HETATM   34  N   UNL     1      -8.459  12.571  67.865  1.00  0.00    -0.161 N  
HETATM   35  C   UNL     1      -7.841  13.736  68.262  1.00  0.00    -0.144 C  
HETATM   36  H   UNL     1      -9.400  12.618  67.474  1.00  0.00     0.000 HD 
HETATM   37  O   UNL     1      -6.684  13.789  68.666  1.00  0.00    -0.086 OA 
BRANCH  35  38
HETATM   38  C   UNL     1      -8.601  15.003  68.140  1.00  0.00    -0.156 A  
HETATM   39  O   UNL     1      -9.234  14.541  65.836  1.00  0.00    -0.511 OA 
HETATM   40  C   UNL     1      -9.250  15.340  66.949  1.00  0.00    -0.234 A  
HETATM   41  C   UNL     1      -9.927  17.420  67.912  1.00  0.00    -0.301 A  
HETATM   42  C   UNL     1      -9.939  16.544  66.835  1.00  0.00    -0.273 A  
HETATM   43  H   UNL     1      -9.675  14.770  65.027  1.00  0.00     0.000 HD 
HETATM   44  N   UNL     1      -9.299  17.125  69.078  1.00  0.00    -0.198 NA 
HETATM   45  C   UNL     1     -10.542  18.784  67.801  1.00  0.00    -0.452 C  
HETATM   46  C   UNL     1      -8.653  15.936  69.163  1.00  0.00    -0.252 A  
ENDBRANCH  35  38
ENDBRANCH  25  34
ENDBRANCH  24  25
ENDBRANCH   6  21
TORSDOF 8
ENDMDL
MODEL      103
REMARK 921   NORMALIZED FREE ENERGY PREDICTED BY IDOCK:   -4.42 KCAL/MOL
REMARK 922        TOTAL FREE ENERGY PREDICTED BY IDOCK:   -8.30 KCAL/MOL
REMARK 923 INTER-LIGAND FREE ENERGY PREDICTED BY IDOCK:   -6.61 KCAL/MOL
REMARK 924 INTRA-LIGAND FREE ENERGY PREDICTED BY IDOCK:   -1.69 KCAL/MOL
REMARK 927      BINDING AFFINITY PREDICTED BY RF-SCORE:    0.00 PKD
ROOT
HETATM    1  C   UNL     1     -10.489   7.568  70.712  1.00  0.00    -0.213 C  
HETATM    2  S   UNL     1     -10.363   6.492  69.256  1.00  0.00    -0.221 SA 
HETATM    3  C   UNL     1     -10.706   4.997  70.208  1.00  0.00     0.085 C  
HETATM    4  C   UNL     1      -9.878   4.853  71.482  1.00  0.00    -0.247 C  
HETATM    5  CA  UNL     1      -9.260   5.892  72.110  1.00  0.00    -0.146 C  
HETATM    6  CA  UNL     1      -9.743   8.940  70.576  1.00  0.00    -0.203 C  
HETATM    7  O   UNL     1      -7.992   8.738  72.511  1.00  0.00    -0.373 OA 
HETATM    8  N   UNL     1      -9.463   7.171  71.657  1.00  0.00    -0.153 N  
HETATM    9  C   UNL     1      -8.292   5.629  73.252  1.00  0.00    -0.117 C  
HETATM   10  OXT UNL     1      -7.831   4.527  73.511  1.00  0.00    -0.088 OA 
HETATM   11  O   UNL     1      -8.008   6.676  74.049  1.00  0.00    -0.112 OA 
HETATM   12  C   UNL     1      -8.883   8.384  71.776  1.00  0.00    -0.195 C  
ENDROOT
BRANCH   4  13
HETATM   13  C   UNL     1      -9.748   3.371  71.850  1.00  0.00    -0.165 C  
BRANCH  13  14
HETATM   14  S   UNL     1      -8.346   2.494  71.114  1.00  0.00    -0.058 SA 
BRANCH  14  15
HETATM   15  C   UNL     1      -8.478   2.812  69.432  1.00  0.00    -0.062 A  
HETATM   16  N   UNL     1      -9.261   2.233  68.558  1.00  0.00    -0.163 NA 
HETATM   17  C   UNL     1      -6.736   4.655  69.307  1.00  0.00    -0.045 C  
HETATM   18  N   UNL     1      -8.962   2.809  67.344  1.00  0.00    -0.145 NA 
HETATM   19  N   UNL     1      -7.718   3.743  68.787  1.00  0.00    -0.053 NA 
HETATM   20  N   UNL     1      -8.018   3.731  67.476  1.00  0.00    -0.089 NA 
ENDBRANCH  14  15
ENDBRANCH  13  14
ENDBRANCH   4  13
BRANCH   6  21
HETATM   21  N   UNL     1      -9.011   9.117  69.285  1.00  0.00    -0.141 N  
HETATM   22  H   UNL     1      -8.029   8.844  69.243  1.00  0.00     0.000 HD 
HETATM   23  O   UNL     1     -10.813   9.807  68.063  1.00  0.00    -0.250 OA 
HETATM   24  C   UNL     1      -9.601   9.632  68.143  1.00  0.00    -0.143 C  
BRANCH  24  25
HETATM   25  CA  UNL     1      -8.576  10.131  67.078  1.00  0.00    -0.129 C  
BRANCH  25  26
HETATM   26  C   UNL     1      -8.440   9.127  65.929  1.00  0.00    -0.150 A  
HETATM   27  O   UNL     1      -7.965   6.473  62.745  1.00  0.00    -0.100 OA 
HETATM   28  C   UNL     1      -8.175   7.767  66.171  1.00  0.00    -0.123 A  
HETATM   29  C   UNL     1      -8.447   8.633  63.536  1.00  0.00    -0.072 A  
HETATM   30  C   UNL     1      -8.136   7.310  63.805  1.00  0.00    -0.011 A  
HETATM   31  C   UNL     1      -8.015   6.863  65.115  1.00  0.00    -0.125 A  
HETATM   32  H   UNL     1      -8.048   6.779  61.849  1.00  0.00     0.000 HD 
HETATM   33  C   UNL     1      -8.615   9.532  64.590  1.00  0.00    -0.207 A  
ENDBRANCH  25  26
BRANCH  25  34
HETATM   34  N   UNL     1      -9.056  11.439  66.591  1.00  0.00    -0.176 N  
HETATM   35  C   UNL     1      -8.949  12.582  67.353  1.00  0.00    -0.188 C  
HETATM   36  H   UNL     1      -9.478  11.499  65.665  1.00  0.00     0.000 HD 
HETATM   37  O   UNL     1      -8.383  12.624  68.440  1.00  0.00    -0.163 OA 
BRANCH  35  38
HETATM   38  C   UNL     1      -9.497  13.842  66.797  1.00  0.00    -0.281 A  
HETATM   39  O   UNL     1     -11.693  12.862  66.422  1.00  0.00    -0.355 OA 
HETATM   40  C   UNL     1     -10.823  13.920  66.363  1.00  0.00    -0.291 A  
HETATM   41  C   UNL     1     -10.460  16.179  65.674  1.00  0.00    -0.383 A  
HETATM   42  C   UNL     1     -11.321  15.099  65.819  1.00  0.00    -0.238 A  
HETATM   43  H   UNL     1     -12.594  12.915  66.127  1.00  0.00     0.000 HD 
HETATM   44  N   UNL     1      -9.165  16.132  66.077  1.00  0.00    -0.346 NA 
HETATM   45  C   UNL     1     -10.906  17.430  64.977  1.00  0.00     0.278 C  
HETATM   46  C   UNL     1      -8.717  14.973  66.622  1.00  0.00    -0.254 A  
ENDBRANCH  35  38
ENDBRANCH  25  34
ENDBRANCH  24  25
ENDBRANCH   6  21
TORSDOF 8
ENDMDL
MODEL      104
REMARK 921   NORMALIZED FREE ENERGY PREDICTED BY IDOCK:   -4.40 KCAL/MOL
REMARK 922        TOTAL FREE ENERGY PREDICTED BY IDOCK:   -8.27 KCAL/MOL
REMARK 923 INTER-LIGAND FREE ENERGY PREDICTED BY IDOCK:   -7.55 KCAL/MOL
REMARK 924 INTRA-LIGAND FREE ENERGY PREDICTED BY IDOCK:   -0.72 KCAL/MOL
REMARK 927      BINDING AFFINITY PREDICTED BY RF-SCORE:    0.00 PKD
ROOT
HETATM    1  C   UNL     1     -11.398  10.815  66.960  1.00  0.00     0.037 C  
HETATM    2  S   UNL     1     -10.677  10.730  68.623  1.00  0.00    -0.227 SA 
HETATM    3  C   UNL     1     -11.530  12.221  69.176  1.00  0.00    -0.296 C  
HETATM    4  C   UNL     1     -11.411  13.410  68.227  1.00  0.00    -0.330 C  
HETATM    5  CA  UNL     1     -11.089  13.300  66.907  1.00  0.00    -0.289 C  
HETATM    6  CA  UNL     1     -10.582  10.058  65.855  1.00  0.00     0.071 C  
HETATM    7  O   UNL     1      -9.964  12.038  64.260  1.00  0.00    -0.276 OA 
HETATM    8  N   UNL     1     -10.967  12.055  66.344  1.00  0.00    -0.282 N  
HETATM    9  C   UNL     1     -10.793  14.545  66.087  1.00  0.00    -0.317 C  
HETATM   10  OXT UNL     1     -10.585  15.646  66.574  1.00  0.00    -0.301 OA 
HETATM   11  O   UNL     1     -10.844  14.406  64.748  1.00  0.00    -0.395 OA 
HETATM   12  C   UNL     1     -10.427  11.500  65.238  1.00  0.00    -0.283 C  
ENDROOT
BRANCH   4  13
HETATM   13  C   UNL     1     -11.572  14.718  69.009  1.00  0.00    -0.297 C  
BRANCH  13  14
HETATM   14  S   UNL     1     -11.101  14.656  70.757  1.00  0.00     0.179 SA 
BRANCH  14  15
HETATM   15  C   UNL     1     -12.593  14.707  71.604  1.00  0.00    -0.337 A  
HETATM   16  N   UNL     1     -13.260  15.758  72.006  1.00  0.00    -0.454 NA 
HETATM   17  C   UNL     1     -12.968  12.201  71.763  1.00  0.00    -0.332 C  
HETATM   18  N   UNL     1     -14.362  15.274  72.671  1.00  0.00    -0.263 NA 
HETATM   19  N   UNL     1     -13.270  13.587  71.990  1.00  0.00    -0.419 NA 
HETATM   20  N   UNL     1     -14.375  13.948  72.667  1.00  0.00    -0.561 NA 
ENDBRANCH  14  15
ENDBRANCH  13  14
ENDBRANCH   4  13
BRANCH   6  21
HETATM   21  N   UNL     1      -9.319   9.428  66.348  1.00  0.00    -0.173 N  
HETATM   22  H   UNL     1      -9.332   8.957  67.253  1.00  0.00     0.000 HD 
HETATM   23  O   UNL     1      -8.083   9.835  64.470  1.00  0.00    -0.130 OA 
HETATM   24  C   UNL     1      -8.132   9.453  65.636  1.00  0.00    -0.112 C  
BRANCH  24  25
HETATM   25  CA  UNL     1      -6.873   9.141  66.503  1.00  0.00    -0.080 C  
BRANCH  25  26
HETATM   26  C   UNL     1      -6.460  10.359  67.336  1.00  0.00    -0.066 A  
HETATM   27  O   UNL     1      -5.376  13.758  69.498  1.00  0.00    -0.083 OA 
HETATM   28  C   UNL     1      -6.990  10.583  68.619  1.00  0.00    -0.067 A  
HETATM   29  C   UNL     1      -5.154  12.408  67.587  1.00  0.00    -0.096 A  
HETATM   30  C   UNL     1      -5.732  12.629  68.827  1.00  0.00    -0.066 A  
HETATM   31  C   UNL     1      -6.635  11.717  69.358  1.00  0.00    -0.113 A  
HETATM   32  H   UNL     1      -4.757  14.382  69.135  1.00  0.00     0.000 HD 
HETATM   33  C   UNL     1      -5.502  11.273  66.853  1.00  0.00    -0.098 A  
ENDBRANCH  25  26
BRANCH  25  34
HETATM   34  N   UNL     1      -7.212   7.993  67.366  1.00  0.00    -0.086 N  
HETATM   35  C   UNL     1      -7.581   6.774  66.842  1.00  0.00    -0.091 C  
HETATM   36  H   UNL     1      -7.171   8.105  68.379  1.00  0.00     0.000 HD 
HETATM   37  O   UNL     1      -7.579   6.520  65.642  1.00  0.00    -0.079 OA 
BRANCH  35  38
HETATM   38  C   UNL     1      -7.945   5.691  67.787  1.00  0.00    -0.098 A  
HETATM   39  O   UNL     1      -9.617   7.063  68.902  1.00  0.00    -0.141 OA 
HETATM   40  C   UNL     1      -8.930   5.886  68.759  1.00  0.00    -0.117 A  
HETATM   41  C   UNL     1      -8.529   3.685  69.599  1.00  0.00    -0.060 A  
HETATM   42  C   UNL     1      -9.246   4.873  69.659  1.00  0.00    -0.172 A  
HETATM   43  H   UNL     1     -10.287   7.195  69.562  1.00  0.00     0.000 HD 
HETATM   44  N   UNL     1      -7.561   3.469  68.673  1.00  0.00    -0.053 NA 
HETATM   45  C   UNL     1      -8.737   2.609  70.624  1.00  0.00    -0.124 C  
HETATM   46  C   UNL     1      -7.291   4.470  67.798  1.00  0.00    -0.069 A  
ENDBRANCH  35  38
ENDBRANCH  25  34
ENDBRANCH  24  25
ENDBRANCH   6  21
TORSDOF 8
ENDMDL
MODEL      105
REMARK 921   NORMALIZED FREE ENERGY PREDICTED BY IDOCK:   -4.37 KCAL/MOL
REMARK 922        TOTAL FREE ENERGY PREDICTED BY IDOCK:   -8.22 KCAL/MOL
REMARK 923 INTER-LIGAND FREE ENERGY PREDICTED BY IDOCK:   -6.86 KCAL/MOL
REMARK 924 INTRA-LIGAND FREE ENERGY PREDICTED BY IDOCK:   -1.36 KCAL/MOL
REMARK 927      BINDING AFFINITY PREDICTED BY RF-SCORE:    0.00 PKD
ROOT
HETATM    1  C   UNL     1      -6.058  14.131  67.632  1.00  0.00    -0.058 C  
HETATM    2  S   UNL     1      -7.624  14.522  66.804  1.00  0.00     0.912 SA 
HETATM    3  C   UNL     1      -7.236  16.281  66.686  1.00  0.00    -0.125 C  
HETATM    4  C   UNL     1      -6.748  16.912  67.988  1.00  0.00    -0.155 C  
HETATM    5  CA  UNL     1      -6.229  16.203  69.029  1.00  0.00    -0.139 C  
HETATM    6  CA  UNL     1      -6.076  12.806  68.470  1.00  0.00    -0.067 C  
HETATM    7  O   UNL     1      -5.594  13.737  70.868  1.00  0.00    -0.160 OA 
HETATM    8  N   UNL     1      -6.018  14.855  68.889  1.00  0.00    -0.084 N  
HETATM    9  C   UNL     1      -5.959  16.886  70.360  1.00  0.00     0.089 C  
HETATM   10  OXT UNL     1      -6.394  17.989  70.657  1.00  0.00     0.427 OA 
HETATM   11  O   UNL     1      -5.129  16.245  71.204  1.00  0.00    -0.197 OA 
HETATM   12  C   UNL     1      -5.808  13.781  69.680  1.00  0.00    -0.106 C  
ENDROOT
BRANCH   4  13
HETATM   13  C   UNL     1      -7.057  18.413  67.984  1.00  0.00    -0.231 C  
BRANCH  13  14
HETATM   14  S   UNL     1      -8.786  18.865  68.275  1.00  0.00    -0.343 SA 
BRANCH  14  15
HETATM   15  C   UNL     1      -9.669  17.933  67.135  1.00  0.00    -0.289 A  
HETATM   16  N   UNL     1      -9.849  18.170  65.861  1.00  0.00    -0.547 NA 
HETATM   17  C   UNL     1     -10.421  16.099  68.722  1.00  0.00    -0.264 C  
HETATM   18  N   UNL     1     -10.660  17.159  65.401  1.00  0.00    -0.626 NA 
HETATM   19  N   UNL     1     -10.336  16.789  67.464  1.00  0.00    -0.294 NA 
HETATM   20  N   UNL     1     -10.963  16.312  66.375  1.00  0.00    -0.089 NA 
ENDBRANCH  14  15
ENDBRANCH  13  14
ENDBRANCH   4  13
BRANCH   6  21
HETATM   21  N   UNL     1      -7.397  12.107  68.486  1.00  0.00    -0.101 N  
HETATM   22  H   UNL     1      -8.125  12.430  67.848  1.00  0.00     0.000 HD 
HETATM   23  O   UNL     1      -6.809  10.483  69.981  1.00  0.00    -0.134 OA 
HETATM   24  C   UNL     1      -7.683  11.043  69.324  1.00  0.00    -0.068 C  
BRANCH  24  25
HETATM   25  CA  UNL     1      -9.208  10.764  69.489  1.00  0.00     0.131 C  
BRANCH  25  26
HETATM   26  C   UNL     1      -9.995  11.259  68.270  1.00  0.00    -0.201 A  
HETATM   27  O   UNL     1     -12.197  12.478  64.943  1.00  0.00    -0.441 OA 
HETATM   28  C   UNL     1     -10.839  12.381  68.350  1.00  0.00    -0.263 A  
HETATM   29  C   UNL     1     -10.613  11.040  65.917  1.00  0.00    -0.270 A  
HETATM   30  C   UNL     1     -11.475  12.118  66.039  1.00  0.00    -0.370 A  
HETATM   31  C   UNL     1     -11.583  12.804  67.242  1.00  0.00    -0.420 A  
HETATM   32  H   UNL     1     -12.123  12.008  64.120  1.00  0.00     0.000 HD 
HETATM   33  C   UNL     1      -9.865  10.623  67.019  1.00  0.00    -0.222 A  
ENDBRANCH  25  26
BRANCH  25  34
HETATM   34  N   UNL     1      -9.369   9.308  69.673  1.00  0.00    -0.169 N  
HETATM   35  C   UNL     1      -9.828   8.773  70.857  1.00  0.00    -0.222 C  
HETATM   36  H   UNL     1      -9.134   8.682  68.904  1.00  0.00     0.000 HD 
HETATM   37  O   UNL     1     -10.212   9.449  71.806  1.00  0.00    -0.228 OA 
BRANCH  35  38
HETATM   38  C   UNL     1      -9.916   7.297  70.964  1.00  0.00    -0.188 A  
HETATM   39  O   UNL     1     -10.223   7.370  73.377  1.00  0.00    -0.293 OA 
HETATM   40  C   UNL     1     -10.105   6.675  72.201  1.00  0.00    -0.178 A  
HETATM   41  C   UNL     1      -9.977   4.538  71.141  1.00  0.00    -0.187 A  
HETATM   42  C   UNL     1     -10.161   5.289  72.294  1.00  0.00    -0.237 A  
HETATM   43  H   UNL     1     -10.352   6.947  74.217  1.00  0.00     0.000 HD 
HETATM   44  N   UNL     1      -9.784   5.111  69.927  1.00  0.00    -0.179 NA 
HETATM   45  C   UNL     1      -9.899   3.041  71.202  1.00  0.00    -0.106 C  
HETATM   46  C   UNL     1      -9.754   6.466  69.867  1.00  0.00    -0.166 A  
ENDBRANCH  35  38
ENDBRANCH  25  34
ENDBRANCH  24  25
ENDBRANCH   6  21
TORSDOF 8
ENDMDL
MODEL      106
REMARK 921   NORMALIZED FREE ENERGY PREDICTED BY IDOCK:   -4.29 KCAL/MOL
REMARK 922        TOTAL FREE ENERGY PREDICTED BY IDOCK:   -8.12 KCAL/MOL
REMARK 923 INTER-LIGAND FREE ENERGY PREDICTED BY IDOCK:   -7.73 KCAL/MOL
REMARK 924 INTRA-LIGAND FREE ENERGY PREDICTED BY IDOCK:   -0.39 KCAL/MOL
REMARK 927      BINDING AFFINITY PREDICTED BY RF-SCORE:    0.00 PKD
ROOT
HETATM    1  C   UNL     1      -9.256  10.278  64.901  1.00  0.00    -0.227 C  
HETATM    2  S   UNL     1     -10.502   9.533  65.990  1.00  0.00     0.287 SA 
HETATM    3  C   UNL     1     -10.877  11.103  66.798  1.00  0.00    -0.268 C  
HETATM    4  C   UNL     1      -9.652  11.883  67.269  1.00  0.00    -0.181 C  
HETATM    5  CA  UNL     1      -8.395  11.690  66.782  1.00  0.00    -0.171 C  
HETATM    6  CA  UNL     1      -8.196   9.270  64.337  1.00  0.00    -0.151 C  
HETATM    7  O   UNL     1      -5.994  10.258  65.350  1.00  0.00    -0.094 OA 
HETATM    8  N   UNL     1      -8.202  10.829  65.731  1.00  0.00    -0.162 N  
HETATM    9  C   UNL     1      -7.206  12.363  67.449  1.00  0.00    -0.148 C  
HETATM   10  OXT UNL     1      -7.253  12.890  68.550  1.00  0.00    -0.097 OA 
HETATM   11  O   UNL     1      -6.073  12.431  66.724  1.00  0.00    -0.210 OA 
HETATM   12  C   UNL     1      -7.182  10.161  65.152  1.00  0.00    -0.141 C  
ENDROOT
BRANCH   4  13
HETATM   13  C   UNL     1     -10.036  12.794  68.439  1.00  0.00    -0.226 C  
BRANCH  13  14
HETATM   14  S   UNL     1     -10.466  14.499  68.006  1.00  0.00    -0.239 SA 
BRANCH  14  15
HETATM   15  C   UNL     1     -11.569  14.343  66.700  1.00  0.00    -0.384 A  
HETATM   16  N   UNL     1     -12.750  13.780  66.700  1.00  0.00    -0.109 NA 
HETATM   17  C   UNL     1     -10.162  15.514  64.940  1.00  0.00    -0.074 C  
HETATM   18  N   UNL     1     -13.213  13.875  65.408  1.00  0.00    -0.697 NA 
HETATM   19  N   UNL     1     -11.304  14.801  65.442  1.00  0.00    -0.348 NA 
HETATM   20  N   UNL     1     -12.335  14.497  64.633  1.00  0.00    -0.553 NA 
ENDBRANCH  14  15
ENDBRANCH  13  14
ENDBRANCH   4  13
BRANCH   6  21
HETATM   21  N   UNL     1      -8.360   7.867  64.827  1.00  0.00    -0.314 N  
HETATM   22  H   UNL     1      -8.806   7.187  64.211  1.00  0.00     0.000 HD 
HETATM   23  O   UNL     1      -7.233   8.151  66.794  1.00  0.00    -0.079 OA 
HETATM   24  C   UNL     1      -7.937   7.446  66.076  1.00  0.00    -0.115 C  
BRANCH  24  25
HETATM   25  CA  UNL     1      -8.587   6.107  66.541  1.00  0.00    -0.126 C  
BRANCH  25  26
HETATM   26  C   UNL     1      -7.716   4.906  66.156  1.00  0.00    -0.091 A  
HETATM   27  O   UNL     1      -5.320   1.698  64.983  1.00  0.00    -0.004 OA 
HETATM   28  C   UNL     1      -6.606   4.528  66.932  1.00  0.00    -0.050 A  
HETATM   29  C   UNL     1      -7.212   3.053  64.646  1.00  0.00    -0.065 A  
HETATM   30  C   UNL     1      -6.095   2.735  65.404  1.00  0.00    -0.023 A  
HETATM   31  C   UNL     1      -5.793   3.453  66.554  1.00  0.00    -0.023 A  
HETATM   32  H   UNL     1      -5.527   1.207  64.196  1.00  0.00     0.000 HD 
HETATM   33  C   UNL     1      -8.026   4.119  65.028  1.00  0.00    -0.093 A  
ENDBRANCH  25  26
BRANCH  25  34
HETATM   34  N   UNL     1      -8.764   6.192  68.004  1.00  0.00    -0.114 N  
HETATM   35  C   UNL     1      -9.912   5.748  68.623  1.00  0.00    -0.155 C  
HETATM   36  H   UNL     1      -8.017   6.589  68.571  1.00  0.00     0.000 HD 
HETATM   37  O   UNL     1     -10.827   5.181  68.035  1.00  0.00     0.058 OA 
BRANCH  35  38
HETATM   38  C   UNL     1     -10.017   5.913  70.093  1.00  0.00    -0.247 A  
HETATM   39  O   UNL     1     -12.300   6.743  69.957  1.00  0.00    -0.605 OA 
HETATM   40  C   UNL     1     -11.188   6.397  70.680  1.00  0.00    -0.339 A  
HETATM   41  C   UNL     1     -10.145   6.304  72.828  1.00  0.00    -0.180 A  
HETATM   42  C   UNL     1     -11.268   6.574  72.058  1.00  0.00    -0.312 A  
HETATM   43  H   UNL     1     -13.096   7.072  70.357  1.00  0.00     0.000 HD 
HETATM   44  N   UNL     1      -8.990   5.840  72.286  1.00  0.00    -0.139 NA 
HETATM   45  C   UNL     1     -10.132   6.598  74.299  1.00  0.00    -0.378 C  
HETATM   46  C   UNL     1      -8.952   5.661  70.942  1.00  0.00    -0.140 A  
ENDBRANCH  35  38
ENDBRANCH  25  34
ENDBRANCH  24  25
ENDBRANCH   6  21
TORSDOF 8
ENDMDL
MODEL      107
REMARK 921   NORMALIZED FREE ENERGY PREDICTED BY IDOCK:   -4.26 KCAL/MOL
REMARK 922        TOTAL FREE ENERGY PREDICTED BY IDOCK:   -8.07 KCAL/MOL
REMARK 923 INTER-LIGAND FREE ENERGY PREDICTED BY IDOCK:   -5.66 KCAL/MOL
REMARK 924 INTRA-LIGAND FREE ENERGY PREDICTED BY IDOCK:   -2.41 KCAL/MOL
REMARK 927      BINDING AFFINITY PREDICTED BY RF-SCORE:    0.00 PKD
ROOT
HETATM    1  C   UNL     1      -5.342   9.831  67.757  1.00  0.00    -0.036 C  
HETATM    2  S   UNL     1      -5.774  10.933  66.381  1.00  0.00    -0.129 SA 
HETATM    3  C   UNL     1      -6.448  12.198  67.479  1.00  0.00    -0.134 C  
HETATM    4  C   UNL     1      -7.428  11.674  68.525  1.00  0.00    -0.113 C  
HETATM    5  CA  UNL     1      -7.492  10.372  68.922  1.00  0.00    -0.099 C  
HETATM    6  CA  UNL     1      -5.205   8.319  67.362  1.00  0.00    -0.033 C  
HETATM    7  O   UNL     1      -7.093   7.257  68.832  1.00  0.00    -0.078 OA 
HETATM    8  N   UNL     1      -6.564   9.476  68.452  1.00  0.00    -0.053 N  
HETATM    9  C   UNL     1      -8.628   9.900  69.815  1.00  0.00    -0.203 C  
HETATM   10  OXT UNL     1      -9.642  10.550  70.024  1.00  0.00     0.036 OA 
HETATM   11  O   UNL     1      -8.440   8.730  70.454  1.00  0.00    -0.128 OA 
HETATM   12  C   UNL     1      -6.418   8.138  68.354  1.00  0.00    -0.058 C  
ENDROOT
BRANCH   4  13
HETATM   13  C   UNL     1      -8.389  12.792  68.943  1.00  0.00     0.281 C  
BRANCH  13  14
HETATM   14  S   UNL     1      -9.630  13.268  67.713  1.00  0.00    -0.221 SA 
BRANCH  14  15
HETATM   15  C   UNL     1     -10.961  13.825  68.642  1.00  0.00    -0.266 A  
HETATM   16  N   UNL     1     -11.858  13.115  69.279  1.00  0.00    -0.320 NA 
HETATM   17  C   UNL     1     -10.560  16.313  68.335  1.00  0.00    -0.301 C  
HETATM   18  N   UNL     1     -12.734  14.022  69.830  1.00  0.00    -0.141 NA 
HETATM   19  N   UNL     1     -11.255  15.147  68.807  1.00  0.00    -0.268 NA 
HETATM   20  N   UNL     1     -12.372  15.266  69.546  1.00  0.00    -0.227 NA 
ENDBRANCH  14  15
ENDBRANCH  13  14
ENDBRANCH   4  13
BRANCH   6  21
HETATM   21  N   UNL     1      -5.499   8.030  65.925  1.00  0.00    -0.028 N  
HETATM   22  H   UNL     1      -5.393   8.784  65.247  1.00  0.00     0.000 HD 
HETATM   23  O   UNL     1      -5.879   5.793  66.188  1.00  0.00    -0.017 OA 
HETATM   24  C   UNL     1      -5.907   6.788  65.470  1.00  0.00    -0.034 C  
BRANCH  24  25
HETATM   25  CA  UNL     1      -6.568   6.823  64.058  1.00  0.00    -0.041 C  
BRANCH  25  26
HETATM   26  C   UNL     1      -7.073   5.436  63.648  1.00  0.00    -0.048 A  
HETATM   27  O   UNL     1      -8.342   1.599  62.609  1.00  0.00    -0.059 OA 
HETATM   28  C   UNL     1      -8.396   5.034  63.899  1.00  0.00    -0.132 A  
HETATM   29  C   UNL     1      -6.669   3.251  62.633  1.00  0.00    -0.030 A  
HETATM   30  C   UNL     1      -7.964   2.865  62.939  1.00  0.00    -0.069 A  
HETATM   31  C   UNL     1      -8.839   3.751  63.555  1.00  0.00    -0.101 A  
HETATM   32  H   UNL     1      -7.743   0.993  62.187  1.00  0.00     0.000 HD 
HETATM   33  C   UNL     1      -6.230   4.532  62.969  1.00  0.00    -0.018 A  
ENDBRANCH  25  26
BRANCH  25  34
HETATM   34  N   UNL     1      -7.675   7.798  64.118  1.00  0.00    -0.120 N  
HETATM   35  C   UNL     1      -7.652   8.970  63.393  1.00  0.00    -0.107 C  
HETATM   36  H   UNL     1      -8.479   7.599  64.712  1.00  0.00     0.000 HD 
HETATM   37  O   UNL     1      -6.769   9.256  62.591  1.00  0.00    -0.094 OA 
BRANCH  35  38
HETATM   38  C   UNL     1      -8.789   9.907  63.551  1.00  0.00    -0.251 A  
HETATM   39  O   UNL     1      -9.207   9.205  65.843  1.00  0.00    -0.193 OA 
HETATM   40  C   UNL     1      -9.503   9.978  64.750  1.00  0.00    -0.304 A  
HETATM   41  C   UNL     1     -10.968  11.596  63.778  1.00  0.00    -0.422 A  
HETATM   42  C   UNL     1     -10.585  10.842  64.879  1.00  0.00    -0.304 A  
HETATM   43  H   UNL     1      -9.692   9.253  66.658  1.00  0.00     0.000 HD 
HETATM   44  N   UNL     1     -10.301  11.544  62.597  1.00  0.00     0.123 NA 
HETATM   45  C   UNL     1     -12.203  12.447  63.820  1.00  0.00    -0.626 C  
HETATM   46  C   UNL     1      -9.238  10.705  62.511  1.00  0.00    -0.295 A  
ENDBRANCH  35  38
ENDBRANCH  25  34
ENDBRANCH  24  25
ENDBRANCH   6  21
TORSDOF 8
ENDMDL
MODEL      108
REMARK 921   NORMALIZED FREE ENERGY PREDICTED BY IDOCK:   -4.23 KCAL/MOL
REMARK 922        TOTAL FREE ENERGY PREDICTED BY IDOCK:   -8.02 KCAL/MOL
REMARK 923 INTER-LIGAND FREE ENERGY PREDICTED BY IDOCK:   -6.51 KCAL/MOL
REMARK 924 INTRA-LIGAND FREE ENERGY PREDICTED BY IDOCK:   -1.51 KCAL/MOL
REMARK 927      BINDING AFFINITY PREDICTED BY RF-SCORE:    0.00 PKD
ROOT
HETATM    1  C   UNL     1     -10.850  10.271  65.988  1.00  0.00     0.170 C  
HETATM    2  S   UNL     1      -9.155  10.196  65.343  1.00  0.00    -0.206 SA 
HETATM    3  C   UNL     1      -9.031   8.414  65.601  1.00  0.00    -0.134 C  
HETATM    4  C   UNL     1      -9.465   7.941  66.986  1.00  0.00    -0.222 C  
HETATM    5  CA  UNL     1     -10.270   8.661  67.817  1.00  0.00    -0.225 C  
HETATM    6  CA  UNL     1     -11.287  11.683  66.510  1.00  0.00    -0.263 C  
HETATM    7  O   UNL     1     -11.754  11.150  69.030  1.00  0.00    -0.287 OA 
HETATM    8  N   UNL     1     -10.826   9.833  67.371  1.00  0.00    -0.253 N  
HETATM    9  C   UNL     1     -10.485   8.210  69.253  1.00  0.00    -0.214 C  
HETATM   10  OXT UNL     1      -9.799   7.364  69.809  1.00  0.00    -0.170 OA 
HETATM   11  O   UNL     1     -11.546   8.736  69.893  1.00  0.00     0.026 OA 
HETATM   12  C   UNL     1     -11.407  10.934  67.893  1.00  0.00    -0.308 C  
ENDROOT
BRANCH   4  13
HETATM   13  C   UNL     1      -8.758   6.627  67.331  1.00  0.00    -0.118 C  
BRANCH  13  14
HETATM   14  S   UNL     1      -9.077   5.240  66.212  1.00  0.00    -0.144 SA 
BRANCH  14  15
HETATM   15  C   UNL     1      -7.837   4.108  66.568  1.00  0.00    -0.094 A  
HETATM   16  N   UNL     1      -6.586   4.131  66.186  1.00  0.00    -0.041 NA 
HETATM   17  C   UNL     1      -9.231   2.526  67.982  1.00  0.00    -0.206 C  
HETATM   18  N   UNL     1      -6.015   2.986  66.693  1.00  0.00    -0.023 NA 
HETATM   19  N   UNL     1      -8.044   2.985  67.314  1.00  0.00    -0.077 NA 
HETATM   20  N   UNL     1      -6.900   2.280  67.383  1.00  0.00    -0.039 NA 
ENDBRANCH  14  15
ENDBRANCH  13  14
ENDBRANCH   4  13
BRANCH   6  21
HETATM   21  N   UNL     1     -10.218  12.726  66.432  1.00  0.00    -0.249 N  
HETATM   22  H   UNL     1      -9.278  12.437  66.159  1.00  0.00     0.000 HD 
HETATM   23  O   UNL     1     -11.573  14.513  66.866  1.00  0.00    -0.361 OA 
HETATM   24  C   UNL     1     -10.441  14.063  66.713  1.00  0.00    -0.277 C  
BRANCH  24  25
HETATM   25  CA  UNL     1      -9.138  14.870  66.996  1.00  0.00    -0.237 C  
BRANCH  25  26
HETATM   26  C   UNL     1      -9.454  16.333  67.327  1.00  0.00    -0.231 A  
HETATM   27  O   UNL     1     -10.411  20.315  68.124  1.00  0.00    -0.313 OA 
HETATM   28  C   UNL     1      -9.861  16.721  68.616  1.00  0.00    -0.261 A  
HETATM   29  C   UNL     1      -9.638  18.669  66.635  1.00  0.00    -0.347 A  
HETATM   30  C   UNL     1     -10.085  19.012  67.901  1.00  0.00    -0.381 A  
HETATM   31  C   UNL     1     -10.184  18.052  68.901  1.00  0.00    -0.320 A  
HETATM   32  H   UNL     1     -10.344  20.971  67.441  1.00  0.00     0.000 HD 
HETATM   33  C   UNL     1      -9.308  17.342  66.354  1.00  0.00    -0.272 A  
ENDBRANCH  25  26
BRANCH  25  34
HETATM   34  N   UNL     1      -8.448  14.206  68.119  1.00  0.00    -0.164 N  
HETATM   35  C   UNL     1      -7.697  13.064  67.937  1.00  0.00    -0.145 C  
HETATM   36  H   UNL     1      -8.528  14.601  69.055  1.00  0.00     0.000 HD 
HETATM   37  O   UNL     1      -7.475  12.564  66.840  1.00  0.00    -0.054 OA 
BRANCH  35  38
HETATM   38  C   UNL     1      -7.076  12.443  69.132  1.00  0.00     0.007 A  
HETATM   39  O   UNL     1      -6.024  14.527  69.817  1.00  0.00    -0.105 OA 
HETATM   40  C   UNL     1      -6.280  13.193  70.001  1.00  0.00    -0.073 A  
HETATM   41  C   UNL     1      -5.852  11.231  71.295  1.00  0.00     0.327 A  
HETATM   42  C   UNL     1      -5.680  12.595  71.104  1.00  0.00     0.082 A  
HETATM   43  H   UNL     1      -5.483  15.037  70.408  1.00  0.00     0.000 HD 
HETATM   44  N   UNL     1      -6.613  10.474  70.465  1.00  0.00    -0.314 NA 
HETATM   45  C   UNL     1      -5.126  10.510  72.392  1.00  0.00     0.116 C  
HETATM   46  C   UNL     1      -7.200  11.091  69.409  1.00  0.00    -0.114 A  
ENDBRANCH  35  38
ENDBRANCH  25  34
ENDBRANCH  24  25
ENDBRANCH   6  21
TORSDOF 8
ENDMDL
MODEL      109
REMARK 921   NORMALIZED FREE ENERGY PREDICTED BY IDOCK:   -4.21 KCAL/MOL
REMARK 922        TOTAL FREE ENERGY PREDICTED BY IDOCK:   -7.99 KCAL/MOL
REMARK 923 INTER-LIGAND FREE ENERGY PREDICTED BY IDOCK:   -6.16 KCAL/MOL
REMARK 924 INTRA-LIGAND FREE ENERGY PREDICTED BY IDOCK:   -1.83 KCAL/MOL
REMARK 927      BINDING AFFINITY PREDICTED BY RF-SCORE:    0.00 PKD
ROOT
HETATM    1  C   UNL     1      -8.721   8.874  71.666  1.00  0.00    -0.116 C  
HETATM    2  S   UNL     1      -8.090   8.556  69.994  1.00  0.00    -0.116 SA 
HETATM    3  C   UNL     1      -8.484  10.223  69.423  1.00  0.00    -0.160 C  
HETATM    4  C   UNL     1      -9.899  10.690  69.755  1.00  0.00     0.051 C  
HETATM    5  CA  UNL     1     -10.669  10.143  70.736  1.00  0.00    -0.093 C  
HETATM    6  CA  UNL     1      -9.131   7.588  72.464  1.00  0.00    -0.146 C  
HETATM    7  O   UNL     1     -11.683   8.039  72.837  1.00  0.00    -0.369 OA 
HETATM    8  N   UNL     1     -10.132   9.190  71.564  1.00  0.00    -0.328 N  
HETATM    9  C   UNL     1     -12.134  10.529  70.862  1.00  0.00    -0.383 C  
HETATM   10  OXT UNL     1     -12.756  11.127  69.996  1.00  0.00    -0.192 OA 
HETATM   11  O   UNL     1     -12.727  10.250  72.038  1.00  0.00    -0.401 OA 
HETATM   12  C   UNL     1     -10.566   8.241  72.420  1.00  0.00    -0.337 C  
ENDROOT
BRANCH   4  13
HETATM   13  C   UNL     1     -10.346  11.749  68.742  1.00  0.00    -0.179 C  
BRANCH  13  14
HETATM   14  S   UNL     1     -11.276  11.136  67.315  1.00  0.00    -0.217 SA 
BRANCH  14  15
HETATM   15  C   UNL     1     -10.450   9.706  66.848  1.00  0.00    -0.212 A  
HETATM   16  N   UNL     1     -10.739   8.467  67.153  1.00  0.00    -0.241 NA 
HETATM   17  C   UNL     1      -8.626  10.813  65.471  1.00  0.00    -0.176 C  
HETATM   18  N   UNL     1      -9.756   7.697  66.576  1.00  0.00    -0.203 NA 
HETATM   19  N   UNL     1      -9.322   9.713  66.079  1.00  0.00    -0.190 NA 
HETATM   20  N   UNL     1      -8.886   8.451  65.919  1.00  0.00    -0.167 NA 
ENDBRANCH  14  15
ENDBRANCH  13  14
ENDBRANCH   4  13
BRANCH   6  21
HETATM   21  N   UNL     1      -8.979   6.314  71.696  1.00  0.00    -0.144 N  
HETATM   22  H   UNL     1      -9.618   6.135  70.921  1.00  0.00     0.000 HD 
HETATM   23  O   UNL     1      -7.100   5.590  72.775  1.00  0.00    -0.084 OA 
HETATM   24  C   UNL     1      -8.013   5.366  71.986  1.00  0.00    -0.113 C  
BRANCH  24  25
HETATM   25  CA  UNL     1      -8.308   3.962  71.373  1.00  0.00    -0.076 C  
BRANCH  25  26
HETATM   26  C   UNL     1      -9.559   3.337  71.998  1.00  0.00    -0.215 A  
HETATM   27  O   UNL     1     -13.044   1.744  73.650  1.00  0.00    -0.044 OA 
HETATM   28  C   UNL     1      -9.960   2.027  71.682  1.00  0.00    -0.192 A  
HETATM   29  C   UNL     1     -11.493   3.503  73.482  1.00  0.00    -0.151 A  
HETATM   30  C   UNL     1     -11.890   2.228  73.112  1.00  0.00     0.206 A  
HETATM   31  C   UNL     1     -11.125   1.477  72.229  1.00  0.00     0.193 A  
HETATM   32  H   UNL     1     -13.567   2.258  74.254  1.00  0.00     0.000 HD 
HETATM   33  C   UNL     1     -10.328   4.048  72.943  1.00  0.00    -0.238 A  
ENDBRANCH  25  26
BRANCH  25  34
HETATM   34  N   UNL     1      -8.473   4.147  69.918  1.00  0.00    -0.060 N  
HETATM   35  C   UNL     1      -7.428   3.963  69.039  1.00  0.00    -0.054 C  
HETATM   36  H   UNL     1      -9.385   4.419  69.553  1.00  0.00     0.000 HD 
HETATM   37  O   UNL     1      -6.320   3.558  69.374  1.00  0.00    -0.028 OA 
BRANCH  35  38
HETATM   38  C   UNL     1      -7.678   4.214  67.599  1.00  0.00    -0.079 A  
HETATM   39  O   UNL     1      -9.433   2.532  67.488  1.00  0.00    -0.342 OA 
HETATM   40  C   UNL     1      -8.654   3.495  66.903  1.00  0.00    -0.112 A  
HETATM   41  C   UNL     1      -8.051   4.636  64.892  1.00  0.00    -0.102 A  
HETATM   42  C   UNL     1      -8.863   3.719  65.546  1.00  0.00    -0.122 A  
HETATM   43  H   UNL     1     -10.096   2.044  67.015  1.00  0.00     0.000 HD 
HETATM   44  N   UNL     1      -7.091   5.343  65.538  1.00  0.00    -0.065 NA 
HETATM   45  C   UNL     1      -8.146   4.824  63.406  1.00  0.00    -0.097 C  
HETATM   46  C   UNL     1      -6.925   5.116  66.865  1.00  0.00    -0.064 A  
ENDBRANCH  35  38
ENDBRANCH  25  34
ENDBRANCH  24  25
ENDBRANCH   6  21
TORSDOF 8
ENDMDL
MODEL      110
REMARK 921   NORMALIZED FREE ENERGY PREDICTED BY IDOCK:   -4.04 KCAL/MOL
REMARK 922        TOTAL FREE ENERGY PREDICTED BY IDOCK:   -7.74 KCAL/MOL
REMARK 923 INTER-LIGAND FREE ENERGY PREDICTED BY IDOCK:   -8.18 KCAL/MOL
REMARK 924 INTRA-LIGAND FREE ENERGY PREDICTED BY IDOCK:    0.43 KCAL/MOL
REMARK 927      BINDING AFFINITY PREDICTED BY RF-SCORE:    0.00 PKD
ROOT
HETATM    1  C   UNL     1      -9.794  12.350  65.761  1.00  0.00    -0.240 C  
HETATM    2  S   UNL     1     -11.272  11.579  66.478  1.00  0.00    -0.186 SA 
HETATM    3  C   UNL     1     -11.944  13.159  67.037  1.00  0.00    -0.355 C  
HETATM    4  C   UNL     1     -10.954  14.036  67.798  1.00  0.00    -0.271 C  
HETATM    5  CA  UNL     1      -9.601  13.901  67.718  1.00  0.00    -0.222 C  
HETATM    6  CA  UNL     1      -8.568  11.385  65.601  1.00  0.00     0.044 C  
HETATM    7  O   UNL     1      -6.817  12.558  67.154  1.00  0.00    -0.140 OA 
HETATM    8  N   UNL     1      -9.063  13.005  66.829  1.00  0.00    -0.229 N  
HETATM    9  C   UNL     1      -8.698  14.679  68.662  1.00  0.00    -0.174 C  
HETATM   10  OXT UNL     1      -9.097  15.253  69.664  1.00  0.00    -0.232 OA 
HETATM   11  O   UNL     1      -7.405  14.784  68.302  1.00  0.00    -0.102 OA 
HETATM   12  C   UNL     1      -7.887  12.377  66.621  1.00  0.00     0.200 C  
ENDROOT
BRANCH   4  13
HETATM   13  C   UNL     1     -11.712  14.975  68.742  1.00  0.00    -0.334 C  
BRANCH  13  14
HETATM   14  S   UNL     1     -11.214  14.919  70.481  1.00  0.00    -0.156 SA 
BRANCH  14  15
HETATM   15  C   UNL     1     -12.368  13.888  71.224  1.00  0.00    -0.335 A  
HETATM   16  N   UNL     1     -12.520  12.598  71.069  1.00  0.00    -0.335 NA 
HETATM   17  C   UNL     1     -13.551  15.660  72.606  1.00  0.00    -0.579 C  
HETATM   18  N   UNL     1     -13.603  12.250  71.843  1.00  0.00    -0.227 NA 
HETATM   19  N   UNL     1     -13.320  14.338  72.092  1.00  0.00    -0.379 NA 
HETATM   20  N   UNL     1     -14.098  13.308  72.471  1.00  0.00    -0.701 NA 
ENDBRANCH  14  15
ENDBRANCH  13  14
ENDBRANCH   4  13
BRANCH   6  21
HETATM   21  N   UNL     1      -8.805  10.000  66.109  1.00  0.00    -0.145 N  
HETATM   22  H   UNL     1      -9.397   9.879  66.932  1.00  0.00     0.000 HD 
HETATM   23  O   UNL     1      -7.698   8.919  64.429  1.00  0.00    -0.109 OA 
HETATM   24  C   UNL     1      -8.262   8.872  65.518  1.00  0.00    -0.129 C  
BRANCH  24  25
HETATM   25  CA  UNL     1      -8.270   7.615  66.441  1.00  0.00    -0.124 C  
BRANCH  25  26
HETATM   26  C   UNL     1      -8.975   7.907  67.769  1.00  0.00    -0.128 A  
HETATM   27  O   UNL     1     -10.936   8.569  71.392  1.00  0.00    -0.237 OA 
HETATM   28  C   UNL     1      -8.279   8.449  68.865  1.00  0.00    -0.115 A  
HETATM   29  C   UNL     1     -10.998   7.899  69.140  1.00  0.00     0.046 A  
HETATM   30  C   UNL     1     -10.274   8.385  70.217  1.00  0.00    -0.196 A  
HETATM   31  C   UNL     1      -8.922   8.679  70.086  1.00  0.00    -0.157 A  
HETATM   32  H   UNL     1     -11.860   8.369  71.481  1.00  0.00     0.000 HD 
HETATM   33  C   UNL     1     -10.358   7.677  67.920  1.00  0.00    -0.270 A  
ENDBRANCH  25  26
BRANCH  25  34
HETATM   34  N   UNL     1      -8.952   6.534  65.701  1.00  0.00    -0.352 N  
HETATM   35  C   UNL     1      -8.280   5.410  65.274  1.00  0.00    -0.133 C  
HETATM   36  H   UNL     1      -9.947   6.622  65.500  1.00  0.00     0.000 HD 
HETATM   37  O   UNL     1      -7.105   5.178  65.539  1.00  0.00    -0.064 OA 
BRANCH  35  38
HETATM   38  C   UNL     1      -9.038   4.398  64.501  1.00  0.00    -0.152 A  
HETATM   39  O   UNL     1      -9.006   5.746  62.475  1.00  0.00    -0.341 OA 
HETATM   40  C   UNL     1      -9.362   4.612  63.158  1.00  0.00    -0.007 A  
HETATM   41  C   UNL     1     -10.540   2.534  63.115  1.00  0.00    -0.199 A  
HETATM   42  C   UNL     1     -10.097   3.669  62.448  1.00  0.00    -0.143 A  
HETATM   43  H   UNL     1      -9.226   5.892  61.563  1.00  0.00     0.000 HD 
HETATM   44  N   UNL     1     -10.250   2.301  64.420  1.00  0.00     0.116 NA 
HETATM   45  C   UNL     1     -11.444   1.547  62.437  1.00  0.00    -0.239 C  
HETATM   46  C   UNL     1      -9.515   3.232  65.078  1.00  0.00    -0.145 A  
ENDBRANCH  35  38
ENDBRANCH  25  34
ENDBRANCH  24  25
ENDBRANCH   6  21
TORSDOF 8
ENDMDL
MODEL      111
REMARK 921   NORMALIZED FREE ENERGY PREDICTED BY IDOCK:   -4.01 KCAL/MOL
REMARK 922        TOTAL FREE ENERGY PREDICTED BY IDOCK:   -7.71 KCAL/MOL
REMARK 923 INTER-LIGAND FREE ENERGY PREDICTED BY IDOCK:   -8.13 KCAL/MOL
REMARK 924 INTRA-LIGAND FREE ENERGY PREDICTED BY IDOCK:    0.42 KCAL/MOL
REMARK 927      BINDING AFFINITY PREDICTED BY RF-SCORE:    0.00 PKD
ROOT
HETATM    1  C   UNL     1     -10.807   8.299  68.534  1.00  0.00     0.093 C  
HETATM    2  S   UNL     1      -9.251   8.124  67.616  1.00  0.00    -0.138 SA 
HETATM    3  C   UNL     1      -8.810   6.592  68.461  1.00  0.00    -0.121 C  
HETATM    4  C   UNL     1      -8.931   6.648  69.982  1.00  0.00    -0.144 C  
HETATM    5  CA  UNL     1      -9.689   7.561  70.651  1.00  0.00    -0.175 C  
HETATM    6  CA  UNL     1     -11.367   9.763  68.597  1.00  0.00     0.083 C  
HETATM    7  O   UNL     1     -11.322  10.193  71.178  1.00  0.00    -0.346 OA 
HETATM    8  N   UNL     1     -10.487   8.424  69.944  1.00  0.00    -0.219 N  
HETATM    9  C   UNL     1      -9.592   7.674  72.164  1.00  0.00    -0.160 C  
HETATM   10  OXT UNL     1      -8.700   7.164  72.827  1.00  0.00    -0.117 OA 
HETATM   11  O   UNL     1     -10.602   8.315  72.782  1.00  0.00    -0.340 OA 
HETATM   12  C   UNL     1     -11.138   9.589  70.148  1.00  0.00    -0.255 C  
ENDROOT
BRANCH   4  13
HETATM   13  C   UNL     1      -7.981   5.627  70.616  1.00  0.00    -0.104 C  
BRANCH  13  14
HETATM   14  S   UNL     1      -8.657   3.966  70.865  1.00  0.00    -0.074 SA 
BRANCH  14  15
HETATM   15  C   UNL     1      -9.814   4.158  72.118  1.00  0.00    -0.169 A  
HETATM   16  N   UNL     1     -11.008   4.687  72.043  1.00  0.00     0.081 NA 
HETATM   17  C   UNL     1      -8.447   3.123  73.990  1.00  0.00    -0.073 C  
HETATM   18  N   UNL     1     -11.520   4.646  73.320  1.00  0.00    -0.308 NA 
HETATM   19  N   UNL     1      -9.587   3.775  73.408  1.00  0.00    -0.107 NA 
HETATM   20  N   UNL     1     -10.656   4.091  74.160  1.00  0.00    -0.220 NA 
ENDBRANCH  14  15
ENDBRANCH  13  14
ENDBRANCH   4  13
BRANCH   6  21
HETATM   21  N   UNL     1     -10.501  10.781  67.928  1.00  0.00    -0.187 N  
HETATM   22  H   UNL     1     -10.850  11.236  67.084  1.00  0.00     0.000 HD 
HETATM   23  O   UNL     1      -8.840  10.773  69.496  1.00  0.00    -0.040 OA 
HETATM   24  C   UNL     1      -9.248  11.136  68.396  1.00  0.00    -0.175 C  
BRANCH  24  25
HETATM   25  CA  UNL     1      -8.362  11.860  67.336  1.00  0.00    -0.163 C  
BRANCH  25  26
HETATM   26  C   UNL     1      -8.423  11.142  65.983  1.00  0.00    -0.138 A  
HETATM   27  O   UNL     1      -8.567   9.067  62.366  1.00  0.00    -0.201 OA 
HETATM   28  C   UNL     1      -9.546  11.255  65.144  1.00  0.00    -0.269 A  
HETATM   29  C   UNL     1      -7.400   9.684  64.311  1.00  0.00    -0.122 A  
HETATM   30  C   UNL     1      -8.541   9.774  63.529  1.00  0.00    -0.201 A  
HETATM   31  C   UNL     1      -9.610  10.567  63.927  1.00  0.00    -0.363 A  
HETATM   32  H   UNL     1      -7.835   8.524  62.095  1.00  0.00     0.000 HD 
HETATM   33  C   UNL     1      -7.334  10.376  65.521  1.00  0.00    -0.139 A  
ENDBRANCH  25  26
BRANCH  25  34
HETATM   34  N   UNL     1      -8.856  13.247  67.228  1.00  0.00    -0.207 N  
HETATM   35  C   UNL     1      -7.999  14.325  67.244  1.00  0.00    -0.168 C  
HETATM   36  H   UNL     1      -9.858  13.411  67.139  1.00  0.00     0.000 HD 
HETATM   37  O   UNL     1      -6.777  14.224  67.264  1.00  0.00    -0.259 OA 
BRANCH  35  38
HETATM   38  C   UNL     1      -8.590  15.683  67.173  1.00  0.00    -0.235 A  
HETATM   39  O   UNL     1      -7.642  16.338  69.317  1.00  0.00    -0.232 OA 
HETATM   40  C   UNL     1      -8.387  16.610  68.199  1.00  0.00    -0.193 A  
HETATM   41  C   UNL     1      -9.787  18.173  67.056  1.00  0.00    -0.322 A  
HETATM   42  C   UNL     1      -8.967  17.873  68.135  1.00  0.00    -0.268 A  
HETATM   43  H   UNL     1      -7.505  16.968  70.013  1.00  0.00     0.000 HD 
HETATM   44  N   UNL     1     -10.010  17.292  66.049  1.00  0.00    -0.487 NA 
HETATM   45  C   UNL     1     -10.541  19.470  67.000  1.00  0.00    -0.607 C  
HETATM   46  C   UNL     1      -9.414  16.077  66.131  1.00  0.00    -0.336 A  
ENDBRANCH  35  38
ENDBRANCH  25  34
ENDBRANCH  24  25
ENDBRANCH   6  21
TORSDOF 8
ENDMDL
MODEL      112
REMARK 921   NORMALIZED FREE ENERGY PREDICTED BY IDOCK:   -3.97 KCAL/MOL
REMARK 922        TOTAL FREE ENERGY PREDICTED BY IDOCK:   -7.64 KCAL/MOL
REMARK 923 INTER-LIGAND FREE ENERGY PREDICTED BY IDOCK:   -5.78 KCAL/MOL
REMARK 924 INTRA-LIGAND FREE ENERGY PREDICTED BY IDOCK:   -1.86 KCAL/MOL
REMARK 927      BINDING AFFINITY PREDICTED BY RF-SCORE:    0.00 PKD
ROOT
HETATM    1  C   UNL     1     -10.509  11.379  66.726  1.00  0.00    -0.244 C  
HETATM    2  S   UNL     1     -10.782   9.985  67.856  1.00  0.00    -0.274 SA 
HETATM    3  C   UNL     1     -12.214  10.766  68.629  1.00  0.00     0.279 C  
HETATM    4  C   UNL     1     -11.993  12.215  69.057  1.00  0.00    -0.302 C  
HETATM    5  CA  UNL     1     -11.013  13.015  68.553  1.00  0.00    -0.263 C  
HETATM    6  CA  UNL     1      -9.047  11.490  66.169  1.00  0.00    -0.209 C  
HETATM    7  O   UNL     1      -8.339  13.826  67.116  1.00  0.00    -0.185 OA 
HETATM    8  N   UNL     1     -10.231  12.559  67.522  1.00  0.00    -0.215 N  
HETATM    9  C   UNL     1     -10.736  14.372  69.181  1.00  0.00    -0.238 C  
HETATM   10  OXT UNL     1     -11.172  14.719  70.269  1.00  0.00    -0.248 OA 
HETATM   11  O   UNL     1     -10.033  15.244  68.434  1.00  0.00    -0.213 OA 
HETATM   12  C   UNL     1      -9.051  12.864  66.942  1.00  0.00    -0.224 C  
ENDROOT
BRANCH   4  13
HETATM   13  C   UNL     1     -12.939  12.565  70.211  1.00  0.00     0.541 C  
BRANCH  13  14
HETATM   14  S   UNL     1     -12.537  11.828  71.814  1.00  0.00     0.074 SA 
BRANCH  14  15
HETATM   15  C   UNL     1     -13.039  10.192  71.672  1.00  0.00    -0.447 A  
HETATM   16  N   UNL     1     -14.259   9.721  71.625  1.00  0.00     0.144 NA 
HETATM   17  C   UNL     1     -10.729   9.143  71.595  1.00  0.00    -0.371 C  
HETATM   18  N   UNL     1     -14.133   8.353  71.553  1.00  0.00    -0.392 NA 
HETATM   19  N   UNL     1     -12.166   9.146  71.610  1.00  0.00    -0.337 NA 
HETATM   20  N   UNL     1     -12.856   7.994  71.544  1.00  0.00    -0.323 NA 
ENDBRANCH  14  15
ENDBRANCH  13  14
ENDBRANCH   4  13
BRANCH   6  21
HETATM   21  N   UNL     1      -8.107  10.455  66.698  1.00  0.00    -0.119 N  
HETATM   22  H   UNL     1      -8.367   9.952  67.547  1.00  0.00     0.000 HD 
HETATM   23  O   UNL     1      -6.605  10.573  64.981  1.00  0.00    -0.102 OA 
HETATM   24  C   UNL     1      -6.900  10.147  66.094  1.00  0.00    -0.108 C  
BRANCH  24  25
HETATM   25  CA  UNL     1      -5.908   9.387  67.026  1.00  0.00    -0.052 C  
BRANCH  25  26
HETATM   26  C   UNL     1      -5.701  10.139  68.345  1.00  0.00    -0.041 A  
HETATM   27  O   UNL     1      -5.253  12.267  71.906  1.00  0.00    -0.361 OA 
HETATM   28  C   UNL     1      -5.666   9.462  69.577  1.00  0.00    -0.034 A  
HETATM   29  C   UNL     1      -5.358  12.232  69.558  1.00  0.00    -0.071 A  
HETATM   30  C   UNL     1      -5.378  11.543  70.760  1.00  0.00    -0.138 A  
HETATM   31  C   UNL     1      -5.514  10.161  70.781  1.00  0.00    -0.073 A  
HETATM   32  H   UNL     1      -5.160  13.213  71.891  1.00  0.00     0.000 HD 
HETATM   33  C   UNL     1      -5.502  11.535  68.358  1.00  0.00    -0.045 A  
ENDBRANCH  25  26
BRANCH  25  34
HETATM   34  N   UNL     1      -6.471   8.042  67.261  1.00  0.00    -0.056 N  
HETATM   35  C   UNL     1      -6.605   7.124  66.243  1.00  0.00    -0.052 C  
HETATM   36  H   UNL     1      -6.768   7.786  68.202  1.00  0.00     0.000 HD 
HETATM   37  O   UNL     1      -6.201   7.311  65.100  1.00  0.00    -0.037 OA 
BRANCH  35  38
HETATM   38  C   UNL     1      -7.221   5.814  66.565  1.00  0.00    -0.074 A  
HETATM   39  O   UNL     1      -8.632   5.854  64.583  1.00  0.00    -0.301 OA 
HETATM   40  C   UNL     1      -8.191   5.251  65.733  1.00  0.00    -0.119 A  
HETATM   41  C   UNL     1      -8.420   3.418  67.247  1.00  0.00    -0.098 A  
HETATM   42  C   UNL     1      -8.782   4.035  66.057  1.00  0.00    -0.116 A  
HETATM   43  H   UNL     1      -9.291   5.471  64.017  1.00  0.00     0.000 HD 
HETATM   44  N   UNL     1      -7.488   3.943  68.081  1.00  0.00    -0.062 NA 
HETATM   45  C   UNL     1      -9.117   2.172  67.710  1.00  0.00    -0.213 C  
HETATM   46  C   UNL     1      -6.917   5.121  67.725  1.00  0.00    -0.062 A  
ENDBRANCH  35  38
ENDBRANCH  25  34
ENDBRANCH  24  25
ENDBRANCH   6  21
TORSDOF 8
ENDMDL
MODEL      113
REMARK 921   NORMALIZED FREE ENERGY PREDICTED BY IDOCK:   -3.97 KCAL/MOL
REMARK 922        TOTAL FREE ENERGY PREDICTED BY IDOCK:   -7.64 KCAL/MOL
REMARK 923 INTER-LIGAND FREE ENERGY PREDICTED BY IDOCK:   -6.04 KCAL/MOL
REMARK 924 INTRA-LIGAND FREE ENERGY PREDICTED BY IDOCK:   -1.60 KCAL/MOL
REMARK 927      BINDING AFFINITY PREDICTED BY RF-SCORE:    0.00 PKD
ROOT
HETATM    1  C   UNL     1      -6.008  12.394  68.154  1.00  0.00    -0.062 C  
HETATM    2  S   UNL     1      -7.611  12.398  67.304  1.00  0.00    -0.111 SA 
HETATM    3  C   UNL     1      -7.443  14.120  66.787  1.00  0.00     0.887 C  
HETATM    4  C   UNL     1      -7.036  15.080  67.902  1.00  0.00    -0.170 C  
HETATM    5  CA  UNL     1      -6.432  14.690  69.059  1.00  0.00    -0.097 C  
HETATM    6  CA  UNL     1      -5.862  11.297  69.266  1.00  0.00    -0.049 C  
HETATM    7  O   UNL     1      -5.497  12.794  71.382  1.00  0.00    -0.328 OA 
HETATM    8  N   UNL     1      -6.056  13.380  69.216  1.00  0.00    -0.092 N  
HETATM    9  C   UNL     1      -6.248  15.681  70.196  1.00  0.00    -0.084 C  
HETATM   10  OXT UNL     1      -6.815  16.762  70.254  1.00  0.00     0.490 OA 
HETATM   11  O   UNL     1      -5.344  15.350  71.138  1.00  0.00    -0.130 OA 
HETATM   12  C   UNL     1      -5.716  12.544  70.220  1.00  0.00    -0.165 C  
ENDROOT
BRANCH   4  13
HETATM   13  C   UNL     1      -7.527  16.494  67.573  1.00  0.00    -0.147 C  
BRANCH  13  14
HETATM   14  S   UNL     1      -9.272  16.826  67.925  1.00  0.00    -0.228 SA 
BRANCH  14  15
HETATM   15  C   UNL     1     -10.038  16.764  66.389  1.00  0.00    -0.317 A  
HETATM   16  N   UNL     1     -10.014  15.794  65.512  1.00  0.00    -0.365 NA 
HETATM   17  C   UNL     1     -11.125  19.057  66.471  1.00  0.00     0.166 C  
HETATM   18  N   UNL     1     -10.741  16.244  64.433  1.00  0.00    -0.457 NA 
HETATM   19  N   UNL     1     -10.778  17.792  65.884  1.00  0.00    -0.333 NA 
HETATM   20  N   UNL     1     -11.210  17.465  64.653  1.00  0.00    -0.824 NA 
ENDBRANCH  14  15
ENDBRANCH  13  14
ENDBRANCH   4  13
BRANCH   6  21
HETATM   21  N   UNL     1      -7.087  10.466  69.474  1.00  0.00    -0.097 N  
HETATM   22  H   UNL     1      -7.719  10.328  68.685  1.00  0.00     0.000 HD 
HETATM   23  O   UNL     1      -6.611   9.844  71.619  1.00  0.00    -0.296 OA 
HETATM   24  C   UNL     1      -7.406   9.876  70.685  1.00  0.00     0.023 C  
BRANCH  24  25
HETATM   25  CA  UNL     1      -8.900   9.444  70.798  1.00  0.00    -0.171 C  
BRANCH  25  26
HETATM   26  C   UNL     1      -9.722   9.983  69.622  1.00  0.00    -0.255 A  
HETATM   27  O   UNL     1     -12.034  11.329  66.420  1.00  0.00    -0.076 OA 
HETATM   28  C   UNL     1     -10.430  11.195  69.717  1.00  0.00     0.116 A  
HETATM   29  C   UNL     1     -10.544   9.756  67.333  1.00  0.00    -0.330 A  
HETATM   30  C   UNL     1     -11.271  10.927  67.474  1.00  0.00    -0.293 A  
HETATM   31  C   UNL     1     -11.209  11.661  68.652  1.00  0.00    -0.308 A  
HETATM   32  H   UNL     1     -12.077  10.827  65.614  1.00  0.00     0.000 HD 
HETATM   33  C   UNL     1      -9.762   9.296  68.392  1.00  0.00    -0.168 A  
ENDBRANCH  25  26
BRANCH  25  34
HETATM   34  N   UNL     1      -8.927   7.969  70.836  1.00  0.00    -0.138 N  
HETATM   35  C   UNL     1      -9.540   7.280  71.860  1.00  0.00    -0.148 C  
HETATM   36  H   UNL     1      -8.479   7.445  70.085  1.00  0.00     0.000 HD 
HETATM   37  O   UNL     1     -10.173   7.821  72.760  1.00  0.00    -0.246 OA 
BRANCH  35  38
HETATM   38  C   UNL     1      -9.478   5.799  71.836  1.00  0.00    -0.169 A  
HETATM   39  O   UNL     1     -10.719   5.661  69.747  1.00  0.00    -0.310 OA 
HETATM   40  C   UNL     1     -10.064   5.072  70.796  1.00  0.00    -0.237 A  
HETATM   41  C   UNL     1      -9.431   3.034  71.872  1.00  0.00    -0.137 A  
HETATM   42  C   UNL     1     -10.023   3.681  70.796  1.00  0.00    -0.021 A  
HETATM   43  H   UNL     1     -11.117   5.167  69.041  1.00  0.00     0.000 HD 
HETATM   44  N   UNL     1      -8.861   3.712  72.900  1.00  0.00    -0.093 NA 
HETATM   45  C   UNL     1      -9.472   1.539  71.988  1.00  0.00    -0.157 C  
HETATM   46  C   UNL     1      -8.901   5.067  72.861  1.00  0.00    -0.117 A  
ENDBRANCH  35  38
ENDBRANCH  25  34
ENDBRANCH  24  25
ENDBRANCH   6  21
TORSDOF 8
ENDMDL
MODEL      114
REMARK 921   NORMALIZED FREE ENERGY PREDICTED BY IDOCK:   -3.92 KCAL/MOL
REMARK 922        TOTAL FREE ENERGY PREDICTED BY IDOCK:   -7.57 KCAL/MOL
REMARK 923 INTER-LIGAND FREE ENERGY PREDICTED BY IDOCK:   -7.56 KCAL/MOL
REMARK 924 INTRA-LIGAND FREE ENERGY PREDICTED BY IDOCK:   -0.01 KCAL/MOL
REMARK 927      BINDING AFFINITY PREDICTED BY RF-SCORE:    0.00 PKD
ROOT
HETATM    1  C   UNL     1      -7.685   9.063  69.879  1.00  0.00    -0.076 C  
HETATM    2  S   UNL     1      -8.928  10.367  69.659  1.00  0.00     0.070 SA 
HETATM    3  C   UNL     1     -10.189   9.454  70.573  1.00  0.00    -0.271 C  
HETATM    4  C   UNL     1     -10.357   7.999  70.144  1.00  0.00    -0.215 C  
HETATM    5  CA  UNL     1      -9.408   7.292  69.469  1.00  0.00    -0.152 C  
HETATM    6  CA  UNL     1      -6.532   9.075  68.816  1.00  0.00    -0.053 C  
HETATM    7  O   UNL     1      -6.876   6.735  67.694  1.00  0.00    -0.074 OA 
HETATM    8  N   UNL     1      -8.178   7.857  69.242  1.00  0.00    -0.126 N  
HETATM    9  C   UNL     1      -9.736   5.919  68.903  1.00  0.00    -0.135 C  
HETATM   10  OXT UNL     1     -10.873   5.482  68.798  1.00  0.00    -0.195 OA 
HETATM   11  O   UNL     1      -8.688   5.139  68.582  1.00  0.00    -0.094 OA 
HETATM   12  C   UNL     1      -7.114   7.659  68.436  1.00  0.00    -0.081 C  
ENDROOT
BRANCH   4  13
HETATM   13  C   UNL     1     -11.777   7.523  70.467  1.00  0.00    -0.158 C  
BRANCH  13  14
HETATM   14  S   UNL     1     -12.330   7.786  72.170  1.00  0.00    -0.230 SA 
BRANCH  14  15
HETATM   15  C   UNL     1     -11.050   7.172  73.135  1.00  0.00    -0.262 A  
HETATM   16  N   UNL     1     -10.051   7.829  73.668  1.00  0.00    -0.217 NA 
HETATM   17  C   UNL     1     -11.771   4.738  73.131  1.00  0.00    -0.118 C  
HETATM   18  N   UNL     1      -9.279   6.886  74.308  1.00  0.00    -0.209 NA 
HETATM   19  N   UNL     1     -10.920   5.851  73.450  1.00  0.00    -0.243 NA 
HETATM   20  N   UNL     1      -9.803   5.675  74.178  1.00  0.00    -0.180 NA 
ENDBRANCH  14  15
ENDBRANCH  13  14
ENDBRANCH   4  13
BRANCH   6  21
HETATM   21  N   UNL     1      -6.673  10.132  67.768  1.00  0.00    -0.070 N  
HETATM   22  H   UNL     1      -5.971  10.872  67.727  1.00  0.00     0.000 HD 
HETATM   23  O   UNL     1      -8.481   9.211  66.719  1.00  0.00    -0.120 OA 
HETATM   24  C   UNL     1      -7.709  10.157  66.851  1.00  0.00    -0.103 C  
BRANCH  24  25
HETATM   25  CA  UNL     1      -7.906  11.543  66.164  1.00  0.00     0.125 C  
BRANCH  25  26
HETATM   26  C   UNL     1      -9.357  11.736  65.712  1.00  0.00    -0.197 A  
HETATM   27  O   UNL     1     -13.298  12.399  64.513  1.00  0.00    -0.800 OA 
HETATM   28  C   UNL     1      -9.778  11.369  64.421  1.00  0.00    -0.266 A  
HETATM   29  C   UNL     1     -11.639  12.474  66.177  1.00  0.00    -0.448 A  
HETATM   30  C   UNL     1     -12.012  12.149  64.882  1.00  0.00    -0.290 A  
HETATM   31  C   UNL     1     -11.096  11.583  64.004  1.00  0.00    -0.441 A  
HETATM   32  H   UNL     1     -13.924  12.786  65.114  1.00  0.00     0.000 HD 
HETATM   33  C   UNL     1     -10.327  12.253  66.595  1.00  0.00    -0.237 A  
ENDBRANCH  25  26
BRANCH  25  34
HETATM   34  N   UNL     1      -7.509  12.576  67.141  1.00  0.00    -0.323 N  
HETATM   35  C   UNL     1      -6.190  12.927  67.332  1.00  0.00    -0.103 C  
HETATM   36  H   UNL     1      -8.230  13.042  67.691  1.00  0.00     0.000 HD 
HETATM   37  O   UNL     1      -5.264  12.482  66.663  1.00  0.00    -0.286 OA 
BRANCH  35  38
HETATM   38  C   UNL     1      -5.885  13.944  68.367  1.00  0.00    -0.102 A  
HETATM   39  O   UNL     1      -6.054  12.328  70.178  1.00  0.00    -0.200 OA 
HETATM   40  C   UNL     1      -5.833  13.600  69.720  1.00  0.00    -0.115 A  
HETATM   41  C   UNL     1      -5.409  15.885  70.279  1.00  0.00    -0.154 A  
HETATM   42  C   UNL     1      -5.571  14.567  70.685  1.00  0.00    -0.154 A  
HETATM   43  H   UNL     1      -6.020  12.094  71.098  1.00  0.00     0.000 HD 
HETATM   44  N   UNL     1      -5.461  16.251  68.973  1.00  0.00    -0.110 NA 
HETATM   45  C   UNL     1      -5.253  16.986  71.285  1.00  0.00    -0.013 C  
HETATM   46  C   UNL     1      -5.699  15.281  68.055  1.00  0.00    -0.137 A  
ENDBRANCH  35  38
ENDBRANCH  25  34
ENDBRANCH  24  25
ENDBRANCH   6  21
TORSDOF 8
ENDMDL
MODEL      115
REMARK 921   NORMALIZED FREE ENERGY PREDICTED BY IDOCK:   -3.92 KCAL/MOL
REMARK 922        TOTAL FREE ENERGY PREDICTED BY IDOCK:   -7.56 KCAL/MOL
REMARK 923 INTER-LIGAND FREE ENERGY PREDICTED BY IDOCK:   -4.76 KCAL/MOL
REMARK 924 INTRA-LIGAND FREE ENERGY PREDICTED BY IDOCK:   -2.81 KCAL/MOL
REMARK 927      BINDING AFFINITY PREDICTED BY RF-SCORE:    0.00 PKD
ROOT
HETATM    1  C   UNL     1      -8.049   8.311  65.166  1.00  0.00    -0.142 C  
HETATM    2  S   UNL     1      -6.360   7.902  65.689  1.00  0.00    -0.042 SA 
HETATM    3  C   UNL     1      -6.459   6.223  65.033  1.00  0.00    -0.038 C  
HETATM    4  C   UNL     1      -7.715   5.456  65.438  1.00  0.00    -0.092 C  
HETATM    5  CA  UNL     1      -8.862   6.050  65.872  1.00  0.00    -0.149 C  
HETATM    6  CA  UNL     1      -8.709   9.492  65.959  1.00  0.00    -0.147 C  
HETATM    7  O   UNL     1     -10.751   8.268  67.047  1.00  0.00    -0.307 OA 
HETATM    8  N   UNL     1      -8.963   7.418  65.851  1.00  0.00    -0.124 N  
HETATM    9  C   UNL     1      -9.989   5.208  66.446  1.00  0.00    -0.213 C  
HETATM   10  OXT UNL     1      -9.862   4.037  66.776  1.00  0.00    -0.217 OA 
HETATM   11  O   UNL     1     -11.200   5.792  66.511  1.00  0.00    -0.119 OA 
HETATM   12  C   UNL     1      -9.733   8.379  66.405  1.00  0.00    -0.242 C  
ENDROOT
BRANCH   4  13
HETATM   13  C   UNL     1      -7.435   3.950  65.408  1.00  0.00    -0.081 C  
BRANCH  13  14
HETATM   14  S   UNL     1      -6.054   3.382  66.431  1.00  0.00    -0.025 SA 
BRANCH  14  15
HETATM   15  C   UNL     1      -6.741   3.147  67.987  1.00  0.00    -0.045 A  
HETATM   16  N   UNL     1      -7.309   2.070  68.466  1.00  0.00    -0.043 NA 
HETATM   17  C   UNL     1      -6.277   5.467  68.907  1.00  0.00    -0.033 C  
HETATM   18  N   UNL     1      -7.734   2.400  69.733  1.00  0.00    -0.043 NA 
HETATM   19  N   UNL     1      -6.790   4.125  68.937  1.00  0.00    -0.046 NA 
HETATM   20  N   UNL     1      -7.421   3.654  70.027  1.00  0.00    -0.045 NA 
ENDBRANCH  14  15
ENDBRANCH  13  14
ENDBRANCH   4  13
BRANCH   6  21
HETATM   21  N   UNL     1      -7.854  10.055  67.049  1.00  0.00    -0.102 N  
HETATM   22  H   UNL     1      -7.527   9.427  67.783  1.00  0.00     0.000 HD 
HETATM   23  O   UNL     1      -7.679  12.158  66.174  1.00  0.00     0.387 OA 
HETATM   24  C   UNL     1      -7.483  11.387  67.109  1.00  0.00    -0.138 C  
BRANCH  24  25
HETATM   25  CA  UNL     1      -6.983  11.836  68.517  1.00  0.00    -0.083 C  
BRANCH  25  26
HETATM   26  C   UNL     1      -7.262  13.324  68.754  1.00  0.00    -0.088 A  
HETATM   27  O   UNL     1      -7.952  17.405  69.280  1.00  0.00    -0.074 OA 
HETATM   28  C   UNL     1      -8.573  13.808  68.909  1.00  0.00     0.138 A  
HETATM   29  C   UNL     1      -6.452  15.612  69.034  1.00  0.00    -0.126 A  
HETATM   30  C   UNL     1      -7.758  16.066  69.132  1.00  0.00    -0.231 A  
HETATM   31  C   UNL     1      -8.822  15.174  69.088  1.00  0.00    -0.221 A  
HETATM   32  H   UNL     1      -7.224  18.015  69.311  1.00  0.00     0.000 HD 
HETATM   33  C   UNL     1      -6.204  14.250  68.863  1.00  0.00    -0.089 A  
ENDBRANCH  25  26
BRANCH  25  34
HETATM   34  N   UNL     1      -7.676  10.997  69.514  1.00  0.00    -0.365 N  
HETATM   35  C   UNL     1      -7.017  10.013  70.218  1.00  0.00    -0.150 C  
HETATM   36  H   UNL     1      -8.669  11.149  69.687  1.00  0.00     0.000 HD 
HETATM   37  O   UNL     1      -5.809   9.812  70.139  1.00  0.00    -0.040 OA 
BRANCH  35  38
HETATM   38  C   UNL     1      -7.805   9.192  71.169  1.00  0.00    -0.119 A  
HETATM   39  O   UNL     1      -9.778   9.221  69.744  1.00  0.00    -0.171 OA 
HETATM   40  C   UNL     1      -9.129   8.842  70.890  1.00  0.00    -0.208 A  
HETATM   41  C   UNL     1      -9.278   7.743  73.007  1.00  0.00    -0.226 A  
HETATM   42  C   UNL     1      -9.868   8.093  71.800  1.00  0.00    -0.256 A  
HETATM   43  H   UNL     1     -10.677   8.982  69.555  1.00  0.00     0.000 HD 
HETATM   44  N   UNL     1      -7.998   8.075  73.310  1.00  0.00    -0.164 NA 
HETATM   45  C   UNL     1     -10.068   7.049  74.077  1.00  0.00    -0.355 C  
HETATM   46  C   UNL     1      -7.298   8.789  72.393  1.00  0.00     0.113 A  
ENDBRANCH  35  38
ENDBRANCH  25  34
ENDBRANCH  24  25
ENDBRANCH   6  21
TORSDOF 8
ENDMDL
MODEL      116
REMARK 921   NORMALIZED FREE ENERGY PREDICTED BY IDOCK:   -3.82 KCAL/MOL
REMARK 922        TOTAL FREE ENERGY PREDICTED BY IDOCK:   -7.42 KCAL/MOL
REMARK 923 INTER-LIGAND FREE ENERGY PREDICTED BY IDOCK:   -6.85 KCAL/MOL
REMARK 924 INTRA-LIGAND FREE ENERGY PREDICTED BY IDOCK:   -0.57 KCAL/MOL
REMARK 927      BINDING AFFINITY PREDICTED BY RF-SCORE:    0.00 PKD
ROOT
HETATM    1  C   UNL     1      -6.170  10.024  68.221  1.00  0.00    -0.049 C  
HETATM    2  S   UNL     1      -6.103  10.938  66.655  1.00  0.00    -0.115 SA 
HETATM    3  C   UNL     1      -6.711  12.463  67.406  1.00  0.00    -0.152 C  
HETATM    4  C   UNL     1      -7.958  12.291  68.271  1.00  0.00    -0.163 C  
HETATM    5  CA  UNL     1      -8.353  11.102  68.807  1.00  0.00    -0.136 C  
HETATM    6  CA  UNL     1      -6.261   8.466  68.063  1.00  0.00    -0.052 C  
HETATM    7  O   UNL     1      -8.568   7.994  69.207  1.00  0.00    -0.134 OA 
HETATM    8  N   UNL     1      -7.548   9.999  68.671  1.00  0.00    -0.085 N  
HETATM    9  C   UNL     1      -9.710  10.982  69.481  1.00  0.00     0.212 C  
HETATM   10  OXT UNL     1     -10.596  11.818  69.378  1.00  0.00    -0.085 OA 
HETATM   11  O   UNL     1      -9.883   9.921  70.291  1.00  0.00    -0.253 OA 
HETATM   12  C   UNL     1      -7.653   8.658  68.779  1.00  0.00    -0.096 C  
ENDROOT
BRANCH   4  13
HETATM   13  C   UNL     1      -8.740  13.607  68.320  1.00  0.00    -0.171 C  
BRANCH  13  14
HETATM   14  S   UNL     1      -9.368  14.214  66.734  1.00  0.00    -0.279 SA 
BRANCH  14  15
HETATM   15  C   UNL     1      -8.482  15.656  66.446  1.00  0.00    -0.236 A  
HETATM   16  N   UNL     1      -7.216  15.889  66.681  1.00  0.00    -0.166 NA 
HETATM   17  C   UNL     1     -10.388  17.027  65.482  1.00  0.00    -0.143 C  
HETATM   18  N   UNL     1      -7.000  17.198  66.320  1.00  0.00    -0.253 NA 
HETATM   19  N   UNL     1      -9.044  16.786  65.930  1.00  0.00    -0.520 NA 
HETATM   20  N   UNL     1      -8.113  17.754  65.860  1.00  0.00    -0.544 NA 
ENDBRANCH  14  15
ENDBRANCH  13  14
ENDBRANCH   4  13
BRANCH   6  21
HETATM   21  N   UNL     1      -6.325   7.994  66.646  1.00  0.00    -0.053 N  
HETATM   22  H   UNL     1      -5.997   8.621  65.911  1.00  0.00     0.000 HD 
HETATM   23  O   UNL     1      -7.046   5.878  67.114  1.00  0.00    -0.067 OA 
HETATM   24  C   UNL     1      -6.808   6.749  66.282  1.00  0.00    -0.060 C  
BRANCH  24  25
HETATM   25  CA  UNL     1      -7.190   6.640  64.774  1.00  0.00    -0.071 C  
BRANCH  25  26
HETATM   26  C   UNL     1      -8.080   5.419  64.516  1.00  0.00    -0.122 A  
HETATM   27  O   UNL     1     -10.605   2.158  63.888  1.00  0.00    -0.363 OA 
HETATM   28  C   UNL     1      -8.370   4.988  63.209  1.00  0.00    -0.119 A  
HETATM   29  C   UNL     1      -9.451   3.582  65.360  1.00  0.00    -0.152 A  
HETATM   30  C   UNL     1      -9.760   3.212  64.061  1.00  0.00    -0.149 A  
HETATM   31  C   UNL     1      -9.214   3.895  62.982  1.00  0.00    -0.113 A  
HETATM   32  H   UNL     1     -10.978   1.691  64.626  1.00  0.00     0.000 HD 
HETATM   33  C   UNL     1      -8.603   4.667  65.587  1.00  0.00    -0.124 A  
ENDBRANCH  25  26
BRANCH  25  34
HETATM   34  N   UNL     1      -7.881   7.892  64.407  1.00  0.00    -0.133 N  
HETATM   35  C   UNL     1      -8.960   8.362  65.122  1.00  0.00     0.048 C  
HETATM   36  H   UNL     1      -7.550   8.423  63.602  1.00  0.00     0.000 HD 
HETATM   37  O   UNL     1      -9.377   7.837  66.149  1.00  0.00    -0.169 OA 
BRANCH  35  38
HETATM   38  C   UNL     1      -9.616   9.606  64.652  1.00  0.00    -0.147 A  
HETATM   39  O   UNL     1      -8.824   9.306  62.371  1.00  0.00    -0.231 OA 
HETATM   40  C   UNL     1      -9.517  10.013  63.319  1.00  0.00    -0.182 A  
HETATM   41  C   UNL     1     -10.769  11.982  63.831  1.00  0.00    -0.397 A  
HETATM   42  C   UNL     1     -10.114  11.195  62.894  1.00  0.00    -0.235 A  
HETATM   43  H   UNL     1      -8.756   9.583  61.465  1.00  0.00     0.000 HD 
HETATM   44  N   UNL     1     -10.876  11.619  65.134  1.00  0.00    -0.295 NA 
HETATM   45  C   UNL     1     -11.319  13.327  63.457  1.00  0.00    -0.100 C  
HETATM   46  C   UNL     1     -10.299  10.451  65.512  1.00  0.00    -0.195 A  
ENDBRANCH  35  38
ENDBRANCH  25  34
ENDBRANCH  24  25
ENDBRANCH   6  21
TORSDOF 8
ENDMDL
MODEL      117
REMARK 921   NORMALIZED FREE ENERGY PREDICTED BY IDOCK:   -3.81 KCAL/MOL
REMARK 922        TOTAL FREE ENERGY PREDICTED BY IDOCK:   -7.41 KCAL/MOL
REMARK 923 INTER-LIGAND FREE ENERGY PREDICTED BY IDOCK:   -6.16 KCAL/MOL
REMARK 924 INTRA-LIGAND FREE ENERGY PREDICTED BY IDOCK:   -1.25 KCAL/MOL
REMARK 927      BINDING AFFINITY PREDICTED BY RF-SCORE:    0.00 PKD
ROOT
HETATM    1  C   UNL     1      -6.835  11.867  66.728  1.00  0.00    -0.005 C  
HETATM    2  S   UNL     1      -8.419  11.014  66.489  1.00  0.00    -0.164 SA 
HETATM    3  C   UNL     1      -9.307  12.549  66.152  1.00  0.00    -0.134 C  
HETATM    4  C   UNL     1      -9.054  13.663  67.164  1.00  0.00    -0.241 C  
HETATM    5  CA  UNL     1      -7.970  13.710  67.989  1.00  0.00    -0.154 C  
HETATM    6  CA  UNL     1      -5.789  11.072  67.585  1.00  0.00    -0.044 C  
HETATM    7  O   UNL     1      -5.473  12.704  69.608  1.00  0.00    -0.075 OA 
HETATM    8  N   UNL     1      -6.976  12.774  67.851  1.00  0.00    -0.100 N  
HETATM    9  C   UNL     1      -7.901  14.742  69.102  1.00  0.00    -0.141 C  
HETATM   10  OXT UNL     1      -8.860  15.401  69.478  1.00  0.00    -0.258 OA 
HETATM   11  O   UNL     1      -6.684  14.973  69.629  1.00  0.00    -0.151 OA 
HETATM   12  C   UNL     1      -5.940  12.294  68.571  1.00  0.00    -0.054 C  
ENDROOT
BRANCH   4  13
HETATM   13  C   UNL     1     -10.251  14.619  67.194  1.00  0.00    -0.256 C  
BRANCH  13  14
HETATM   14  S   UNL     1     -11.868  13.870  66.873  1.00  0.00    -0.438 SA 
BRANCH  14  15
HETATM   15  C   UNL     1     -12.194  14.242  65.230  1.00  0.00    -0.414 A  
HETATM   16  N   UNL     1     -12.346  15.420  64.681  1.00  0.00    -0.079 NA 
HETATM   17  C   UNL     1     -12.264  11.858  64.359  1.00  0.00    -0.183 C  
HETATM   18  N   UNL     1     -12.632  15.185  63.356  1.00  0.00     0.122 NA 
HETATM   19  N   UNL     1     -12.361  13.289  64.268  1.00  0.00    -0.580 NA 
HETATM   20  N   UNL     1     -12.644  13.885  63.096  1.00  0.00    -0.610 NA 
ENDBRANCH  14  15
ENDBRANCH  13  14
ENDBRANCH   4  13
BRANCH   6  21
HETATM   21  N   UNL     1      -6.287   9.761  68.102  1.00  0.00    -0.055 N  
HETATM   22  H   UNL     1      -6.785   9.748  68.992  1.00  0.00     0.000 HD 
HETATM   23  O   UNL     1      -5.684   8.523  66.279  1.00  0.00    -0.042 OA 
HETATM   24  C   UNL     1      -6.105   8.564  67.431  1.00  0.00    -0.052 C  
BRANCH  24  25
HETATM   25  CA  UNL     1      -6.301   7.305  68.331  1.00  0.00    -0.036 C  
BRANCH  25  26
HETATM   26  C   UNL     1      -6.981   7.671  69.654  1.00  0.00    -0.052 A  
HETATM   27  O   UNL     1      -8.799   8.803  73.235  1.00  0.00    -0.280 OA 
HETATM   28  C   UNL     1      -8.324   7.337  69.905  1.00  0.00    -0.135 A  
HETATM   29  C   UNL     1      -6.889   8.699  71.869  1.00  0.00    -0.088 A  
HETATM   30  C   UNL     1      -8.228   8.401  72.067  1.00  0.00    -0.155 A  
HETATM   31  C   UNL     1      -8.948   7.708  71.102  1.00  0.00    -0.143 A  
HETATM   32  H   UNL     1      -8.306   9.277  73.895  1.00  0.00     0.000 HD 
HETATM   33  C   UNL     1      -6.264   8.322  70.679  1.00  0.00    -0.036 A  
ENDBRANCH  25  26
BRANCH  25  34
HETATM   34  N   UNL     1      -7.112   6.340  67.562  1.00  0.00    -0.072 N  
HETATM   35  C   UNL     1      -6.534   5.351  66.798  1.00  0.00    -0.041 C  
HETATM   36  H   UNL     1      -8.129   6.408  67.598  1.00  0.00     0.000 HD 
HETATM   37  O   UNL     1      -5.326   5.140  66.758  1.00  0.00    -0.008 OA 
BRANCH  35  38
HETATM   38  C   UNL     1      -7.429   4.456  66.026  1.00  0.00    -0.085 A  
HETATM   39  O   UNL     1      -8.540   6.318  64.923  1.00  0.00    -0.315 OA 
HETATM   40  C   UNL     1      -8.376   4.975  65.140  1.00  0.00    -0.138 A  
HETATM   41  C   UNL     1      -9.149   2.762  64.678  1.00  0.00    -0.132 A  
HETATM   42  C   UNL     1      -9.229   4.128  64.440  1.00  0.00    -0.150 A  
HETATM   43  H   UNL     1      -9.184   6.671  64.321  1.00  0.00     0.000 HD 
HETATM   44  N   UNL     1      -8.246   2.228  65.537  1.00  0.00    -0.084 NA 
HETATM   45  C   UNL     1     -10.128   1.814  64.050  1.00  0.00    -0.034 C  
HETATM   46  C   UNL     1      -7.416   3.080  66.189  1.00  0.00    -0.072 A  
ENDBRANCH  35  38
ENDBRANCH  25  34
ENDBRANCH  24  25
ENDBRANCH   6  21
TORSDOF 8
ENDMDL
MODEL      118
REMARK 921   NORMALIZED FREE ENERGY PREDICTED BY IDOCK:   -3.77 KCAL/MOL
REMARK 922        TOTAL FREE ENERGY PREDICTED BY IDOCK:   -7.35 KCAL/MOL
REMARK 923 INTER-LIGAND FREE ENERGY PREDICTED BY IDOCK:   -5.67 KCAL/MOL
REMARK 924 INTRA-LIGAND FREE ENERGY PREDICTED BY IDOCK:   -1.67 KCAL/MOL
REMARK 927      BINDING AFFINITY PREDICTED BY RF-SCORE:    0.00 PKD
ROOT
HETATM    1  C   UNL     1      -8.373   6.850  65.771  1.00  0.00    -0.142 C  
HETATM    2  S   UNL     1      -7.089   6.995  67.046  1.00  0.00    -0.081 SA 
HETATM    3  C   UNL     1      -6.137   5.613  66.382  1.00  0.00    -0.030 C  
HETATM    4  C   UNL     1      -6.955   4.356  66.098  1.00  0.00    -0.066 C  
HETATM    5  CA  UNL     1      -8.307   4.352  65.927  1.00  0.00    -0.113 C  
HETATM    6  CA  UNL     1      -9.759   7.468  66.169  1.00  0.00     0.069 C  
HETATM    7  O   UNL     1     -11.284   5.342  66.080  1.00  0.00    -0.019 OA 
HETATM    8  N   UNL     1      -8.987   5.542  65.895  1.00  0.00    -0.153 N  
HETATM    9  C   UNL     1      -9.063   3.035  65.852  1.00  0.00    -0.141 C  
HETATM   10  OXT UNL     1      -8.583   1.957  66.170  1.00  0.00    -0.101 OA 
HETATM   11  O   UNL     1     -10.302   3.086  65.328  1.00  0.00     0.393 OA 
HETATM   12  C   UNL     1     -10.258   5.979  66.025  1.00  0.00     0.239 C  
ENDROOT
BRANCH   4  13
HETATM   13  C   UNL     1      -6.051   3.121  66.170  1.00  0.00    -0.024 C  
BRANCH  13  14
HETATM   14  S   UNL     1      -5.131   2.904  67.714  1.00  0.00    -0.008 SA 
BRANCH  14  15
HETATM   15  C   UNL     1      -6.338   2.566  68.887  1.00  0.00    -0.029 A  
HETATM   16  N   UNL     1      -7.232   1.611  68.877  1.00  0.00    -0.039 NA 
HETATM   17  C   UNL     1      -5.773   4.450  70.493  1.00  0.00    -0.013 C  
HETATM   18  N   UNL     1      -7.989   1.791  70.012  1.00  0.00    -0.042 NA 
HETATM   19  N   UNL     1      -6.515   3.317  70.012  1.00  0.00    -0.032 NA 
HETATM   20  N   UNL     1      -7.557   2.832  70.710  1.00  0.00    -0.036 NA 
ENDBRANCH  14  15
ENDBRANCH  13  14
ENDBRANCH   4  13
BRANCH   6  21
HETATM   21  N   UNL     1      -9.806   8.033  67.552  1.00  0.00    -0.160 N  
HETATM   22  H   UNL     1     -10.220   7.467  68.293  1.00  0.00     0.000 HD 
HETATM   23  O   UNL     1      -8.645   9.944  67.085  1.00  0.00    -0.125 OA 
HETATM   24  C   UNL     1      -9.317   9.287  67.876  1.00  0.00    -0.129 C  
BRANCH  24  25
HETATM   25  CA  UNL     1      -9.854   9.839  69.232  1.00  0.00    -0.199 C  
BRANCH  25  26
HETATM   26  C   UNL     1      -8.981   9.376  70.402  1.00  0.00    -0.294 A  
HETATM   27  O   UNL     1      -6.563   8.250  73.611  1.00  0.00    -0.112 OA 
HETATM   28  C   UNL     1      -9.525   8.662  71.485  1.00  0.00    -0.320 A  
HETATM   29  C   UNL     1      -6.798   9.242  71.493  1.00  0.00     0.054 A  
HETATM   30  C   UNL     1      -7.373   8.584  72.569  1.00  0.00    -0.032 A  
HETATM   31  C   UNL     1      -8.727   8.275  72.568  1.00  0.00    -0.284 A  
HETATM   32  H   UNL     1      -5.637   8.462  73.612  1.00  0.00     0.000 HD 
HETATM   33  C   UNL     1      -7.592   9.621  70.410  1.00  0.00    -0.176 A  
ENDBRANCH  25  26
BRANCH  25  34
HETATM   34  N   UNL     1      -9.871  11.312  69.127  1.00  0.00    -0.416 N  
HETATM   35  C   UNL     1     -10.953  11.991  68.611  1.00  0.00    -0.240 C  
HETATM   36  H   UNL     1      -9.060  11.841  69.445  1.00  0.00     0.000 HD 
HETATM   37  O   UNL     1     -12.002  11.448  68.281  1.00  0.00    -0.566 OA 
BRANCH  35  38
HETATM   38  C   UNL     1     -10.861  13.467  68.506  1.00  0.00    -0.285 A  
HETATM   39  O   UNL     1     -12.809  13.809  69.925  1.00  0.00    -0.200 OA 
HETATM   40  C   UNL     1     -11.781  14.292  69.158  1.00  0.00    -0.320 A  
HETATM   41  C   UNL     1     -10.721  16.213  68.209  1.00  0.00    -0.307 A  
HETATM   42  C   UNL     1     -11.703  15.676  69.032  1.00  0.00    -0.408 A  
HETATM   43  H   UNL     1     -13.434  14.370  70.367  1.00  0.00     0.000 HD 
HETATM   44  N   UNL     1      -9.819  15.437  67.558  1.00  0.00    -0.217 NA 
HETATM   45  C   UNL     1     -10.670  17.687  67.935  1.00  0.00    -0.341 C  
HETATM   46  C   UNL     1      -9.911  14.093  67.717  1.00  0.00    -0.231 A  
ENDBRANCH  35  38
ENDBRANCH  25  34
ENDBRANCH  24  25
ENDBRANCH   6  21
TORSDOF 8
ENDMDL
MODEL      119
REMARK 921   NORMALIZED FREE ENERGY PREDICTED BY IDOCK:   -3.74 KCAL/MOL
REMARK 922        TOTAL FREE ENERGY PREDICTED BY IDOCK:   -7.31 KCAL/MOL
REMARK 923 INTER-LIGAND FREE ENERGY PREDICTED BY IDOCK:   -7.33 KCAL/MOL
REMARK 924 INTRA-LIGAND FREE ENERGY PREDICTED BY IDOCK:    0.02 KCAL/MOL
REMARK 927      BINDING AFFINITY PREDICTED BY RF-SCORE:    0.00 PKD
ROOT
HETATM    1  C   UNL     1     -10.307  13.933  69.695  1.00  0.00     0.443 C  
HETATM    2  S   UNL     1     -11.672  13.919  68.498  1.00  0.00    -0.372 SA 
HETATM    3  C   UNL     1     -11.696  12.117  68.400  1.00  0.00    -0.332 C  
HETATM    4  C   UNL     1     -10.328  11.475  68.181  1.00  0.00    -0.211 C  
HETATM    5  CA  UNL     1      -9.146  12.092  68.457  1.00  0.00    -0.106 C  
HETATM    6  CA  UNL     1      -9.491  15.272  69.739  1.00  0.00    -0.097 C  
HETATM    7  O   UNL     1      -7.119  14.423  69.030  1.00  0.00    -0.110 OA 
HETATM    8  N   UNL     1      -9.151  13.319  69.069  1.00  0.00     0.316 N  
HETATM    9  C   UNL     1      -7.834  11.460  68.019  1.00  0.00    -0.121 C  
HETATM   10  OXT UNL     1      -7.757  10.540  67.218  1.00  0.00    -0.104 OA 
HETATM   11  O   UNL     1      -6.720  11.914  68.625  1.00  0.00    -0.063 OA 
HETATM   12  C   UNL     1      -8.303  14.351  69.263  1.00  0.00     0.153 C  
ENDROOT
BRANCH   4  13
HETATM   13  C   UNL     1     -10.498  10.116  67.492  1.00  0.00    -0.253 C  
BRANCH  13  14
HETATM   14  S   UNL     1     -10.684   8.690  68.592  1.00  0.00     0.027 SA 
BRANCH  14  15
HETATM   15  C   UNL     1      -9.863   7.417  67.785  1.00  0.00    -0.152 A  
HETATM   16  N   UNL     1     -10.081   6.947  66.583  1.00  0.00    -0.174 NA 
HETATM   17  C   UNL     1      -8.225   6.852  69.641  1.00  0.00    -0.131 C  
HETATM   18  N   UNL     1      -9.194   5.908  66.419  1.00  0.00    -0.147 NA 
HETATM   19  N   UNL     1      -8.849   6.704  68.355  1.00  0.00    -0.122 NA 
HETATM   20  N   UNL     1      -8.438   5.752  67.497  1.00  0.00    -0.104 NA 
ENDBRANCH  14  15
ENDBRANCH  13  14
ENDBRANCH   4  13
BRANCH   6  21
HETATM   21  N   UNL     1      -9.945  16.301  68.753  1.00  0.00    -0.226 N  
HETATM   22  H   UNL     1     -10.885  16.220  68.365  1.00  0.00     0.000 HD 
HETATM   23  O   UNL     1      -8.088  17.624  68.893  1.00  0.00    -0.254 OA 
HETATM   24  C   UNL     1      -9.151  17.357  68.340  1.00  0.00    -0.274 C  
BRANCH  24  25
HETATM   25  CA  UNL     1      -9.638  18.028  67.019  1.00  0.00    -0.287 C  
BRANCH  25  26
HETATM   26  C   UNL     1      -8.461  18.609  66.227  1.00  0.00    -0.241 A  
HETATM   27  O   UNL     1      -5.240  20.287  64.174  1.00  0.00    -0.163 OA 
HETATM   28  C   UNL     1      -7.353  17.817  65.875  1.00  0.00    -0.234 A  
HETATM   29  C   UNL     1      -7.385  20.498  65.113  1.00  0.00     0.122 A  
HETATM   30  C   UNL     1      -6.285  19.706  64.824  1.00  0.00    -0.275 A  
HETATM   31  C   UNL     1      -6.266  18.364  65.185  1.00  0.00    -0.191 A  
HETATM   32  H   UNL     1      -5.254  21.205  63.928  1.00  0.00     0.000 HD 
HETATM   33  C   UNL     1      -8.472  19.950  65.794  1.00  0.00    -0.043 A  
ENDBRANCH  25  26
BRANCH  25  34
HETATM   34  N   UNL     1     -10.348  16.995  66.239  1.00  0.00    -0.321 N  
HETATM   35  C   UNL     1      -9.777  15.771  65.966  1.00  0.00    -0.345 C  
HETATM   36  H   UNL     1     -11.286  17.192  65.893  1.00  0.00     0.000 HD 
HETATM   37  O   UNL     1      -8.690  15.413  66.408  1.00  0.00    -0.297 OA 
BRANCH  35  38
HETATM   38  C   UNL     1     -10.549  14.813  65.140  1.00  0.00    -0.439 A  
HETATM   39  O   UNL     1     -11.794  16.586  64.032  1.00  0.00    -1.269 OA 
HETATM   40  C   UNL     1     -11.508  15.260  64.227  1.00  0.00    -0.153 A  
HETATM   41  C   UNL     1     -12.041  12.994  63.685  1.00  0.00    -0.531 A  
HETATM   42  C   UNL     1     -12.245  14.352  63.475  1.00  0.00     0.335 A  
HETATM   43  H   UNL     1     -12.446  16.889  63.412  1.00  0.00     0.000 HD 
HETATM   44  N   UNL     1     -11.124  12.529  64.570  1.00  0.00    -0.300 NA 
HETATM   45  C   UNL     1     -12.897  11.972  62.997  1.00  0.00     0.033 C  
HETATM   46  C   UNL     1     -10.407  13.441  65.273  1.00  0.00    -0.319 A  
ENDBRANCH  35  38
ENDBRANCH  25  34
ENDBRANCH  24  25
ENDBRANCH   6  21
TORSDOF 8
ENDMDL
MODEL      120
REMARK 921   NORMALIZED FREE ENERGY PREDICTED BY IDOCK:   -3.70 KCAL/MOL
REMARK 922        TOTAL FREE ENERGY PREDICTED BY IDOCK:   -7.25 KCAL/MOL
REMARK 923 INTER-LIGAND FREE ENERGY PREDICTED BY IDOCK:   -5.78 KCAL/MOL
REMARK 924 INTRA-LIGAND FREE ENERGY PREDICTED BY IDOCK:   -1.47 KCAL/MOL
REMARK 927      BINDING AFFINITY PREDICTED BY RF-SCORE:    0.00 PKD
ROOT
HETATM    1  C   UNL     1      -9.380   6.786  65.935  1.00  0.00     0.100 C  
HETATM    2  S   UNL     1     -10.051   7.611  67.406  1.00  0.00    -0.248 SA 
HETATM    3  C   UNL     1     -10.445   9.122  66.500  1.00  0.00    -0.127 C  
HETATM    4  C   UNL     1      -9.307   9.657  65.634  1.00  0.00    -0.296 C  
HETATM    5  CA  UNL     1      -8.256   8.903  65.209  1.00  0.00    -0.137 C  
HETATM    6  CA  UNL     1      -8.381   5.617  66.242  1.00  0.00    -0.114 C  
HETATM    7  O   UNL     1      -6.203   6.526  65.109  1.00  0.00    -0.032 OA 
HETATM    8  N   UNL     1      -8.244   7.555  65.465  1.00  0.00    -0.131 N  
HETATM    9  C   UNL     1      -7.069   9.562  64.525  1.00  0.00    -0.107 C  
HETATM   10  OXT UNL     1      -6.865  10.768  64.531  1.00  0.00     0.128 OA 
HETATM   11  O   UNL     1      -6.258   8.752  63.819  1.00  0.00    -0.076 OA 
HETATM   12  C   UNL     1      -7.352   6.542  65.486  1.00  0.00    -0.076 C  
ENDROOT
BRANCH   4  13
HETATM   13  C   UNL     1      -9.468  11.169  65.443  1.00  0.00    -0.222 C  
BRANCH  13  14
HETATM   14  S   UNL     1     -10.970  11.898  66.142  1.00  0.00    -0.316 SA 
BRANCH  14  15
HETATM   15  C   UNL     1     -10.853  13.568  65.761  1.00  0.00    -0.275 A  
HETATM   16  N   UNL     1     -10.903  14.135  64.582  1.00  0.00    -0.405 NA 
HETATM   17  C   UNL     1     -10.572  14.429  68.133  1.00  0.00    -0.236 C  
HETATM   18  N   UNL     1     -10.719  15.480  64.803  1.00  0.00    -0.407 NA 
HETATM   19  N   UNL     1     -10.662  14.537  66.702  1.00  0.00    -0.300 NA 
HETATM   20  N   UNL     1     -10.570  15.734  66.096  1.00  0.00    -0.311 NA 
ENDBRANCH  14  15
ENDBRANCH  13  14
ENDBRANCH   4  13
BRANCH   6  21
HETATM   21  N   UNL     1      -8.110   5.406  67.696  1.00  0.00    -0.100 N  
HETATM   22  H   UNL     1      -8.879   5.528  68.356  1.00  0.00     0.000 HD 
HETATM   23  O   UNL     1      -5.948   4.709  67.454  1.00  0.00    -0.022 OA 
HETATM   24  C   UNL     1      -6.867   5.052  68.193  1.00  0.00    -0.056 C  
BRANCH  24  25
HETATM   25  CA  UNL     1      -6.704   5.313  69.721  1.00  0.00    -0.051 C  
BRANCH  25  26
HETATM   26  C   UNL     1      -6.702   6.814  70.029  1.00  0.00    -0.049 A  
HETATM   27  O   UNL     1      -6.610  10.877  70.976  1.00  0.00    -0.375 OA 
HETATM   28  C   UNL     1      -6.293   7.758  69.069  1.00  0.00    -0.036 A  
HETATM   29  C   UNL     1      -7.106   8.659  71.578  1.00  0.00    -0.098 A  
HETATM   30  C   UNL     1      -6.650   9.561  70.630  1.00  0.00    -0.103 A  
HETATM   31  C   UNL     1      -6.258   9.124  69.370  1.00  0.00    -0.040 A  
HETATM   32  H   UNL     1      -6.878  11.175  71.837  1.00  0.00     0.000 HD 
HETATM   33  C   UNL     1      -7.148   7.298  71.275  1.00  0.00    -0.064 A  
ENDBRANCH  25  26
BRANCH  25  34
HETATM   34  N   UNL     1      -7.821   4.630  70.403  1.00  0.00    -0.054 N  
HETATM   35  C   UNL     1      -7.638   3.929  71.575  1.00  0.00    -0.060 C  
HETATM   36  H   UNL     1      -8.754   4.678  69.996  1.00  0.00     0.000 HD 
HETATM   37  O   UNL     1      -6.572   3.885  72.181  1.00  0.00    -0.017 OA 
BRANCH  35  38
HETATM   38  C   UNL     1      -8.811   3.240  72.164  1.00  0.00    -0.123 A  
HETATM   39  O   UNL     1      -8.886   1.586  70.381  1.00  0.00    -0.056 OA 
HETATM   40  C   UNL     1      -9.371   2.119  71.547  1.00  0.00    -0.115 A  
HETATM   41  C   UNL     1     -11.059   2.038  73.236  1.00  0.00    -0.167 A  
HETATM   42  C   UNL     1     -10.487   1.495  72.093  1.00  0.00    -0.195 A  
HETATM   43  H   UNL     1      -9.267   0.824  69.961  1.00  0.00     0.000 HD 
HETATM   44  N   UNL     1     -10.543   3.130  73.854  1.00  0.00    -0.172 NA 
HETATM   45  C   UNL     1     -12.336   1.485  73.795  1.00  0.00    -0.140 C  
HETATM   46  C   UNL     1      -9.442   3.704  73.307  1.00  0.00    -0.105 A  
ENDBRANCH  35  38
ENDBRANCH  25  34
ENDBRANCH  24  25
ENDBRANCH   6  21
TORSDOF 8
ENDMDL
MODEL      121
REMARK 921   NORMALIZED FREE ENERGY PREDICTED BY IDOCK:   -3.68 KCAL/MOL
REMARK 922        TOTAL FREE ENERGY PREDICTED BY IDOCK:   -7.22 KCAL/MOL
REMARK 923 INTER-LIGAND FREE ENERGY PREDICTED BY IDOCK:   -7.30 KCAL/MOL
REMARK 924 INTRA-LIGAND FREE ENERGY PREDICTED BY IDOCK:    0.08 KCAL/MOL
REMARK 927      BINDING AFFINITY PREDICTED BY RF-SCORE:    0.00 PKD
ROOT
HETATM    1  C   UNL     1      -5.545  11.016  68.492  1.00  0.00    -0.043 C  
HETATM    2  S   UNL     1      -6.966  10.658  67.420  1.00  0.00    -0.084 SA 
HETATM    3  C   UNL     1      -6.996  12.328  66.737  1.00  0.00     0.189 C  
HETATM    4  C   UNL     1      -6.940  13.442  67.779  1.00  0.00    -0.159 C  
HETATM    5  CA  UNL     1      -6.481  13.271  69.050  1.00  0.00    -0.102 C  
HETATM    6  CA  UNL     1      -5.409  10.067  69.734  1.00  0.00    -0.037 C  
HETATM    7  O   UNL     1      -5.647  11.788  71.691  1.00  0.00    -0.358 OA 
HETATM    8  N   UNL     1      -5.928  12.068  69.413  1.00  0.00    -0.083 N  
HETATM    9  C   UNL     1      -6.650  14.377  70.079  1.00  0.00    -0.116 C  
HETATM   10  OXT UNL     1      -7.387  15.340  69.926  1.00  0.00    -0.180 OA 
HETATM   11  O   UNL     1      -5.873  14.298  71.176  1.00  0.00    -0.198 OA 
HETATM   12  C   UNL     1      -5.627  11.401  70.547  1.00  0.00    -0.145 C  
ENDROOT
BRANCH   4  13
HETATM   13  C   UNL     1      -7.593  14.710  67.219  1.00  0.00    -0.143 C  
BRANCH  13  14
HETATM   14  S   UNL     1      -9.394  14.659  67.043  1.00  0.00    -0.243 SA 
BRANCH  14  15
HETATM   15  C   UNL     1      -9.875  16.307  67.083  1.00  0.00    -0.243 A  
HETATM   16  N   UNL     1      -9.780  17.201  66.133  1.00  0.00    -0.426 NA 
HETATM   17  C   UNL     1     -10.753  16.336  69.465  1.00  0.00    -0.323 C  
HETATM   18  N   UNL     1     -10.260  18.374  66.669  1.00  0.00    -0.373 NA 
HETATM   19  N   UNL     1     -10.420  16.898  68.185  1.00  0.00    -0.333 NA 
HETATM   20  N   UNL     1     -10.651  18.197  67.924  1.00  0.00    -0.396 NA 
ENDBRANCH  14  15
ENDBRANCH  13  14
ENDBRANCH   4  13
BRANCH   6  21
HETATM   21  N   UNL     1      -6.501   9.053  69.854  1.00  0.00    -0.037 N  
HETATM   22  H   UNL     1      -7.464   9.382  69.918  1.00  0.00     0.000 HD 
HETATM   23  O   UNL     1      -5.164   7.214  69.628  1.00  0.00    -0.015 OA 
HETATM   24  C   UNL     1      -6.267   7.689  69.884  1.00  0.00    -0.027 C  
BRANCH  24  25
HETATM   25  CA  UNL     1      -7.463   6.860  70.447  1.00  0.00    -0.086 C  
BRANCH  25  26
HETATM   26  C   UNL     1      -8.696   7.743  70.663  1.00  0.00    -0.139 A  
HETATM   27  O   UNL     1     -12.024  10.151  71.391  1.00  0.00    -0.369 OA 
HETATM   28  C   UNL     1      -8.844   8.971  69.993  1.00  0.00    -0.181 A  
HETATM   29  C   UNL     1     -10.844   8.150  71.752  1.00  0.00    -0.317 A  
HETATM   30  C   UNL     1     -10.938   9.378  71.115  1.00  0.00    -0.360 A  
HETATM   31  C   UNL     1      -9.955   9.789  70.224  1.00  0.00    -0.309 A  
HETATM   32  H   UNL     1     -12.696   9.870  72.000  1.00  0.00     0.000 HD 
HETATM   33  C   UNL     1      -9.740   7.331  71.515  1.00  0.00    -0.168 A  
ENDBRANCH  25  26
BRANCH  25  34
HETATM   34  N   UNL     1      -7.741   5.782  69.477  1.00  0.00    -0.090 N  
HETATM   35  C   UNL     1      -8.010   6.048  68.153  1.00  0.00    -0.110 C  
HETATM   36  H   UNL     1      -7.735   4.814  69.797  1.00  0.00     0.000 HD 
HETATM   37  O   UNL     1      -7.959   7.170  67.660  1.00  0.00    -0.111 OA 
BRANCH  35  38
HETATM   38  C   UNL     1      -8.320   4.903  67.263  1.00  0.00    -0.106 A  
HETATM   39  O   UNL     1      -9.707   6.263  65.797  1.00  0.00    -0.384 OA 
HETATM   40  C   UNL     1      -9.143   5.064  66.145  1.00  0.00    -0.138 A  
HETATM   41  C   UNL     1      -8.959   2.727  65.680  1.00  0.00    -0.143 A  
HETATM   42  C   UNL     1      -9.450   3.978  65.331  1.00  0.00    -0.172 A  
HETATM   43  H   UNL     1     -10.266   6.372  65.037  1.00  0.00     0.000 HD 
HETATM   44  N   UNL     1      -8.165   2.537  66.763  1.00  0.00    -0.082 NA 
HETATM   45  C   UNL     1      -9.362   1.501  64.914  1.00  0.00    -0.081 C  
HETATM   46  C   UNL     1      -7.869   3.620  67.526  1.00  0.00    -0.078 A  
ENDBRANCH  35  38
ENDBRANCH  25  34
ENDBRANCH  24  25
ENDBRANCH   6  21
TORSDOF 8
ENDMDL
MODEL      122
REMARK 921   NORMALIZED FREE ENERGY PREDICTED BY IDOCK:   -3.61 KCAL/MOL
REMARK 922        TOTAL FREE ENERGY PREDICTED BY IDOCK:   -7.12 KCAL/MOL
REMARK 923 INTER-LIGAND FREE ENERGY PREDICTED BY IDOCK:   -6.35 KCAL/MOL
REMARK 924 INTRA-LIGAND FREE ENERGY PREDICTED BY IDOCK:   -0.76 KCAL/MOL
REMARK 927      BINDING AFFINITY PREDICTED BY RF-SCORE:    0.00 PKD
ROOT
HETATM    1  C   UNL     1      -7.846  11.379  65.490  1.00  0.00     0.484 C  
HETATM    2  S   UNL     1      -7.082  10.559  66.918  1.00  0.00    -0.107 SA 
HETATM    3  C   UNL     1      -5.908   9.650  65.891  1.00  0.00    -0.055 C  
HETATM    4  C   UNL     1      -6.531   8.934  64.695  1.00  0.00    -0.066 C  
HETATM    5  CA  UNL     1      -7.742   9.258  64.162  1.00  0.00    -0.120 C  
HETATM    6  CA  UNL     1      -9.306  11.894  65.738  1.00  0.00    -0.155 C  
HETATM    7  O   UNL     1     -10.627  10.486  63.971  1.00  0.00    -0.137 OA 
HETATM    8  N   UNL     1      -8.415  10.357  64.633  1.00  0.00    -0.177 N  
HETATM    9  C   UNL     1      -8.376   8.366  63.107  1.00  0.00    -0.084 C  
HETATM   10  OXT UNL     1      -7.994   7.232  62.858  1.00  0.00    -0.134 OA 
HETATM   11  O   UNL     1      -9.363   8.915  62.374  1.00  0.00     0.142 OA 
HETATM   12  C   UNL     1      -9.669  10.856  64.608  1.00  0.00    -0.280 C  
ENDROOT
BRANCH   4  13
HETATM   13  C   UNL     1      -5.660   7.738  64.295  1.00  0.00    -0.037 C  
BRANCH  13  14
HETATM   14  S   UNL     1      -5.313   6.539  65.606  1.00  0.00    -0.018 SA 
BRANCH  14  15
HETATM   15  C   UNL     1      -6.825   5.783  65.906  1.00  0.00    -0.060 A  
HETATM   16  N   UNL     1      -7.991   6.349  66.087  1.00  0.00    -0.108 NA 
HETATM   17  C   UNL     1      -6.005   3.381  65.871  1.00  0.00    -0.023 C  
HETATM   18  N   UNL     1      -8.873   5.323  66.333  1.00  0.00    -0.120 NA 
HETATM   19  N   UNL     1      -6.974   4.432  66.017  1.00  0.00    -0.064 NA 
HETATM   20  N   UNL     1      -8.260   4.148  66.294  1.00  0.00    -0.104 NA 
ENDBRANCH  14  15
ENDBRANCH  13  14
ENDBRANCH   4  13
BRANCH   6  21
HETATM   21  N   UNL     1      -9.845  11.582  67.097  1.00  0.00    -0.190 N  
HETATM   22  H   UNL     1      -9.555  10.713  67.547  1.00  0.00     0.000 HD 
HETATM   23  O   UNL     1     -10.967  13.551  67.384  1.00  0.00    -0.265 OA 
HETATM   24  C   UNL     1     -10.719  12.414  67.776  1.00  0.00    -0.221 C  
BRANCH  24  25
HETATM   25  CA  UNL     1     -11.480  11.709  68.941  1.00  0.00    -0.287 C  
BRANCH  25  26
HETATM   26  C   UNL     1     -10.816  10.379  69.310  1.00  0.00    -0.280 A  
HETATM   27  O   UNL     1      -9.114   6.731  70.407  1.00  0.00    -0.152 OA 
HETATM   28  C   UNL     1     -10.532   9.406  68.334  1.00  0.00    -0.256 A  
HETATM   29  C   UNL     1      -9.871   8.878  70.990  1.00  0.00    -0.321 A  
HETATM   30  C   UNL     1      -9.649   7.920  70.015  1.00  0.00    -0.168 A  
HETATM   31  C   UNL     1      -9.959   8.178  68.685  1.00  0.00    -0.201 A  
HETATM   32  H   UNL     1      -8.902   6.554  71.316  1.00  0.00     0.000 HD 
HETATM   33  C   UNL     1     -10.434  10.105  70.639  1.00  0.00    -0.088 A  
ENDBRANCH  25  26
BRANCH  25  34
HETATM   34  N   UNL     1     -11.483  12.641  70.086  1.00  0.00    -0.526 N  
HETATM   35  C   UNL     1     -12.376  13.687  70.169  1.00  0.00    -0.304 C  
HETATM   36  H   UNL     1     -10.807  12.506  70.836  1.00  0.00     0.000 HD 
HETATM   37  O   UNL     1     -13.276  13.879  69.358  1.00  0.00     0.968 OA 
BRANCH  35  38
HETATM   38  C   UNL     1     -12.275  14.595  71.336  1.00  0.00    -0.411 A  
HETATM   39  O   UNL     1     -13.863  13.291  72.640  1.00  0.00    -0.712 OA 
HETATM   40  C   UNL     1     -13.014  14.358  72.498  1.00  0.00    -0.415 A  
HETATM   41  C   UNL     1     -12.140  16.364  73.457  1.00  0.00    -0.421 A  
HETATM   42  C   UNL     1     -12.933  15.231  73.578  1.00  0.00    -0.634 A  
HETATM   43  H   UNL     1     -14.365  13.130  73.429  1.00  0.00     0.000 HD 
HETATM   44  N   UNL     1     -11.417  16.627  72.340  1.00  0.00    -0.050 NA 
HETATM   45  C   UNL     1     -12.116  17.404  74.539  1.00  0.00     0.230 C  
HETATM   46  C   UNL     1     -11.503  15.746  71.312  1.00  0.00    -0.422 A  
ENDBRANCH  35  38
ENDBRANCH  25  34
ENDBRANCH  24  25
ENDBRANCH   6  21
TORSDOF 8
ENDMDL
MODEL      123
REMARK 921   NORMALIZED FREE ENERGY PREDICTED BY IDOCK:   -3.58 KCAL/MOL
REMARK 922        TOTAL FREE ENERGY PREDICTED BY IDOCK:   -7.07 KCAL/MOL
REMARK 923 INTER-LIGAND FREE ENERGY PREDICTED BY IDOCK:   -8.04 KCAL/MOL
REMARK 924 INTRA-LIGAND FREE ENERGY PREDICTED BY IDOCK:    0.97 KCAL/MOL
REMARK 927      BINDING AFFINITY PREDICTED BY RF-SCORE:    0.00 PKD
ROOT
HETATM    1  C   UNL     1      -8.764  11.057  65.991  1.00  0.00    -0.188 C  
HETATM    2  S   UNL     1     -10.086  10.057  66.729  1.00  0.00    -0.233 SA 
HETATM    3  C   UNL     1     -11.211  11.463  66.861  1.00  0.00    -0.264 C  
HETATM    4  C   UNL     1     -10.596  12.710  67.491  1.00  0.00    -0.236 C  
HETATM    5  CA  UNL     1      -9.256  12.944  67.562  1.00  0.00    -0.192 C  
HETATM    6  CA  UNL     1      -7.323  10.460  66.158  1.00  0.00    -0.131 C  
HETATM    7  O   UNL     1      -6.172  12.348  67.559  1.00  0.00    -0.117 OA 
HETATM    8  N   UNL     1      -8.386  12.081  66.946  1.00  0.00    -0.173 N  
HETATM    9  C   UNL     1      -8.727  14.108  68.384  1.00  0.00    -0.178 C  
HETATM   10  OXT UNL     1      -9.400  14.729  69.194  1.00  0.00    -0.180 OA 
HETATM   11  O   UNL     1      -7.465  14.499  68.125  1.00  0.00    -0.106 OA 
HETATM   12  C   UNL     1      -7.071  11.778  66.988  1.00  0.00    -0.132 C  
ENDROOT
BRANCH   4  13
HETATM   13  C   UNL     1     -11.697  13.563  68.131  1.00  0.00    -0.361 C  
BRANCH  13  14
HETATM   14  S   UNL     1     -11.650  13.687  69.937  1.00  0.00    -0.163 SA 
BRANCH  14  15
HETATM   15  C   UNL     1     -12.286  12.191  70.486  1.00  0.00    -0.304 A  
HETATM   16  N   UNL     1     -12.096  10.997  69.984  1.00  0.00    -0.337 NA 
HETATM   17  C   UNL     1     -13.608  13.097  72.455  1.00  0.00    -0.567 C  
HETATM   18  N   UNL     1     -12.851  10.141  70.751  1.00  0.00    -0.333 NA 
HETATM   19  N   UNL     1     -13.125  12.084  71.556  1.00  0.00    -0.349 NA 
HETATM   20  N   UNL     1     -13.484  10.798  71.714  1.00  0.00    -0.274 NA 
ENDBRANCH  14  15
ENDBRANCH  13  14
ENDBRANCH   4  13
BRANCH   6  21
HETATM   21  N   UNL     1      -7.272   9.187  66.940  1.00  0.00    -0.085 N  
HETATM   22  H   UNL     1      -7.104   8.315  66.437  1.00  0.00     0.000 HD 
HETATM   23  O   UNL     1      -7.465  10.148  69.004  1.00  0.00    -0.078 OA 
HETATM   24  C   UNL     1      -7.443   9.133  68.313  1.00  0.00    -0.083 C  
BRANCH  24  25
HETATM   25  CA  UNL     1      -7.788   7.709  68.846  1.00  0.00    -0.123 C  
BRANCH  25  26
HETATM   26  C   UNL     1      -9.001   7.747  69.782  1.00  0.00    -0.146 A  
HETATM   27  O   UNL     1     -12.306   7.711  72.329  1.00  0.00    -0.440 OA 
HETATM   28  C   UNL     1      -8.952   8.415  71.019  1.00  0.00    -0.199 A  
HETATM   29  C   UNL     1     -11.315   7.137  70.276  1.00  0.00    -0.305 A  
HETATM   30  C   UNL     1     -11.219   7.760  71.510  1.00  0.00    -0.244 A  
HETATM   31  C   UNL     1     -10.052   8.414  71.884  1.00  0.00    -0.337 A  
HETATM   32  H   UNL     1     -13.104   7.264  72.073  1.00  0.00     0.000 HD 
HETATM   33  C   UNL     1     -10.220   7.145  69.411  1.00  0.00    -0.194 A  
ENDBRANCH  25  26
BRANCH  25  34
HETATM   34  N   UNL     1      -8.047   6.853  67.672  1.00  0.00    -0.113 N  
HETATM   35  C   UNL     1      -7.647   5.535  67.631  1.00  0.00    -0.088 C  
HETATM   36  H   UNL     1      -8.535   7.247  66.868  1.00  0.00     0.000 HD 
HETATM   37  O   UNL     1      -7.129   4.952  68.578  1.00  0.00    -0.055 OA 
BRANCH  35  38
HETATM   38  C   UNL     1      -7.912   4.766  66.392  1.00  0.00    -0.103 A  
HETATM   39  O   UNL     1      -5.915   3.403  66.666  1.00  0.00    -0.023 OA 
HETATM   40  C   UNL     1      -7.046   3.753  65.974  1.00  0.00    -0.063 A  
HETATM   41  C   UNL     1      -8.384   3.418  64.024  1.00  0.00    -0.090 A  
HETATM   42  C   UNL     1      -7.289   3.054  64.796  1.00  0.00    -0.070 A  
HETATM   43  H   UNL     1      -5.326   2.715  66.382  1.00  0.00     0.000 HD 
HETATM   44  N   UNL     1      -9.240   4.402  64.398  1.00  0.00    -0.154 NA 
HETATM   45  C   UNL     1      -8.623   2.788  62.683  1.00  0.00    -0.074 C  
HETATM   46  C   UNL     1      -8.985   5.051  65.562  1.00  0.00    -0.151 A  
ENDBRANCH  35  38
ENDBRANCH  25  34
ENDBRANCH  24  25
ENDBRANCH   6  21
TORSDOF 8
ENDMDL
MODEL      124
REMARK 921   NORMALIZED FREE ENERGY PREDICTED BY IDOCK:   -3.38 KCAL/MOL
REMARK 922        TOTAL FREE ENERGY PREDICTED BY IDOCK:   -6.78 KCAL/MOL
REMARK 923 INTER-LIGAND FREE ENERGY PREDICTED BY IDOCK:   -6.89 KCAL/MOL
REMARK 924 INTRA-LIGAND FREE ENERGY PREDICTED BY IDOCK:    0.11 KCAL/MOL
REMARK 927      BINDING AFFINITY PREDICTED BY RF-SCORE:    0.00 PKD
ROOT
HETATM    1  C   UNL     1     -10.885   5.702  68.038  1.00  0.00    -0.076 C  
HETATM    2  S   UNL     1      -9.948   5.366  66.520  1.00  0.00    -0.214 SA 
HETATM    3  C   UNL     1      -9.307   3.799  67.147  1.00  0.00    -0.196 C  
HETATM    4  C   UNL     1      -8.710   3.873  68.551  1.00  0.00    -0.131 C  
HETATM    5  CA  UNL     1      -8.992   4.861  69.445  1.00  0.00    -0.097 C  
HETATM    6  CA  UNL     1     -11.221   7.215  68.275  1.00  0.00     0.180 C  
HETATM    7  O   UNL     1      -9.958   7.648  70.527  1.00  0.00    -0.184 OA 
HETATM    8  N   UNL     1      -9.945   5.799  69.138  1.00  0.00    -0.164 N  
HETATM    9  C   UNL     1      -8.201   4.969  70.739  1.00  0.00    -0.100 C  
HETATM   10  OXT UNL     1      -7.154   4.373  70.947  1.00  0.00    -0.036 OA 
HETATM   11  O   UNL     1      -8.752   5.712  71.717  1.00  0.00    -0.134 OA 
HETATM   12  C   UNL     1     -10.323   7.025  69.558  1.00  0.00    -0.213 C  
ENDROOT
BRANCH   4  13
HETATM   13  C   UNL     1      -7.670   2.763  68.731  1.00  0.00    -0.047 C  
BRANCH  13  14
HETATM   14  S   UNL     1      -6.234   2.838  67.632  1.00  0.00    -0.032 SA 
BRANCH  14  15
HETATM   15  C   UNL     1      -6.143   4.486  67.159  1.00  0.00    -0.031 A  
HETATM   16  N   UNL     1      -5.866   5.527  67.902  1.00  0.00    -0.016 NA 
HETATM   17  C   UNL     1      -6.699   4.156  64.704  1.00  0.00    -0.045 C  
HETATM   18  N   UNL     1      -5.959   6.619  67.070  1.00  0.00    -0.021 NA 
HETATM   19  N   UNL     1      -6.385   4.911  65.886  1.00  0.00    -0.038 NA 
HETATM   20  N   UNL     1      -6.278   6.251  65.837  1.00  0.00    -0.036 NA 
ENDBRANCH  14  15
ENDBRANCH  13  14
ENDBRANCH   4  13
BRANCH   6  21
HETATM   21  N   UNL     1     -10.672   8.137  67.235  1.00  0.00    -0.485 N  
HETATM   22  H   UNL     1     -10.333   7.735  66.360  1.00  0.00     0.000 HD 
HETATM   23  O   UNL     1     -11.152  10.080  68.337  1.00  0.00    -0.237 OA 
HETATM   24  C   UNL     1     -10.600   9.510  67.399  1.00  0.00    -0.271 C  
BRANCH  24  25
HETATM   25  CA  UNL     1      -9.617  10.210  66.412  1.00  0.00    -0.191 C  
BRANCH  25  26
HETATM   26  C   UNL     1     -10.371  11.098  65.417  1.00  0.00    -0.331 A  
HETATM   27  O   UNL     1     -12.420  13.410  62.612  1.00  0.00    -0.658 OA 
HETATM   28  C   UNL     1     -11.621  11.658  65.735  1.00  0.00    -0.088 A  
HETATM   29  C   UNL     1     -10.513  12.182  63.232  1.00  0.00    -0.360 A  
HETATM   30  C   UNL     1     -11.766  12.679  63.556  1.00  0.00    -0.531 A  
HETATM   31  C   UNL     1     -12.320  12.438  64.807  1.00  0.00    -0.497 A  
HETATM   32  H   UNL     1     -12.040  13.575  61.757  1.00  0.00     0.000 HD 
HETATM   33  C   UNL     1      -9.813  11.412  64.161  1.00  0.00    -0.307 A  
ENDBRANCH  25  26
BRANCH  25  34
HETATM   34  N   UNL     1      -8.672  11.001  67.225  1.00  0.00    -0.129 N  
HETATM   35  C   UNL     1      -8.980  12.269  67.667  1.00  0.00    -0.181 C  
HETATM   36  H   UNL     1      -7.767  10.599  67.465  1.00  0.00     0.000 HD 
HETATM   37  O   UNL     1     -10.072  12.802  67.499  1.00  0.00    -0.209 OA 
BRANCH  35  38
HETATM   38  C   UNL     1      -7.951  13.004  68.441  1.00  0.00    -0.135 A  
HETATM   39  O   UNL     1      -7.239  11.001  69.626  1.00  0.00    -0.251 OA 
HETATM   40  C   UNL     1      -7.143  12.345  69.371  1.00  0.00     0.153 A  
HETATM   41  C   UNL     1      -6.109  14.423  69.940  1.00  0.00    -0.141 A  
HETATM   42  C   UNL     1      -6.198  13.048  70.111  1.00  0.00    -0.033 A  
HETATM   43  H   UNL     1      -6.689  10.553  70.258  1.00  0.00     0.000 HD 
HETATM   44  N   UNL     1      -6.885  15.093  69.051  1.00  0.00    -0.113 NA 
HETATM   45  C   UNL     1      -5.200  15.248  70.802  1.00  0.00    -0.140 C  
HETATM   46  C   UNL     1      -7.783  14.375  68.331  1.00  0.00    -0.132 A  
ENDBRANCH  35  38
ENDBRANCH  25  34
ENDBRANCH  24  25
ENDBRANCH   6  21
TORSDOF 8
ENDMDL
MODEL      125
REMARK 921   NORMALIZED FREE ENERGY PREDICTED BY IDOCK:   -3.29 KCAL/MOL
REMARK 922        TOTAL FREE ENERGY PREDICTED BY IDOCK:   -6.65 KCAL/MOL
REMARK 923 INTER-LIGAND FREE ENERGY PREDICTED BY IDOCK:   -5.69 KCAL/MOL
REMARK 924 INTRA-LIGAND FREE ENERGY PREDICTED BY IDOCK:   -0.96 KCAL/MOL
REMARK 927      BINDING AFFINITY PREDICTED BY RF-SCORE:    0.00 PKD
ROOT
HETATM    1  C   UNL     1      -9.247   9.669  70.817  1.00  0.00     0.009 C  
HETATM    2  S   UNL     1      -7.920   8.785  69.949  1.00  0.00    -0.113 SA 
HETATM    3  C   UNL     1      -7.439  10.242  68.998  1.00  0.00    -0.097 C  
HETATM    4  C   UNL     1      -8.598  10.971  68.323  1.00  0.00    -0.143 C  
HETATM    5  CA  UNL     1      -9.899  10.850  68.707  1.00  0.00    -0.196 C  
HETATM    6  CA  UNL     1     -10.376   8.746  71.394  1.00  0.00    -0.278 C  
HETATM    7  O   UNL     1     -12.453   9.624  70.065  1.00  0.00     0.201 OA 
HETATM    8  N   UNL     1     -10.207  10.125  69.830  1.00  0.00    -0.246 N  
HETATM    9  C   UNL     1     -11.006  11.448  67.854  1.00  0.00    -0.240 C  
HETATM   10  OXT UNL     1     -10.845  11.837  66.707  1.00  0.00    -0.245 OA 
HETATM   11  O   UNL     1     -12.200  11.614  68.454  1.00  0.00    -0.498 OA 
HETATM   12  C   UNL     1     -11.290   9.541  70.385  1.00  0.00    -0.264 C  
ENDROOT
BRANCH   4  13
HETATM   13  C   UNL     1      -8.087  11.730  67.094  1.00  0.00    -0.169 C  
BRANCH  13  14
HETATM   14  S   UNL     1      -7.388  13.369  67.411  1.00  0.00    -0.044 SA 
BRANCH  14  15
HETATM   15  C   UNL     1      -8.738  14.428  67.360  1.00  0.00    -0.204 A  
HETATM   16  N   UNL     1      -9.458  14.773  66.322  1.00  0.00    -0.299 NA 
HETATM   17  C   UNL     1      -8.794  15.011  69.830  1.00  0.00     0.133 C  
HETATM   18  N   UNL     1     -10.389  15.670  66.791  1.00  0.00    -0.281 NA 
HETATM   19  N   UNL     1      -9.219  15.078  68.459  1.00  0.00    -0.185 NA 
HETATM   20  N   UNL     1     -10.249  15.863  68.096  1.00  0.00    -0.229 NA 
ENDBRANCH  14  15
ENDBRANCH  13  14
ENDBRANCH   4  13
BRANCH   6  21
HETATM   21  N   UNL     1     -10.196   7.293  71.094  1.00  0.00    -0.191 N  
HETATM   22  H   UNL     1      -9.326   6.843  71.379  1.00  0.00     0.000 HD 
HETATM   23  O   UNL     1     -12.287   6.948  70.241  1.00  0.00    -0.189 OA 
HETATM   24  C   UNL     1     -11.151   6.528  70.448  1.00  0.00    -0.332 C  
BRANCH  24  25
HETATM   25  CA  UNL     1     -10.595   5.196  69.856  1.00  0.00    -0.126 C  
BRANCH  25  26
HETATM   26  C   UNL     1     -10.047   5.406  68.440  1.00  0.00    -0.235 A  
HETATM   27  O   UNL     1      -8.666   6.064  64.559  1.00  0.00    -0.350 OA 
HETATM   28  C   UNL     1      -8.745   5.890  68.223  1.00  0.00    -0.112 A  
HETATM   29  C   UNL     1     -10.349   5.313  66.018  1.00  0.00    -0.176 A  
HETATM   30  C   UNL     1      -9.080   5.839  65.836  1.00  0.00    -0.137 A  
HETATM   31  C   UNL     1      -8.265   6.114  66.927  1.00  0.00    -0.106 A  
HETATM   32  H   UNL     1      -9.223   5.876  63.812  1.00  0.00     0.000 HD 
HETATM   33  C   UNL     1     -10.824   5.083  67.309  1.00  0.00     0.277 A  
ENDBRANCH  25  26
BRANCH  25  34
HETATM   34  N   UNL     1      -9.540   4.719  70.772  1.00  0.00    -0.165 N  
HETATM   35  C   UNL     1      -9.004   3.454  70.665  1.00  0.00    -0.097 C  
HETATM   36  H   UNL     1      -9.199   5.342  71.503  1.00  0.00     0.000 HD 
HETATM   37  O   UNL     1      -9.291   2.667  69.770  1.00  0.00    -0.130 OA 
BRANCH  35  38
HETATM   38  C   UNL     1      -7.979   3.048  71.657  1.00  0.00    -0.057 A  
HETATM   39  O   UNL     1      -6.272   2.748  69.949  1.00  0.00    -0.023 OA 
HETATM   40  C   UNL     1      -6.682   2.718  71.256  1.00  0.00    -0.031 A  
HETATM   41  C   UNL     1      -6.120   2.200  73.520  1.00  0.00    -0.011 A  
HETATM   42  C   UNL     1      -5.735   2.313  72.191  1.00  0.00    -0.008 A  
HETATM   43  H   UNL     1      -5.391   2.524  69.677  1.00  0.00     0.000 HD 
HETATM   44  N   UNL     1      -7.374   2.505  73.939  1.00  0.00    -0.036 NA 
HETATM   45  C   UNL     1      -5.179   1.646  74.549  1.00  0.00     0.000 C  
HETATM   46  C   UNL     1      -8.268   2.916  73.005  1.00  0.00    -0.071 A  
ENDBRANCH  35  38
ENDBRANCH  25  34
ENDBRANCH  24  25
ENDBRANCH   6  21
TORSDOF 8
ENDMDL
MODEL      126
REMARK 921   NORMALIZED FREE ENERGY PREDICTED BY IDOCK:   -3.28 KCAL/MOL
REMARK 922        TOTAL FREE ENERGY PREDICTED BY IDOCK:   -6.63 KCAL/MOL
REMARK 923 INTER-LIGAND FREE ENERGY PREDICTED BY IDOCK:   -7.63 KCAL/MOL
REMARK 924 INTRA-LIGAND FREE ENERGY PREDICTED BY IDOCK:    0.99 KCAL/MOL
REMARK 927      BINDING AFFINITY PREDICTED BY RF-SCORE:    0.00 PKD
ROOT
HETATM    1  C   UNL     1     -11.055   6.238  69.635  1.00  0.00    -0.412 C  
HETATM    2  S   UNL     1     -10.233   6.390  68.024  1.00  0.00    -0.185 SA 
HETATM    3  C   UNL     1      -9.820   4.634  67.960  1.00  0.00    -0.113 C  
HETATM    4  C   UNL     1      -9.172   4.087  69.230  1.00  0.00    -0.219 C  
HETATM    5  CA  UNL     1      -9.267   4.685  70.450  1.00  0.00    -0.125 C  
HETATM    6  CA  UNL     1     -11.145   7.575  70.450  1.00  0.00    -0.261 C  
HETATM    7  O   UNL     1      -9.754   6.945  72.576  1.00  0.00    -0.153 OA 
HETATM    8  N   UNL     1     -10.074   5.784  70.602  1.00  0.00    -0.193 N  
HETATM    9  C   UNL     1      -8.426   4.186  71.613  1.00  0.00    -0.095 C  
HETATM   10  OXT UNL     1      -7.477   3.425  71.488  1.00  0.00    -0.045 OA 
HETATM   11  O   UNL     1      -8.823   4.563  72.843  1.00  0.00    -0.114 OA 
HETATM   12  C   UNL     1     -10.244   6.794  71.482  1.00  0.00    -0.193 C  
ENDROOT
BRANCH   4  13
HETATM   13  C   UNL     1      -8.310   2.867  68.888  1.00  0.00    -0.064 C  
BRANCH  13  14
HETATM   14  S   UNL     1      -6.686   3.222  68.172  1.00  0.00    -0.046 SA 
BRANCH  14  15
HETATM   15  C   UNL     1      -7.027   3.738  66.571  1.00  0.00    -0.059 A  
HETATM   16  N   UNL     1      -7.562   3.049  65.595  1.00  0.00    -0.073 NA 
HETATM   17  C   UNL     1      -6.174   6.118  66.802  1.00  0.00    -0.036 C  
HETATM   18  N   UNL     1      -7.585   3.891  64.508  1.00  0.00    -0.078 NA 
HETATM   19  N   UNL     1      -6.738   4.990  66.113  1.00  0.00    -0.052 NA 
HETATM   20  N   UNL     1      -7.082   5.079  64.815  1.00  0.00    -0.057 NA 
ENDBRANCH  14  15
ENDBRANCH  13  14
ENDBRANCH   4  13
BRANCH   6  21
HETATM   21  N   UNL     1     -10.496   8.746  69.784  1.00  0.00    -0.216 N  
HETATM   22  H   UNL     1      -9.780   9.261  70.297  1.00  0.00     0.000 HD 
HETATM   23  O   UNL     1     -11.530   8.494  67.762  1.00  0.00     0.751 OA 
HETATM   24  C   UNL     1     -10.819   9.166  68.505  1.00  0.00    -0.043 C  
BRANCH  24  25
HETATM   25  CA  UNL     1     -10.362  10.622  68.188  1.00  0.00    -0.176 C  
BRANCH  25  26
HETATM   26  C   UNL     1     -10.426  10.908  66.684  1.00  0.00    -0.307 A  
HETATM   27  O   UNL     1     -10.577  11.822  62.616  1.00  0.00    -0.437 OA 
HETATM   28  C   UNL     1      -9.581  10.246  65.776  1.00  0.00    -0.279 A  
HETATM   29  C   UNL     1     -11.400  12.117  64.798  1.00  0.00    -0.378 A  
HETATM   30  C   UNL     1     -10.520  11.486  63.934  1.00  0.00    -0.385 A  
HETATM   31  C   UNL     1      -9.620  10.539  64.408  1.00  0.00    -0.357 A  
HETATM   32  H   UNL     1     -11.193  12.469  62.292  1.00  0.00     0.000 HD 
HETATM   33  C   UNL     1     -11.366  11.818  66.161  1.00  0.00    -0.342 A  
ENDBRANCH  25  26
BRANCH  25  34
HETATM   34  N   UNL     1     -11.247  11.532  68.943  1.00  0.00    -0.224 N  
HETATM   35  C   UNL     1     -10.866  12.817  69.262  1.00  0.00     0.009 C  
HETATM   36  H   UNL     1     -12.165  11.200  69.236  1.00  0.00     0.000 HD 
HETATM   37  O   UNL     1      -9.818  13.330  68.883  1.00  0.00    -0.063 OA 
BRANCH  35  38
HETATM   38  C   UNL     1     -11.804  13.642  70.060  1.00  0.00    -0.378 A  
HETATM   39  O   UNL     1     -11.137  15.697  68.940  1.00  0.00    -0.253 OA 
HETATM   40  C   UNL     1     -11.892  15.023  69.864  1.00  0.00    -0.324 A  
HETATM   41  C   UNL     1     -13.493  15.166  71.632  1.00  0.00    -0.443 A  
HETATM   42  C   UNL     1     -12.757  15.792  70.635  1.00  0.00    -0.336 A  
HETATM   43  H   UNL     1     -11.198  16.635  68.807  1.00  0.00     0.000 HD 
HETATM   44  N   UNL     1     -13.423  13.829  71.852  1.00  0.00    -0.400 NA 
HETATM   45  C   UNL     1     -14.343  15.964  72.577  1.00  0.00    -0.161 C  
HETATM   46  C   UNL     1     -12.585  13.104  71.070  1.00  0.00    -0.312 A  
ENDBRANCH  35  38
ENDBRANCH  25  34
ENDBRANCH  24  25
ENDBRANCH   6  21
TORSDOF 8
ENDMDL
MODEL      127
REMARK 921   NORMALIZED FREE ENERGY PREDICTED BY IDOCK:   -3.22 KCAL/MOL
REMARK 922        TOTAL FREE ENERGY PREDICTED BY IDOCK:   -6.54 KCAL/MOL
REMARK 923 INTER-LIGAND FREE ENERGY PREDICTED BY IDOCK:   -6.71 KCAL/MOL
REMARK 924 INTRA-LIGAND FREE ENERGY PREDICTED BY IDOCK:    0.17 KCAL/MOL
REMARK 927      BINDING AFFINITY PREDICTED BY RF-SCORE:    0.00 PKD
ROOT
HETATM    1  C   UNL     1     -11.188  14.392  65.767  1.00  0.00    -0.326 C  
HETATM    2  S   UNL     1     -11.980  13.065  66.719  1.00  0.00    -0.316 SA 
HETATM    3  C   UNL     1     -12.734  14.218  67.884  1.00  0.00     0.915 C  
HETATM    4  C   UNL     1     -11.776  15.259  68.458  1.00  0.00    -0.352 C  
HETATM    5  CA  UNL     1     -10.595  15.608  67.875  1.00  0.00    -0.278 C  
HETATM    6  CA  UNL     1      -9.940  13.940  64.931  1.00  0.00    -0.138 C  
HETATM    7  O   UNL     1      -8.062  15.396  66.028  1.00  0.00     0.387 OA 
HETATM    8  N   UNL     1     -10.270  15.092  66.646  1.00  0.00    -0.262 N  
HETATM    9  C   UNL     1      -9.611  16.499  68.615  1.00  0.00    -0.241 C  
HETATM   10  OXT UNL     1      -9.686  16.747  69.810  1.00  0.00     0.070 OA 
HETATM   11  O   UNL     1      -8.661  17.092  67.868  1.00  0.00    -0.209 OA 
HETATM   12  C   UNL     1      -9.172  14.941  65.876  1.00  0.00    -0.080 C  
ENDROOT
BRANCH   4  13
HETATM   13  C   UNL     1     -12.281  15.732  69.825  1.00  0.00    -0.216 C  
BRANCH  13  14
HETATM   14  S   UNL     1     -11.540  14.922  71.264  1.00  0.00    -0.266 SA 
BRANCH  14  15
HETATM   15  C   UNL     1     -12.705  13.757  71.747  1.00  0.00    -0.282 A  
HETATM   16  N   UNL     1     -13.685  13.899  72.603  1.00  0.00    -0.709 NA 
HETATM   17  C   UNL     1     -11.874  11.841  70.304  1.00  0.00    -0.295 C  
HETATM   18  N   UNL     1     -14.304  12.672  72.675  1.00  0.00    -0.011 NA 
HETATM   19  N   UNL     1     -12.719  12.477  71.277  1.00  0.00    -0.324 NA 
HETATM   20  N   UNL     1     -13.718  11.797  71.868  1.00  0.00     0.011 NA 
ENDBRANCH  14  15
ENDBRANCH  13  14
ENDBRANCH   4  13
BRANCH   6  21
HETATM   21  N   UNL     1      -9.582  12.497  65.093  1.00  0.00    -0.468 N  
HETATM   22  H   UNL     1      -9.700  11.875  64.293  1.00  0.00     0.000 HD 
HETATM   23  O   UNL     1      -8.758  12.677  67.216  1.00  0.00    -0.182 OA 
HETATM   24  C   UNL     1      -9.098  11.964  66.276  1.00  0.00    -0.188 C  
BRANCH  24  25
HETATM   25  CA  UNL     1      -9.211  10.411  66.357  1.00  0.00    -0.161 C  
BRANCH  25  26
HETATM   26  C   UNL     1      -8.211   9.734  65.414  1.00  0.00    -0.131 A  
HETATM   27  O   UNL     1      -5.592   7.877  62.750  1.00  0.00    -0.060 OA 
HETATM   28  C   UNL     1      -7.014  10.368  65.038  1.00  0.00    -0.064 A  
HETATM   29  C   UNL     1      -7.563   7.828  64.030  1.00  0.00    -0.113 A  
HETATM   30  C   UNL     1      -6.415   8.499  63.638  1.00  0.00    -0.080 A  
HETATM   31  C   UNL     1      -6.123   9.758  64.147  1.00  0.00    -0.114 A  
HETATM   32  H   UNL     1      -5.791   7.016  62.402  1.00  0.00     0.000 HD 
HETATM   33  C   UNL     1      -8.446   8.433  64.924  1.00  0.00    -0.141 A  
ENDBRANCH  25  26
BRANCH  25  34
HETATM   34  N   UNL     1      -8.965  10.028  67.761  1.00  0.00    -0.131 N  
HETATM   35  C   UNL     1      -9.718   9.062  68.393  1.00  0.00    -0.156 C  
HETATM   36  H   UNL     1      -8.219  10.491  68.278  1.00  0.00     0.000 HD 
HETATM   37  O   UNL     1     -10.580   8.395  67.831  1.00  0.00    -0.220 OA 
BRANCH  35  38
HETATM   38  C   UNL     1      -9.425   8.775  69.818  1.00  0.00    -0.168 A  
HETATM   39  O   UNL     1      -7.206   7.913  69.314  1.00  0.00    -0.076 OA 
HETATM   40  C   UNL     1      -8.202   8.221  70.204  1.00  0.00    -0.118 A  
HETATM   41  C   UNL     1      -8.951   8.160  72.472  1.00  0.00    -0.220 A  
HETATM   42  C   UNL     1      -7.947   7.931  71.540  1.00  0.00    -0.107 A  
HETATM   43  H   UNL     1      -6.375   7.536  69.576  1.00  0.00     0.000 HD 
HETATM   44  N   UNL     1     -10.152   8.689  72.128  1.00  0.00    -0.320 NA 
HETATM   45  C   UNL     1      -8.779   7.747  73.904  1.00  0.00    -0.322 C  
HETATM   46  C   UNL     1     -10.361   8.979  70.819  1.00  0.00    -0.243 A  
ENDBRANCH  35  38
ENDBRANCH  25  34
ENDBRANCH  24  25
ENDBRANCH   6  21
TORSDOF 8
ENDMDL
MODEL      128
REMARK 921   NORMALIZED FREE ENERGY PREDICTED BY IDOCK:   -3.16 KCAL/MOL
REMARK 922        TOTAL FREE ENERGY PREDICTED BY IDOCK:   -6.45 KCAL/MOL
REMARK 923 INTER-LIGAND FREE ENERGY PREDICTED BY IDOCK:   -4.65 KCAL/MOL
REMARK 924 INTRA-LIGAND FREE ENERGY PREDICTED BY IDOCK:   -1.80 KCAL/MOL
REMARK 927      BINDING AFFINITY PREDICTED BY RF-SCORE:    0.00 PKD
ROOT
HETATM    1  C   UNL     1      -6.274  12.071  69.211  1.00  0.00    -0.096 C  
HETATM    2  S   UNL     1      -5.210  12.587  67.834  1.00  0.00    -0.100 SA 
HETATM    3  C   UNL     1      -5.289  14.330  68.296  1.00  0.00    -0.113 C  
HETATM    4  C   UNL     1      -6.699  14.852  68.561  1.00  0.00    -0.092 C  
HETATM    5  CA  UNL     1      -7.762  14.055  68.859  1.00  0.00    -0.069 C  
HETATM    6  CA  UNL     1      -6.999  10.697  68.997  1.00  0.00    -0.080 C  
HETATM    7  O   UNL     1      -9.505  11.449  69.067  1.00  0.00    -0.104 OA 
HETATM    8  N   UNL     1      -7.566  12.710  69.047  1.00  0.00     0.064 N  
HETATM    9  C   UNL     1      -9.166  14.637  68.905  1.00  0.00    -0.151 C  
HETATM   10  OXT UNL     1      -9.459  15.737  68.461  1.00  0.00    -0.192 OA 
HETATM   11  O   UNL     1     -10.096  13.906  69.547  1.00  0.00     0.212 OA 
HETATM   12  C   UNL     1      -8.303  11.579  69.073  1.00  0.00     0.093 C  
ENDROOT
BRANCH   4  13
HETATM   13  C   UNL     1      -6.748  16.363  68.308  1.00  0.00    -0.132 C  
BRANCH  13  14
HETATM   14  S   UNL     1      -6.579  16.882  66.582  1.00  0.00    -0.172 SA 
BRANCH  14  15
HETATM   15  C   UNL     1      -7.616  18.242  66.440  1.00  0.00    -0.252 A  
HETATM   16  N   UNL     1      -8.793  18.423  66.982  1.00  0.00    -0.264 NA 
HETATM   17  C   UNL     1      -6.131  19.632  64.921  1.00  0.00    -0.262 C  
HETATM   18  N   UNL     1      -9.231  19.647  66.533  1.00  0.00    -0.359 NA 
HETATM   19  N   UNL     1      -7.312  19.336  65.683  1.00  0.00    -0.441 NA 
HETATM   20  N   UNL     1      -8.332  20.211  65.737  1.00  0.00    -0.129 NA 
ENDBRANCH  14  15
ENDBRANCH  13  14
ENDBRANCH   4  13
BRANCH   6  21
HETATM   21  N   UNL     1      -6.728  10.060  67.672  1.00  0.00    -0.075 N  
HETATM   22  H   UNL     1      -6.672  10.658  66.847  1.00  0.00     0.000 HD 
HETATM   23  O   UNL     1      -6.419   7.940  68.467  1.00  0.00    -0.050 OA 
HETATM   24  C   UNL     1      -6.549   8.697  67.508  1.00  0.00    -0.058 C  
BRANCH  24  25
HETATM   25  CA  UNL     1      -6.720   8.213  66.035  1.00  0.00    -0.053 C  
BRANCH  25  26
HETATM   26  C   UNL     1      -6.928   6.697  65.971  1.00  0.00    -0.061 A  
HETATM   27  O   UNL     1      -7.583   2.586  65.690  1.00  0.00    -0.073 OA 
HETATM   28  C   UNL     1      -5.847   5.816  65.787  1.00  0.00    -0.021 A  
HETATM   29  C   UNL     1      -8.414   4.758  66.032  1.00  0.00    -0.116 A  
HETATM   30  C   UNL     1      -7.335   3.920  65.800  1.00  0.00    -0.073 A  
HETATM   31  C   UNL     1      -6.049   4.435  65.693  1.00  0.00    -0.027 A  
HETATM   32  H   UNL     1      -8.463   2.234  65.763  1.00  0.00     0.000 HD 
HETATM   33  C   UNL     1      -8.210   6.135  66.134  1.00  0.00    -0.119 A  
ENDBRANCH  25  26
BRANCH  25  34
HETATM   34  N   UNL     1      -7.878   8.935  65.470  1.00  0.00    -0.097 N  
HETATM   35  C   UNL     1      -7.742  10.166  64.866  1.00  0.00    -0.143 C  
HETATM   36  H   UNL     1      -8.803   8.512  65.529  1.00  0.00     0.000 HD 
HETATM   37  O   UNL     1      -6.662  10.715  64.676  1.00  0.00     0.001 OA 
BRANCH  35  38
HETATM   38  C   UNL     1      -8.967  10.834  64.366  1.00  0.00    -0.176 A  
HETATM   39  O   UNL     1      -8.963  12.461  66.175  1.00  0.00    -0.405 OA 
HETATM   40  C   UNL     1      -9.511  11.933  65.036  1.00  0.00    -0.009 A  
HETATM   41  C   UNL     1     -11.309  11.995  63.463  1.00  0.00    -0.442 A  
HETATM   42  C   UNL     1     -10.676  12.537  64.574  1.00  0.00    -0.360 A  
HETATM   43  H   UNL     1      -9.333  13.208  66.630  1.00  0.00     0.000 HD 
HETATM   44  N   UNL     1     -10.810  10.924  62.796  1.00  0.00     0.541 NA 
HETATM   45  C   UNL     1     -12.634  12.524  62.998  1.00  0.00     0.057 C  
HETATM   46  C   UNL     1      -9.662  10.371  63.261  1.00  0.00    -0.255 A  
ENDBRANCH  35  38
ENDBRANCH  25  34
ENDBRANCH  24  25
ENDBRANCH   6  21
TORSDOF 8
ENDMDL
MODEL      129
REMARK 921   NORMALIZED FREE ENERGY PREDICTED BY IDOCK:   -2.95 KCAL/MOL
REMARK 922        TOTAL FREE ENERGY PREDICTED BY IDOCK:   -6.15 KCAL/MOL
REMARK 923 INTER-LIGAND FREE ENERGY PREDICTED BY IDOCK:   -5.67 KCAL/MOL
REMARK 924 INTRA-LIGAND FREE ENERGY PREDICTED BY IDOCK:   -0.48 KCAL/MOL
REMARK 927      BINDING AFFINITY PREDICTED BY RF-SCORE:    0.00 PKD
ROOT
HETATM    1  C   UNL     1      -9.927  12.462  66.531  1.00  0.00    -0.230 C  
HETATM    2  S   UNL     1     -11.009  11.679  67.761  1.00  0.00    -0.251 SA 
HETATM    3  C   UNL     1     -11.672  13.259  68.328  1.00  0.00    -0.353 C  
HETATM    4  C   UNL     1     -10.616  14.318  68.633  1.00  0.00    -0.254 C  
HETATM    5  CA  UNL     1      -9.346  14.288  68.143  1.00  0.00    -0.206 C  
HETATM    6  CA  UNL     1      -8.697  11.592  66.097  1.00  0.00    -0.094 C  
HETATM    7  O   UNL     1      -6.719  13.120  66.875  1.00  0.00     0.038 OA 
HETATM    8  N   UNL     1      -8.995  13.323  67.233  1.00  0.00    -0.208 N  
HETATM    9  C   UNL     1      -8.304  15.268  68.660  1.00  0.00    -0.162 C  
HETATM   10  OXT UNL     1      -8.449  15.944  69.668  1.00  0.00    -0.170 OA 
HETATM   11  O   UNL     1      -7.206  15.430  67.898  1.00  0.00    -0.121 OA 
HETATM   12  C   UNL     1      -7.868  12.774  66.732  1.00  0.00     0.217 C  
ENDROOT
BRANCH   4  13
HETATM   13  C   UNL     1     -11.164  15.315  69.660  1.00  0.00    -0.278 C  
BRANCH  13  14
HETATM   14  S   UNL     1     -10.543  15.129  71.351  1.00  0.00     0.859 SA 
BRANCH  14  15
HETATM   15  C   UNL     1     -11.862  15.596  72.345  1.00  0.00    -0.483 A  
HETATM   16  N   UNL     1     -11.944  16.622  73.153  1.00  0.00    -0.423 NA 
HETATM   17  C   UNL     1     -13.440  13.712  71.706  1.00  0.00    -0.384 C  
HETATM   18  N   UNL     1     -13.180  16.534  73.750  1.00  0.00    -0.489 NA 
HETATM   19  N   UNL     1     -13.028  14.891  72.417  1.00  0.00    -0.328 NA 
HETATM   20  N   UNL     1     -13.848  15.478  73.307  1.00  0.00    -0.286 NA 
ENDBRANCH  14  15
ENDBRANCH  13  14
ENDBRANCH   4  13
BRANCH   6  21
HETATM   21  N   UNL     1      -8.592  10.279  66.803  1.00  0.00    -0.126 N  
HETATM   22  H   UNL     1      -9.406   9.936  67.314  1.00  0.00     0.000 HD 
HETATM   23  O   UNL     1      -6.496   9.757  66.061  1.00  0.00    -0.074 OA 
HETATM   24  C   UNL     1      -7.445   9.504  66.798  1.00  0.00    -0.094 C  
BRANCH  24  25
HETATM   25  CA  UNL     1      -7.408   8.430  67.927  1.00  0.00    -0.096 C  
BRANCH  25  26
HETATM   26  C   UNL     1      -8.628   8.551  68.846  1.00  0.00    -0.127 A  
HETATM   27  O   UNL     1     -11.947   9.021  71.331  1.00  0.00    -0.295 OA 
HETATM   28  C   UNL     1      -9.828   7.873  68.564  1.00  0.00    -0.186 A  
HETATM   29  C   UNL     1      -9.691   9.470  70.845  1.00  0.00    -0.242 A  
HETATM   30  C   UNL     1     -10.875   8.830  70.514  1.00  0.00    -0.233 A  
HETATM   31  C   UNL     1     -10.949   8.018  69.389  1.00  0.00    -0.021 A  
HETATM   32  H   UNL     1     -11.896   9.577  72.100  1.00  0.00     0.000 HD 
HETATM   33  C   UNL     1      -8.571   9.319  70.027  1.00  0.00    -0.193 A  
ENDBRANCH  25  26
BRANCH  25  34
HETATM   34  N   UNL     1      -7.362   7.108  67.271  1.00  0.00    -0.089 N  
HETATM   35  C   UNL     1      -6.225   6.648  66.644  1.00  0.00    -0.040 C  
HETATM   36  H   UNL     1      -8.195   6.520  67.283  1.00  0.00     0.000 HD 
HETATM   37  O   UNL     1      -5.155   7.247  66.650  1.00  0.00    -0.021 OA 
BRANCH  35  38
HETATM   38  C   UNL     1      -6.287   5.326  65.976  1.00  0.00    -0.035 A  
HETATM   39  O   UNL     1      -6.603   4.143  68.078  1.00  0.00    -0.041 OA 
HETATM   40  C   UNL     1      -6.469   4.154  66.714  1.00  0.00    -0.041 A  
HETATM   41  C   UNL     1      -6.299   2.868  64.708  1.00  0.00    -0.023 A  
HETATM   42  C   UNL     1      -6.499   2.916  66.081  1.00  0.00    -0.028 A  
HETATM   43  H   UNL     1      -6.726   3.346  68.580  1.00  0.00     0.000 HD 
HETATM   44  N   UNL     1      -6.112   3.987  63.964  1.00  0.00    -0.017 NA 
HETATM   45  C   UNL     1      -6.193   1.554  63.991  1.00  0.00    -0.013 C  
HETATM   46  C   UNL     1      -6.107   5.180  64.610  1.00  0.00    -0.022 A  
ENDBRANCH  35  38
ENDBRANCH  25  34
ENDBRANCH  24  25
ENDBRANCH   6  21
TORSDOF 8
ENDMDL
MODEL      130
REMARK 921   NORMALIZED FREE ENERGY PREDICTED BY IDOCK:   -2.94 KCAL/MOL
REMARK 922        TOTAL FREE ENERGY PREDICTED BY IDOCK:   -6.13 KCAL/MOL
REMARK 923 INTER-LIGAND FREE ENERGY PREDICTED BY IDOCK:   -3.70 KCAL/MOL
REMARK 924 INTRA-LIGAND FREE ENERGY PREDICTED BY IDOCK:   -2.43 KCAL/MOL
REMARK 927      BINDING AFFINITY PREDICTED BY RF-SCORE:    0.00 PKD
ROOT
HETATM    1  C   UNL     1      -9.640   8.789  65.261  1.00  0.00     0.307 C  
HETATM    2  S   UNL     1      -7.943   9.335  65.600  1.00  0.00    -0.105 SA 
HETATM    3  C   UNL     1      -7.219   8.067  64.538  1.00  0.00    -0.084 C  
HETATM    4  C   UNL     1      -7.753   6.657  64.779  1.00  0.00    -0.111 C  
HETATM    5  CA  UNL     1      -8.939   6.388  65.392  1.00  0.00     0.126 C  
HETATM    6  CA  UNL     1     -10.687   9.198  66.355  1.00  0.00     0.251 C  
HETATM    7  O   UNL     1     -11.491   6.843  67.166  1.00  0.00    -0.166 OA 
HETATM    8  N   UNL     1      -9.776   7.422  65.727  1.00  0.00     0.381 N  
HETATM    9  C   UNL     1      -9.296   4.960  65.772  1.00  0.00    -0.161 C  
HETATM   10  OXT UNL     1      -8.493   4.039  65.785  1.00  0.00    -0.108 OA 
HETATM   11  O   UNL     1     -10.595   4.716  66.029  1.00  0.00    -0.302 OA 
HETATM   12  C   UNL     1     -10.834   7.638  66.538  1.00  0.00     0.600 C  
ENDROOT
BRANCH   4  13
HETATM   13  C   UNL     1      -6.704   5.625  64.353  1.00  0.00    -0.046 C  
BRANCH  13  14
HETATM   14  S   UNL     1      -5.158   5.635  65.295  1.00  0.00    -0.009 SA 
BRANCH  14  15
HETATM   15  C   UNL     1      -5.542   4.820  66.756  1.00  0.00    -0.014 A  
HETATM   16  N   UNL     1      -5.457   3.540  67.016  1.00  0.00    -0.020 NA 
HETATM   17  C   UNL     1      -6.266   6.856  68.089  1.00  0.00    -0.034 C  
HETATM   18  N   UNL     1      -5.918   3.386  68.303  1.00  0.00    -0.026 NA 
HETATM   19  N   UNL     1      -6.025   5.458  67.861  1.00  0.00    -0.017 NA 
HETATM   20  N   UNL     1      -6.268   4.553  68.826  1.00  0.00    -0.031 NA 
ENDBRANCH  14  15
ENDBRANCH  13  14
ENDBRANCH   4  13
BRANCH   6  21
HETATM   21  N   UNL     1     -10.104   9.931  67.520  1.00  0.00    -0.185 N  
HETATM   22  H   UNL     1      -9.739   9.387  68.302  1.00  0.00     0.000 HD 
HETATM   23  O   UNL     1     -10.284  12.023  66.619  1.00  0.00    -0.201 OA 
HETATM   24  C   UNL     1     -10.037  11.312  67.590  1.00  0.00    -0.179 C  
BRANCH  24  25
HETATM   25  CA  UNL     1      -9.811  11.857  69.033  1.00  0.00     0.139 C  
BRANCH  25  26
HETATM   26  C   UNL     1     -10.903  12.859  69.423  1.00  0.00     0.049 A  
HETATM   27  O   UNL     1     -13.920  15.588  70.349  1.00  0.00    -0.633 OA 
HETATM   28  C   UNL     1     -11.843  12.565  70.427  1.00  0.00    -0.246 A  
HETATM   29  C   UNL     1     -11.993  15.026  69.126  1.00  0.00    -0.308 A  
HETATM   30  C   UNL     1     -12.935  14.687  70.085  1.00  0.00    -0.022 A  
HETATM   31  C   UNL     1     -12.860  13.470  70.752  1.00  0.00    -0.243 A  
HETATM   32  H   UNL     1     -13.972  16.420  69.893  1.00  0.00     0.000 HD 
HETATM   33  C   UNL     1     -10.975  14.126  68.809  1.00  0.00    -0.275 A  
ENDBRANCH  25  26
BRANCH  25  34
HETATM   34  N   UNL     1      -9.803  10.695  69.943  1.00  0.00    -0.392 N  
HETATM   35  C   UNL     1      -8.738   9.823  69.999  1.00  0.00    -0.209 C  
HETATM   36  H   UNL     1     -10.608  10.532  70.547  1.00  0.00     0.000 HD 
HETATM   37  O   UNL     1      -7.695   9.983  69.374  1.00  0.00    -0.101 OA 
BRANCH  35  38
HETATM   38  C   UNL     1      -8.838   8.660  70.912  1.00  0.00    -0.221 A  
HETATM   39  O   UNL     1     -10.907   7.886  69.894  1.00  0.00    -0.247 OA 
HETATM   40  C   UNL     1      -9.903   7.761  70.818  1.00  0.00    -0.180 A  
HETATM   41  C   UNL     1      -9.047   6.557  72.696  1.00  0.00    -0.131 A  
HETATM   42  C   UNL     1     -10.003   6.687  71.697  1.00  0.00    -0.187 A  
HETATM   43  H   UNL     1     -11.631   7.274  69.829  1.00  0.00     0.000 HD 
HETATM   44  N   UNL     1      -8.006   7.417  72.819  1.00  0.00    -0.097 NA 
HETATM   45  C   UNL     1      -9.176   5.495  73.748  1.00  0.00    -0.126 C  
HETATM   46  C   UNL     1      -7.928   8.443  71.934  1.00  0.00    -0.136 A  
ENDBRANCH  35  38
ENDBRANCH  25  34
ENDBRANCH  24  25
ENDBRANCH   6  21
TORSDOF 8
ENDMDL
MODEL      131
REMARK 921   NORMALIZED FREE ENERGY PREDICTED BY IDOCK:   -2.88 KCAL/MOL
REMARK 922        TOTAL FREE ENERGY PREDICTED BY IDOCK:   -6.04 KCAL/MOL
REMARK 923 INTER-LIGAND FREE ENERGY PREDICTED BY IDOCK:   -6.29 KCAL/MOL
REMARK 924 INTRA-LIGAND FREE ENERGY PREDICTED BY IDOCK:    0.24 KCAL/MOL
REMARK 927      BINDING AFFINITY PREDICTED BY RF-SCORE:    0.00 PKD
ROOT
HETATM    1  C   UNL     1      -9.979  10.724  67.448  1.00  0.00    -0.184 C  
HETATM    2  S   UNL     1     -10.049  11.603  69.035  1.00  0.00     0.076 SA 
HETATM    3  C   UNL     1      -9.397  13.131  68.329  1.00  0.00    -0.201 C  
HETATM    4  C   UNL     1      -8.143  12.952  67.477  1.00  0.00    -0.181 C  
HETATM    5  CA  UNL     1      -7.766  11.769  66.918  1.00  0.00    -0.129 C  
HETATM    6  CA  UNL     1      -9.923   9.162  67.570  1.00  0.00    -0.205 C  
HETATM    7  O   UNL     1      -7.611   8.667  66.447  1.00  0.00    -0.089 OA 
HETATM    8  N   UNL     1      -8.595  10.681  67.016  1.00  0.00    -0.128 N  
HETATM    9  C   UNL     1      -6.402  11.635  66.259  1.00  0.00     0.225 C  
HETATM   10  OXT UNL     1      -5.500  12.448  66.394  1.00  0.00    -0.049 OA 
HETATM   11  O   UNL     1      -6.240  10.589  65.427  1.00  0.00    -0.124 OA 
HETATM   12  C   UNL     1      -8.518   9.340  66.877  1.00  0.00    -0.127 C  
ENDROOT
BRANCH   4  13
HETATM   13  C   UNL     1      -7.332  14.252  67.470  1.00  0.00    -0.179 C  
BRANCH  13  14
HETATM   14  S   UNL     1      -8.265  15.768  67.799  1.00  0.00    -0.148 SA 
BRANCH  14  15
HETATM   15  C   UNL     1      -7.663  16.899  66.657  1.00  0.00    -0.263 A  
HETATM   16  N   UNL     1      -6.430  17.058  66.248  1.00  0.00    -0.206 NA 
HETATM   17  C   UNL     1      -9.870  18.033  66.119  1.00  0.00    -0.249 C  
HETATM   18  N   UNL     1      -6.458  18.115  65.368  1.00  0.00    -0.349 NA 
HETATM   19  N   UNL     1      -8.451  17.821  66.033  1.00  0.00    -0.522 NA 
HETATM   20  N   UNL     1      -7.689  18.588  65.232  1.00  0.00     0.131 NA 
ENDBRANCH  14  15
ENDBRANCH  13  14
ENDBRANCH   4  13
BRANCH   6  21
HETATM   21  N   UNL     1      -9.890   8.655  68.976  1.00  0.00    -0.177 N  
HETATM   22  H   UNL     1     -10.776   8.484  69.451  1.00  0.00     0.000 HD 
HETATM   23  O   UNL     1      -7.622   8.414  69.105  1.00  0.00    -0.084 OA 
HETATM   24  C   UNL     1      -8.715   8.409  69.665  1.00  0.00    -0.133 C  
BRANCH  24  25
HETATM   25  CA  UNL     1      -8.901   8.319  71.211  1.00  0.00    -0.156 C  
BRANCH  25  26
HETATM   26  C   UNL     1     -10.366   8.533  71.605  1.00  0.00    -0.333 A  
HETATM   27  O   UNL     1     -14.377   9.178  72.553  1.00  0.00    -0.652 OA 
HETATM   28  C   UNL     1     -11.189   7.456  71.981  1.00  0.00    -0.289 A  
HETATM   29  C   UNL     1     -12.268  10.026  71.954  1.00  0.00    -0.269 A  
HETATM   30  C   UNL     1     -13.067   8.939  72.271  1.00  0.00    -0.436 A  
HETATM   31  C   UNL     1     -12.536   7.656  72.303  1.00  0.00    -0.184 A  
HETATM   32  H   UNL     1     -14.741  10.056  72.531  1.00  0.00     0.000 HD 
HETATM   33  C   UNL     1     -10.923   9.827  71.640  1.00  0.00     0.027 A  
ENDBRANCH  25  26
BRANCH  25  34
HETATM   34  N   UNL     1      -8.424   6.986  71.631  1.00  0.00    -0.115 N  
HETATM   35  C   UNL     1      -7.573   6.824  72.703  1.00  0.00    -0.091 C  
HETATM   36  H   UNL     1      -8.731   6.163  71.114  1.00  0.00     0.000 HD 
HETATM   37  O   UNL     1      -7.216   7.743  73.433  1.00  0.00    -0.088 OA 
BRANCH  35  38
HETATM   38  C   UNL     1      -7.114   5.452  73.024  1.00  0.00    -0.089 A  
HETATM   39  O   UNL     1      -9.375   4.667  73.461  1.00  0.00    -0.121 OA 
HETATM   40  C   UNL     1      -8.023   4.454  73.384  1.00  0.00    -0.094 A  
HETATM   41  C   UNL     1      -6.213   2.930  73.713  1.00  0.00    -0.019 A  
HETATM   42  C   UNL     1      -7.580   3.177  73.709  1.00  0.00    -0.057 A  
HETATM   43  H   UNL     1      -9.993   3.989  73.705  1.00  0.00     0.000 HD 
HETATM   44  N   UNL     1      -5.304   3.879  73.377  1.00  0.00     0.000 NA 
HETATM   45  C   UNL     1      -5.672   1.610  74.179  1.00  0.00     0.000 C  
HETATM   46  C   UNL     1      -5.771   5.109  73.046  1.00  0.00    -0.022 A  
ENDBRANCH  35  38
ENDBRANCH  25  34
ENDBRANCH  24  25
ENDBRANCH   6  21
TORSDOF 8
ENDMDL
MODEL      132
REMARK 921   NORMALIZED FREE ENERGY PREDICTED BY IDOCK:   -2.77 KCAL/MOL
REMARK 922        TOTAL FREE ENERGY PREDICTED BY IDOCK:   -5.88 KCAL/MOL
REMARK 923 INTER-LIGAND FREE ENERGY PREDICTED BY IDOCK:   -5.80 KCAL/MOL
REMARK 924 INTRA-LIGAND FREE ENERGY PREDICTED BY IDOCK:   -0.08 KCAL/MOL
REMARK 927      BINDING AFFINITY PREDICTED BY RF-SCORE:    0.00 PKD
ROOT
HETATM    1  C   UNL     1      -9.229  10.515  65.234  1.00  0.00    -0.200 C  
HETATM    2  S   UNL     1     -10.134   9.819  66.644  1.00  0.00    -0.234 SA 
HETATM    3  C   UNL     1      -9.871  11.286  67.662  1.00  0.00    -0.175 C  
HETATM    4  C   UNL     1      -8.427  11.781  67.702  1.00  0.00    -0.149 C  
HETATM    5  CA  UNL     1      -7.490  11.467  66.764  1.00  0.00    -0.118 C  
HETATM    6  CA  UNL     1      -8.666   9.449  64.230  1.00  0.00    -0.197 C  
HETATM    7  O   UNL     1      -6.096   9.908  64.420  1.00  0.00    -0.101 OA 
HETATM    8  N   UNL     1      -7.861  10.758  65.650  1.00  0.00    -0.120 N  
HETATM    9  C   UNL     1      -6.032  11.833  66.989  1.00  0.00    -0.153 C  
HETATM   10  OXT UNL     1      -5.579  12.186  68.068  1.00  0.00    -0.050 OA 
HETATM   11  O   UNL     1      -5.240  11.830  65.900  1.00  0.00    -0.245 OA 
HETATM   12  C   UNL     1      -7.271  10.033  64.676  1.00  0.00    -0.140 C  
ENDROOT
BRANCH   4  13
HETATM   13  C   UNL     1      -8.179  12.551  69.003  1.00  0.00     0.375 C  
BRANCH  13  14
HETATM   14  S   UNL     1      -8.359  14.350  68.903  1.00  0.00    -0.022 SA 
BRANCH  14  15
HETATM   15  C   UNL     1     -10.053  14.615  68.991  1.00  0.00    -0.209 A  
HETATM   16  N   UNL     1     -10.783  14.845  70.052  1.00  0.00    -0.186 NA 
HETATM   17  C   UNL     1     -10.548  14.410  66.509  1.00  0.00    -0.296 C  
HETATM   18  N   UNL     1     -12.080  14.945  69.604  1.00  0.00    -0.304 NA 
HETATM   19  N   UNL     1     -10.869  14.592  67.898  1.00  0.00    -0.252 NA 
HETATM   20  N   UNL     1     -12.141  14.791  68.288  1.00  0.00    -0.210 NA 
ENDBRANCH  14  15
ENDBRANCH  13  14
ENDBRANCH   4  13
BRANCH   6  21
HETATM   21  N   UNL     1      -8.930   8.032  64.626  1.00  0.00    -0.198 N  
HETATM   22  H   UNL     1      -9.551   7.472  64.042  1.00  0.00     0.000 HD 
HETATM   23  O   UNL     1      -7.480   7.989  66.391  1.00  0.00    -0.084 OA 
HETATM   24  C   UNL     1      -8.372   7.443  65.748  1.00  0.00    -0.139 C  
BRANCH  24  25
HETATM   25  CA  UNL     1      -9.107   6.146  66.207  1.00  0.00    -0.154 C  
BRANCH  25  26
HETATM   26  C   UNL     1      -8.705   4.947  65.342  1.00  0.00    -0.143 A  
HETATM   27  O   UNL     1      -7.534   1.632  63.095  1.00  0.00    -0.046 OA 
HETATM   28  C   UNL     1      -9.671   4.112  64.751  1.00  0.00    -0.187 A  
HETATM   29  C   UNL     1      -6.973   3.551  64.331  1.00  0.00    -0.053 A  
HETATM   30  C   UNL     1      -7.947   2.718  63.804  1.00  0.00    -0.081 A  
HETATM   31  C   UNL     1      -9.295   2.998  63.993  1.00  0.00    -0.120 A  
HETATM   32  H   UNL     1      -6.612   1.441  62.966  1.00  0.00     0.000 HD 
HETATM   33  C   UNL     1      -7.348   4.667  65.080  1.00  0.00    -0.072 A  
ENDBRANCH  25  26
BRANCH  25  34
HETATM   34  N   UNL     1      -8.758   5.924  67.624  1.00  0.00    -0.105 N  
HETATM   35  C   UNL     1      -9.723   5.731  68.588  1.00  0.00    -0.131 C  
HETATM   36  H   UNL     1      -7.776   5.913  67.896  1.00  0.00     0.000 HD 
HETATM   37  O   UNL     1     -10.921   5.646  68.344  1.00  0.00    -0.176 OA 
BRANCH  35  38
HETATM   38  C   UNL     1      -9.278   5.558  69.992  1.00  0.00    -0.172 A  
HETATM   39  O   UNL     1     -11.063   6.966  70.858  1.00  0.00    -0.250 OA 
HETATM   40  C   UNL     1      -9.959   6.176  71.043  1.00  0.00    -0.184 A  
HETATM   41  C   UNL     1      -8.363   5.296  72.588  1.00  0.00    -0.114 A  
HETATM   42  C   UNL     1      -9.518   6.029  72.355  1.00  0.00    -0.153 A  
HETATM   43  H   UNL     1     -11.526   7.386  71.572  1.00  0.00     0.000 HD 
HETATM   44  N   UNL     1      -7.675   4.690  71.588  1.00  0.00    -0.092 NA 
HETATM   45  C   UNL     1      -7.770   5.211  73.964  1.00  0.00    -0.094 C  
HETATM   46  C   UNL     1      -8.142   4.837  70.323  1.00  0.00    -0.072 A  
ENDBRANCH  35  38
ENDBRANCH  25  34
ENDBRANCH  24  25
ENDBRANCH   6  21
TORSDOF 8
ENDMDL
MODEL      133
REMARK 921   NORMALIZED FREE ENERGY PREDICTED BY IDOCK:   -2.70 KCAL/MOL
REMARK 922        TOTAL FREE ENERGY PREDICTED BY IDOCK:   -5.78 KCAL/MOL
REMARK 923 INTER-LIGAND FREE ENERGY PREDICTED BY IDOCK:   -4.19 KCAL/MOL
REMARK 924 INTRA-LIGAND FREE ENERGY PREDICTED BY IDOCK:   -1.59 KCAL/MOL
REMARK 927      BINDING AFFINITY PREDICTED BY RF-SCORE:    0.00 PKD
ROOT
HETATM    1  C   UNL     1      -8.283  10.476  65.232  1.00  0.00    -0.146 C  
HETATM    2  S   UNL     1      -9.887   9.844  65.799  1.00  0.00    -0.283 SA 
HETATM    3  C   UNL     1     -10.505  11.492  66.199  1.00  0.00    -0.251 C  
HETATM    4  C   UNL     1      -9.551  12.343  67.034  1.00  0.00    -0.211 C  
HETATM    5  CA  UNL     1      -8.212  12.114  67.125  1.00  0.00    -0.182 C  
HETATM    6  CA  UNL     1      -7.119   9.425  65.267  1.00  0.00    -0.092 C  
HETATM    7  O   UNL     1      -5.485  10.563  66.966  1.00  0.00    -0.040 OA 
HETATM    8  N   UNL     1      -7.638  11.138  66.350  1.00  0.00    -0.136 N  
HETATM    9  C   UNL     1      -7.373  12.881  68.135  1.00  0.00    -0.119 C  
HETATM   10  OXT UNL     1      -7.845  13.534  69.054  1.00  0.00    -0.002 OA 
HETATM   11  O   UNL     1      -6.042  12.882  67.930  1.00  0.00    -0.094 OA 
HETATM   12  C   UNL     1      -6.494  10.423  66.316  1.00  0.00    -0.102 C  
ENDROOT
BRANCH   4  13
HETATM   13  C   UNL     1     -10.346  13.379  67.834  1.00  0.00    -0.238 C  
BRANCH  13  14
HETATM   14  S   UNL     1     -12.065  13.626  67.321  1.00  0.00    -0.286 SA 
BRANCH  14  15
HETATM   15  C   UNL     1     -11.949  14.258  65.729  1.00  0.00    -0.393 A  
HETATM   16  N   UNL     1     -11.152  15.196  65.286  1.00  0.00    -0.368 NA 
HETATM   17  C   UNL     1     -13.746  12.810  64.669  1.00  0.00     1.948 C  
HETATM   18  N   UNL     1     -11.474  15.369  63.959  1.00  0.00    -0.112 NA 
HETATM   19  N   UNL     1     -12.740  13.836  64.700  1.00  0.00    -0.670 NA 
HETATM   20  N   UNL     1     -12.444  14.542  63.594  1.00  0.00    -0.703 NA 
ENDBRANCH  14  15
ENDBRANCH  13  14
ENDBRANCH   4  13
BRANCH   6  21
HETATM   21  N   UNL     1      -7.514   8.088  65.806  1.00  0.00    -0.079 N  
HETATM   22  H   UNL     1      -8.489   7.799  65.721  1.00  0.00     0.000 HD 
HETATM   23  O   UNL     1      -5.409   7.417  66.389  1.00  0.00    -0.023 OA 
HETATM   24  C   UNL     1      -6.621   7.222  66.414  1.00  0.00    -0.053 C  
BRANCH  24  25
HETATM   25  CA  UNL     1      -7.307   6.116  67.274  1.00  0.00    -0.077 C  
BRANCH  25  26
HETATM   26  C   UNL     1      -8.049   6.724  68.469  1.00  0.00    -0.120 A  
HETATM   27  O   UNL     1     -10.071   8.505  71.654  1.00  0.00    -0.218 OA 
HETATM   28  C   UNL     1      -9.265   6.187  68.927  1.00  0.00    -0.125 A  
HETATM   29  C   UNL     1      -8.203   8.410  70.231  1.00  0.00    -0.121 A  
HETATM   30  C   UNL     1      -9.424   7.889  70.627  1.00  0.00    -0.162 A  
HETATM   31  C   UNL     1      -9.955   6.771  69.996  1.00  0.00    -0.189 A  
HETATM   32  H   UNL     1      -9.708   9.270  72.086  1.00  0.00     0.000 HD 
HETATM   33  C   UNL     1      -7.511   7.822  69.171  1.00  0.00    -0.094 A  
ENDBRANCH  25  26
BRANCH  25  34
HETATM   34  N   UNL     1      -8.232   5.385  66.386  1.00  0.00    -0.109 N  
HETATM   35  C   UNL     1      -8.065   4.046  66.107  1.00  0.00    -0.098 C  
HETATM   36  H   UNL     1      -9.017   5.884  65.968  1.00  0.00     0.000 HD 
HETATM   37  O   UNL     1      -7.203   3.345  66.627  1.00  0.00    -0.064 OA 
BRANCH  35  38
HETATM   38  C   UNL     1      -9.020   3.406  65.171  1.00  0.00    -0.138 A  
HETATM   39  O   UNL     1      -9.319   5.452  63.888  1.00  0.00    -0.240 OA 
HETATM   40  C   UNL     1      -9.594   4.130  64.123  1.00  0.00    -0.148 A  
HETATM   41  C   UNL     1     -10.873   2.210  63.503  1.00  0.00    -0.127 A  
HETATM   42  C   UNL     1     -10.509   3.528  63.265  1.00  0.00    -0.235 A  
HETATM   43  H   UNL     1      -9.709   5.944  63.176  1.00  0.00     0.000 HD 
HETATM   44  N   UNL     1     -10.341   1.483  64.517  1.00  0.00     0.337 NA 
HETATM   45  C   UNL     1     -11.949   1.551  62.691  1.00  0.00     0.297 C  
HETATM   46  C   UNL     1      -9.437   2.094  65.323  1.00  0.00     0.072 A  
ENDBRANCH  35  38
ENDBRANCH  25  34
ENDBRANCH  24  25
ENDBRANCH   6  21
TORSDOF 8
ENDMDL
MODEL      134
REMARK 921   NORMALIZED FREE ENERGY PREDICTED BY IDOCK:   -2.67 KCAL/MOL
REMARK 922        TOTAL FREE ENERGY PREDICTED BY IDOCK:   -5.73 KCAL/MOL
REMARK 923 INTER-LIGAND FREE ENERGY PREDICTED BY IDOCK:   -7.41 KCAL/MOL
REMARK 924 INTRA-LIGAND FREE ENERGY PREDICTED BY IDOCK:    1.67 KCAL/MOL
REMARK 927      BINDING AFFINITY PREDICTED BY RF-SCORE:    0.00 PKD
ROOT
HETATM    1  C   UNL     1      -8.355   9.285  70.674  1.00  0.00    -0.207 C  
HETATM    2  S   UNL     1      -8.263  10.142  69.077  1.00  0.00    -0.143 SA 
HETATM    3  C   UNL     1      -9.541  11.333  69.531  1.00  0.00     0.496 C  
HETATM    4  C   UNL     1     -10.804  10.713  70.124  1.00  0.00    -0.224 C  
HETATM    5  CA  UNL     1     -10.853   9.469  70.676  1.00  0.00    -0.306 C  
HETATM    6  CA  UNL     1      -7.834   7.806  70.652  1.00  0.00    -0.096 C  
HETATM    7  O   UNL     1     -10.009   6.512  71.321  1.00  0.00    -0.181 OA 
HETATM    8  N   UNL     1      -9.694   8.748  70.822  1.00  0.00    -0.192 N  
HETATM    9  C   UNL     1     -12.190   8.854  71.056  1.00  0.00    -0.203 C  
HETATM   10  OXT UNL     1     -13.269   9.293  70.687  1.00  0.00     0.072 OA 
HETATM   11  O   UNL     1     -12.149   7.813  71.910  1.00  0.00    -0.284 OA 
HETATM   12  C   UNL     1      -9.326   7.467  71.035  1.00  0.00    -0.156 C  
ENDROOT
BRANCH   4  13
HETATM   13  C   UNL     1     -12.000  11.639  69.879  1.00  0.00    -0.340 C  
BRANCH  13  14
HETATM   14  S   UNL     1     -11.622  13.231  69.104  1.00  0.00    -0.335 SA 
BRANCH  14  15
HETATM   15  C   UNL     1     -11.811  14.378  70.367  1.00  0.00    -0.312 A  
HETATM   16  N   UNL     1     -11.111  15.462  70.587  1.00  0.00    -0.324 NA 
HETATM   17  C   UNL     1     -13.776  13.268  71.529  1.00  0.00     0.048 C  
HETATM   18  N   UNL     1     -11.624  16.013  71.739  1.00  0.00    -0.464 NA 
HETATM   19  N   UNL     1     -12.754  14.261  71.346  1.00  0.00    -0.332 NA 
HETATM   20  N   UNL     1     -12.627  15.284  72.209  1.00  0.00    -0.332 NA 
ENDBRANCH  14  15
ENDBRANCH  13  14
ENDBRANCH   4  13
BRANCH   6  21
HETATM   21  N   UNL     1      -7.390   7.331  69.306  1.00  0.00    -0.084 N  
HETATM   22  H   UNL     1      -6.462   7.599  68.979  1.00  0.00     0.000 HD 
HETATM   23  O   UNL     1      -9.220   6.033  68.878  1.00  0.00    -0.124 OA 
HETATM   24  C   UNL     1      -8.177   6.545  68.482  1.00  0.00    -0.121 C  
BRANCH  24  25
HETATM   25  CA  UNL     1      -7.715   6.539  66.993  1.00  0.00    -0.100 C  
BRANCH  25  26
HETATM   26  C   UNL     1      -8.220   5.290  66.262  1.00  0.00    -0.109 A  
HETATM   27  O   UNL     1      -9.635   1.836  64.398  1.00  0.00    -0.136 OA 
HETATM   28  C   UNL     1      -9.172   5.379  65.231  1.00  0.00    -0.009 A  
HETATM   29  C   UNL     1      -8.201   2.867  65.950  1.00  0.00    -0.089 A  
HETATM   30  C   UNL     1      -9.176   2.982  64.972  1.00  0.00    -0.149 A  
HETATM   31  C   UNL     1      -9.655   4.230  64.594  1.00  0.00    -0.160 A  
HETATM   32  H   UNL     1      -9.307   0.982  64.657  1.00  0.00     0.000 HD 
HETATM   33  C   UNL     1      -7.713   4.013  66.579  1.00  0.00    -0.089 A  
ENDBRANCH  25  26
BRANCH  25  34
HETATM   34  N   UNL     1      -8.237   7.770  66.368  1.00  0.00    -0.111 N  
HETATM   35  C   UNL     1      -9.538   8.184  66.555  1.00  0.00    -0.234 C  
HETATM   36  H   UNL     1      -7.618   8.330  65.783  1.00  0.00     0.000 HD 
HETATM   37  O   UNL     1     -10.329   7.623  67.305  1.00  0.00    -0.238 OA 
BRANCH  35  38
HETATM   38  C   UNL     1      -9.984   9.411  65.853  1.00  0.00    -0.327 A  
HETATM   39  O   UNL     1      -8.364   9.121  64.061  1.00  0.00    -0.163 OA 
HETATM   40  C   UNL     1      -9.383   9.815  64.658  1.00  0.00    -0.256 A  
HETATM   41  C   UNL     1     -10.774  11.758  64.621  1.00  0.00    -0.310 A  
HETATM   42  C   UNL     1      -9.792  10.982  64.020  1.00  0.00    -0.365 A  
HETATM   43  H   UNL     1      -7.955   9.395  63.249  1.00  0.00     0.000 HD 
HETATM   44  N   UNL     1     -11.371  11.397  65.785  1.00  0.00    -0.116 NA 
HETATM   45  C   UNL     1     -11.162  13.089  64.046  1.00  0.00    -0.448 C  
HETATM   46  C   UNL     1     -10.963  10.243  66.371  1.00  0.00     0.147 A  
ENDBRANCH  35  38
ENDBRANCH  25  34
ENDBRANCH  24  25
ENDBRANCH   6  21
TORSDOF 8
ENDMDL
MODEL      135
REMARK 921   NORMALIZED FREE ENERGY PREDICTED BY IDOCK:   -2.61 KCAL/MOL
REMARK 922        TOTAL FREE ENERGY PREDICTED BY IDOCK:   -5.64 KCAL/MOL
REMARK 923 INTER-LIGAND FREE ENERGY PREDICTED BY IDOCK:   -4.66 KCAL/MOL
REMARK 924 INTRA-LIGAND FREE ENERGY PREDICTED BY IDOCK:   -0.98 KCAL/MOL
REMARK 927      BINDING AFFINITY PREDICTED BY RF-SCORE:    0.00 PKD
ROOT
HETATM    1  C   UNL     1     -10.775   5.027  66.386  1.00  0.00    -0.178 C  
HETATM    2  S   UNL     1      -9.498   5.117  65.099  1.00  0.00     0.145 SA 
HETATM    3  C   UNL     1      -8.782   3.526  65.561  1.00  0.00    -0.122 C  
HETATM    4  C   UNL     1      -8.515   3.360  67.055  1.00  0.00    -0.109 C  
HETATM    5  CA  UNL     1      -9.121   4.102  68.023  1.00  0.00    -0.136 C  
HETATM    6  CA  UNL     1     -11.372   6.414  66.811  1.00  0.00     0.179 C  
HETATM    7  O   UNL     1     -10.692   6.483  69.338  1.00  0.00    -0.226 OA 
HETATM    8  N   UNL     1     -10.114   4.983  67.676  1.00  0.00    -0.160 N  
HETATM    9  C   UNL     1      -8.647   4.012  69.464  1.00  0.00    -0.076 C  
HETATM   10  OXT UNL     1      -7.593   3.494  69.801  1.00  0.00    -0.048 OA 
HETATM   11  O   UNL     1      -9.496   4.470  70.403  1.00  0.00    -0.147 OA 
HETATM   12  C   UNL     1     -10.748   6.047  68.212  1.00  0.00    -0.279 C  
ENDROOT
BRANCH   4  13
HETATM   13  C   UNL     1      -7.385   2.347  67.270  1.00  0.00    -0.057 C  
BRANCH  13  14
HETATM   14  S   UNL     1      -5.750   3.046  67.607  1.00  0.00    -0.019 SA 
BRANCH  14  15
HETATM   15  C   UNL     1      -5.606   4.352  66.502  1.00  0.00    -0.014 A  
HETATM   16  N   UNL     1      -5.570   4.306  65.194  1.00  0.00    -0.013 NA 
HETATM   17  C   UNL     1      -5.501   6.223  68.214  1.00  0.00    -0.008 C  
HETATM   18  N   UNL     1      -5.404   5.606  64.776  1.00  0.00    -0.010 NA 
HETATM   19  N   UNL     1      -5.486   5.653  66.895  1.00  0.00    -0.012 NA 
HETATM   20  N   UNL     1      -5.350   6.435  65.809  1.00  0.00    -0.013 NA 
ENDBRANCH  14  15
ENDBRANCH  13  14
ENDBRANCH   4  13
BRANCH   6  21
HETATM   21  N   UNL     1     -10.755   7.587  66.118  1.00  0.00     0.403 N  
HETATM   22  H   UNL     1     -10.435   7.469  65.157  1.00  0.00     0.000 HD 
HETATM   23  O   UNL     1     -11.120   9.094  67.796  1.00  0.00    -0.079 OA 
HETATM   24  C   UNL     1     -10.598   8.825  66.717  1.00  0.00    -0.150 C  
BRANCH  24  25
HETATM   25  CA  UNL     1      -9.563   9.743  65.998  1.00  0.00    -0.235 C  
BRANCH  25  26
HETATM   26  C   UNL     1     -10.265  10.822  65.167  1.00  0.00    -0.365 A  
HETATM   27  O   UNL     1     -12.177  13.843  63.017  1.00  0.00    -1.039 OA 
HETATM   28  C   UNL     1      -9.695  11.318  63.980  1.00  0.00    -0.301 A  
HETATM   29  C   UNL     1     -12.150  12.337  64.821  1.00  0.00    -0.436 A  
HETATM   30  C   UNL     1     -11.540  12.842  63.684  1.00  0.00    -0.506 A  
HETATM   31  C   UNL     1     -10.325  12.330  63.246  1.00  0.00    -0.279 A  
HETATM   32  H   UNL     1     -13.008  14.193  63.316  1.00  0.00     0.000 HD 
HETATM   33  C   UNL     1     -11.526  11.323  65.548  1.00  0.00     0.153 A  
ENDBRANCH  25  26
BRANCH  25  34
HETATM   34  N   UNL     1      -8.711  10.344  67.044  1.00  0.00    -0.130 N  
HETATM   35  C   UNL     1      -8.014   9.570  67.945  1.00  0.00    -0.098 C  
HETATM   36  H   UNL     1      -8.638  11.359  67.101  1.00  0.00     0.000 HD 
HETATM   37  O   UNL     1      -7.975   8.345  67.904  1.00  0.00    -0.112 OA 
BRANCH  35  38
HETATM   38  C   UNL     1      -7.219  10.264  68.987  1.00  0.00    -0.080 A  
HETATM   39  O   UNL     1      -7.358   8.379  70.519  1.00  0.00    -0.052 OA 
HETATM   40  C   UNL     1      -6.934   9.644  70.206  1.00  0.00    -0.119 A  
HETATM   41  C   UNL     1      -5.817  11.623  70.946  1.00  0.00     0.076 A  
HETATM   42  C   UNL     1      -6.210  10.313  71.188  1.00  0.00     0.142 A  
HETATM   43  H   UNL     1      -7.165   7.958  71.348  1.00  0.00     0.000 HD 
HETATM   44  N   UNL     1      -6.085  12.255  69.776  1.00  0.00    -0.133 NA 
HETATM   45  C   UNL     1      -5.147  12.434  72.015  1.00  0.00     0.070 C  
HETATM   46  C   UNL     1      -6.776  11.568  68.832  1.00  0.00    -0.086 A  
ENDBRANCH  35  38
ENDBRANCH  25  34
ENDBRANCH  24  25
ENDBRANCH   6  21
TORSDOF 8
ENDMDL
MODEL      136
REMARK 921   NORMALIZED FREE ENERGY PREDICTED BY IDOCK:   -2.59 KCAL/MOL
REMARK 922        TOTAL FREE ENERGY PREDICTED BY IDOCK:   -5.62 KCAL/MOL
REMARK 923 INTER-LIGAND FREE ENERGY PREDICTED BY IDOCK:   -6.85 KCAL/MOL
REMARK 924 INTRA-LIGAND FREE ENERGY PREDICTED BY IDOCK:    1.22 KCAL/MOL
REMARK 927      BINDING AFFINITY PREDICTED BY RF-SCORE:    0.00 PKD
ROOT
HETATM    1  C   UNL     1      -8.381   9.338  70.984  1.00  0.00    -0.081 C  
HETATM    2  S   UNL     1      -7.288   9.632  69.566  1.00  0.00    -0.096 SA 
HETATM    3  C   UNL     1      -7.944  11.288  69.278  1.00  0.00     0.086 C  
HETATM    4  C   UNL     1      -9.468  11.370  69.244  1.00  0.00     0.258 C  
HETATM    5  CA  UNL     1     -10.292  10.434  69.792  1.00  0.00    -0.208 C  
HETATM    6  CA  UNL     1      -8.631   7.825  71.314  1.00  0.00    -0.120 C  
HETATM    7  O   UNL     1     -11.220   7.670  70.961  1.00  0.00    -0.257 OA 
HETATM    8  N   UNL     1      -9.753   9.402  70.518  1.00  0.00    -0.256 N  
HETATM    9  C   UNL     1     -11.789  10.490  69.536  1.00  0.00    -0.215 C  
HETATM   10  OXT UNL     1     -12.305  11.182  68.671  1.00  0.00    -0.549 OA 
HETATM   11  O   UNL     1     -12.567   9.782  70.377  1.00  0.00    -0.092 OA 
HETATM   12  C   UNL     1     -10.127   8.185  70.967  1.00  0.00    -0.187 C  
ENDROOT
BRANCH   4  13
HETATM   13  C   UNL     1      -9.904  12.571  68.399  1.00  0.00    -0.202 C  
BRANCH  13  14
HETATM   14  S   UNL     1      -9.168  12.686  66.749  1.00  0.00    -0.213 SA 
BRANCH  14  15
HETATM   15  C   UNL     1     -10.408  13.361  65.773  1.00  0.00    -0.293 A  
HETATM   16  N   UNL     1     -11.141  12.765  64.867  1.00  0.00    -0.283 NA 
HETATM   17  C   UNL     1     -10.284  15.731  66.674  1.00  0.00    -0.285 C  
HETATM   18  N   UNL     1     -11.955  13.740  64.339  1.00  0.00    -0.426 NA 
HETATM   19  N   UNL     1     -10.767  14.676  65.827  1.00  0.00    -0.301 NA 
HETATM   20  N   UNL     1     -11.732  14.911  64.919  1.00  0.00    -0.384 NA 
ENDBRANCH  14  15
ENDBRANCH  13  14
ENDBRANCH   4  13
BRANCH   6  21
HETATM   21  N   UNL     1      -7.963   6.873  70.374  1.00  0.00    -0.112 N  
HETATM   22  H   UNL     1      -7.160   6.341  70.712  1.00  0.00     0.000 HD 
HETATM   23  O   UNL     1      -9.438   7.140  68.650  1.00  0.00    -0.141 OA 
HETATM   24  C   UNL     1      -8.379   6.679  69.068  1.00  0.00    -0.120 C  
BRANCH  24  25
HETATM   25  CA  UNL     1      -7.306   6.003  68.161  1.00  0.00    -0.085 C  
BRANCH  25  26
HETATM   26  C   UNL     1      -7.886   4.788  67.430  1.00  0.00    -0.094 A  
HETATM   27  O   UNL     1      -9.589   1.549  65.425  1.00  0.00    -0.328 OA 
HETATM   28  C   UNL     1      -7.277   4.269  66.273  1.00  0.00    -0.075 A  
HETATM   29  C   UNL     1      -9.592   3.049  67.234  1.00  0.00    -0.022 A  
HETATM   30  C   UNL     1      -8.997   2.592  66.069  1.00  0.00    -0.133 A  
HETATM   31  C   UNL     1      -7.834   3.182  65.590  1.00  0.00    -0.085 A  
HETATM   32  H   UNL     1     -10.384   1.146  65.752  1.00  0.00     0.000 HD 
HETATM   33  C   UNL     1      -9.031   4.128  67.920  1.00  0.00    -0.146 A  
ENDBRANCH  25  26
BRANCH  25  34
HETATM   34  N   UNL     1      -6.833   7.025  67.207  1.00  0.00    -0.067 N  
HETATM   35  C   UNL     1      -7.633   7.492  66.187  1.00  0.00    -0.088 C  
HETATM   36  H   UNL     1      -5.889   7.396  67.306  1.00  0.00     0.000 HD 
HETATM   37  O   UNL     1      -8.806   7.166  66.039  1.00  0.00    -0.152 OA 
BRANCH  35  38
HETATM   38  C   UNL     1      -7.057   8.487  65.252  1.00  0.00    -0.082 A  
HETATM   39  O   UNL     1      -9.111   8.638  63.957  1.00  0.00    -0.341 OA 
HETATM   40  C   UNL     1      -7.812   9.004  64.196  1.00  0.00    -0.132 A  
HETATM   41  C   UNL     1      -5.920  10.269  63.468  1.00  0.00    -0.142 A  
HETATM   42  C   UNL     1      -7.254   9.919  63.309  1.00  0.00    -0.130 A  
HETATM   43  H   UNL     1      -9.624   8.989  63.239  1.00  0.00     0.000 HD 
HETATM   44  N   UNL     1      -5.158   9.778  64.478  1.00  0.00    -0.057 NA 
HETATM   45  C   UNL     1      -5.231  11.149  62.467  1.00  0.00    -0.162 C  
HETATM   46  C   UNL     1      -5.738   8.904  65.337  1.00  0.00    -0.047 A  
ENDBRANCH  35  38
ENDBRANCH  25  34
ENDBRANCH  24  25
ENDBRANCH   6  21
TORSDOF 8
ENDMDL
MODEL      137
REMARK 921   NORMALIZED FREE ENERGY PREDICTED BY IDOCK:   -2.49 KCAL/MOL
REMARK 922        TOTAL FREE ENERGY PREDICTED BY IDOCK:   -5.46 KCAL/MOL
REMARK 923 INTER-LIGAND FREE ENERGY PREDICTED BY IDOCK:   -5.25 KCAL/MOL
REMARK 924 INTRA-LIGAND FREE ENERGY PREDICTED BY IDOCK:   -0.22 KCAL/MOL
REMARK 927      BINDING AFFINITY PREDICTED BY RF-SCORE:    0.00 PKD
ROOT
HETATM    1  C   UNL     1     -11.216   9.012  68.015  1.00  0.00     0.441 C  
HETATM    2  S   UNL     1      -9.800   8.774  66.905  1.00  0.00    -0.255 SA 
HETATM    3  C   UNL     1      -9.312   7.228  67.700  1.00  0.00    -0.128 C  
HETATM    4  C   UNL     1      -9.234   7.295  69.223  1.00  0.00    -0.144 C  
HETATM    5  CA  UNL     1      -9.864   8.240  69.976  1.00  0.00    -0.182 C  
HETATM    6  CA  UNL     1     -11.707  10.497  68.136  1.00  0.00     0.087 C  
HETATM    7  O   UNL     1     -11.313  10.935  70.686  1.00  0.00    -0.256 OA 
HETATM    8  N   UNL     1     -10.713   9.131  69.370  1.00  0.00    -0.221 N  
HETATM    9  C   UNL     1      -9.568   8.354  71.463  1.00  0.00    -0.208 C  
HETATM   10  OXT UNL     1      -8.619   7.812  72.010  1.00  0.00    -0.105 OA 
HETATM   11  O   UNL     1     -10.465   9.036  72.200  1.00  0.00    -0.321 OA 
HETATM   12  C   UNL     1     -11.287  10.321  69.646  1.00  0.00    -0.257 C  
ENDROOT
BRANCH   4  13
HETATM   13  C   UNL     1      -8.250   6.240  69.739  1.00  0.00    -0.125 C  
BRANCH  13  14
HETATM   14  S   UNL     1      -8.720   4.515  69.456  1.00  0.00    -0.084 SA 
BRANCH  14  15
HETATM   15  C   UNL     1      -8.949   3.870  71.030  1.00  0.00    -0.101 A  
HETATM   16  N   UNL     1     -10.073   3.686  71.674  1.00  0.00    -0.119 NA 
HETATM   17  C   UNL     1      -6.504   3.451  71.573  1.00  0.00    -0.018 C  
HETATM   18  N   UNL     1      -9.723   3.187  72.908  1.00  0.00    -0.111 NA 
HETATM   19  N   UNL     1      -7.918   3.476  71.832  1.00  0.00    -0.062 NA 
HETATM   20  N   UNL     1      -8.408   3.057  73.012  1.00  0.00    -0.078 NA 
ENDBRANCH  14  15
ENDBRANCH  13  14
ENDBRANCH   4  13
BRANCH   6  21
HETATM   21  N   UNL     1     -10.896  11.478  67.352  1.00  0.00    -0.232 N  
HETATM   22  H   UNL     1     -11.271  11.821  66.467  1.00  0.00     0.000 HD 
HETATM   23  O   UNL     1      -9.231  11.725  68.897  1.00  0.00    -0.059 OA 
HETATM   24  C   UNL     1      -9.661  11.945  67.768  1.00  0.00    -0.190 C  
BRANCH  24  25
HETATM   25  CA  UNL     1      -8.817  12.591  66.627  1.00  0.00    -0.142 C  
BRANCH  25  26
HETATM   26  C   UNL     1      -7.850  13.642  67.181  1.00  0.00    -0.028 A  
HETATM   27  O   UNL     1      -5.132  16.483  68.578  1.00  0.00    -0.102 OA 
HETATM   28  C   UNL     1      -8.276  14.951  67.470  1.00  0.00    -0.199 A  
HETATM   29  C   UNL     1      -5.609  14.278  67.917  1.00  0.00    -0.101 A  
HETATM   30  C   UNL     1      -6.047  15.573  68.145  1.00  0.00    -0.133 A  
HETATM   31  C   UNL     1      -7.378  15.915  67.941  1.00  0.00    -0.148 A  
HETATM   32  H   UNL     1      -4.222  16.249  68.717  1.00  0.00     0.000 HD 
HETATM   33  C   UNL     1      -6.506  13.315  67.455  1.00  0.00    -0.143 A  
ENDBRANCH  25  26
BRANCH  25  34
HETATM   34  N   UNL     1      -8.090  11.500  65.949  1.00  0.00    -0.366 N  
HETATM   35  C   UNL     1      -8.471  11.031  64.712  1.00  0.00     0.143 C  
HETATM   36  H   UNL     1      -7.283  11.081  66.410  1.00  0.00     0.000 HD 
HETATM   37  O   UNL     1      -9.375  11.526  64.046  1.00  0.00    -0.134 OA 
BRANCH  35  38
HETATM   38  C   UNL     1      -7.706   9.903  64.129  1.00  0.00    -0.138 A  
HETATM   39  O   UNL     1      -9.544   9.249  62.675  1.00  0.00    -0.481 OA 
HETATM   40  C   UNL     1      -8.271   9.078  63.154  1.00  0.00    -0.181 A  
HETATM   41  C   UNL     1      -6.286   7.748  63.135  1.00  0.00    -0.067 A  
HETATM   42  C   UNL     1      -7.554   8.006  62.632  1.00  0.00    -0.118 A  
HETATM   43  H   UNL     1      -9.928   8.688  62.012  1.00  0.00     0.000 HD 
HETATM   44  N   UNL     1      -5.713   8.526  64.088  1.00  0.00    -0.064 NA 
HETATM   45  C   UNL     1      -5.520   6.532  62.704  1.00  0.00    -0.023 C  
HETATM   46  C   UNL     1      -6.431   9.575  64.561  1.00  0.00    -0.093 A  
ENDBRANCH  35  38
ENDBRANCH  25  34
ENDBRANCH  24  25
ENDBRANCH   6  21
TORSDOF 8
ENDMDL
MODEL      138
REMARK 921   NORMALIZED FREE ENERGY PREDICTED BY IDOCK:   -2.48 KCAL/MOL
REMARK 922        TOTAL FREE ENERGY PREDICTED BY IDOCK:   -5.45 KCAL/MOL
REMARK 923 INTER-LIGAND FREE ENERGY PREDICTED BY IDOCK:   -4.58 KCAL/MOL
REMARK 924 INTRA-LIGAND FREE ENERGY PREDICTED BY IDOCK:   -0.88 KCAL/MOL
REMARK 927      BINDING AFFINITY PREDICTED BY RF-SCORE:    0.00 PKD
ROOT
HETATM    1  C   UNL     1      -7.993  12.694  69.342  1.00  0.00     0.847 C  
HETATM    2  S   UNL     1      -9.665  12.046  69.063  1.00  0.00     0.346 SA 
HETATM    3  C   UNL     1      -9.068  10.378  68.718  1.00  0.00    -0.165 C  
HETATM    4  C   UNL     1      -7.920  10.310  67.714  1.00  0.00    -0.102 C  
HETATM    5  CA  UNL     1      -7.110  11.363  67.413  1.00  0.00    -0.114 C  
HETATM    6  CA  UNL     1      -7.853  14.244  69.151  1.00  0.00     0.018 C  
HETATM    7  O   UNL     1      -6.140  14.341  67.175  1.00  0.00    -0.196 OA 
HETATM    8  N   UNL     1      -7.237  12.535  68.115  1.00  0.00    -0.096 N  
HETATM    9  C   UNL     1      -6.127  11.265  66.257  1.00  0.00    -0.084 C  
HETATM   10  OXT UNL     1      -6.164  10.387  65.407  1.00  0.00    -0.115 OA 
HETATM   11  O   UNL     1      -5.128  12.168  66.243  1.00  0.00    -0.268 OA 
HETATM   12  C   UNL     1      -6.877  13.829  67.985  1.00  0.00    -0.140 C  
ENDROOT
BRANCH   4  13
HETATM   13  C   UNL     1      -7.918   8.943  67.021  1.00  0.00    -0.102 C  
BRANCH  13  14
HETATM   14  S   UNL     1      -9.425   8.514  66.115  1.00  0.00    -0.187 SA 
BRANCH  14  15
HETATM   15  C   UNL     1      -9.383   9.509  64.717  1.00  0.00    -0.169 A  
HETATM   16  N   UNL     1     -10.018  10.633  64.504  1.00  0.00    -0.322 NA 
HETATM   17  C   UNL     1      -7.772   8.096  63.355  1.00  0.00    -0.143 C  
HETATM   18  N   UNL     1      -9.688  11.016  63.225  1.00  0.00    -0.327 NA 
HETATM   19  N   UNL     1      -8.655   9.202  63.605  1.00  0.00    -0.193 NA 
HETATM   20  N   UNL     1      -8.856  10.146  62.668  1.00  0.00    -0.206 NA 
ENDBRANCH  14  15
ENDBRANCH  13  14
ENDBRANCH   4  13
BRANCH   6  21
HETATM   21  N   UNL     1      -9.114  14.927  68.726  1.00  0.00    -0.185 N  
HETATM   22  H   UNL     1      -9.732  14.442  68.075  1.00  0.00     0.000 HD 
HETATM   23  O   UNL     1      -8.889  16.748  70.087  1.00  0.00     1.300 OA 
HETATM   24  C   UNL     1      -9.482  16.185  69.170  1.00  0.00    -0.251 C  
BRANCH  24  25
HETATM   25  CA  UNL     1     -10.568  16.870  68.286  1.00  0.00    -0.363 C  
BRANCH  25  26
HETATM   26  C   UNL     1      -9.953  17.958  67.398  1.00  0.00    -0.325 A  
HETATM   27  O   UNL     1      -8.211  20.818  64.910  1.00  0.00     0.213 OA 
HETATM   28  C   UNL     1     -10.758  18.867  66.689  1.00  0.00    -0.392 A  
HETATM   29  C   UNL     1      -7.988  19.062  66.456  1.00  0.00    -0.294 A  
HETATM   30  C   UNL     1      -8.808  19.911  65.731  1.00  0.00     0.036 A  
HETATM   31  C   UNL     1     -10.190  19.834  65.852  1.00  0.00    -0.556 A  
HETATM   32  H   UNL     1      -7.266  20.871  64.827  1.00  0.00     0.000 HD 
HETATM   33  C   UNL     1      -8.555  18.104  67.297  1.00  0.00    -0.240 A  
ENDBRANCH  25  26
BRANCH  25  34
HETATM   34  N   UNL     1     -11.201  15.813  67.473  1.00  0.00    -0.271 N  
HETATM   35  C   UNL     1     -10.759  15.509  66.204  1.00  0.00    -0.313 C  
HETATM   36  H   UNL     1     -11.987  15.293  67.862  1.00  0.00     0.000 HD 
HETATM   37  O   UNL     1      -9.772  16.022  65.687  1.00  0.00    -0.374 OA 
BRANCH  35  38
HETATM   38  C   UNL     1     -11.484  14.461  65.448  1.00  0.00    -0.344 A  
HETATM   39  O   UNL     1     -11.752  15.886  63.494  1.00  0.00    -0.873 OA 
HETATM   40  C   UNL     1     -11.940  14.697  64.149  1.00  0.00    -0.292 A  
HETATM   41  C   UNL     1     -12.919  12.517  64.102  1.00  0.00    -0.132 A  
HETATM   42  C   UNL     1     -12.643  13.716  63.457  1.00  0.00     0.019 A  
HETATM   43  H   UNL     1     -12.063  16.047  62.611  1.00  0.00     0.000 HD 
HETATM   44  N   UNL     1     -12.497  12.261  65.365  1.00  0.00    -0.533 NA 
HETATM   45  C   UNL     1     -13.782  11.476  63.452  1.00  0.00     1.709 C  
HETATM   46  C   UNL     1     -11.798  13.231  66.005  1.00  0.00    -0.395 A  
ENDBRANCH  35  38
ENDBRANCH  25  34
ENDBRANCH  24  25
ENDBRANCH   6  21
TORSDOF 8
ENDMDL
MODEL      139
REMARK 921   NORMALIZED FREE ENERGY PREDICTED BY IDOCK:   -2.39 KCAL/MOL
REMARK 922        TOTAL FREE ENERGY PREDICTED BY IDOCK:   -5.32 KCAL/MOL
REMARK 923 INTER-LIGAND FREE ENERGY PREDICTED BY IDOCK:   -8.19 KCAL/MOL
REMARK 924 INTRA-LIGAND FREE ENERGY PREDICTED BY IDOCK:    2.87 KCAL/MOL
REMARK 927      BINDING AFFINITY PREDICTED BY RF-SCORE:    0.00 PKD
ROOT
HETATM    1  C   UNL     1     -10.258   5.029  69.591  1.00  0.00    -0.236 C  
HETATM    2  S   UNL     1      -8.496   5.311  69.258  1.00  0.00    -0.102 SA 
HETATM    3  C   UNL     1      -7.981   3.911  70.275  1.00  0.00    -0.050 C  
HETATM    4  C   UNL     1      -8.617   3.865  71.662  1.00  0.00    -0.116 C  
HETATM    5  CA  UNL     1      -9.767   4.516  71.992  1.00  0.00    -0.170 C  
HETATM    6  CA  UNL     1     -11.169   6.290  69.392  1.00  0.00    -0.420 C  
HETATM    7  O   UNL     1     -12.111   6.600  71.815  1.00  0.00    -0.331 OA 
HETATM    8  N   UNL     1     -10.477   5.170  71.018  1.00  0.00    -0.204 N  
HETATM    9  C   UNL     1     -10.218   4.582  73.443  1.00  0.00    -0.169 C  
HETATM   10  OXT UNL     1      -9.501   4.294  74.390  1.00  0.00    -0.105 OA 
HETATM   11  O   UNL     1     -11.507   4.906  73.654  1.00  0.00    -0.251 OA 
HETATM   12  C   UNL     1     -11.440   6.113  70.935  1.00  0.00    -0.248 C  
ENDROOT
BRANCH   4  13
HETATM   13  C   UNL     1      -7.703   3.102  72.626  1.00  0.00    -0.058 C  
BRANCH  13  14
HETATM   14  S   UNL     1      -5.948   3.543  72.569  1.00  0.00    -0.009 SA 
BRANCH  14  15
HETATM   15  C   UNL     1      -5.663   3.953  70.927  1.00  0.00    -0.013 A  
HETATM   16  N   UNL     1      -5.579   3.152  69.895  1.00  0.00    -0.016 NA 
HETATM   17  C   UNL     1      -5.483   6.466  71.240  1.00  0.00    -0.026 C  
HETATM   18  N   UNL     1      -5.299   3.957  68.815  1.00  0.00    -0.011 NA 
HETATM   19  N   UNL     1      -5.460   5.233  70.502  1.00  0.00    -0.004 NA 
HETATM   20  N   UNL     1      -5.223   5.230  69.178  1.00  0.00     0.000 NA 
ENDBRANCH  14  15
ENDBRANCH  13  14
ENDBRANCH   4  13
BRANCH   6  21
HETATM   21  N   UNL     1     -10.428   7.529  69.005  1.00  0.00    -0.212 N  
HETATM   22  H   UNL     1      -9.868   8.001  69.716  1.00  0.00     0.000 HD 
HETATM   23  O   UNL     1     -10.960   7.462  66.785  1.00  0.00    -0.249 OA 
HETATM   24  C   UNL     1     -10.464   8.068  67.731  1.00  0.00    -0.214 C  
BRANCH  24  25
HETATM   25  CA  UNL     1      -9.999   9.555  67.664  1.00  0.00    -0.180 C  
BRANCH  25  26
HETATM   26  C   UNL     1     -10.012  10.075  66.223  1.00  0.00    -0.310 A  
HETATM   27  O   UNL     1     -10.052  11.623  62.349  1.00  0.00    -0.263 OA 
HETATM   28  C   UNL     1      -8.996   9.735  65.312  1.00  0.00    -0.233 A  
HETATM   29  C   UNL     1     -11.065  11.396  64.458  1.00  0.00    -0.302 A  
HETATM   30  C   UNL     1     -10.023  11.084  63.599  1.00  0.00    -0.361 A  
HETATM   31  C   UNL     1      -8.996  10.244  64.008  1.00  0.00    -0.261 A  
HETATM   32  H   UNL     1     -10.755  12.198  62.069  1.00  0.00     0.000 HD 
HETATM   33  C   UNL     1     -11.069  10.882  65.755  1.00  0.00     0.052 A  
ENDBRANCH  25  26
BRANCH  25  34
HETATM   34  N   UNL     1     -10.911  10.337  68.522  1.00  0.00    -0.251 N  
HETATM   35  C   UNL     1     -10.632  11.635  68.887  1.00  0.00    -0.193 C  
HETATM   36  H   UNL     1     -11.772   9.903  68.855  1.00  0.00     0.000 HD 
HETATM   37  O   UNL     1      -9.665  12.266  68.471  1.00  0.00    -0.203 OA 
BRANCH  35  38
HETATM   38  C   UNL     1     -11.586  12.326  69.786  1.00  0.00    -0.314 A  
HETATM   39  O   UNL     1     -11.482  14.394  68.507  1.00  0.00    -0.266 OA 
HETATM   40  C   UNL     1     -11.959  13.653  69.557  1.00  0.00    -0.341 A  
HETATM   41  C   UNL     1     -13.293  13.615  71.540  1.00  0.00    -0.297 A  
HETATM   42  C   UNL     1     -12.835  14.301  70.422  1.00  0.00    -0.276 A  
HETATM   43  H   UNL     1     -11.735  15.295  68.352  1.00  0.00     0.000 HD 
HETATM   44  N   UNL     1     -12.943  12.330  71.794  1.00  0.00    -0.372 NA 
HETATM   45  C   UNL     1     -14.135  14.304  72.573  1.00  0.00    -0.437 C  
HETATM   46  C   UNL     1     -12.102  11.721  70.921  1.00  0.00    -0.167 A  
ENDBRANCH  35  38
ENDBRANCH  25  34
ENDBRANCH  24  25
ENDBRANCH   6  21
TORSDOF 8
ENDMDL
MODEL      140
REMARK 921   NORMALIZED FREE ENERGY PREDICTED BY IDOCK:   -2.37 KCAL/MOL
REMARK 922        TOTAL FREE ENERGY PREDICTED BY IDOCK:   -5.29 KCAL/MOL
REMARK 923 INTER-LIGAND FREE ENERGY PREDICTED BY IDOCK:   -6.07 KCAL/MOL
REMARK 924 INTRA-LIGAND FREE ENERGY PREDICTED BY IDOCK:    0.78 KCAL/MOL
REMARK 927      BINDING AFFINITY PREDICTED BY RF-SCORE:    0.00 PKD
ROOT
HETATM    1  C   UNL     1      -9.634  13.358  66.001  1.00  0.00    -0.159 C  
HETATM    2  S   UNL     1      -8.455  14.458  66.835  1.00  0.00    -0.047 SA 
HETATM    3  C   UNL     1      -7.208  13.163  66.993  1.00  0.00     0.280 C  
HETATM    4  C   UNL     1      -7.729  11.844  67.558  1.00  0.00    -0.151 C  
HETATM    5  CA  UNL     1      -9.042  11.481  67.550  1.00  0.00    -0.166 C  
HETATM    6  CA  UNL     1     -11.132  13.808  66.104  1.00  0.00    -0.296 C  
HETATM    7  O   UNL     1     -12.166  11.778  67.393  1.00  0.00    -0.501 OA 
HETATM    8  N   UNL     1      -9.959  12.274  66.908  1.00  0.00    -0.210 N  
HETATM    9  C   UNL     1      -9.498  10.248  68.314  1.00  0.00    -0.142 C  
HETATM   10  OXT UNL     1      -8.811   9.670  69.144  1.00  0.00    -0.140 OA 
HETATM   11  O   UNL     1     -10.701   9.746  67.976  1.00  0.00    -0.237 OA 
HETATM   12  C   UNL     1     -11.298  12.449  66.886  1.00  0.00    -0.333 C  
ENDROOT
BRANCH   4  13
HETATM   13  C   UNL     1      -6.586  11.082  68.236  1.00  0.00    -0.058 C  
BRANCH  13  14
HETATM   14  S   UNL     1      -6.433   9.332  67.797  1.00  0.00    -0.060 SA 
BRANCH  14  15
HETATM   15  C   UNL     1      -6.839   9.272  66.131  1.00  0.00    -0.085 A  
HETATM   16  N   UNL     1      -6.433  10.061  65.169  1.00  0.00    -0.108 NA 
HETATM   17  C   UNL     1      -8.379   7.256  66.239  1.00  0.00    -0.129 C  
HETATM   18  N   UNL     1      -7.071   9.627  64.030  1.00  0.00    -0.111 NA 
HETATM   19  N   UNL     1      -7.696   8.350  65.605  1.00  0.00    -0.095 NA 
HETATM   20  N   UNL     1      -7.846   8.582  64.288  1.00  0.00    -0.134 NA 
ENDBRANCH  14  15
ENDBRANCH  13  14
ENDBRANCH   4  13
BRANCH   6  21
HETATM   21  N   UNL     1     -11.347  15.047  66.913  1.00  0.00    -0.331 N  
HETATM   22  H   UNL     1     -10.805  15.880  66.679  1.00  0.00     0.000 HD 
HETATM   23  O   UNL     1     -13.059  14.228  68.184  1.00  0.00     1.433 OA 
HETATM   24  C   UNL     1     -12.246  15.121  67.963  1.00  0.00     0.226 C  
BRANCH  24  25
HETATM   25  CA  UNL     1     -11.994  16.326  68.921  1.00  0.00     0.091 C  
BRANCH  25  26
HETATM   26  C   UNL     1     -12.101  15.897  70.388  1.00  0.00    -0.313 A  
HETATM   27  O   UNL     1     -12.354  14.599  74.346  1.00  0.00    -0.537 OA 
HETATM   28  C   UNL     1     -11.367  16.547  71.397  1.00  0.00    -0.025 A  
HETATM   29  C   UNL     1     -13.041  14.433  72.104  1.00  0.00    -0.450 A  
HETATM   30  C   UNL     1     -12.267  15.060  73.068  1.00  0.00    -0.348 A  
HETATM   31  C   UNL     1     -11.442  16.125  72.729  1.00  0.00    -0.020 A  
HETATM   32  H   UNL     1     -12.918  13.871  74.577  1.00  0.00     0.000 HD 
HETATM   33  C   UNL     1     -12.972  14.859  70.777  1.00  0.00    -0.418 A  
ENDBRANCH  25  26
BRANCH  25  34
HETATM   34  N   UNL     1     -10.650  16.854  68.615  1.00  0.00    -0.343 N  
HETATM   35  C   UNL     1     -10.473  18.026  67.914  1.00  0.00    -0.396 C  
HETATM   36  H   UNL     1      -9.830  16.337  68.931  1.00  0.00     0.000 HD 
HETATM   37  O   UNL     1     -11.394  18.757  67.566  1.00  0.00    -0.014 OA 
BRANCH  35  38
HETATM   38  C   UNL     1      -9.085  18.455  67.617  1.00  0.00    -0.282 A  
HETATM   39  O   UNL     1      -8.989  19.909  69.566  1.00  0.00     0.084 OA 
HETATM   40  C   UNL     1      -8.420  19.364  68.445  1.00  0.00    -0.353 A  
HETATM   41  C   UNL     1      -6.533  19.310  66.980  1.00  0.00    -0.190 A  
HETATM   42  C   UNL     1      -7.128  19.780  68.143  1.00  0.00    -0.327 A  
HETATM   43  H   UNL     1      -8.538  20.527  70.128  1.00  0.00     0.000 HD 
HETATM   44  N   UNL     1      -7.155  18.434  66.152  1.00  0.00    -0.246 NA 
HETATM   45  C   UNL     1      -5.194  19.824  66.539  1.00  0.00    -0.163 C  
HETATM   46  C   UNL     1      -8.407  18.032  66.485  1.00  0.00    -0.268 A  
ENDBRANCH  35  38
ENDBRANCH  25  34
ENDBRANCH  24  25
ENDBRANCH   6  21
TORSDOF 8
ENDMDL
MODEL      141
REMARK 921   NORMALIZED FREE ENERGY PREDICTED BY IDOCK:   -2.32 KCAL/MOL
REMARK 922        TOTAL FREE ENERGY PREDICTED BY IDOCK:   -5.21 KCAL/MOL
REMARK 923 INTER-LIGAND FREE ENERGY PREDICTED BY IDOCK:   -5.68 KCAL/MOL
REMARK 924 INTRA-LIGAND FREE ENERGY PREDICTED BY IDOCK:    0.47 KCAL/MOL
REMARK 927      BINDING AFFINITY PREDICTED BY RF-SCORE:    0.00 PKD
ROOT
HETATM    1  C   UNL     1      -5.648  11.557  68.454  1.00  0.00    -0.045 C  
HETATM    2  S   UNL     1      -7.145  11.418  67.437  1.00  0.00    -0.123 SA 
HETATM    3  C   UNL     1      -7.082  13.151  66.935  1.00  0.00     0.595 C  
HETATM    4  C   UNL     1      -6.888  14.138  68.083  1.00  0.00    -0.129 C  
HETATM    5  CA  UNL     1      -6.379  13.798  69.299  1.00  0.00    -0.110 C  
HETATM    6  CA  UNL     1      -5.521  10.472  69.580  1.00  0.00    -0.038 C  
HETATM    7  O   UNL     1      -5.525  11.983  71.717  1.00  0.00    -0.375 OA 
HETATM    8  N   UNL     1      -5.902  12.528  69.501  1.00  0.00    -0.095 N  
HETATM    9  C   UNL     1      -6.410  14.795  70.447  1.00  0.00    -0.135 C  
HETATM   10  OXT UNL     1      -7.078  15.819  70.438  1.00  0.00     0.335 OA 
HETATM   11  O   UNL     1      -5.586  14.544  71.481  1.00  0.00    -0.158 OA 
HETATM   12  C   UNL     1      -5.594  11.722  70.539  1.00  0.00    -0.156 C  
ENDROOT
BRANCH   4  13
HETATM   13  C   UNL     1      -7.471  15.502  67.698  1.00  0.00    -0.167 C  
BRANCH  13  14
HETATM   14  S   UNL     1      -6.304  16.686  66.981  1.00  0.00    -0.169 SA 
BRANCH  14  15
HETATM   15  C   UNL     1      -6.549  18.127  67.881  1.00  0.00    -0.195 A  
HETATM   16  N   UNL     1      -6.174  18.391  69.106  1.00  0.00    -0.231 NA 
HETATM   17  C   UNL     1      -7.802  19.423  66.092  1.00  0.00    -0.307 C  
HETATM   18  N   UNL     1      -6.644  19.654  69.381  1.00  0.00    -0.336 NA 
HETATM   19  N   UNL     1      -7.223  19.208  67.390  1.00  0.00    -0.209 NA 
HETATM   20  N   UNL     1      -7.287  20.160  68.337  1.00  0.00    -0.251 NA 
ENDBRANCH  14  15
ENDBRANCH  13  14
ENDBRANCH   4  13
BRANCH   6  21
HETATM   21  N   UNL     1      -6.679   9.530  69.658  1.00  0.00    -0.050 N  
HETATM   22  H   UNL     1      -7.622   9.912  69.583  1.00  0.00     0.000 HD 
HETATM   23  O   UNL     1      -5.441   7.612  69.744  1.00  0.00    -0.023 OA 
HETATM   24  C   UNL     1      -6.534   8.164  69.829  1.00  0.00    -0.036 C  
BRANCH  24  25
HETATM   25  CA  UNL     1      -7.833   7.451  70.318  1.00  0.00    -0.095 C  
BRANCH  25  26
HETATM   26  C   UNL     1      -9.039   8.393  70.249  1.00  0.00    -0.149 A  
HETATM   27  O   UNL     1     -12.366  10.893  69.943  1.00  0.00    -0.326 OA 
HETATM   28  C   UNL     1      -9.961   8.482  71.308  1.00  0.00    -0.284 A  
HETATM   29  C   UNL     1     -10.362  10.057  69.044  1.00  0.00    -0.223 A  
HETATM   30  C   UNL     1     -11.279  10.085  70.082  1.00  0.00    -0.304 A  
HETATM   31  C   UNL     1     -11.080   9.317  71.223  1.00  0.00    -0.427 A  
HETATM   32  H   UNL     1     -12.502  11.418  69.163  1.00  0.00     0.000 HD 
HETATM   33  C   UNL     1      -9.241   9.230  69.133  1.00  0.00    -0.149 A  
ENDBRANCH  25  26
BRANCH  25  34
HETATM   34  N   UNL     1      -8.030   6.267  69.459  1.00  0.00    -0.107 N  
HETATM   35  C   UNL     1      -8.073   6.364  68.086  1.00  0.00    -0.113 C  
HETATM   36  H   UNL     1      -8.138   5.351  69.895  1.00  0.00     0.000 HD 
HETATM   37  O   UNL     1      -7.871   7.406  67.471  1.00  0.00    -0.108 OA 
BRANCH  35  38
HETATM   38  C   UNL     1      -8.318   5.126  67.309  1.00  0.00    -0.106 A  
HETATM   39  O   UNL     1      -9.741   4.177  69.040  1.00  0.00    -0.173 OA 
HETATM   40  C   UNL     1      -9.128   4.106  67.816  1.00  0.00    -0.136 A  
HETATM   41  C   UNL     1      -8.675   2.787  65.876  1.00  0.00    -0.130 A  
HETATM   42  C   UNL     1      -9.331   2.937  67.091  1.00  0.00    -0.151 A  
HETATM   43  H   UNL     1     -10.291   3.484  69.385  1.00  0.00     0.000 HD 
HETATM   44  N   UNL     1      -7.877   3.755  65.360  1.00  0.00    -0.088 NA 
HETATM   45  C   UNL     1      -8.755   1.498  65.113  1.00  0.00    -0.113 C  
HETATM   46  C   UNL     1      -7.715   4.891  66.083  1.00  0.00    -0.091 A  
ENDBRANCH  35  38
ENDBRANCH  25  34
ENDBRANCH  24  25
ENDBRANCH   6  21
TORSDOF 8
ENDMDL
MODEL      142
REMARK 921   NORMALIZED FREE ENERGY PREDICTED BY IDOCK:   -2.18 KCAL/MOL
REMARK 922        TOTAL FREE ENERGY PREDICTED BY IDOCK:   -5.02 KCAL/MOL
REMARK 923 INTER-LIGAND FREE ENERGY PREDICTED BY IDOCK:   -7.28 KCAL/MOL
REMARK 924 INTRA-LIGAND FREE ENERGY PREDICTED BY IDOCK:    2.26 KCAL/MOL
REMARK 927      BINDING AFFINITY PREDICTED BY RF-SCORE:    0.00 PKD
ROOT
HETATM    1  C   UNL     1      -7.239   8.314  68.867  1.00  0.00    -0.078 C  
HETATM    2  S   UNL     1      -7.999   9.925  69.216  1.00  0.00    -0.134 SA 
HETATM    3  C   UNL     1      -8.932   9.289  70.625  1.00  0.00    -0.243 C  
HETATM    4  C   UNL     1      -9.698   7.997  70.348  1.00  0.00    -0.178 C  
HETATM    5  CA  UNL     1      -9.405   7.144  69.328  1.00  0.00    -0.146 C  
HETATM    6  CA  UNL     1      -6.731   8.138  67.394  1.00  0.00    -0.066 C  
HETATM    7  O   UNL     1      -8.216   6.133  66.602  1.00  0.00    -0.108 OA 
HETATM    8  N   UNL     1      -8.297   7.374  68.551  1.00  0.00    -0.125 N  
HETATM    9  C   UNL     1     -10.342   5.992  69.003  1.00  0.00    -0.225 C  
HETATM   10  OXT UNL     1     -11.480   5.898  69.439  1.00  0.00    -0.265 OA 
HETATM   11  O   UNL     1      -9.830   4.998  68.252  1.00  0.00    -0.149 OA 
HETATM   12  C   UNL     1      -7.813   6.991  67.351  1.00  0.00    -0.111 C  
ENDROOT
BRANCH   4  13
HETATM   13  C   UNL     1     -10.898   7.893  71.296  1.00  0.00    -0.235 C  
BRANCH  13  14
HETATM   14  S   UNL     1     -10.542   7.264  72.956  1.00  0.00    -0.360 SA 
BRANCH  14  15
HETATM   15  C   UNL     1      -9.689   5.799  72.685  1.00  0.00    -0.153 A  
HETATM   16  N   UNL     1     -10.177   4.617  72.409  1.00  0.00    -0.185 NA 
HETATM   17  C   UNL     1      -7.344   6.720  72.999  1.00  0.00    -0.079 C  
HETATM   18  N   UNL     1      -9.095   3.772  72.327  1.00  0.00    -0.111 NA 
HETATM   19  N   UNL     1      -8.330   5.703  72.756  1.00  0.00    -0.119 NA 
HETATM   20  N   UNL     1      -7.962   4.428  72.539  1.00  0.00    -0.091 NA 
ENDBRANCH  14  15
ENDBRANCH  13  14
ENDBRANCH   4  13
BRANCH   6  21
HETATM   21  N   UNL     1      -6.999   9.311  66.507  1.00  0.00    -0.080 N  
HETATM   22  H   UNL     1      -6.203   9.827  66.132  1.00  0.00     0.000 HD 
HETATM   23  O   UNL     1      -9.268   9.058  66.430  1.00  0.00    -0.162 OA 
HETATM   24  C   UNL     1      -8.274   9.731  66.171  1.00  0.00    -0.120 C  
BRANCH  24  25
HETATM   25  CA  UNL     1      -8.330  11.190  65.622  1.00  0.00     0.002 C  
BRANCH  25  26
HETATM   26  C   UNL     1      -9.773  11.617  65.332  1.00  0.00    -0.255 A  
HETATM   27  O   UNL     1     -13.720  12.659  64.473  1.00  0.00     0.032 OA 
HETATM   28  C   UNL     1     -10.663  11.943  66.371  1.00  0.00    -0.303 A  
HETATM   29  C   UNL     1     -11.565  12.078  63.737  1.00  0.00    -0.565 A  
HETATM   30  C   UNL     1     -12.433  12.344  64.784  1.00  0.00    -0.401 A  
HETATM   31  C   UNL     1     -11.990  12.297  66.100  1.00  0.00    -0.323 A  
HETATM   32  H   UNL     1     -14.023  12.692  63.573  1.00  0.00     0.000 HD 
HETATM   33  C   UNL     1     -10.240  11.734  64.008  1.00  0.00    -0.387 A  
ENDBRANCH  25  26
BRANCH  25  34
HETATM   34  N   UNL     1      -7.708  12.063  66.638  1.00  0.00    -0.376 N  
HETATM   35  C   UNL     1      -8.103  13.371  66.811  1.00  0.00     0.274 C  
HETATM   36  H   UNL     1      -6.965  11.687  67.226  1.00  0.00     0.000 HD 
HETATM   37  O   UNL     1      -9.041  13.884  66.209  1.00  0.00    -0.145 OA 
BRANCH  35  38
HETATM   38  C   UNL     1      -7.391  14.183  67.827  1.00  0.00    -0.177 A  
HETATM   39  O   UNL     1      -9.365  15.519  68.318  1.00  0.00    -0.188 OA 
HETATM   40  C   UNL     1      -8.047  15.204  68.520  1.00  0.00    -0.145 A  
HETATM   41  C   UNL     1      -6.008  15.744  69.643  1.00  0.00    -0.149 A  
HETATM   42  C   UNL     1      -7.363  15.978  69.452  1.00  0.00    -0.212 A  
HETATM   43  H   UNL     1      -9.811  16.212  68.789  1.00  0.00     0.000 HD 
HETATM   44  N   UNL     1      -5.341  14.766  68.980  1.00  0.00    -0.092 NA 
HETATM   45  C   UNL     1      -5.193  16.630  70.539  1.00  0.00    -0.217 C  
HETATM   46  C   UNL     1      -6.042  14.017  68.092  1.00  0.00    -0.129 A  
ENDBRANCH  35  38
ENDBRANCH  25  34
ENDBRANCH  24  25
ENDBRANCH   6  21
TORSDOF 8
ENDMDL
MODEL      143
REMARK 921   NORMALIZED FREE ENERGY PREDICTED BY IDOCK:   -1.94 KCAL/MOL
REMARK 922        TOTAL FREE ENERGY PREDICTED BY IDOCK:   -4.66 KCAL/MOL
REMARK 923 INTER-LIGAND FREE ENERGY PREDICTED BY IDOCK:   -3.74 KCAL/MOL
REMARK 924 INTRA-LIGAND FREE ENERGY PREDICTED BY IDOCK:   -0.92 KCAL/MOL
REMARK 927      BINDING AFFINITY PREDICTED BY RF-SCORE:    0.00 PKD
ROOT
HETATM    1  C   UNL     1      -8.231   7.169  65.782  1.00  0.00    -0.132 C  
HETATM    2  S   UNL     1      -6.766   7.195  66.852  1.00  0.00    -0.062 SA 
HETATM    3  C   UNL     1      -6.072   5.706  66.103  1.00  0.00    -0.033 C  
HETATM    4  C   UNL     1      -7.051   4.541  65.981  1.00  0.00    -0.071 C  
HETATM    5  CA  UNL     1      -8.406   4.681  66.008  1.00  0.00    -0.114 C  
HETATM    6  CA  UNL     1      -9.471   7.941  66.354  1.00  0.00    -0.192 C  
HETATM    7  O   UNL     1     -11.207   5.993  66.557  1.00  0.00    -0.144 OA 
HETATM    8  N   UNL     1      -8.955   5.939  66.036  1.00  0.00    -0.152 N  
HETATM    9  C   UNL     1      -9.300   3.454  66.086  1.00  0.00    -0.143 C  
HETATM   10  OXT UNL     1      -8.894   2.336  66.367  1.00  0.00    -0.117 OA 
HETATM   11  O   UNL     1     -10.590   3.631  65.745  1.00  0.00     0.430 OA 
HETATM   12  C   UNL     1     -10.140   6.513  66.333  1.00  0.00     0.005 C  
ENDROOT
BRANCH   4  13
HETATM   13  C   UNL     1      -6.281   3.217  65.963  1.00  0.00    -0.024 C  
BRANCH  13  14
HETATM   14  S   UNL     1      -5.135   2.949  67.338  1.00  0.00    -0.008 SA 
BRANCH  14  15
HETATM   15  C   UNL     1      -6.144   2.847  68.723  1.00  0.00    -0.025 A  
HETATM   16  N   UNL     1      -7.097   1.985  68.968  1.00  0.00    -0.039 NA 
HETATM   17  C   UNL     1      -5.168   4.821  69.987  1.00  0.00     0.000 C  
HETATM   18  N   UNL     1      -7.631   2.350  70.183  1.00  0.00    -0.043 NA 
HETATM   19  N   UNL     1      -6.067   3.721  69.768  1.00  0.00    -0.023 NA 
HETATM   20  N   UNL     1      -7.007   3.410  70.677  1.00  0.00    -0.033 NA 
ENDBRANCH  14  15
ENDBRANCH  13  14
ENDBRANCH   4  13
BRANCH   6  21
HETATM   21  N   UNL     1      -9.254   8.531  67.710  1.00  0.00    -0.135 N  
HETATM   22  H   UNL     1      -9.740   8.114  68.505  1.00  0.00     0.000 HD 
HETATM   23  O   UNL     1      -7.673  10.053  67.076  1.00  0.00    -0.095 OA 
HETATM   24  C   UNL     1      -8.427   9.617  67.941  1.00  0.00    -0.122 C  
BRANCH  24  25
HETATM   25  CA  UNL     1      -8.687  10.325  69.306  1.00  0.00    -0.174 C  
BRANCH  25  26
HETATM   26  C   UNL     1      -8.162   9.483  70.475  1.00  0.00    -0.203 A  
HETATM   27  O   UNL     1      -6.716   7.312  73.730  1.00  0.00    -0.072 OA 
HETATM   28  C   UNL     1      -8.933   8.450  71.038  1.00  0.00    -0.199 A  
HETATM   29  C   UNL     1      -6.403   8.965  72.089  1.00  0.00    -0.031 A  
HETATM   30  C   UNL     1      -7.206   7.987  72.655  1.00  0.00    -0.097 A  
HETATM   31  C   UNL     1      -8.462   7.711  72.129  1.00  0.00    -0.141 A  
HETATM   32  H   UNL     1      -5.857   7.501  74.090  1.00  0.00     0.000 HD 
HETATM   33  C   UNL     1      -6.870   9.696  70.996  1.00  0.00    -0.002 A  
ENDBRANCH  25  26
BRANCH  25  34
HETATM   34  N   UNL     1      -8.017  11.639  69.251  1.00  0.00    -0.348 N  
HETATM   35  C   UNL     1      -8.573  12.711  68.588  1.00  0.00     0.046 C  
HETATM   36  H   UNL     1      -7.118  11.757  69.717  1.00  0.00     0.000 HD 
HETATM   37  O   UNL     1      -9.685  12.688  68.071  1.00  0.00    -0.203 OA 
BRANCH  35  38
HETATM   38  C   UNL     1      -7.806  13.979  68.551  1.00  0.00    -0.140 A  
HETATM   39  O   UNL     1      -5.665  12.824  68.508  1.00  0.00    -0.057 OA 
HETATM   40  C   UNL     1      -6.410  13.974  68.514  1.00  0.00    -0.093 A  
HETATM   41  C   UNL     1      -6.405  16.363  68.581  1.00  0.00    -0.133 A  
HETATM   42  C   UNL     1      -5.699  15.170  68.506  1.00  0.00    -0.096 A  
HETATM   43  H   UNL     1      -4.716  12.821  68.484  1.00  0.00     0.000 HD 
HETATM   44  N   UNL     1      -7.760  16.401  68.625  1.00  0.00    -0.192 NA 
HETATM   45  C   UNL     1      -5.687  17.675  68.704  1.00  0.00    -0.164 C  
HETATM   46  C   UNL     1      -8.424  15.218  68.613  1.00  0.00    -0.168 A  
ENDBRANCH  35  38
ENDBRANCH  25  34
ENDBRANCH  24  25
ENDBRANCH   6  21
TORSDOF 8
ENDMDL
MODEL      144
REMARK 921   NORMALIZED FREE ENERGY PREDICTED BY IDOCK:   -1.89 KCAL/MOL
REMARK 922        TOTAL FREE ENERGY PREDICTED BY IDOCK:   -4.58 KCAL/MOL
REMARK 923 INTER-LIGAND FREE ENERGY PREDICTED BY IDOCK:   -4.46 KCAL/MOL
REMARK 924 INTRA-LIGAND FREE ENERGY PREDICTED BY IDOCK:   -0.13 KCAL/MOL
REMARK 927      BINDING AFFINITY PREDICTED BY RF-SCORE:    0.00 PKD
ROOT
HETATM    1  C   UNL     1      -9.388   9.898  70.692  1.00  0.00     0.221 C  
HETATM    2  S   UNL     1      -8.226   8.955  69.666  1.00  0.00    -0.119 SA 
HETATM    3  C   UNL     1      -7.801  10.390  68.656  1.00  0.00    -0.108 C  
HETATM    4  C   UNL     1      -9.000  11.174  68.131  1.00  0.00    -0.159 C  
HETATM    5  CA  UNL     1     -10.246  11.114  68.678  1.00  0.00    -0.205 C  
HETATM    6  CA  UNL     1     -10.477   9.028  71.412  1.00  0.00    -0.324 C  
HETATM    7  O   UNL     1     -12.662  10.006  70.354  1.00  0.00    -0.183 OA 
HETATM    8  N   UNL     1     -10.443  10.401  69.834  1.00  0.00    -0.246 N  
HETATM    9  C   UNL     1     -11.424  11.766  67.971  1.00  0.00    -0.319 C  
HETATM   10  OXT UNL     1     -11.391  12.150  66.811  1.00  0.00    -0.302 OA 
HETATM   11  O   UNL     1     -12.522  11.986  68.717  1.00  0.00    -0.085 OA 
HETATM   12  C   UNL     1     -11.473   9.868  70.524  1.00  0.00    -0.318 C  
ENDROOT
BRANCH   4  13
HETATM   13  C   UNL     1      -8.615  11.911  66.844  1.00  0.00    -0.185 C  
BRANCH  13  14
HETATM   14  S   UNL     1      -9.135  11.127  65.298  1.00  0.00    -0.119 SA 
BRANCH  14  15
HETATM   15  C   UNL     1      -7.986   9.877  65.044  1.00  0.00    -0.137 A  
HETATM   16  N   UNL     1      -7.003   9.510  65.825  1.00  0.00    -0.092 NA 
HETATM   17  C   UNL     1      -8.844   9.095  62.786  1.00  0.00    -0.141 C  
HETATM   18  N   UNL     1      -6.348   8.500  65.159  1.00  0.00    -0.056 NA 
HETATM   19  N   UNL     1      -7.962   9.103  63.921  1.00  0.00    -0.134 NA 
HETATM   20  N   UNL     1      -6.928   8.246  63.993  1.00  0.00    -0.074 NA 
ENDBRANCH  14  15
ENDBRANCH  13  14
ENDBRANCH   4  13
BRANCH   6  21
HETATM   21  N   UNL     1     -10.405   7.568  71.095  1.00  0.00    -0.201 N  
HETATM   22  H   UNL     1      -9.576   7.049  71.385  1.00  0.00     0.000 HD 
HETATM   23  O   UNL     1     -12.505   7.395  70.214  1.00  0.00     0.149 OA 
HETATM   24  C   UNL     1     -11.408   6.887  70.429  1.00  0.00    -0.328 C  
BRANCH  24  25
HETATM   25  CA  UNL     1     -10.949   5.523  69.827  1.00  0.00    -0.105 C  
BRANCH  25  26
HETATM   26  C   UNL     1     -10.456   5.692  68.386  1.00  0.00    -0.263 A  
HETATM   27  O   UNL     1      -8.990   6.095  64.501  1.00  0.00    -0.310 OA 
HETATM   28  C   UNL     1     -11.150   5.124  67.303  1.00  0.00     0.794 A  
HETATM   29  C   UNL     1      -8.827   6.578  66.796  1.00  0.00    -0.130 A  
HETATM   30  C   UNL     1      -9.505   5.965  65.754  1.00  0.00     0.065 A  
HETATM   31  C   UNL     1     -10.673   5.252  65.994  1.00  0.00    -0.139 A  
HETATM   32  H   UNL     1      -8.191   6.582  64.337  1.00  0.00     0.000 HD 
HETATM   33  C   UNL     1      -9.307   6.457  68.100  1.00  0.00    -0.108 A  
ENDBRANCH  25  26
BRANCH  25  34
HETATM   34  N   UNL     1      -9.879   5.000  70.700  1.00  0.00    -0.196 N  
HETATM   35  C   UNL     1      -9.260   3.795  70.447  1.00  0.00    -0.143 C  
HETATM   36  H   UNL     1      -9.591   5.544  71.512  1.00  0.00     0.000 HD 
HETATM   37  O   UNL     1      -9.480   3.112  69.452  1.00  0.00    -0.165 OA 
BRANCH  35  38
HETATM   38  C   UNL     1      -8.226   3.331  71.403  1.00  0.00    -0.074 A  
HETATM   39  O   UNL     1      -6.560   3.050  69.651  1.00  0.00    -0.032 OA 
HETATM   40  C   UNL     1      -6.945   2.984  70.965  1.00  0.00    -0.033 A  
HETATM   41  C   UNL     1      -6.353   2.374  73.198  1.00  0.00    -0.013 A  
HETATM   42  C   UNL     1      -5.990   2.525  71.866  1.00  0.00    -0.013 A  
HETATM   43  H   UNL     1      -5.690   2.814  69.354  1.00  0.00     0.000 HD 
HETATM   44  N   UNL     1      -7.590   2.695  73.652  1.00  0.00    -0.049 NA 
HETATM   45  C   UNL     1      -5.406   1.763  74.188  1.00  0.00     0.000 C  
HETATM   46  C   UNL     1      -8.492   3.158  72.752  1.00  0.00    -0.080 A  
ENDBRANCH  35  38
ENDBRANCH  25  34
ENDBRANCH  24  25
ENDBRANCH   6  21
TORSDOF 8
ENDMDL
MODEL      145
REMARK 921   NORMALIZED FREE ENERGY PREDICTED BY IDOCK:   -1.77 KCAL/MOL
REMARK 922        TOTAL FREE ENERGY PREDICTED BY IDOCK:   -4.42 KCAL/MOL
REMARK 923 INTER-LIGAND FREE ENERGY PREDICTED BY IDOCK:   -5.67 KCAL/MOL
REMARK 924 INTRA-LIGAND FREE ENERGY PREDICTED BY IDOCK:    1.25 KCAL/MOL
REMARK 927      BINDING AFFINITY PREDICTED BY RF-SCORE:    0.00 PKD
ROOT
HETATM    1  C   UNL     1     -11.427  12.709  66.713  1.00  0.00    -0.351 C  
HETATM    2  S   UNL     1     -12.152  11.995  68.216  1.00  0.00     0.212 SA 
HETATM    3  C   UNL     1     -12.020  13.544  69.133  1.00  0.00    -0.333 C  
HETATM    4  C   UNL     1     -10.652  14.216  69.050  1.00  0.00    -0.227 C  
HETATM    5  CA  UNL     1      -9.739  13.964  68.071  1.00  0.00    -0.226 C  
HETATM    6  CA  UNL     1     -10.792  11.661  65.734  1.00  0.00    -0.281 C  
HETATM    7  O   UNL     1      -8.296  12.448  65.729  1.00  0.00     0.611 OA 
HETATM    8  N   UNL     1     -10.080  13.146  67.024  1.00  0.00    -0.238 N  
HETATM    9  C   UNL     1      -8.329  14.522  68.179  1.00  0.00    -0.147 C  
HETATM   10  OXT UNL     1      -7.863  14.996  69.204  1.00  0.00    -0.164 OA 
HETATM   11  O   UNL     1      -7.608  14.550  67.042  1.00  0.00    -0.091 OA 
HETATM   12  C   UNL     1      -9.460  12.441  66.055  1.00  0.00    -0.166 C  
ENDROOT
BRANCH   4  13
HETATM   13  C   UNL     1     -10.428  15.091  70.288  1.00  0.00    -0.031 C  
BRANCH  13  14
HETATM   14  S   UNL     1     -10.884  16.835  70.116  1.00  0.00     0.228 SA 
BRANCH  14  15
HETATM   15  C   UNL     1     -10.477  17.226  68.495  1.00  0.00    -0.375 A  
HETATM   16  N   UNL     1     -11.134  16.932  67.402  1.00  0.00    -0.063 NA 
HETATM   17  C   UNL     1      -8.321  18.472  68.987  1.00  0.00    -0.063 C  
HETATM   18  N   UNL     1     -10.379  17.427  66.363  1.00  0.00    -0.334 NA 
HETATM   19  N   UNL     1      -9.346  17.908  68.153  1.00  0.00    -0.277 NA 
HETATM   20  N   UNL     1      -9.284  18.024  66.814  1.00  0.00    -0.273 NA 
ENDBRANCH  14  15
ENDBRANCH  13  14
ENDBRANCH   4  13
BRANCH   6  21
HETATM   21  N   UNL     1     -10.848  10.250  66.224  1.00  0.00     0.000 N  
HETATM   22  H   UNL     1     -11.554   9.627  65.831  1.00  0.00     0.000 HD 
HETATM   23  O   UNL     1      -9.004  10.374  67.567  1.00  0.00    -0.134 OA 
HETATM   24  C   UNL     1      -9.988   9.747  67.185  1.00  0.00    -0.198 C  
BRANCH  24  25
HETATM   25  CA  UNL     1     -10.492   8.429  67.850  1.00  0.00    -0.193 C  
BRANCH  25  26
HETATM   26  C   UNL     1     -10.168   7.211  66.979  1.00  0.00    -0.339 A  
HETATM   27  O   UNL     1      -9.152   3.900  64.653  1.00  0.00    -0.124 OA 
HETATM   28  C   UNL     1     -10.868   5.999  67.124  1.00  0.00    -0.414 A  
HETATM   29  C   UNL     1      -8.849   6.163  65.210  1.00  0.00     0.029 A  
HETATM   30  C   UNL     1      -9.521   4.969  65.411  1.00  0.00    -0.085 A  
HETATM   31  C   UNL     1     -10.541   4.880  66.350  1.00  0.00    -0.276 A  
HETATM   32  H   UNL     1      -8.455   3.960  64.010  1.00  0.00     0.000 HD 
HETATM   33  C   UNL     1      -9.180   7.281  65.976  1.00  0.00    -0.079 A  
ENDBRANCH  25  26
BRANCH  25  34
HETATM   34  N   UNL     1      -9.840   8.330  69.171  1.00  0.00    -0.175 N  
HETATM   35  C   UNL     1      -8.574   7.809  69.319  1.00  0.00    -0.138 C  
HETATM   36  H   UNL     1     -10.341   8.656  69.997  1.00  0.00     0.000 HD 
HETATM   37  O   UNL     1      -7.864   7.469  68.378  1.00  0.00    -0.117 OA 
BRANCH  35  38
HETATM   38  C   UNL     1      -8.018   7.710  70.690  1.00  0.00    -0.099 A  
HETATM   39  O   UNL     1      -9.255   9.658  71.461  1.00  0.00    -0.239 OA 
HETATM   40  C   UNL     1      -8.380   8.626  71.680  1.00  0.00    -0.157 A  
HETATM   41  C   UNL     1      -6.888   7.555  73.209  1.00  0.00    -0.068 A  
HETATM   42  C   UNL     1      -7.833   8.541  72.956  1.00  0.00    -0.061 A  
HETATM   43  H   UNL     1      -9.501  10.281  72.135  1.00  0.00     0.000 HD 
HETATM   44  N   UNL     1      -6.510   6.656  72.266  1.00  0.00    -0.057 NA 
HETATM   45  C   UNL     1      -6.171   7.496  74.526  1.00  0.00    -0.085 C  
HETATM   46  C   UNL     1      -7.077   6.755  71.038  1.00  0.00    -0.072 A  
ENDBRANCH  35  38
ENDBRANCH  25  34
ENDBRANCH  24  25
ENDBRANCH   6  21
TORSDOF 8
ENDMDL
MODEL      146
REMARK 921   NORMALIZED FREE ENERGY PREDICTED BY IDOCK:   -1.77 KCAL/MOL
REMARK 922        TOTAL FREE ENERGY PREDICTED BY IDOCK:   -4.41 KCAL/MOL
REMARK 923 INTER-LIGAND FREE ENERGY PREDICTED BY IDOCK:   -6.66 KCAL/MOL
REMARK 924 INTRA-LIGAND FREE ENERGY PREDICTED BY IDOCK:    2.25 KCAL/MOL
REMARK 927      BINDING AFFINITY PREDICTED BY RF-SCORE:    0.00 PKD
ROOT
HETATM    1  C   UNL     1     -10.204  10.892  67.205  1.00  0.00    -0.205 C  
HETATM    2  S   UNL     1     -10.437  11.890  68.704  1.00  0.00    -0.190 SA 
HETATM    3  C   UNL     1      -9.616  13.331  67.991  1.00  0.00    -0.220 C  
HETATM    4  C   UNL     1      -8.271  13.034  67.333  1.00  0.00    -0.183 C  
HETATM    5  CA  UNL     1      -7.886  11.796  66.913  1.00  0.00    -0.141 C  
HETATM    6  CA  UNL     1     -10.248   9.342  67.440  1.00  0.00    -0.239 C  
HETATM    7  O   UNL     1      -7.837   8.664  66.680  1.00  0.00    -0.095 OA 
HETATM    8  N   UNL     1      -8.779  10.756  66.971  1.00  0.00    -0.134 N  
HETATM    9  C   UNL     1      -6.456  11.554  66.458  1.00  0.00    -0.037 C  
HETATM   10  OXT UNL     1      -5.538  12.335  66.659  1.00  0.00    -0.299 OA 
HETATM   11  O   UNL     1      -6.241  10.443  65.729  1.00  0.00    -0.102 OA 
HETATM   12  C   UNL     1      -8.755   9.407  66.936  1.00  0.00    -0.127 C  
ENDROOT
BRANCH   4  13
HETATM   13  C   UNL     1      -7.397  14.293  67.348  1.00  0.00    -0.128 C  
BRANCH  13  14
HETATM   14  S   UNL     1      -8.281  15.866  67.492  1.00  0.00    -0.169 SA 
BRANCH  14  15
HETATM   15  C   UNL     1      -7.164  17.039  66.924  1.00  0.00    -0.209 A  
HETATM   16  N   UNL     1      -5.947  16.850  66.482  1.00  0.00    -0.316 NA 
HETATM   17  C   UNL     1      -8.638  19.081  67.241  1.00  0.00    -0.278 C  
HETATM   18  N   UNL     1      -5.453  18.101  66.190  1.00  0.00    -0.158 NA 
HETATM   19  N   UNL     1      -7.437  18.375  66.891  1.00  0.00    -0.210 NA 
HETATM   20  N   UNL     1      -6.358  19.038  66.439  1.00  0.00    -0.186 NA 
ENDBRANCH  14  15
ENDBRANCH  13  14
ENDBRANCH   4  13
BRANCH   6  21
HETATM   21  N   UNL     1     -10.430   8.942  68.869  1.00  0.00    -0.243 N  
HETATM   22  H   UNL     1     -11.378   8.794  69.215  1.00  0.00     0.000 HD 
HETATM   23  O   UNL     1      -8.208   8.741  69.361  1.00  0.00    -0.104 OA 
HETATM   24  C   UNL     1      -9.374   8.762  69.746  1.00  0.00    -0.163 C  
BRANCH  24  25
HETATM   25  CA  UNL     1      -9.795   8.785  71.247  1.00  0.00    -0.266 C  
BRANCH  25  26
HETATM   26  C   UNL     1     -11.033   9.661  71.462  1.00  0.00    -0.266 A  
HETATM   27  O   UNL     1     -14.396  12.021  72.186  1.00  0.00     0.422 OA 
HETATM   28  C   UNL     1     -11.072  10.995  71.021  1.00  0.00     1.098 A  
HETATM   29  C   UNL     1     -13.304   9.944  72.317  1.00  0.00    -0.429 A  
HETATM   30  C   UNL     1     -13.294  11.270  71.915  1.00  0.00    -0.307 A  
HETATM   31  C   UNL     1     -12.193  11.800  71.254  1.00  0.00    -0.098 A  
HETATM   32  H   UNL     1     -15.149  11.659  72.639  1.00  0.00     0.000 HD 
HETATM   33  C   UNL     1     -12.190   9.140  72.077  1.00  0.00    -0.443 A  
ENDBRANCH  25  26
BRANCH  25  34
HETATM   34  N   UNL     1     -10.052   7.388  71.649  1.00  0.00    -0.184 N  
HETATM   35  C   UNL     1      -9.877   6.962  72.948  1.00  0.00    -0.172 C  
HETATM   36  H   UNL     1     -10.368   6.720  70.947  1.00  0.00     0.000 HD 
HETATM   37  O   UNL     1      -9.581   7.708  73.875  1.00  0.00    -0.274 OA 
BRANCH  35  38
HETATM   38  C   UNL     1     -10.119   5.530  73.248  1.00  0.00    -0.202 A  
HETATM   39  O   UNL     1     -12.515   5.733  72.874  1.00  0.00    -0.452 OA 
HETATM   40  C   UNL     1     -11.408   4.993  73.199  1.00  0.00    -0.321 A  
HETATM   41  C   UNL     1     -10.549   2.880  73.910  1.00  0.00    -0.179 A  
HETATM   42  C   UNL     1     -11.629   3.655  73.507  1.00  0.00    -0.075 A  
HETATM   43  H   UNL     1     -13.391   5.367  72.840  1.00  0.00     0.000 HD 
HETATM   44  N   UNL     1      -9.288   3.374  73.976  1.00  0.00    -0.092 NA 
HETATM   45  C   UNL     1     -10.748   1.468  74.378  1.00  0.00    -0.176 C  
HETATM   46  C   UNL     1      -9.104   4.678  73.650  1.00  0.00    -0.105 A  
ENDBRANCH  35  38
ENDBRANCH  25  34
ENDBRANCH  24  25
ENDBRANCH   6  21
TORSDOF 8
ENDMDL
MODEL      147
REMARK 921   NORMALIZED FREE ENERGY PREDICTED BY IDOCK:   -1.74 KCAL/MOL
REMARK 922        TOTAL FREE ENERGY PREDICTED BY IDOCK:   -4.37 KCAL/MOL
REMARK 923 INTER-LIGAND FREE ENERGY PREDICTED BY IDOCK:   -4.58 KCAL/MOL
REMARK 924 INTRA-LIGAND FREE ENERGY PREDICTED BY IDOCK:    0.22 KCAL/MOL
REMARK 927      BINDING AFFINITY PREDICTED BY RF-SCORE:    0.00 PKD
ROOT
HETATM    1  C   UNL     1      -9.702  11.034  65.381  1.00  0.00    -0.232 C  
HETATM    2  S   UNL     1     -10.906  10.120  66.386  1.00  0.00     0.180 SA 
HETATM    3  C   UNL     1     -11.177  11.513  67.503  1.00  0.00    -0.298 C  
HETATM    4  C   UNL     1      -9.899  12.159  68.033  1.00  0.00    -0.202 C  
HETATM    5  CA  UNL     1      -8.681  12.036  67.436  1.00  0.00    -0.170 C  
HETATM    6  CA  UNL     1      -8.714  10.130  64.565  1.00  0.00    -0.196 C  
HETATM    7  O   UNL     1      -6.422  10.854  65.601  1.00  0.00    -0.086 OA 
HETATM    8  N   UNL     1      -8.582  11.390  66.230  1.00  0.00    -0.176 N  
HETATM    9  C   UNL     1      -7.431  12.540  68.139  1.00  0.00    -0.117 C  
HETATM   10  OXT UNL     1      -7.394  12.845  69.322  1.00  0.00     0.068 OA 
HETATM   11  O   UNL     1      -6.343  12.721  67.368  1.00  0.00    -0.156 OA 
HETATM   12  C   UNL     1      -7.623  10.824  65.467  1.00  0.00    -0.005 C  
ENDROOT
BRANCH   4  13
HETATM   13  C   UNL     1     -10.180  12.835  69.379  1.00  0.00     0.606 C  
BRANCH  13  14
HETATM   14  S   UNL     1     -10.250  14.644  69.355  1.00  0.00    -0.014 SA 
BRANCH  14  15
HETATM   15  C   UNL     1     -11.768  15.023  70.062  1.00  0.00    -0.306 A  
HETATM   16  N   UNL     1     -12.950  15.005  69.500  1.00  0.00     0.291 NA 
HETATM   17  C   UNL     1     -10.919  15.581  72.388  1.00  0.00     0.456 C  
HETATM   18  N   UNL     1     -13.833  15.428  70.466  1.00  0.00    -0.119 NA 
HETATM   19  N   UNL     1     -11.907  15.430  71.357  1.00  0.00    -0.344 NA 
HETATM   20  N   UNL     1     -13.204  15.691  71.603  1.00  0.00    -0.490 NA 
ENDBRANCH  14  15
ENDBRANCH  13  14
ENDBRANCH   4  13
BRANCH   6  21
HETATM   21  N   UNL     1      -8.897   8.663  64.787  1.00  0.00    -0.407 N  
HETATM   22  H   UNL     1      -9.247   8.095  64.015  1.00  0.00     0.000 HD 
HETATM   23  O   UNL     1      -8.024   8.615  66.898  1.00  0.00    -0.094 OA 
HETATM   24  C   UNL     1      -8.616   8.038  65.989  1.00  0.00    -0.145 C  
BRANCH  24  25
HETATM   25  CA  UNL     1      -9.281   6.634  66.137  1.00  0.00    -0.087 C  
BRANCH  25  26
HETATM   26  C   UNL     1      -8.478   5.562  65.393  1.00  0.00    -0.146 A  
HETATM   27  O   UNL     1      -6.249   2.590  63.493  1.00  0.00    -0.013 OA 
HETATM   28  C   UNL     1      -9.097   4.676  64.493  1.00  0.00    -0.132 A  
HETATM   29  C   UNL     1      -6.352   4.454  64.923  1.00  0.00    -0.034 A  
HETATM   30  C   UNL     1      -6.999   3.563  64.081  1.00  0.00    -0.049 A  
HETATM   31  C   UNL     1      -8.363   3.675  63.846  1.00  0.00    -0.090 A  
HETATM   32  H   UNL     1      -5.315   2.514  63.654  1.00  0.00     0.000 HD 
HETATM   33  C   UNL     1      -7.082   5.456  65.562  1.00  0.00    -0.067 A  
ENDBRANCH  25  26
BRANCH  25  34
HETATM   34  N   UNL     1      -9.359   6.338  67.581  1.00  0.00    -0.117 N  
HETATM   35  C   UNL     1     -10.502   6.577  68.311  1.00  0.00    -0.219 C  
HETATM   36  H   UNL     1      -8.544   5.945  68.051  1.00  0.00     0.000 HD 
HETATM   37  O   UNL     1     -11.555   6.969  67.818  1.00  0.00     0.256 OA 
BRANCH  35  38
HETATM   38  C   UNL     1     -10.473   6.288  69.765  1.00  0.00    -0.289 A  
HETATM   39  O   UNL     1      -8.180   5.478  69.679  1.00  0.00    -0.098 OA 
HETATM   40  C   UNL     1      -9.330   5.758  70.370  1.00  0.00    -0.157 A  
HETATM   41  C   UNL     1     -10.484   5.667  72.460  1.00  0.00    -0.213 A  
HETATM   42  C   UNL     1      -9.320   5.466  71.729  1.00  0.00    -0.170 A  
HETATM   43  H   UNL     1      -7.403   5.118  70.090  1.00  0.00     0.000 HD 
HETATM   44  N   UNL     1     -11.612   6.172  71.900  1.00  0.00    -0.308 NA 
HETATM   45  C   UNL     1     -10.571   5.249  73.898  1.00  0.00    -0.335 C  
HETATM   46  C   UNL     1     -11.582   6.465  70.576  1.00  0.00    -0.358 A  
ENDBRANCH  35  38
ENDBRANCH  25  34
ENDBRANCH  24  25
ENDBRANCH   6  21
TORSDOF 8
ENDMDL
MODEL      148
REMARK 921   NORMALIZED FREE ENERGY PREDICTED BY IDOCK:   -1.57 KCAL/MOL
REMARK 922        TOTAL FREE ENERGY PREDICTED BY IDOCK:   -4.12 KCAL/MOL
REMARK 923 INTER-LIGAND FREE ENERGY PREDICTED BY IDOCK:   -4.15 KCAL/MOL
REMARK 924 INTRA-LIGAND FREE ENERGY PREDICTED BY IDOCK:    0.04 KCAL/MOL
REMARK 927      BINDING AFFINITY PREDICTED BY RF-SCORE:    0.00 PKD
ROOT
HETATM    1  C   UNL     1     -11.566   9.262  67.824  1.00  0.00     1.540 C  
HETATM    2  S   UNL     1     -10.273   9.198  66.552  1.00  0.00    -0.209 SA 
HETATM    3  C   UNL     1      -9.673   7.588  67.105  1.00  0.00    -0.173 C  
HETATM    4  C   UNL     1      -9.433   7.481  68.608  1.00  0.00    -0.146 C  
HETATM    5  CA  UNL     1      -9.996   8.312  69.529  1.00  0.00    -0.187 C  
HETATM    6  CA  UNL     1     -12.070  10.707  68.170  1.00  0.00     0.691 C  
HETATM    7  O   UNL     1     -11.413  10.861  70.699  1.00  0.00    -0.302 OA 
HETATM    8  N   UNL     1     -10.923   9.240  69.124  1.00  0.00    -0.125 N  
HETATM    9  C   UNL     1      -9.544   8.265  70.979  1.00  0.00    -0.160 C  
HETATM   10  OXT UNL     1      -8.532   7.694  71.357  1.00  0.00    -0.112 OA 
HETATM   11  O   UNL     1     -10.369   8.828  71.882  1.00  0.00    -0.299 OA 
HETATM   12  C   UNL     1     -11.487  10.371  69.597  1.00  0.00    -0.262 C  
ENDROOT
BRANCH   4  13
HETATM   13  C   UNL     1      -8.379   6.406  68.890  1.00  0.00    -0.121 C  
BRANCH  13  14
HETATM   14  S   UNL     1      -6.933   6.411  67.800  1.00  0.00    -0.078 SA 
BRANCH  14  15
HETATM   15  C   UNL     1      -6.871   4.817  67.165  1.00  0.00    -0.056 A  
HETATM   16  N   UNL     1      -7.155   4.418  65.952  1.00  0.00    -0.069 NA 
HETATM   17  C   UNL     1      -6.090   3.650  69.280  1.00  0.00    -0.027 C  
HETATM   18  N   UNL     1      -6.991   3.052  65.957  1.00  0.00    -0.056 NA 
HETATM   19  N   UNL     1      -6.516   3.731  67.910  1.00  0.00    -0.037 NA 
HETATM   20  N   UNL     1      -6.602   2.624  67.150  1.00  0.00    -0.036 NA 
ENDBRANCH  14  15
ENDBRANCH  13  14
ENDBRANCH   4  13
BRANCH   6  21
HETATM   21  N   UNL     1     -11.367  11.797  67.427  1.00  0.00    -0.301 N  
HETATM   22  H   UNL     1     -11.777  12.133  66.555  1.00  0.00     0.000 HD 
HETATM   23  O   UNL     1      -9.734  12.155  68.983  1.00  0.00     0.044 OA 
HETATM   24  C   UNL     1     -10.186  12.373  67.863  1.00  0.00    -0.213 C  
BRANCH  24  25
HETATM   25  CA  UNL     1      -9.417  13.148  66.749  1.00  0.00    -0.252 C  
BRANCH  25  26
HETATM   26  C   UNL     1      -8.490  14.208  67.352  1.00  0.00    -0.214 A  
HETATM   27  O   UNL     1      -5.900  17.106  68.870  1.00  0.00    -0.143 OA 
HETATM   28  C   UNL     1      -9.001  15.384  67.931  1.00  0.00    -0.173 A  
HETATM   29  C   UNL     1      -6.241  14.999  67.886  1.00  0.00    -0.174 A  
HETATM   30  C   UNL     1      -6.771  16.169  68.404  1.00  0.00    -0.127 A  
HETATM   31  C   UNL     1      -8.146  16.365  68.447  1.00  0.00    -0.188 A  
HETATM   32  H   UNL     1      -4.960  16.972  68.841  1.00  0.00     0.000 HD 
HETATM   33  C   UNL     1      -7.094  14.017  67.379  1.00  0.00    -0.096 A  
ENDBRANCH  25  26
BRANCH  25  34
HETATM   34  N   UNL     1      -8.654  12.152  65.971  1.00  0.00    -0.382 N  
HETATM   35  C   UNL     1      -9.164  11.578  64.827  1.00  0.00     0.035 C  
HETATM   36  H   UNL     1      -7.724  11.880  66.290  1.00  0.00     0.000 HD 
HETATM   37  O   UNL     1     -10.234  11.901  64.323  1.00  0.00    -0.276 OA 
BRANCH  35  38
HETATM   38  C   UNL     1      -8.342  10.556  64.137  1.00  0.00    -0.095 A  
HETATM   39  O   UNL     1     -10.061  10.127  62.469  1.00  0.00    -0.618 OA 
HETATM   40  C   UNL     1      -8.823   9.888  63.008  1.00  0.00    -0.245 A  
HETATM   41  C   UNL     1      -6.823   8.584  62.932  1.00  0.00    -0.090 A  
HETATM   42  C   UNL     1      -8.055   8.911  62.382  1.00  0.00    -0.155 A  
HETATM   43  H   UNL     1     -10.388   9.673  61.701  1.00  0.00     0.000 HD 
HETATM   44  N   UNL     1      -6.331   9.208  64.031  1.00  0.00    -0.086 NA 
HETATM   45  C   UNL     1      -6.010   7.451  62.376  1.00  0.00    -0.054 C  
HETATM   46  C   UNL     1      -7.097  10.169  64.606  1.00  0.00    -0.124 A  
ENDBRANCH  35  38
ENDBRANCH  25  34
ENDBRANCH  24  25
ENDBRANCH   6  21
TORSDOF 8
ENDMDL
MODEL      149
REMARK 921   NORMALIZED FREE ENERGY PREDICTED BY IDOCK:   -1.02 KCAL/MOL
REMARK 922        TOTAL FREE ENERGY PREDICTED BY IDOCK:   -3.32 KCAL/MOL
REMARK 923 INTER-LIGAND FREE ENERGY PREDICTED BY IDOCK:   -3.71 KCAL/MOL
REMARK 924 INTRA-LIGAND FREE ENERGY PREDICTED BY IDOCK:    0.39 KCAL/MOL
REMARK 927      BINDING AFFINITY PREDICTED BY RF-SCORE:    0.00 PKD
ROOT
HETATM    1  C   UNL     1     -12.331  10.587  68.335  1.00  0.00     1.250 C  
HETATM    2  S   UNL     1     -11.020  10.362  67.099  1.00  0.00    -0.122 SA 
HETATM    3  C   UNL     1     -10.658   8.680  67.645  1.00  0.00    -0.203 C  
HETATM    4  C   UNL     1     -10.480   8.527  69.154  1.00  0.00    -0.217 C  
HETATM    5  CA  UNL     1     -10.954   9.417  70.069  1.00  0.00    -0.239 C  
HETATM    6  CA  UNL     1     -12.646  12.082  68.686  1.00  0.00     1.069 C  
HETATM    7  O   UNL     1     -12.051  12.120  71.235  1.00  0.00    -0.046 OA 
HETATM    8  N   UNL     1     -11.736  10.465  69.651  1.00  0.00    -0.237 N  
HETATM    9  C   UNL     1     -10.557   9.295  71.532  1.00  0.00    -0.335 C  
HETATM   10  OXT UNL     1      -9.641   8.589  71.930  1.00  0.00    -0.228 OA 
HETATM   11  O   UNL     1     -11.325   9.955  72.418  1.00  0.00     0.938 OA 
HETATM   12  C   UNL     1     -12.157  11.657  70.124  1.00  0.00    -0.333 C  
ENDROOT
BRANCH   4  13
HETATM   13  C   UNL     1      -9.588   7.317  69.450  1.00  0.00    -0.154 C  
BRANCH  13  14
HETATM   14  S   UNL     1     -10.228   5.712  68.910  1.00  0.00    -0.223 SA 
BRANCH  14  15
HETATM   15  C   UNL     1      -9.780   4.628  70.164  1.00  0.00    -0.215 A  
HETATM   16  N   UNL     1      -8.977   3.597  70.094  1.00  0.00    -0.099 NA 
HETATM   17  C   UNL     1     -11.141   5.693  72.023  1.00  0.00    -0.230 C  
HETATM   18  N   UNL     1      -8.979   3.032  71.348  1.00  0.00    -0.088 NA 
HETATM   19  N   UNL     1     -10.259   4.722  71.438  1.00  0.00    -0.191 NA 
HETATM   20  N   UNL     1      -9.761   3.713  72.175  1.00  0.00    -0.153 NA 
ENDBRANCH  14  15
ENDBRANCH  13  14
ENDBRANCH   4  13
BRANCH   6  21
HETATM   21  N   UNL     1     -11.782  13.075  67.979  1.00  0.00    -0.340 N  
HETATM   22  H   UNL     1     -12.049  13.369  67.038  1.00  0.00     0.000 HD 
HETATM   23  O   UNL     1     -10.353  13.456  69.720  1.00  0.00     0.554 OA 
HETATM   24  C   UNL     1     -10.636  13.617  68.536  1.00  0.00    -0.250 C  
BRANCH  24  25
HETATM   25  CA  UNL     1      -9.676  14.265  67.492  1.00  0.00    -0.223 C  
BRANCH  25  26
HETATM   26  C   UNL     1      -8.490  14.947  68.181  1.00  0.00    -0.146 A  
HETATM   27  O   UNL     1      -5.171  16.737  69.967  1.00  0.00    -0.157 OA 
HETATM   28  C   UNL     1      -8.400  16.348  68.270  1.00  0.00    -0.189 A  
HETATM   29  C   UNL     1      -6.361  14.799  69.371  1.00  0.00    -0.124 A  
HETATM   30  C   UNL     1      -6.276  16.182  69.399  1.00  0.00    -0.171 A  
HETATM   31  C   UNL     1      -7.295  16.964  68.868  1.00  0.00    -0.236 A  
HETATM   32  H   UNL     1      -4.474  16.202  70.330  1.00  0.00     0.000 HD 
HETATM   33  C   UNL     1      -7.467  14.186  68.782  1.00  0.00    -0.129 A  
ENDBRANCH  25  26
BRANCH  25  34
HETATM   34  N   UNL     1      -9.223  13.190  66.588  1.00  0.00    -0.336 N  
HETATM   35  C   UNL     1      -9.787  13.000  65.345  1.00  0.00    -0.112 C  
HETATM   36  H   UNL     1      -8.473  12.571  66.891  1.00  0.00     0.000 HD 
HETATM   37  O   UNL     1     -10.636  13.743  64.863  1.00  0.00    -0.365 OA 
BRANCH  35  38
HETATM   38  C   UNL     1      -9.296  11.867  64.525  1.00  0.00     0.178 A  
HETATM   39  O   UNL     1     -11.030  12.175  62.846  1.00  0.00    -0.617 OA 
HETATM   40  C   UNL     1      -9.933  11.514  63.333  1.00  0.00    -0.417 A  
HETATM   41  C   UNL     1      -8.414   9.688  63.069  1.00  0.00    -0.184 A  
HETATM   42  C   UNL     1      -9.481  10.433  62.583  1.00  0.00    -0.324 A  
HETATM   43  H   UNL     1     -11.463  11.934  62.036  1.00  0.00     0.000 HD 
HETATM   44  N   UNL     1      -7.780  10.001  64.227  1.00  0.00    -0.139 NA 
HETATM   45  C   UNL     1      -7.967   8.438  62.370  1.00  0.00    -0.154 C  
HETATM   46  C   UNL     1      -8.234  11.072  64.924  1.00  0.00     0.229 A  
ENDBRANCH  35  38
ENDBRANCH  25  34
ENDBRANCH  24  25
ENDBRANCH   6  21
TORSDOF 8
ENDMDL
MODEL      150
REMARK 921   NORMALIZED FREE ENERGY PREDICTED BY IDOCK:   -1.00 KCAL/MOL
REMARK 922        TOTAL FREE ENERGY PREDICTED BY IDOCK:   -3.28 KCAL/MOL
REMARK 923 INTER-LIGAND FREE ENERGY PREDICTED BY IDOCK:   -3.51 KCAL/MOL
REMARK 924 INTRA-LIGAND FREE ENERGY PREDICTED BY IDOCK:    0.23 KCAL/MOL
REMARK 927      BINDING AFFINITY PREDICTED BY RF-SCORE:    0.00 PKD
ROOT
HETATM    1  C   UNL     1     -12.148  10.824  67.751  1.00  0.00     1.004 C  
HETATM    2  S   UNL     1     -10.789  10.283  66.677  1.00  0.00     0.037 SA 
HETATM    3  C   UNL     1     -10.754   8.625  67.391  1.00  0.00    -0.142 C  
HETATM    4  C   UNL     1     -10.735   8.592  68.917  1.00  0.00    -0.100 C  
HETATM    5  CA  UNL     1     -11.136   9.628  69.705  1.00  0.00    -0.217 C  
HETATM    6  CA  UNL     1     -12.245  12.377  67.948  1.00  0.00     0.230 C  
HETATM    7  O   UNL     1     -11.876  12.567  70.532  1.00  0.00    -0.265 OA 
HETATM    8  N   UNL     1     -11.697  10.738  69.127  1.00  0.00    -0.302 N  
HETATM    9  C   UNL     1     -10.892   9.585  71.205  1.00  0.00    -0.343 C  
HETATM   10  OXT UNL     1     -10.142   8.788  71.749  1.00  0.00    -0.277 OA 
HETATM   11  O   UNL     1     -11.618  10.438  71.953  1.00  0.00     0.283 OA 
HETATM   12  C   UNL     1     -11.959  12.021  69.457  1.00  0.00    -0.283 C  
ENDROOT
BRANCH   4  13
HETATM   13  C   UNL     1     -10.081   7.292  69.399  1.00  0.00    -0.183 C  
BRANCH  13  14
HETATM   14  S   UNL     1      -8.640   6.735  68.454  1.00  0.00    -0.124 SA 
BRANCH  14  15
HETATM   15  C   UNL     1      -8.970   5.088  68.103  1.00  0.00    -0.108 A  
HETATM   16  N   UNL     1      -9.340   4.142  68.928  1.00  0.00    -0.151 NA 
HETATM   17  C   UNL     1      -8.506   5.184  65.608  1.00  0.00    -0.134 C  
HETATM   18  N   UNL     1      -9.433   2.997  68.172  1.00  0.00    -0.192 NA 
HETATM   19  N   UNL     1      -8.852   4.554  66.853  1.00  0.00    -0.111 NA 
HETATM   20  N   UNL     1      -9.135   3.240  66.902  1.00  0.00    -0.160 NA 
ENDBRANCH  14  15
ENDBRANCH  13  14
ENDBRANCH   4  13
BRANCH   6  21
HETATM   21  N   UNL     1     -11.173  13.153  67.253  1.00  0.00    -0.276 N  
HETATM   22  H   UNL     1     -11.207  13.226  66.236  1.00  0.00     0.000 HD 
HETATM   23  O   UNL     1     -10.126  13.890  69.146  1.00  0.00    -0.084 OA 
HETATM   24  C   UNL     1     -10.134  13.777  67.923  1.00  0.00    -0.246 C  
BRANCH  24  25
HETATM   25  CA  UNL     1      -8.924  14.137  67.008  1.00  0.00    -0.237 C  
BRANCH  25  26
HETATM   26  C   UNL     1      -8.096  15.277  67.609  1.00  0.00    -0.173 A  
HETATM   27  O   UNL     1      -5.815  18.430  69.114  1.00  0.00    -0.206 OA 
HETATM   28  C   UNL     1      -8.647  16.168  68.547  1.00  0.00    -0.202 A  
HETATM   29  C   UNL     1      -5.991  16.507  67.773  1.00  0.00    -0.147 A  
HETATM   30  C   UNL     1      -6.577  17.398  68.658  1.00  0.00    -0.193 A  
HETATM   31  C   UNL     1      -7.895  17.229  69.063  1.00  0.00    -0.144 A  
HETATM   32  H   UNL     1      -4.913  18.546  68.837  1.00  0.00     0.000 HD 
HETATM   33  C   UNL     1      -6.739  15.444  67.265  1.00  0.00    -0.096 A  
ENDBRANCH  25  26
BRANCH  25  34
HETATM   34  N   UNL     1      -8.114  12.912  66.853  1.00  0.00    -0.398 N  
HETATM   35  C   UNL     1      -8.285  12.058  65.786  1.00  0.00     0.729 C  
HETATM   36  H   UNL     1      -7.409  12.692  67.556  1.00  0.00     0.000 HD 
HETATM   37  O   UNL     1      -9.048  12.280  64.852  1.00  0.00     0.359 OA 
BRANCH  35  38
HETATM   38  C   UNL     1      -7.455  10.831  65.738  1.00  0.00    -0.067 A  
HETATM   39  O   UNL     1      -8.785   9.856  63.948  1.00  0.00    -0.178 OA 
HETATM   40  C   UNL     1      -7.742   9.803  64.836  1.00  0.00    -0.127 A  
HETATM   41  C   UNL     1      -5.947   8.512  65.743  1.00  0.00    -0.048 A  
HETATM   42  C   UNL     1      -6.973   8.644  64.816  1.00  0.00    -0.073 A  
HETATM   43  H   UNL     1      -8.979   9.158  63.335  1.00  0.00     0.000 HD 
HETATM   44  N   UNL     1      -5.649   9.488  66.637  1.00  0.00    -0.046 NA 
HETATM   45  C   UNL     1      -5.170   7.234  65.853  1.00  0.00    -0.024 C  
HETATM   46  C   UNL     1      -6.406  10.614  66.617  1.00  0.00    -0.091 A  
ENDBRANCH  35  38
ENDBRANCH  25  34
ENDBRANCH  24  25
ENDBRANCH   6  21
TORSDOF 8
ENDMDL
MODEL      151
REMARK 921   NORMALIZED FREE ENERGY PREDICTED BY IDOCK:   -0.98 KCAL/MOL
REMARK 922        TOTAL FREE ENERGY PREDICTED BY IDOCK:   -3.26 KCAL/MOL
REMARK 923 INTER-LIGAND FREE ENERGY PREDICTED BY IDOCK:   -0.97 KCAL/MOL
REMARK 924 INTRA-LIGAND FREE ENERGY PREDICTED BY IDOCK:   -2.29 KCAL/MOL
REMARK 927      BINDING AFFINITY PREDICTED BY RF-SCORE:    0.00 PKD
ROOT
HETATM    1  C   UNL     1      -5.126  13.128  69.079  1.00  0.00    -0.069 C  
HETATM    2  S   UNL     1      -5.637  12.903  67.352  1.00  0.00     0.061 SA 
HETATM    3  C   UNL     1      -5.230  14.604  66.907  1.00  0.00     1.610 C  
HETATM    4  C   UNL     1      -5.788  15.660  67.858  1.00  0.00    -0.155 C  
HETATM    5  CA  UNL     1      -6.177  15.401  69.138  1.00  0.00    -0.110 C  
HETATM    6  CA  UNL     1      -5.769  12.113  70.087  1.00  0.00    -0.153 C  
HETATM    7  O   UNL     1      -7.097  13.745  71.644  1.00  0.00     1.849 OA 
HETATM    8  N   UNL     1      -5.966  14.153  69.668  1.00  0.00    -0.107 N  
HETATM    9  C   UNL     1      -6.908  16.462  69.944  1.00  0.00     0.150 C  
HETATM   10  OXT UNL     1      -7.395  17.471  69.455  1.00  0.00    -0.116 OA 
HETATM   11  O   UNL     1      -6.935  16.286  71.279  1.00  0.00     2.601 OA 
HETATM   12  C   UNL     1      -6.408  13.414  70.708  1.00  0.00     0.373 C  
ENDROOT
BRANCH   4  13
HETATM   13  C   UNL     1      -5.961  16.988  67.114  1.00  0.00    -0.165 C  
BRANCH  13  14
HETATM   14  S   UNL     1      -7.365  17.078  65.974  1.00  0.00     0.159 SA 
BRANCH  14  15
HETATM   15  C   UNL     1      -8.047  18.628  66.255  1.00  0.00    -0.244 A  
HETATM   16  N   UNL     1      -7.451  19.793  66.223  1.00  0.00    -0.282 NA 
HETATM   17  C   UNL     1     -10.424  17.864  66.715  1.00  0.00    -0.311 C  
HETATM   18  N   UNL     1      -8.413  20.718  66.558  1.00  0.00     0.141 NA 
HETATM   19  N   UNL     1      -9.357  18.818  66.583  1.00  0.00    -0.319 NA 
HETATM   20  N   UNL     1      -9.580  20.130  66.781  1.00  0.00    -0.411 NA 
ENDBRANCH  14  15
ENDBRANCH  13  14
ENDBRANCH   4  13
BRANCH   6  21
HETATM   21  N   UNL     1      -6.733  11.156  69.464  1.00  0.00    -0.120 N  
HETATM   22  H   UNL     1      -7.071  11.351  68.521  1.00  0.00     0.000 HD 
HETATM   23  O   UNL     1      -6.696   9.621  71.156  1.00  0.00    -0.265 OA 
HETATM   24  C   UNL     1      -7.192  10.017  70.105  1.00  0.00    -0.161 C  
BRANCH  24  25
HETATM   25  CA  UNL     1      -8.488   9.421  69.474  1.00  0.00    -0.152 C  
BRANCH  25  26
HETATM   26  C   UNL     1      -9.374   8.771  70.542  1.00  0.00    -0.219 A  
HETATM   27  O   UNL     1     -11.671   6.983  73.531  1.00  0.00    -0.105 OA 
HETATM   28  C   UNL     1     -10.488   9.442  71.078  1.00  0.00    -0.392 A  
HETATM   29  C   UNL     1      -9.893   6.878  71.997  1.00  0.00    -0.172 A  
HETATM   30  C   UNL     1     -10.955   7.584  72.541  1.00  0.00    -0.313 A  
HETATM   31  C   UNL     1     -11.270   8.855  72.079  1.00  0.00    -0.422 A  
HETATM   32  H   UNL     1     -11.455   6.114  73.847  1.00  0.00     0.000 HD 
HETATM   33  C   UNL     1      -9.119   7.460  70.992  1.00  0.00    -0.152 A  
ENDBRANCH  25  26
BRANCH  25  34
HETATM   34  N   UNL     1      -9.193  10.528  68.797  1.00  0.00    -0.168 N  
HETATM   35  C   UNL     1      -9.282  10.599  67.424  1.00  0.00    -0.143 C  
HETATM   36  H   UNL     1      -9.625  11.259  69.360  1.00  0.00     0.000 HD 
HETATM   37  O   UNL     1      -8.867   9.727  66.669  1.00  0.00    -0.136 OA 
BRANCH  35  38
HETATM   38  C   UNL     1      -9.973  11.770  66.832  1.00  0.00    -0.220 A  
HETATM   39  O   UNL     1     -12.092  11.204  67.884  1.00  0.00    -0.659 OA 
HETATM   40  C   UNL     1     -11.325  12.011  67.086  1.00  0.00    -0.333 A  
HETATM   41  C   UNL     1     -11.254  13.907  65.634  1.00  0.00    -0.306 A  
HETATM   42  C   UNL     1     -11.971  13.098  66.506  1.00  0.00    -0.459 A  
HETATM   43  H   UNL     1     -13.011  11.368  68.057  1.00  0.00     0.000 HD 
HETATM   44  N   UNL     1      -9.943  13.695  65.360  1.00  0.00    -0.255 NA 
HETATM   45  C   UNL     1     -11.931  15.014  64.881  1.00  0.00    -0.255 C  
HETATM   46  C   UNL     1      -9.338  12.638  65.958  1.00  0.00    -0.067 A  
ENDBRANCH  35  38
ENDBRANCH  25  34
ENDBRANCH  24  25
ENDBRANCH   6  21
TORSDOF 8
ENDMDL
MODEL      152
REMARK 921   NORMALIZED FREE ENERGY PREDICTED BY IDOCK:   -0.91 KCAL/MOL
REMARK 922        TOTAL FREE ENERGY PREDICTED BY IDOCK:   -3.15 KCAL/MOL
REMARK 923 INTER-LIGAND FREE ENERGY PREDICTED BY IDOCK:   -6.26 KCAL/MOL
REMARK 924 INTRA-LIGAND FREE ENERGY PREDICTED BY IDOCK:    3.11 KCAL/MOL
REMARK 927      BINDING AFFINITY PREDICTED BY RF-SCORE:    0.00 PKD
ROOT
HETATM    1  C   UNL     1     -10.727   7.354  67.767  1.00  0.00    -0.179 C  
HETATM    2  S   UNL     1      -9.024   6.889  67.345  1.00  0.00    -0.116 SA 
HETATM    3  C   UNL     1      -9.245   5.188  67.909  1.00  0.00    -0.115 C  
HETATM    4  C   UNL     1      -9.875   5.055  69.293  1.00  0.00    -0.266 C  
HETATM    5  CA  UNL     1     -10.605   6.036  69.893  1.00  0.00    -0.279 C  
HETATM    6  CA  UNL     1     -10.946   8.891  67.993  1.00  0.00     0.105 C  
HETATM    7  O   UNL     1     -11.716   8.912  70.494  1.00  0.00    -0.228 OA 
HETATM    8  N   UNL     1     -10.901   7.180  69.196  1.00  0.00    -0.196 N  
HETATM    9  C   UNL     1     -11.021   5.896  71.349  1.00  0.00    -0.263 C  
HETATM   10  OXT UNL     1     -10.550   5.068  72.113  1.00  0.00    -0.216 OA 
HETATM   11  O   UNL     1     -12.022   6.696  71.764  1.00  0.00    -0.318 OA 
HETATM   12  C   UNL     1     -11.318   8.437  69.457  1.00  0.00     0.299 C  
ENDROOT
BRANCH   4  13
HETATM   13  C   UNL     1      -9.449   3.729  69.931  1.00  0.00    -0.197 C  
BRANCH  13  14
HETATM   14  S   UNL     1      -8.582   3.858  71.516  1.00  0.00    -0.098 SA 
BRANCH  14  15
HETATM   15  C   UNL     1      -7.448   5.125  71.282  1.00  0.00    -0.090 A  
HETATM   16  N   UNL     1      -7.171   5.770  70.178  1.00  0.00    -0.070 NA 
HETATM   17  C   UNL     1      -6.598   5.252  73.671  1.00  0.00    -0.073 C  
HETATM   18  N   UNL     1      -6.168   6.655  70.500  1.00  0.00    -0.034 NA 
HETATM   19  N   UNL     1      -6.652   5.607  72.280  1.00  0.00    -0.060 NA 
HETATM   20  N   UNL     1      -5.845   6.561  71.783  1.00  0.00    -0.036 NA 
ENDBRANCH  14  15
ENDBRANCH  13  14
ENDBRANCH   4  13
BRANCH   6  21
HETATM   21  N   UNL     1      -9.704   9.714  67.868  1.00  0.00    -0.143 N  
HETATM   22  H   UNL     1      -8.915   9.326  67.349  1.00  0.00     0.000 HD 
HETATM   23  O   UNL     1     -10.531  11.579  68.896  1.00  0.00    -0.208 OA 
HETATM   24  C   UNL     1      -9.572  10.975  68.422  1.00  0.00    -0.181 C  
BRANCH  24  25
HETATM   25  CA  UNL     1      -8.093  11.452  68.551  1.00  0.00    -0.149 C  
BRANCH  25  26
HETATM   26  C   UNL     1      -7.284  11.093  67.300  1.00  0.00    -0.113 A  
HETATM   27  O   UNL     1      -5.125  10.237  63.834  1.00  0.00    -0.093 OA 
HETATM   28  C   UNL     1      -5.905  10.828  67.370  1.00  0.00    -0.045 A  
HETATM   29  C   UNL     1      -7.174  10.698  64.892  1.00  0.00     0.124 A  
HETATM   30  C   UNL     1      -5.806  10.491  64.985  1.00  0.00    -0.115 A  
HETATM   31  C   UNL     1      -5.167  10.537  66.218  1.00  0.00    -0.063 A  
HETATM   32  H   UNL     1      -5.563  10.205  62.991  1.00  0.00     0.000 HD 
HETATM   33  C   UNL     1      -7.911  10.980  66.042  1.00  0.00    -0.077 A  
ENDBRANCH  25  26
BRANCH  25  34
HETATM   34  N   UNL     1      -8.122  12.912  68.768  1.00  0.00    -0.346 N  
HETATM   35  C   UNL     1      -8.885  13.748  67.982  1.00  0.00    -0.182 C  
HETATM   36  H   UNL     1      -7.563  13.314  69.519  1.00  0.00     0.000 HD 
HETATM   37  O   UNL     1      -9.652  13.350  67.110  1.00  0.00    -0.226 OA 
BRANCH  35  38
HETATM   38  C   UNL     1      -8.818  15.205  68.246  1.00  0.00    -0.173 A  
HETATM   39  O   UNL     1     -11.240  15.437  68.260  1.00  0.00    -0.293 OA 
HETATM   40  C   UNL     1      -9.981  15.968  68.370  1.00  0.00    -0.220 A  
HETATM   41  C   UNL     1      -8.655  17.937  68.642  1.00  0.00    -0.266 A  
HETATM   42  C   UNL     1      -9.908  17.339  68.593  1.00  0.00    -0.313 A  
HETATM   43  H   UNL     1     -12.031  15.956  68.344  1.00  0.00     0.000 HD 
HETATM   44  N   UNL     1      -7.507  17.225  68.518  1.00  0.00    -0.231 NA 
HETATM   45  C   UNL     1      -8.518  19.427  68.751  1.00  0.00    -0.377 C  
HETATM   46  C   UNL     1      -7.614  15.887  68.321  1.00  0.00    -0.135 A  
ENDBRANCH  35  38
ENDBRANCH  25  34
ENDBRANCH  24  25
ENDBRANCH   6  21
TORSDOF 8
ENDMDL
MODEL      153
REMARK 921   NORMALIZED FREE ENERGY PREDICTED BY IDOCK:   -0.56 KCAL/MOL
REMARK 922        TOTAL FREE ENERGY PREDICTED BY IDOCK:   -2.64 KCAL/MOL
REMARK 923 INTER-LIGAND FREE ENERGY PREDICTED BY IDOCK:   -3.02 KCAL/MOL
REMARK 924 INTRA-LIGAND FREE ENERGY PREDICTED BY IDOCK:    0.38 KCAL/MOL
REMARK 927      BINDING AFFINITY PREDICTED BY RF-SCORE:    0.00 PKD
ROOT
HETATM    1  C   UNL     1      -9.637   8.878  64.644  1.00  0.00     0.833 C  
HETATM    2  S   UNL     1      -7.835   8.820  64.433  1.00  0.00    -0.139 SA 
HETATM    3  C   UNL     1      -7.821   7.030  64.205  1.00  0.00    -0.106 C  
HETATM    4  C   UNL     1      -8.608   6.250  65.255  1.00  0.00    -0.068 C  
HETATM    5  CA  UNL     1      -9.584   6.795  66.034  1.00  0.00     0.145 C  
HETATM    6  CA  UNL     1     -10.164  10.136  65.418  1.00  0.00    -0.211 C  
HETATM    7  O   UNL     1     -11.276   9.000  67.497  1.00  0.00     0.118 OA 
HETATM    8  N   UNL     1      -9.981   8.089  65.812  1.00  0.00     0.445 N  
HETATM    9  C   UNL     1     -10.172   6.001  67.189  1.00  0.00    -0.202 C  
HETATM   10  OXT UNL     1      -9.672   4.979  67.635  1.00  0.00    -0.139 OA 
HETATM   11  O   UNL     1     -11.351   6.435  67.674  1.00  0.00    -0.267 OA 
HETATM   12  C   UNL     1     -10.652   9.062  66.464  1.00  0.00    -0.006 C  
ENDROOT
BRANCH   4  13
HETATM   13  C   UNL     1      -8.043   4.831  65.379  1.00  0.00    -0.112 C  
BRANCH  13  14
HETATM   14  S   UNL     1      -6.288   4.714  65.807  1.00  0.00    -0.040 SA 
BRANCH  14  15
HETATM   15  C   UNL     1      -6.270   4.628  67.521  1.00  0.00    -0.039 A  
HETATM   16  N   UNL     1      -5.468   5.240  68.355  1.00  0.00    -0.010 NA 
HETATM   17  C   UNL     1      -8.209   3.011  67.790  1.00  0.00    -0.079 C  
HETATM   18  N   UNL     1      -5.830   4.810  69.611  1.00  0.00    -0.016 NA 
HETATM   19  N   UNL     1      -7.129   3.846  68.238  1.00  0.00    -0.051 NA 
HETATM   20  N   UNL     1      -6.844   3.957  69.547  1.00  0.00    -0.041 NA 
ENDBRANCH  14  15
ENDBRANCH  13  14
ENDBRANCH   4  13
BRANCH   6  21
HETATM   21  N   UNL     1      -9.088  11.058  65.895  1.00  0.00    -0.193 N  
HETATM   22  H   UNL     1      -8.209  10.653  66.218  1.00  0.00     0.000 HD 
HETATM   23  O   UNL     1     -10.173  13.002  65.381  1.00  0.00    -0.292 OA 
HETATM   24  C   UNL     1      -9.227  12.435  65.921  1.00  0.00     0.014 C  
BRANCH  24  25
HETATM   25  CA  UNL     1      -8.193  13.153  66.842  1.00  0.00     0.034 C  
BRANCH  25  26
HETATM   26  C   UNL     1      -8.744  14.486  67.358  1.00  0.00    -0.210 A  
HETATM   27  O   UNL     1     -10.377  18.070  68.736  1.00  0.00    -0.368 OA 
HETATM   28  C   UNL     1      -8.456  14.945  68.656  1.00  0.00    -0.166 A  
HETATM   29  C   UNL     1     -10.072  16.507  67.007  1.00  0.00    -0.279 A  
HETATM   30  C   UNL     1      -9.812  16.908  68.308  1.00  0.00    -0.266 A  
HETATM   31  C   UNL     1      -8.994  16.146  69.133  1.00  0.00    -0.237 A  
HETATM   32  H   UNL     1     -10.936  18.591  68.172  1.00  0.00     0.000 HD 
HETATM   33  C   UNL     1      -9.529  15.314  66.530  1.00  0.00    -0.308 A  
ENDBRANCH  25  26
BRANCH  25  34
HETATM   34  N   UNL     1      -7.889  12.233  67.956  1.00  0.00    -0.135 N  
HETATM   35  C   UNL     1      -6.674  11.592  68.057  1.00  0.00    -0.059 C  
HETATM   36  H   UNL     1      -8.597  12.068  68.671  1.00  0.00     0.000 HD 
HETATM   37  O   UNL     1      -5.734  11.790  67.294  1.00  0.00    -0.086 OA 
BRANCH  35  38
HETATM   38  C   UNL     1      -6.475  10.654  69.187  1.00  0.00    -0.056 A  
HETATM   39  O   UNL     1      -5.507  12.378  70.605  1.00  0.00    -0.142 OA 
HETATM   40  C   UNL     1      -5.908  11.085  70.389  1.00  0.00    -0.137 A  
HETATM   41  C   UNL     1      -6.027   8.856  71.240  1.00  0.00    -0.054 A  
HETATM   42  C   UNL     1      -5.701  10.192  71.435  1.00  0.00     0.031 A  
HETATM   43  H   UNL     1      -5.122  12.671  71.422  1.00  0.00     0.000 HD 
HETATM   44  N   UNL     1      -6.571   8.404  70.083  1.00  0.00    -0.038 NA 
HETATM   45  C   UNL     1      -5.707   7.827  72.284  1.00  0.00    -0.036 C  
HETATM   46  C   UNL     1      -6.778   9.305  69.090  1.00  0.00    -0.050 A  
ENDBRANCH  35  38
ENDBRANCH  25  34
ENDBRANCH  24  25
ENDBRANCH   6  21
TORSDOF 8
ENDMDL
MODEL      154
REMARK 921   NORMALIZED FREE ENERGY PREDICTED BY IDOCK:   -0.37 KCAL/MOL
REMARK 922        TOTAL FREE ENERGY PREDICTED BY IDOCK:   -2.36 KCAL/MOL
REMARK 923 INTER-LIGAND FREE ENERGY PREDICTED BY IDOCK:   -2.75 KCAL/MOL
REMARK 924 INTRA-LIGAND FREE ENERGY PREDICTED BY IDOCK:    0.39 KCAL/MOL
REMARK 927      BINDING AFFINITY PREDICTED BY RF-SCORE:    0.00 PKD
ROOT
HETATM    1  C   UNL     1     -11.698  12.786  66.799  1.00  0.00    -0.392 C  
HETATM    2  S   UNL     1     -11.727  11.207  67.694  1.00  0.00     0.076 SA 
HETATM    3  C   UNL     1     -12.939  11.797  68.894  1.00  0.00     2.126 C  
HETATM    4  C   UNL     1     -12.610  13.153  69.514  1.00  0.00     0.272 C  
HETATM    5  CA  UNL     1     -11.759  14.058  68.956  1.00  0.00    -0.330 C  
HETATM    6  CA  UNL     1     -10.398  13.036  65.959  1.00  0.00    -0.285 C  
HETATM    7  O   UNL     1      -9.468  15.186  67.126  1.00  0.00    -0.208 OA 
HETATM    8  N   UNL     1     -11.235  13.814  67.711  1.00  0.00    -0.278 N  
HETATM    9  C   UNL     1     -11.332  15.290  69.738  1.00  0.00    -0.289 C  
HETATM   10  OXT UNL     1     -11.507  15.425  70.940  1.00  0.00    -0.300 OA 
HETATM   11  O   UNL     1     -10.804  16.300  69.021  1.00  0.00    -0.273 OA 
HETATM   12  C   UNL     1     -10.212  14.251  66.947  1.00  0.00    -0.266 C  
ENDROOT
BRANCH   4  13
HETATM   13  C   UNL     1     -13.269  13.266  70.893  1.00  0.00     0.100 C  
BRANCH  13  14
HETATM   14  S   UNL     1     -12.544  12.246  72.201  1.00  0.00     0.647 SA 
BRANCH  14  15
HETATM   15  C   UNL     1     -12.252  10.730  71.450  1.00  0.00    -0.269 A  
HETATM   16  N   UNL     1     -11.251  10.387  70.680  1.00  0.00    -0.321 NA 
HETATM   17  C   UNL     1     -14.312   9.528  72.323  1.00  0.00     0.131 C  
HETATM   18  N   UNL     1     -11.497   9.087  70.300  1.00  0.00    -0.185 NA 
HETATM   19  N   UNL     1     -13.097   9.665  71.567  1.00  0.00    -0.376 NA 
HETATM   20  N   UNL     1     -12.624   8.640  70.836  1.00  0.00    -0.050 NA 
ENDBRANCH  14  15
ENDBRANCH  13  14
ENDBRANCH   4  13
BRANCH   6  21
HETATM   21  N   UNL     1      -9.376  11.951  66.071  1.00  0.00    -0.279 N  
HETATM   22  H   UNL     1      -9.084  11.653  67.002  1.00  0.00     0.000 HD 
HETATM   23  O   UNL     1      -9.234  11.503  63.835  1.00  0.00    -0.080 OA 
HETATM   24  C   UNL     1      -8.805  11.331  64.973  1.00  0.00     0.066 C  
BRANCH  24  25
HETATM   25  CA  UNL     1      -7.483  10.570  65.298  1.00  0.00    -0.065 C  
BRANCH  25  26
HETATM   26  C   UNL     1      -7.101  10.732  66.773  1.00  0.00    -0.127 A  
HETATM   27  O   UNL     1      -6.108  11.306  70.785  1.00  0.00    -0.344 OA 
HETATM   28  C   UNL     1      -7.607   9.868  67.761  1.00  0.00    -0.090 A  
HETATM   29  C   UNL     1      -5.878  11.916  68.526  1.00  0.00    -0.049 A  
HETATM   30  C   UNL     1      -6.432  11.079  69.482  1.00  0.00    -0.109 A  
HETATM   31  C   UNL     1      -7.282  10.045  69.110  1.00  0.00    -0.076 A  
HETATM   32  H   UNL     1      -5.527  12.013  71.039  1.00  0.00     0.000 HD 
HETATM   33  C   UNL     1      -6.195  11.733  67.180  1.00  0.00    -0.147 A  
ENDBRANCH  25  26
BRANCH  25  34
HETATM   34  N   UNL     1      -7.700   9.151  64.955  1.00  0.00    -0.105 N  
HETATM   35  C   UNL     1      -6.670   8.235  64.968  1.00  0.00    -0.063 C  
HETATM   36  H   UNL     1      -8.637   8.839  64.702  1.00  0.00     0.000 HD 
HETATM   37  O   UNL     1      -5.531   8.498  65.338  1.00  0.00    -0.035 OA 
BRANCH  35  38
HETATM   38  C   UNL     1      -6.976   6.841  64.567  1.00  0.00    -0.058 A  
HETATM   39  O   UNL     1      -8.274   7.552  62.636  1.00  0.00    -0.266 OA 
HETATM   40  C   UNL     1      -7.752   6.571  63.438  1.00  0.00    -0.106 A  
HETATM   41  C   UNL     1      -7.608   4.231  63.904  1.00  0.00    -0.067 A  
HETATM   42  C   UNL     1      -8.055   5.260  63.085  1.00  0.00    -0.104 A  
HETATM   43  H   UNL     1      -8.802   7.368  61.869  1.00  0.00     0.000 HD 
HETATM   44  N   UNL     1      -6.859   4.462  65.012  1.00  0.00    -0.049 NA 
HETATM   45  C   UNL     1      -8.012   2.810  63.644  1.00  0.00    -0.081 C  
HETATM   46  C   UNL     1      -6.565   5.750  65.317  1.00  0.00    -0.043 A  
ENDBRANCH  35  38
ENDBRANCH  25  34
ENDBRANCH  24  25
ENDBRANCH   6  21
TORSDOF 8
ENDMDL
MODEL      155
REMARK 921   NORMALIZED FREE ENERGY PREDICTED BY IDOCK:    0.05 KCAL/MOL
REMARK 922        TOTAL FREE ENERGY PREDICTED BY IDOCK:   -1.74 KCAL/MOL
REMARK 923 INTER-LIGAND FREE ENERGY PREDICTED BY IDOCK:   -5.91 KCAL/MOL
REMARK 924 INTRA-LIGAND FREE ENERGY PREDICTED BY IDOCK:    4.18 KCAL/MOL
REMARK 927      BINDING AFFINITY PREDICTED BY RF-SCORE:    0.00 PKD
ROOT
HETATM    1  C   UNL     1     -10.407  10.778  67.173  1.00  0.00    -0.224 C  
HETATM    2  S   UNL     1     -10.663  11.793  68.656  1.00  0.00    -0.225 SA 
HETATM    3  C   UNL     1      -9.917  13.255  67.904  1.00  0.00    -0.233 C  
HETATM    4  C   UNL     1      -8.570  13.005  67.232  1.00  0.00    -0.206 C  
HETATM    5  CA  UNL     1      -8.137  11.777  66.830  1.00  0.00    -0.133 C  
HETATM    6  CA  UNL     1     -10.380   9.233  67.438  1.00  0.00    -0.263 C  
HETATM    7  O   UNL     1      -7.952   8.646  66.655  1.00  0.00    -0.095 OA 
HETATM    8  N   UNL     1      -8.982  10.700  66.920  1.00  0.00    -0.137 N  
HETATM    9  C   UNL     1      -6.704  11.589  66.357  1.00  0.00     0.057 C  
HETATM   10  OXT UNL     1      -5.818  12.414  66.530  1.00  0.00    -0.070 OA 
HETATM   11  O   UNL     1      -6.450  10.475  65.646  1.00  0.00    -0.121 OA 
HETATM   12  C   UNL     1      -8.899   9.353  66.910  1.00  0.00    -0.127 C  
ENDROOT
BRANCH   4  13
HETATM   13  C   UNL     1      -7.753  14.301  67.210  1.00  0.00    -0.120 C  
BRANCH  13  14
HETATM   14  S   UNL     1      -8.446  15.656  66.230  1.00  0.00     0.012 SA 
BRANCH  14  15
HETATM   15  C   UNL     1      -9.916  15.025  65.607  1.00  0.00    -0.355 A  
HETATM   16  N   UNL     1     -10.110  14.385  64.482  1.00  0.00    -0.080 NA 
HETATM   17  C   UNL     1     -11.421  15.743  67.521  1.00  0.00    -0.063 C  
HETATM   18  N   UNL     1     -11.461  14.129  64.422  1.00  0.00    -0.361 NA 
HETATM   19  N   UNL     1     -11.114  15.151  66.248  1.00  0.00    -0.333 NA 
HETATM   20  N   UNL     1     -12.081  14.595  65.497  1.00  0.00    -0.275 NA 
ENDBRANCH  14  15
ENDBRANCH  13  14
ENDBRANCH   4  13
BRANCH   6  21
HETATM   21  N   UNL     1     -10.523   8.852  68.877  1.00  0.00    -0.243 N  
HETATM   22  H   UNL     1     -11.440   8.557  69.211  1.00  0.00     0.000 HD 
HETATM   23  O   UNL     1      -8.311   9.048  69.413  1.00  0.00    -0.113 OA 
HETATM   24  C   UNL     1      -9.472   8.883  69.777  1.00  0.00    -0.170 C  
BRANCH  24  25
HETATM   25  CA  UNL     1      -9.924   8.880  71.269  1.00  0.00    -0.288 C  
BRANCH  25  26
HETATM   26  C   UNL     1     -11.132   9.799  71.483  1.00  0.00    -0.222 A  
HETATM   27  O   UNL     1     -14.400  12.289  72.206  1.00  0.00     0.121 OA 
HETATM   28  C   UNL     1     -11.191  11.079  70.904  1.00  0.00     0.595 A  
HETATM   29  C   UNL     1     -13.325  10.216  72.476  1.00  0.00    -0.004 A  
HETATM   30  C   UNL     1     -13.331  11.492  71.933  1.00  0.00    -0.303 A  
HETATM   31  C   UNL     1     -12.281  11.926  71.135  1.00  0.00    -0.170 A  
HETATM   32  H   UNL     1     -15.119  11.992  72.752  1.00  0.00     0.000 HD 
HETATM   33  C   UNL     1     -12.242   9.369  72.239  1.00  0.00    -0.246 A  
ENDBRANCH  25  26
BRANCH  25  34
HETATM   34  N   UNL     1     -10.244   7.484  71.627  1.00  0.00    -0.185 N  
HETATM   35  C   UNL     1      -9.810   6.918  72.805  1.00  0.00    -0.167 C  
HETATM   36  H   UNL     1     -10.802   6.923  70.983  1.00  0.00     0.000 HD 
HETATM   37  O   UNL     1      -9.206   7.536  73.675  1.00  0.00    -0.222 OA 
BRANCH  35  38
HETATM   38  C   UNL     1     -10.145   5.496  73.058  1.00  0.00    -0.204 A  
HETATM   39  O   UNL     1      -9.276   4.782  70.900  1.00  0.00    -0.129 OA 
HETATM   40  C   UNL     1      -9.867   4.511  72.106  1.00  0.00    -0.177 A  
HETATM   41  C   UNL     1     -10.873   2.868  73.520  1.00  0.00    -0.213 A  
HETATM   42  C   UNL     1     -10.209   3.184  72.342  1.00  0.00    -0.197 A  
HETATM   43  H   UNL     1      -9.087   4.113  70.254  1.00  0.00     0.000 HD 
HETATM   44  N   UNL     1     -11.164   3.803  74.460  1.00  0.00     0.268 NA 
HETATM   45  C   UNL     1     -11.379   1.478  73.769  1.00  0.00    -0.274 C  
HETATM   46  C   UNL     1     -10.800   5.085  74.208  1.00  0.00    -0.016 A  
ENDBRANCH  35  38
ENDBRANCH  25  34
ENDBRANCH  24  25
ENDBRANCH   6  21
TORSDOF 8
ENDMDL
MODEL      156
REMARK 921   NORMALIZED FREE ENERGY PREDICTED BY IDOCK:    0.74 KCAL/MOL
REMARK 922        TOTAL FREE ENERGY PREDICTED BY IDOCK:   -0.72 KCAL/MOL
REMARK 923 INTER-LIGAND FREE ENERGY PREDICTED BY IDOCK:    0.08 KCAL/MOL
REMARK 924 INTRA-LIGAND FREE ENERGY PREDICTED BY IDOCK:   -0.80 KCAL/MOL
REMARK 927      BINDING AFFINITY PREDICTED BY RF-SCORE:    0.00 PKD
ROOT
HETATM    1  C   UNL     1      -5.134  13.448  69.050  1.00  0.00    -0.070 C  
HETATM    2  S   UNL     1      -5.734  13.067  67.381  1.00  0.00     0.107 SA 
HETATM    3  C   UNL     1      -5.350  14.718  66.759  1.00  0.00     2.018 C  
HETATM    4  C   UNL     1      -5.857  15.860  67.636  1.00  0.00    -0.171 C  
HETATM    5  CA  UNL     1      -6.178  15.723  68.952  1.00  0.00    -0.114 C  
HETATM    6  CA  UNL     1      -5.723  12.535  70.180  1.00  0.00    -0.155 C  
HETATM    7  O   UNL     1      -6.968  14.311  71.646  1.00  0.00     1.029 OA 
HETATM    8  N   UNL     1      -5.941  14.528  69.585  1.00  0.00    -0.103 N  
HETATM    9  C   UNL     1      -6.865  16.858  69.694  1.00  0.00    -0.014 C  
HETATM   10  OXT UNL     1      -7.377  17.820  69.139  1.00  0.00    -0.220 OA 
HETATM   11  O   UNL     1      -6.823  16.807  71.038  1.00  0.00     2.172 OA 
HETATM   12  C   UNL     1      -6.328  13.891  70.710  1.00  0.00     0.067 C  
ENDROOT
BRANCH   4  13
HETATM   13  C   UNL     1      -6.068  17.114  66.782  1.00  0.00    -0.208 C  
BRANCH  13  14
HETATM   14  S   UNL     1      -7.683  17.260  65.978  1.00  0.00    -0.047 SA 
BRANCH  14  15
HETATM   15  C   UNL     1      -8.203  18.855  66.346  1.00  0.00    -0.294 A  
HETATM   16  N   UNL     1      -9.381  19.248  66.757  1.00  0.00    -0.314 NA 
HETATM   17  C   UNL     1      -6.016  20.040  65.836  1.00  0.00    -0.176 C  
HETATM   18  N   UNL     1      -9.305  20.617  66.867  1.00  0.00    -0.288 NA 
HETATM   19  N   UNL     1      -7.398  19.949  66.221  1.00  0.00    -0.273 NA 
HETATM   20  N   UNL     1      -8.096  21.053  66.541  1.00  0.00     0.342 NA 
ENDBRANCH  14  15
ENDBRANCH  13  14
ENDBRANCH   4  13
BRANCH   6  21
HETATM   21  N   UNL     1      -6.720  11.529  69.700  1.00  0.00    -0.255 N  
HETATM   22  H   UNL     1      -7.071  11.611  68.746  1.00  0.00     0.000 HD 
HETATM   23  O   UNL     1      -6.682  10.219  71.571  1.00  0.00     0.027 OA 
HETATM   24  C   UNL     1      -7.190  10.491  70.487  1.00  0.00     0.473 C  
BRANCH  24  25
HETATM   25  CA  UNL     1      -8.510   9.851  69.959  1.00  0.00    -0.165 C  
BRANCH  25  26
HETATM   26  C   UNL     1      -8.458   9.648  68.441  1.00  0.00    -0.118 A  
HETATM   27  O   UNL     1      -8.399   8.981  64.323  1.00  0.00    -0.160 OA 
HETATM   28  C   UNL     1      -8.855  10.663  67.552  1.00  0.00    -0.132 A  
HETATM   29  C   UNL     1      -7.963   8.236  66.509  1.00  0.00    -0.100 A  
HETATM   30  C   UNL     1      -8.408   9.237  65.660  1.00  0.00    -0.123 A  
HETATM   31  C   UNL     1      -8.839  10.456  66.168  1.00  0.00    -0.172 A  
HETATM   32  H   UNL     1      -8.104   8.147  63.975  1.00  0.00     0.000 HD 
HETATM   33  C   UNL     1      -7.971   8.446  67.889  1.00  0.00    -0.115 A  
ENDBRANCH  25  26
BRANCH  25  34
HETATM   34  N   UNL     1      -8.685   8.566  70.664  1.00  0.00    -0.143 N  
HETATM   35  C   UNL     1      -9.660   8.390  71.621  1.00  0.00    -0.221 C  
HETATM   36  H   UNL     1      -8.067   7.788  70.437  1.00  0.00     0.000 HD 
HETATM   37  O   UNL     1     -10.499   9.239  71.902  1.00  0.00    -0.305 OA 
BRANCH  35  38
HETATM   38  C   UNL     1      -9.732   7.077  72.306  1.00  0.00    -0.169 A  
HETATM   39  O   UNL     1     -12.156   6.981  72.127  1.00  0.00    -0.367 OA 
HETATM   40  C   UNL     1     -10.959   6.446  72.525  1.00  0.00    -0.251 A  
HETATM   41  C   UNL     1      -9.838   4.677  73.675  1.00  0.00    -0.142 A  
HETATM   42  C   UNL     1     -11.018   5.227  73.192  1.00  0.00    -0.362 A  
HETATM   43  H   UNL     1     -12.990   6.552  72.276  1.00  0.00     0.000 HD 
HETATM   44  N   UNL     1      -8.633   5.269  73.487  1.00  0.00    -0.112 NA 
HETATM   45  C   UNL     1      -9.857   3.431  74.512  1.00  0.00    -0.172 C  
HETATM   46  C   UNL     1      -8.607   6.447  72.816  1.00  0.00    -0.125 A  
ENDBRANCH  35  38
ENDBRANCH  25  34
ENDBRANCH  24  25
ENDBRANCH   6  21
TORSDOF 8
ENDMDL
MODEL      157
REMARK 921   NORMALIZED FREE ENERGY PREDICTED BY IDOCK:    1.01 KCAL/MOL
REMARK 922        TOTAL FREE ENERGY PREDICTED BY IDOCK:   -0.33 KCAL/MOL
REMARK 923 INTER-LIGAND FREE ENERGY PREDICTED BY IDOCK:    1.02 KCAL/MOL
REMARK 924 INTRA-LIGAND FREE ENERGY PREDICTED BY IDOCK:   -1.35 KCAL/MOL
REMARK 927      BINDING AFFINITY PREDICTED BY RF-SCORE:    0.00 PKD
ROOT
HETATM    1  C   UNL     1     -11.713  11.178  68.760  1.00  0.00    -0.326 C  
HETATM    2  S   UNL     1     -10.136  11.155  69.659  1.00  0.00     0.465 SA 
HETATM    3  C   UNL     1     -10.233  12.911  70.068  1.00  0.00     2.090 C  
HETATM    4  C   UNL     1     -10.558  13.821  68.887  1.00  0.00    -0.224 C  
HETATM    5  CA  UNL     1     -11.147  13.392  67.737  1.00  0.00    -0.268 C  
HETATM    6  CA  UNL     1     -11.883  10.025  67.710  1.00  0.00     1.563 C  
HETATM    7  O   UNL     1     -12.111  11.408  65.500  1.00  0.00     0.112 OA 
HETATM    8  N   UNL     1     -11.584  12.095  67.644  1.00  0.00    -0.338 N  
HETATM    9  C   UNL     1     -11.249  14.321  66.538  1.00  0.00    -0.332 C  
HETATM   10  OXT UNL     1     -10.626  15.368  66.435  1.00  0.00    -0.295 OA 
HETATM   11  O   UNL     1     -12.141  13.979  65.589  1.00  0.00    -0.375 OA 
HETATM   12  C   UNL     1     -11.938  11.219  66.681  1.00  0.00     0.992 C  
ENDROOT
BRANCH   4  13
HETATM   13  C   UNL     1     -10.006  15.227  69.148  1.00  0.00    -0.238 C  
BRANCH  13  14
HETATM   14  S   UNL     1      -8.445  15.305  70.063  1.00  0.00     0.627 SA 
BRANCH  14  15
HETATM   15  C   UNL     1      -7.472  16.391  69.157  1.00  0.00    -0.228 A  
HETATM   16  N   UNL     1      -7.765  17.603  68.762  1.00  0.00    -0.266 NA 
HETATM   17  C   UNL     1      -5.444  14.884  68.904  1.00  0.00    -0.087 C  
HETATM   18  N   UNL     1      -6.678  18.036  68.037  1.00  0.00    -0.194 NA 
HETATM   19  N   UNL     1      -6.223  16.076  68.709  1.00  0.00    -0.112 NA 
HETATM   20  N   UNL     1      -5.732  17.108  67.999  1.00  0.00    -0.118 NA 
ENDBRANCH  14  15
ENDBRANCH  13  14
ENDBRANCH   4  13
BRANCH   6  21
HETATM   21  N   UNL     1     -10.696   9.125  67.590  1.00  0.00    -0.439 N  
HETATM   22  H   UNL     1     -10.299   8.728  68.442  1.00  0.00     0.000 HD 
HETATM   23  O   UNL     1     -10.634   9.089  65.307  1.00  0.00     1.447 OA 
HETATM   24  C   UNL     1     -10.108   8.803  66.379  1.00  0.00    -0.243 C  
BRANCH  24  25
HETATM   25  CA  UNL     1      -8.663   8.232  66.515  1.00  0.00    -0.141 C  
BRANCH  25  26
HETATM   26  C   UNL     1      -7.693   8.949  65.569  1.00  0.00    -0.088 A  
HETATM   27  O   UNL     1      -5.165  10.949  62.920  1.00  0.00    -0.170 OA 
HETATM   28  C   UNL     1      -6.771   9.897  66.047  1.00  0.00    -0.094 A  
HETATM   29  C   UNL     1      -6.824   9.331  63.318  1.00  0.00    -0.090 A  
HETATM   30  C   UNL     1      -5.961  10.297  63.812  1.00  0.00    -0.138 A  
HETATM   31  C   UNL     1      -5.914  10.575  65.172  1.00  0.00    -0.113 A  
HETATM   32  H   UNL     1      -5.197  10.758  61.989  1.00  0.00     0.000 HD 
HETATM   33  C   UNL     1      -7.672   8.650  64.192  1.00  0.00    -0.129 A  
ENDBRANCH  25  26
BRANCH  25  34
HETATM   34  N   UNL     1      -8.257   8.400  67.924  1.00  0.00    -0.126 N  
HETATM   35  C   UNL     1      -7.850   7.333  68.695  1.00  0.00    -0.122 C  
HETATM   36  H   UNL     1      -8.279   9.331  68.339  1.00  0.00     0.000 HD 
HETATM   37  O   UNL     1      -7.713   6.194  68.262  1.00  0.00    -0.099 OA 
BRANCH  35  38
HETATM   38  C   UNL     1      -7.503   7.593  70.113  1.00  0.00    -0.084 A  
HETATM   39  O   UNL     1      -8.635   5.581  70.884  1.00  0.00    -0.124 OA 
HETATM   40  C   UNL     1      -7.907   6.718  71.124  1.00  0.00    -0.101 A  
HETATM   41  C   UNL     1      -6.922   8.158  72.757  1.00  0.00    -0.096 A  
HETATM   42  C   UNL     1      -7.598   6.983  72.454  1.00  0.00    -0.090 A  
HETATM   43  H   UNL     1      -8.909   4.987  71.571  1.00  0.00     0.000 HD 
HETATM   44  N   UNL     1      -6.524   9.031  71.799  1.00  0.00    -0.194 NA 
HETATM   45  C   UNL     1      -6.677   8.558  74.182  1.00  0.00    -0.147 C  
HETATM   46  C   UNL     1      -6.823   8.733  70.510  1.00  0.00    -0.046 A  
ENDBRANCH  35  38
ENDBRANCH  25  34
ENDBRANCH  24  25
ENDBRANCH   6  21
TORSDOF 8
ENDMDL
MODEL      158
REMARK 921   NORMALIZED FREE ENERGY PREDICTED BY IDOCK:    1.41 KCAL/MOL
REMARK 922        TOTAL FREE ENERGY PREDICTED BY IDOCK:    0.26 KCAL/MOL
REMARK 923 INTER-LIGAND FREE ENERGY PREDICTED BY IDOCK:    0.85 KCAL/MOL
REMARK 924 INTRA-LIGAND FREE ENERGY PREDICTED BY IDOCK:   -0.59 KCAL/MOL
REMARK 927      BINDING AFFINITY PREDICTED BY RF-SCORE:    0.00 PKD
ROOT
HETATM    1  C   UNL     1      -5.134  13.448  69.050  1.00  0.00    -0.070 C  
HETATM    2  S   UNL     1      -5.721  13.078  67.373  1.00  0.00     0.107 SA 
HETATM    3  C   UNL     1      -5.347  14.738  66.770  1.00  0.00     2.018 C  
HETATM    4  C   UNL     1      -5.869  15.867  67.655  1.00  0.00    -0.171 C  
HETATM    5  CA  UNL     1      -6.197  15.714  68.968  1.00  0.00    -0.113 C  
HETATM    6  CA  UNL     1      -5.722  12.519  70.168  1.00  0.00    -0.155 C  
HETATM    7  O   UNL     1      -6.991  14.270  71.642  1.00  0.00     1.029 OA 
HETATM    8  N   UNL     1      -5.953  14.516  69.590  1.00  0.00    -0.103 N  
HETATM    9  C   UNL     1      -6.899  16.836  69.716  1.00  0.00     0.117 C  
HETATM   10  OXT UNL     1      -7.415  17.799  69.167  1.00  0.00    -0.206 OA 
HETATM   11  O   UNL     1      -6.865  16.773  71.060  1.00  0.00     2.172 OA 
HETATM   12  C   UNL     1      -6.342  13.865  70.707  1.00  0.00     0.067 C  
ENDROOT
BRANCH   4  13
HETATM   13  C   UNL     1      -6.086  17.128  66.812  1.00  0.00    -0.208 C  
BRANCH  13  14
HETATM   14  S   UNL     1      -7.698  17.268  65.999  1.00  0.00    -0.047 SA 
BRANCH  14  15
HETATM   15  C   UNL     1      -8.233  18.854  66.379  1.00  0.00    -0.294 A  
HETATM   16  N   UNL     1      -9.418  19.232  66.786  1.00  0.00    -0.314 NA 
HETATM   17  C   UNL     1      -6.054  20.063  65.894  1.00  0.00    -0.185 C  
HETATM   18  N   UNL     1      -9.354  20.601  66.911  1.00  0.00    -0.288 NA 
HETATM   19  N   UNL     1      -7.437  19.956  66.270  1.00  0.00    -0.285 NA 
HETATM   20  N   UNL     1      -8.147  21.051  66.596  1.00  0.00     0.233 NA 
ENDBRANCH  14  15
ENDBRANCH  13  14
ENDBRANCH   4  13
BRANCH   6  21
HETATM   21  N   UNL     1      -6.707  11.509  69.672  1.00  0.00    -0.255 N  
HETATM   22  H   UNL     1      -7.053  11.597  68.716  1.00  0.00     0.000 HD 
HETATM   23  O   UNL     1      -6.669  10.182  71.531  1.00  0.00    -0.113 OA 
HETATM   24  C   UNL     1      -7.172  10.460  70.446  1.00  0.00     0.148 C  
BRANCH  24  25
HETATM   25  CA  UNL     1      -8.484   9.813  69.903  1.00  0.00    -0.201 C  
BRANCH  25  26
HETATM   26  C   UNL     1      -9.573  10.870  69.686  1.00  0.00     0.259 A  
HETATM   27  O   UNL     1     -12.556  13.751  69.237  1.00  0.00    -0.316 OA 
HETATM   28  C   UNL     1      -9.306  12.067  68.998  1.00  0.00     0.299 A  
HETATM   29  C   UNL     1     -11.875  11.630  69.986  1.00  0.00    -0.435 A  
HETATM   30  C   UNL     1     -11.569  12.821  69.348  1.00  0.00    -0.298 A  
HETATM   31  C   UNL     1     -10.296  13.042  68.836  1.00  0.00    -0.067 A  
HETATM   32  H   UNL     1     -13.427  13.599  69.586  1.00  0.00     0.000 HD 
HETATM   33  C   UNL     1     -10.890  10.654  70.140  1.00  0.00    -0.224 A  
ENDBRANCH  25  26
BRANCH  25  34
HETATM   34  N   UNL     1      -8.144   9.130  68.640  1.00  0.00    -0.101 N  
HETATM   35  C   UNL     1      -8.691   7.911  68.303  1.00  0.00    -0.130 C  
HETATM   36  H   UNL     1      -7.485   9.571  67.999  1.00  0.00     0.000 HD 
HETATM   37  O   UNL     1      -9.551   7.345  68.969  1.00  0.00    -0.148 OA 
BRANCH  35  38
HETATM   38  C   UNL     1      -8.257   7.281  67.033  1.00  0.00    -0.117 A  
HETATM   39  O   UNL     1     -10.529   6.657  66.426  1.00  0.00    -0.461 OA 
HETATM   40  C   UNL     1      -9.183   6.692  66.169  1.00  0.00    -0.087 A  
HETATM   41  C   UNL     1      -7.402   6.027  64.721  1.00  0.00    -0.074 A  
HETATM   42  C   UNL     1      -8.763   6.080  64.993  1.00  0.00     0.026 A  
HETATM   43  H   UNL     1     -11.158   6.256  65.839  1.00  0.00     0.000 HD 
HETATM   44  N   UNL     1      -6.478   6.583  65.544  1.00  0.00    -0.038 NA 
HETATM   45  C   UNL     1      -6.884   5.269  63.535  1.00  0.00    -0.041 C  
HETATM   46  C   UNL     1      -6.922   7.189  66.673  1.00  0.00    -0.077 A  
ENDBRANCH  35  38
ENDBRANCH  25  34
ENDBRANCH  24  25
ENDBRANCH   6  21
TORSDOF 8
ENDMDL
MODEL      159
REMARK 921   NORMALIZED FREE ENERGY PREDICTED BY IDOCK:    1.74 KCAL/MOL
REMARK 922        TOTAL FREE ENERGY PREDICTED BY IDOCK:    0.73 KCAL/MOL
REMARK 923 INTER-LIGAND FREE ENERGY PREDICTED BY IDOCK:   -1.54 KCAL/MOL
REMARK 924 INTRA-LIGAND FREE ENERGY PREDICTED BY IDOCK:    2.28 KCAL/MOL
REMARK 927      BINDING AFFINITY PREDICTED BY RF-SCORE:    0.00 PKD
ROOT
HETATM    1  C   UNL     1      -9.352  11.161  65.285  1.00  0.00    -0.219 C  
HETATM    2  S   UNL     1     -10.512  11.797  66.527  1.00  0.00    -0.239 SA 
HETATM    3  C   UNL     1      -9.969  13.504  66.303  1.00  0.00    -0.298 C  
HETATM    4  C   UNL     1      -8.455  13.698  66.333  1.00  0.00     0.486 C  
HETATM    5  CA  UNL     1      -7.556  12.698  66.112  1.00  0.00     1.571 C  
HETATM    6  CA  UNL     1      -8.999   9.641  65.440  1.00  0.00    -0.190 C  
HETATM    7  O   UNL     1      -6.419   9.780  65.863  1.00  0.00    -0.075 OA 
HETATM    8  N   UNL     1      -8.005  11.459  65.730  1.00  0.00     0.145 N  
HETATM    9  C   UNL     1      -6.075  12.933  66.362  1.00  0.00     2.405 C  
HETATM   10  OXT UNL     1      -5.634  13.891  66.980  1.00  0.00     0.058 OA 
HETATM   11  O   UNL     1      -5.226  12.058  65.791  1.00  0.00     0.235 OA 
HETATM   12  C   UNL     1      -7.541  10.192  65.682  1.00  0.00    -0.144 C  
ENDROOT
BRANCH   4  13
HETATM   13  C   UNL     1      -8.124  15.127  66.775  1.00  0.00    -0.078 C  
BRANCH  13  14
HETATM   14  S   UNL     1      -9.377  15.952  67.788  1.00  0.00    -0.207 SA 
BRANCH  14  15
HETATM   15  C   UNL     1      -8.637  17.423  68.271  1.00  0.00    -0.260 A  
HETATM   16  N   UNL     1      -7.756  17.613  69.220  1.00  0.00    -0.008 NA 
HETATM   17  C   UNL     1      -9.799  18.941  66.600  1.00  0.00    -0.358 C  
HETATM   18  N   UNL     1      -7.510  18.967  69.241  1.00  0.00    -0.187 NA 
HETATM   19  N   UNL     1      -8.924  18.626  67.696  1.00  0.00    -0.274 NA 
HETATM   20  N   UNL     1      -8.221  19.593  68.313  1.00  0.00    -0.330 NA 
ENDBRANCH  14  15
ENDBRANCH  13  14
ENDBRANCH   4  13
BRANCH   6  21
HETATM   21  N   UNL     1      -9.641   8.978  66.616  1.00  0.00    -0.193 N  
HETATM   22  H   UNL     1      -9.989   9.565  67.374  1.00  0.00     0.000 HD 
HETATM   23  O   UNL     1      -9.563   6.852  65.782  1.00  0.00     0.162 OA 
HETATM   24  C   UNL     1      -9.786   7.606  66.726  1.00  0.00    -0.237 C  
BRANCH  24  25
HETATM   25  CA  UNL     1     -10.066   7.119  68.181  1.00  0.00    -0.169 C  
BRANCH  25  26
HETATM   26  C   UNL     1      -8.759   6.869  68.941  1.00  0.00    -0.130 A  
HETATM   27  O   UNL     1      -5.132   6.263  70.913  1.00  0.00    -0.013 OA 
HETATM   28  C   UNL     1      -8.617   7.228  70.293  1.00  0.00    -0.142 A  
HETATM   29  C   UNL     1      -6.460   6.042  68.986  1.00  0.00    -0.043 A  
HETATM   30  C   UNL     1      -6.335   6.453  70.303  1.00  0.00    -0.039 A  
HETATM   31  C   UNL     1      -7.408   7.030  70.970  1.00  0.00    -0.077 A  
HETATM   32  H   UNL     1      -4.398   5.869  70.457  1.00  0.00     0.000 HD 
HETATM   33  C   UNL     1      -7.668   6.233  68.314  1.00  0.00    -0.104 A  
ENDBRANCH  25  26
BRANCH  25  34
HETATM   34  N   UNL     1     -10.877   8.161  68.842  1.00  0.00    -0.425 N  
HETATM   35  C   UNL     1     -10.408   9.445  69.015  1.00  0.00    -0.210 C  
HETATM   36  H   UNL     1     -11.809   7.924  69.179  1.00  0.00     0.000 HD 
HETATM   37  O   UNL     1      -9.337   9.844  68.572  1.00  0.00    -0.139 OA 
BRANCH  35  38
HETATM   38  C   UNL     1     -11.278  10.411  69.728  1.00  0.00    -0.353 A  
HETATM   39  O   UNL     1     -12.609   8.647  70.746  1.00  0.00    -0.498 OA 
HETATM   40  C   UNL     1     -12.322   9.972  70.546  1.00  0.00    -0.200 A  
HETATM   41  C   UNL     1     -12.941  12.242  70.965  1.00  0.00    -0.064 A  
HETATM   42  C   UNL     1     -13.148  10.887  71.190  1.00  0.00    -0.351 A  
HETATM   43  H   UNL     1     -13.319   8.349  71.302  1.00  0.00     0.000 HD 
HETATM   44  N   UNL     1     -11.942  12.699  70.170  1.00  0.00    -0.341 NA 
HETATM   45  C   UNL     1     -13.880  13.267  71.529  1.00  0.00     0.124 C  
HETATM   46  C   UNL     1     -11.141  11.781  69.572  1.00  0.00    -0.133 A  
ENDBRANCH  35  38
ENDBRANCH  25  34
ENDBRANCH  24  25
ENDBRANCH   6  21
TORSDOF 8
ENDMDL
MODEL      160
REMARK 921   NORMALIZED FREE ENERGY PREDICTED BY IDOCK:    1.88 KCAL/MOL
REMARK 922        TOTAL FREE ENERGY PREDICTED BY IDOCK:    0.95 KCAL/MOL
REMARK 923 INTER-LIGAND FREE ENERGY PREDICTED BY IDOCK:    0.33 KCAL/MOL
REMARK 924 INTRA-LIGAND FREE ENERGY PREDICTED BY IDOCK:    0.61 KCAL/MOL
REMARK 927      BINDING AFFINITY PREDICTED BY RF-SCORE:    0.00 PKD
ROOT
HETATM    1  C   UNL     1      -5.472  11.401  68.857  1.00  0.00    -0.039 C  
HETATM    2  S   UNL     1      -6.242  11.648  67.232  1.00  0.00    -0.131 SA 
HETATM    3  C   UNL     1      -5.544  13.303  67.045  1.00  0.00     0.797 C  
HETATM    4  C   UNL     1      -5.734  14.213  68.255  1.00  0.00    -0.117 C  
HETATM    5  CA  UNL     1      -5.997  13.760  69.513  1.00  0.00    -0.107 C  
HETATM    6  CA  UNL     1      -6.178  10.327  69.757  1.00  0.00    -0.060 C  
HETATM    7  O   UNL     1      -6.911  11.801  71.792  1.00  0.00     4.023 OA 
HETATM    8  N   UNL     1      -5.989  12.411  69.761  1.00  0.00    -0.124 N  
HETATM    9  C   UNL     1      -6.373  14.739  70.614  1.00  0.00    -0.029 C  
HETATM   10  OXT UNL     1      -6.694  15.900  70.410  1.00  0.00     0.172 OA 
HETATM   11  O   UNL     1      -6.261  14.288  71.878  1.00  0.00    -0.059 OA 
HETATM   12  C   UNL     1      -6.437  11.559  70.707  1.00  0.00     0.849 C  
ENDROOT
BRANCH   4  13
HETATM   13  C   UNL     1      -5.717  15.679  67.810  1.00  0.00    -0.137 C  
BRANCH  13  14
HETATM   14  S   UNL     1      -7.277  16.325  67.157  1.00  0.00    -0.224 SA 
BRANCH  14  15
HETATM   15  C   UNL     1      -6.976  17.995  66.902  1.00  0.00    -0.191 A  
HETATM   16  N   UNL     1      -7.185  18.700  65.820  1.00  0.00    -0.459 NA 
HETATM   17  C   UNL     1      -6.056  18.520  69.210  1.00  0.00    -0.252 C  
HETATM   18  N   UNL     1      -6.743  19.971  66.106  1.00  0.00    -0.219 NA 
HETATM   19  N   UNL     1      -6.433  18.809  67.853  1.00  0.00    -0.208 NA 
HETATM   20  N   UNL     1      -6.281  20.045  67.346  1.00  0.00    -0.184 NA 
ENDBRANCH  14  15
ENDBRANCH  13  14
ENDBRANCH   4  13
BRANCH   6  21
HETATM   21  N   UNL     1      -7.397   9.718  69.144  1.00  0.00    -0.075 N  
HETATM   22  H   UNL     1      -7.658  10.000  68.199  1.00  0.00     0.000 HD 
HETATM   23  O   UNL     1      -7.842   8.267  70.852  1.00  0.00    -0.080 OA 
HETATM   24  C   UNL     1      -8.190   8.789  69.796  1.00  0.00    -0.117 C  
BRANCH  24  25
HETATM   25  CA  UNL     1      -9.610   8.628  69.172  1.00  0.00    -0.163 C  
BRANCH  25  26
HETATM   26  C   UNL     1     -10.677   8.459  70.259  1.00  0.00    -0.240 A  
HETATM   27  O   UNL     1     -13.551   8.129  73.265  1.00  0.00    -0.024 OA 
HETATM   28  C   UNL     1     -12.008   8.142  69.936  1.00  0.00     0.713 A  
HETATM   29  C   UNL     1     -11.318   8.470  72.616  1.00  0.00    -0.248 A  
HETATM   30  C   UNL     1     -12.632   8.208  72.264  1.00  0.00    -0.273 A  
HETATM   31  C   UNL     1     -12.984   8.026  70.932  1.00  0.00     0.142 A  
HETATM   32  H   UNL     1     -13.310   8.253  74.176  1.00  0.00     0.000 HD 
HETATM   33  C   UNL     1     -10.343   8.578  71.623  1.00  0.00    -0.333 A  
ENDBRANCH  25  26
BRANCH  25  34
HETATM   34  N   UNL     1      -9.867   9.830  68.354  1.00  0.00    -0.149 N  
HETATM   35  C   UNL     1     -10.367  10.989  68.904  1.00  0.00    -0.205 C  
HETATM   36  H   UNL     1      -9.669   9.801  67.354  1.00  0.00     0.000 HD 
HETATM   37  O   UNL     1     -10.558  11.145  70.106  1.00  0.00     0.144 OA 
BRANCH  35  38
HETATM   38  C   UNL     1     -10.633  12.131  67.997  1.00  0.00    -0.232 A  
HETATM   39  O   UNL     1     -10.082  10.837  66.011  1.00  0.00    -0.232 OA 
HETATM   40  C   UNL     1     -10.479  12.002  66.614  1.00  0.00    -0.215 A  
HETATM   41  C   UNL     1     -11.042  14.308  66.341  1.00  0.00    -0.325 A  
HETATM   42  C   UNL     1     -10.705  13.087  65.773  1.00  0.00    -0.291 A  
HETATM   43  H   UNL     1      -9.976  10.750  65.071  1.00  0.00     0.000 HD 
HETATM   44  N   UNL     1     -11.192  14.467  67.680  1.00  0.00    -0.308 NA 
HETATM   45  C   UNL     1     -11.172  15.540  65.494  1.00  0.00    -0.188 C  
HETATM   46  C   UNL     1     -10.983  13.385  68.471  1.00  0.00    -0.268 A  
ENDBRANCH  35  38
ENDBRANCH  25  34
ENDBRANCH  24  25
ENDBRANCH   6  21
TORSDOF 8
ENDMDL
MODEL      161
REMARK 921   NORMALIZED FREE ENERGY PREDICTED BY IDOCK:    6.63 KCAL/MOL
REMARK 922        TOTAL FREE ENERGY PREDICTED BY IDOCK:    7.92 KCAL/MOL
REMARK 923 INTER-LIGAND FREE ENERGY PREDICTED BY IDOCK:    8.81 KCAL/MOL
REMARK 924 INTRA-LIGAND FREE ENERGY PREDICTED BY IDOCK:   -0.89 KCAL/MOL
REMARK 927      BINDING AFFINITY PREDICTED BY RF-SCORE:    0.00 PKD
ROOT
HETATM    1  C   UNL     1      -9.494  11.740  70.081  1.00  0.00     3.065 C  
HETATM    2  S   UNL     1      -8.713  12.652  68.719  1.00  0.00     0.286 SA 
HETATM    3  C   UNL     1      -9.081  14.259  69.455  1.00  0.00     0.570 C  
HETATM    4  C   UNL     1     -10.528  14.431  69.913  1.00  0.00     0.212 C  
HETATM    5  CA  UNL     1     -11.373  13.394  70.167  1.00  0.00     0.144 C  
HETATM    6  CA  UNL     1      -9.954  10.286  69.713  1.00  0.00    -0.181 C  
HETATM    7  O   UNL     1     -12.535  10.476  70.105  1.00  0.00    -0.295 OA 
HETATM    8  N   UNL     1     -10.897  12.108  70.125  1.00  0.00     0.764 N  
HETATM    9  C   UNL     1     -12.849  13.655  70.420  1.00  0.00    -0.042 C  
HETATM   10  OXT UNL     1     -13.401  14.719  70.179  1.00  0.00     0.023 OA 
HETATM   11  O   UNL     1     -13.540  12.663  71.013  1.00  0.00     0.357 OA 
HETATM   12  C   UNL     1     -11.389  10.855  70.033  1.00  0.00    -0.307 C  
ENDROOT
BRANCH   4  13
HETATM   13  C   UNL     1     -10.900  15.918  69.906  1.00  0.00    -0.333 C  
BRANCH  13  14
HETATM   14  S   UNL     1     -11.736  16.516  68.416  1.00  0.00     0.387 SA 
BRANCH  14  15
HETATM   15  C   UNL     1     -10.524  16.482  67.201  1.00  0.00    -0.300 A  
HETATM   16  N   UNL     1      -9.269  16.840  67.300  1.00  0.00    -0.226 NA 
HETATM   17  C   UNL     1     -11.963  15.559  65.324  1.00  0.00     0.341 C  
HETATM   18  N   UNL     1      -8.728  16.665  66.047  1.00  0.00    -0.486 NA 
HETATM   19  N   UNL     1     -10.761  16.072  65.922  1.00  0.00    -0.309 NA 
HETATM   20  N   UNL     1      -9.634  16.198  65.199  1.00  0.00    -0.143 NA 
ENDBRANCH  14  15
ENDBRANCH  13  14
ENDBRANCH   4  13
BRANCH   6  21
HETATM   21  N   UNL     1      -9.714   9.909  68.286  1.00  0.00    -0.143 N  
HETATM   22  H   UNL     1     -10.454  10.084  67.606  1.00  0.00     0.000 HD 
HETATM   23  O   UNL     1      -7.540   9.261  68.557  1.00  0.00    -0.083 OA 
HETATM   24  C   UNL     1      -8.536   9.332  67.843  1.00  0.00    -0.120 C  
BRANCH  24  25
HETATM   25  CA  UNL     1      -8.664   8.632  66.455  1.00  0.00    -0.130 C  
BRANCH  25  26
HETATM   26  C   UNL     1      -9.017   7.149  66.614  1.00  0.00    -0.164 A  
HETATM   27  O   UNL     1      -9.996   3.104  66.907  1.00  0.00    -0.305 OA 
HETATM   28  C   UNL     1      -8.130   6.247  67.228  1.00  0.00    -0.109 A  
HETATM   29  C   UNL     1     -10.573   5.295  66.282  1.00  0.00    -0.308 A  
HETATM   30  C   UNL     1      -9.657   4.421  66.846  1.00  0.00    -0.199 A  
HETATM   31  C   UNL     1      -8.444   4.887  67.336  1.00  0.00    -0.105 A  
HETATM   32  H   UNL     1     -10.826   2.785  66.572  1.00  0.00     0.000 HD 
HETATM   33  C   UNL     1     -10.263   6.652  66.182  1.00  0.00     0.270 A  
ENDBRANCH  25  26
BRANCH  25  34
HETATM   34  N   UNL     1      -9.707   9.351  65.697  1.00  0.00    -0.356 N  
HETATM   35  C   UNL     1      -9.472  10.583  65.128  1.00  0.00    -0.233 C  
HETATM   36  H   UNL     1     -10.627   8.924  65.593  1.00  0.00     0.000 HD 
HETATM   37  O   UNL     1      -8.377  11.135  65.130  1.00  0.00     0.006 OA 
BRANCH  35  38
HETATM   38  C   UNL     1     -10.593  11.248  64.422  1.00  0.00    -0.410 A  
HETATM   39  O   UNL     1      -9.750  13.474  64.927  1.00  0.00    -0.576 OA 
HETATM   40  C   UNL     1     -10.678  12.641  64.358  1.00  0.00    -0.359 A  
HETATM   41  C   UNL     1     -12.750  12.456  63.183  1.00  0.00     0.005 A  
HETATM   42  C   UNL     1     -11.748  13.256  63.716  1.00  0.00    -0.475 A  
HETATM   43  H   UNL     1      -9.808  14.420  64.884  1.00  0.00     0.000 HD 
HETATM   44  N   UNL     1     -12.702  11.102  63.236  1.00  0.00     0.654 NA 
HETATM   45  C   UNL     1     -13.989  13.066  62.595  1.00  0.00     5.791 C  
HETATM   46  C   UNL     1     -11.635  10.533  63.852  1.00  0.00     2.630 A  
ENDBRANCH  35  38
ENDBRANCH  25  34
ENDBRANCH  24  25
ENDBRANCH   6  21
TORSDOF 8
ENDMDL
MODEL      162
REMARK 921   NORMALIZED FREE ENERGY PREDICTED BY IDOCK:    7.72 KCAL/MOL
REMARK 922        TOTAL FREE ENERGY PREDICTED BY IDOCK:    9.51 KCAL/MOL
REMARK 923 INTER-LIGAND FREE ENERGY PREDICTED BY IDOCK:    3.35 KCAL/MOL
REMARK 924 INTRA-LIGAND FREE ENERGY PREDICTED BY IDOCK:    6.16 KCAL/MOL
REMARK 927      BINDING AFFINITY PREDICTED BY RF-SCORE:    0.00 PKD
ROOT
HETATM    1  C   UNL     1      -8.067  13.267  65.929  1.00  0.00     2.213 C  
HETATM    2  S   UNL     1      -9.831  13.197  66.348  1.00  0.00    -0.279 SA 
HETATM    3  C   UNL     1     -10.224  14.655  65.359  1.00  0.00    -0.387 C  
HETATM    4  C   UNL     1      -9.309  15.853  65.603  1.00  0.00    -0.165 C  
HETATM    5  CA  UNL     1      -8.068  15.761  66.156  1.00  0.00     0.326 C  
HETATM    6  CA  UNL     1      -7.124  12.544  66.953  1.00  0.00     0.170 C  
HETATM    7  O   UNL     1      -5.662  14.553  67.775  1.00  0.00    -0.243 OA 
HETATM    8  N   UNL     1      -7.536  14.524  66.420  1.00  0.00     1.516 N  
HETATM    9  C   UNL     1      -7.312  17.020  66.550  1.00  0.00    -0.285 C  
HETATM   10  OXT UNL     1      -7.827  18.125  66.629  1.00  0.00    -0.222 OA 
HETATM   11  O   UNL     1      -5.985  16.886  66.740  1.00  0.00    -0.174 OA 
HETATM   12  C   UNL     1      -6.543  13.994  67.165  1.00  0.00     0.598 C  
ENDROOT
BRANCH   4  13
HETATM   13  C   UNL     1     -10.051  17.150  65.261  1.00  0.00     0.396 C  
BRANCH  13  14
HETATM   14  S   UNL     1      -9.855  18.507  66.443  1.00  0.00    -0.352 SA 
BRANCH  14  15
HETATM   15  C   UNL     1     -10.227  17.806  67.965  1.00  0.00    -0.377 A  
HETATM   16  N   UNL     1     -11.053  16.825  68.225  1.00  0.00    -0.328 NA 
HETATM   17  C   UNL     1      -8.706  19.266  69.380  1.00  0.00     0.149 C  
HETATM   18  N   UNL     1     -11.030  16.665  69.591  1.00  0.00    -0.290 NA 
HETATM   19  N   UNL     1      -9.683  18.240  69.139  1.00  0.00    -0.179 NA 
HETATM   20  N   UNL     1     -10.196  17.527  70.157  1.00  0.00     0.651 NA 
ENDBRANCH  14  15
ENDBRANCH  13  14
ENDBRANCH   4  13
BRANCH   6  21
HETATM   21  N   UNL     1      -7.833  11.955  68.131  1.00  0.00    -0.125 N  
HETATM   22  H   UNL     1      -7.672  10.972  68.353  1.00  0.00     0.000 HD 
HETATM   23  O   UNL     1      -8.797  13.899  68.845  1.00  0.00    -0.049 OA 
HETATM   24  C   UNL     1      -8.697  12.678  68.935  1.00  0.00     0.332 C  
BRANCH  24  25
HETATM   25  CA  UNL     1      -9.639  11.789  69.803  1.00  0.00     1.616 C  
BRANCH  25  26
HETATM   26  C   UNL     1     -10.936  12.529  70.148  1.00  0.00     0.851 A  
HETATM   27  O   UNL     1     -14.410  14.580  71.212  1.00  0.00    -0.434 OA 
HETATM   28  C   UNL     1     -11.434  13.556  69.326  1.00  0.00    -0.345 A  
HETATM   29  C   UNL     1     -12.847  12.874  71.630  1.00  0.00    -0.368 A  
HETATM   30  C   UNL     1     -13.286  13.915  70.826  1.00  0.00     0.023 A  
HETATM   31  C   UNL     1     -12.599  14.252  69.667  1.00  0.00    -0.095 A  
HETATM   32  H   UNL     1     -14.880  14.349  72.005  1.00  0.00     0.000 HD 
HETATM   33  C   UNL     1     -11.690  12.175  71.285  1.00  0.00     1.234 A  
ENDBRANCH  25  26
BRANCH  25  34
HETATM   34  N   UNL     1      -9.914  10.561  69.032  1.00  0.00    -0.202 N  
HETATM   35  C   UNL     1      -9.845   9.311  69.607  1.00  0.00    -0.186 C  
HETATM   36  H   UNL     1     -10.161  10.640  68.046  1.00  0.00     0.000 HD 
HETATM   37  O   UNL     1      -9.637   9.122  70.801  1.00  0.00    -0.230 OA 
BRANCH  35  38
HETATM   38  C   UNL     1     -10.095   8.133  68.743  1.00  0.00    -0.211 A  
HETATM   39  O   UNL     1      -8.845   6.643  70.205  1.00  0.00    -0.139 OA 
HETATM   40  C   UNL     1      -9.589   6.875  69.078  1.00  0.00    -0.136 A  
HETATM   41  C   UNL     1     -10.497   5.978  67.058  1.00  0.00    -0.270 A  
HETATM   42  C   UNL     1      -9.808   5.781  68.247  1.00  0.00    -0.170 A  
HETATM   43  H   UNL     1      -8.501   5.788  70.432  1.00  0.00     0.000 HD 
HETATM   44  N   UNL     1     -10.994   7.188  66.701  1.00  0.00    -0.023 NA 
HETATM   45  C   UNL     1     -10.650   4.864  66.064  1.00  0.00    -0.312 C  
HETATM   46  C   UNL     1     -10.781   8.230  67.542  1.00  0.00    -0.147 A  
ENDBRANCH  35  38
ENDBRANCH  25  34
ENDBRANCH  24  25
ENDBRANCH   6  21
TORSDOF 8
ENDMDL
MODEL      163
REMARK 921   NORMALIZED FREE ENERGY PREDICTED BY IDOCK:    8.23 KCAL/MOL
REMARK 922        TOTAL FREE ENERGY PREDICTED BY IDOCK:   10.27 KCAL/MOL
REMARK 923 INTER-LIGAND FREE ENERGY PREDICTED BY IDOCK:    8.53 KCAL/MOL
REMARK 924 INTRA-LIGAND FREE ENERGY PREDICTED BY IDOCK:    1.74 KCAL/MOL
REMARK 927      BINDING AFFINITY PREDICTED BY RF-SCORE:    0.00 PKD
ROOT
HETATM    1  C   UNL     1     -10.962  11.672  67.123  1.00  0.00    -0.280 C  
HETATM    2  S   UNL     1     -10.845  12.877  68.476  1.00  0.00    -0.264 SA 
HETATM    3  C   UNL     1      -9.996  14.095  67.449  1.00  0.00    -0.240 C  
HETATM    4  C   UNL     1      -8.812  13.544  66.658  1.00  0.00    -0.080 C  
HETATM    5  CA  UNL     1      -8.636  12.223  66.375  1.00  0.00     0.041 C  
HETATM    6  CA  UNL     1     -11.136  10.185  67.588  1.00  0.00    -0.206 C  
HETATM    7  O   UNL     1      -8.964   9.107  66.602  1.00  0.00    -0.130 OA 
HETATM    8  N   UNL     1      -9.615  11.323  66.712  1.00  0.00    -0.190 N  
HETATM    9  C   UNL     1      -7.331  11.741  65.762  1.00  0.00     1.011 C  
HETATM   10  OXT UNL     1      -6.313  12.416  65.713  1.00  0.00     1.747 OA 
HETATM   11  O   UNL     1      -7.356  10.526  65.181  1.00  0.00    -0.119 OA 
HETATM   12  C   UNL     1      -9.744   9.990  66.873  1.00  0.00    -0.189 C  
ENDROOT
BRANCH   4  13
HETATM   13  C   UNL     1      -7.817  14.671  66.363  1.00  0.00     1.139 C  
BRANCH  13  14
HETATM   14  S   UNL     1      -8.541  16.282  65.965  1.00  0.00    -0.041 SA 
BRANCH  14  15
HETATM   15  C   UNL     1      -8.088  17.291  67.278  1.00  0.00    -0.192 A  
HETATM   16  N   UNL     1      -7.011  17.221  68.018  1.00  0.00    -0.172 NA 
HETATM   17  C   UNL     1     -10.114  18.819  67.234  1.00  0.00    -0.357 C  
HETATM   18  N   UNL     1      -7.134  18.219  68.958  1.00  0.00    -0.263 NA 
HETATM   19  N   UNL     1      -8.860  18.321  67.728  1.00  0.00    -0.260 NA 
HETATM   20  N   UNL     1      -8.262  18.895  68.788  1.00  0.00    -0.338 NA 
ENDBRANCH  14  15
ENDBRANCH  13  14
ENDBRANCH   4  13
BRANCH   6  21
HETATM   21  N   UNL     1     -11.130   9.999  69.071  1.00  0.00    -0.350 N  
HETATM   22  H   UNL     1     -11.990   9.689  69.525  1.00  0.00     0.000 HD 
HETATM   23  O   UNL     1      -8.906  10.424  69.373  1.00  0.00    -0.167 OA 
HETATM   24  C   UNL     1     -10.016  10.229  69.860  1.00  0.00    -0.135 C  
BRANCH  24  25
HETATM   25  CA  UNL     1     -10.344  10.403  71.375  1.00  0.00     2.132 C  
BRANCH  25  26
HETATM   26  C   UNL     1     -11.422  11.471  71.589  1.00  0.00     2.579 A  
HETATM   27  O   UNL     1     -14.328  14.430  72.042  1.00  0.00    -0.495 OA 
HETATM   28  C   UNL     1     -12.750  11.121  71.893  1.00  0.00    -0.293 A  
HETATM   29  C   UNL     1     -12.088  13.820  71.673  1.00  0.00     0.082 A  
HETATM   30  C   UNL     1     -13.398  13.443  71.922  1.00  0.00    -0.451 A  
HETATM   31  C   UNL     1     -13.736  12.102  72.050  1.00  0.00    -0.102 A  
HETATM   32  H   UNL     1     -14.097  15.348  71.954  1.00  0.00     0.000 HD 
HETATM   33  C   UNL     1     -11.103  12.842  71.524  1.00  0.00     4.428 A  
ENDBRANCH  25  26
BRANCH  25  34
HETATM   34  N   UNL     1     -10.788   9.088  71.879  1.00  0.00    -0.362 N  
HETATM   35  C   UNL     1     -10.148   7.921  71.524  1.00  0.00    -0.180 C  
HETATM   36  H   UNL     1     -11.589   9.042  72.507  1.00  0.00     0.000 HD 
HETATM   37  O   UNL     1      -9.129   7.883  70.842  1.00  0.00    -0.148 OA 
BRANCH  35  38
HETATM   38  C   UNL     1     -10.691   6.644  72.046  1.00  0.00    -0.247 A  
HETATM   39  O   UNL     1      -9.139   5.307  70.732  1.00  0.00    -0.132 OA 
HETATM   40  C   UNL     1     -10.169   5.416  71.630  1.00  0.00    -0.209 A  
HETATM   41  C   UNL     1     -11.793   4.279  72.963  1.00  0.00     0.228 A  
HETATM   42  C   UNL     1     -10.703   4.223  72.105  1.00  0.00     0.029 A  
HETATM   43  H   UNL     1      -8.784   4.473  70.449  1.00  0.00     0.000 HD 
HETATM   44  N   UNL     1     -12.328   5.454  73.379  1.00  0.00     0.806 NA 
HETATM   45  C   UNL     1     -12.489   3.025  73.405  1.00  0.00     0.773 C  
HETATM   46  C   UNL     1     -11.771   6.600  72.912  1.00  0.00     0.126 A  
ENDBRANCH  35  38
ENDBRANCH  25  34
ENDBRANCH  24  25
ENDBRANCH   6  21
TORSDOF 8
ENDMDL
MODEL      164
REMARK 921   NORMALIZED FREE ENERGY PREDICTED BY IDOCK:    8.99 KCAL/MOL
REMARK 922        TOTAL FREE ENERGY PREDICTED BY IDOCK:   11.37 KCAL/MOL
REMARK 923 INTER-LIGAND FREE ENERGY PREDICTED BY IDOCK:    4.73 KCAL/MOL
REMARK 924 INTRA-LIGAND FREE ENERGY PREDICTED BY IDOCK:    6.64 KCAL/MOL
REMARK 927      BINDING AFFINITY PREDICTED BY RF-SCORE:    0.00 PKD
ROOT
HETATM    1  C   UNL     1     -11.649   7.715  71.165  1.00  0.00    -0.280 C  
HETATM    2  S   UNL     1     -11.684   7.972  69.369  1.00  0.00     1.167 SA 
HETATM    3  C   UNL     1     -11.726   6.201  69.018  1.00  0.00     0.605 C  
HETATM    4  C   UNL     1     -10.679   5.381  69.769  1.00  0.00    -0.280 C  
HETATM    5  CA  UNL     1     -10.054   5.802  70.904  1.00  0.00    -0.199 C  
HETATM    6  CA  UNL     1     -11.059   8.916  71.984  1.00  0.00    -0.351 C  
HETATM    7  O   UNL     1      -8.987   7.774  73.103  1.00  0.00    -0.165 OA 
HETATM    8  N   UNL     1     -10.443   6.978  71.493  1.00  0.00    -0.204 N  
HETATM    9  C   UNL     1      -8.884   5.013  71.468  1.00  0.00    -0.132 C  
HETATM   10  OXT UNL     1      -8.291   4.141  70.850  1.00  0.00    -0.076 OA 
HETATM   11  O   UNL     1      -8.557   5.263  72.750  1.00  0.00    -0.119 OA 
HETATM   12  C   UNL     1      -9.959   7.862  72.390  1.00  0.00    -0.229 C  
ENDROOT
BRANCH   4  13
HETATM   13  C   UNL     1     -10.359   4.105  68.983  1.00  0.00     0.735 C  
BRANCH  13  14
HETATM   14  S   UNL     1      -8.693   4.006  68.282  1.00  0.00    -0.106 SA 
BRANCH  14  15
HETATM   15  C   UNL     1      -8.666   5.220  67.069  1.00  0.00    -0.107 A  
HETATM   16  N   UNL     1      -9.414   6.290  66.976  1.00  0.00    -0.126 NA 
HETATM   17  C   UNL     1      -6.796   4.238  65.660  1.00  0.00    -0.057 C  
HETATM   18  N   UNL     1      -9.037   6.915  65.810  1.00  0.00    -0.016 NA 
HETATM   19  N   UNL     1      -7.823   5.185  65.996  1.00  0.00    -0.101 NA 
HETATM   20  N   UNL     1      -8.066   6.245  65.205  1.00  0.00    -0.126 NA 
ENDBRANCH  14  15
ENDBRANCH  13  14
ENDBRANCH   4  13
BRANCH   6  21
HETATM   21  N   UNL     1     -10.581  10.057  71.144  1.00  0.00    -0.216 N  
HETATM   22  H   UNL     1      -9.897  10.700  71.543  1.00  0.00     0.000 HD 
HETATM   23  O   UNL     1     -11.696   9.457  69.242  1.00  0.00     0.282 OA 
HETATM   24  C   UNL     1     -11.021  10.283  69.851  1.00  0.00    -0.303 C  
BRANCH  24  25
HETATM   25  CA  UNL     1     -10.744  11.729  69.338  1.00  0.00     0.003 C  
BRANCH  25  26
HETATM   26  C   UNL     1     -11.096  11.866  67.853  1.00  0.00    -0.297 A  
HETATM   27  O   UNL     1     -12.067  12.379  63.828  1.00  0.00    -0.442 OA 
HETATM   28  C   UNL     1     -10.228  11.400  66.848  1.00  0.00    -0.254 A  
HETATM   29  C   UNL     1     -12.630  12.600  66.099  1.00  0.00     0.388 A  
HETATM   30  C   UNL     1     -11.733  12.177  65.132  1.00  0.00    -0.310 A  
HETATM   31  C   UNL     1     -10.540  11.563  65.494  1.00  0.00    -0.334 A  
HETATM   32  H   UNL     1     -12.883  12.799  63.580  1.00  0.00     0.000 HD 
HETATM   33  C   UNL     1     -12.323  12.431  67.450  1.00  0.00     0.532 A  
ENDBRANCH  25  26
BRANCH  25  34
HETATM   34  N   UNL     1     -11.550  12.648  70.165  1.00  0.00    -0.543 N  
HETATM   35  C   UNL     1     -10.975  13.676  70.880  1.00  0.00     1.927 C  
HETATM   36  H   UNL     1     -12.561  12.519  70.209  1.00  0.00     0.000 HD 
HETATM   37  O   UNL     1      -9.783  13.960  70.825  1.00  0.00     3.113 OA 
BRANCH  35  38
HETATM   38  C   UNL     1     -11.861  14.521  71.716  1.00  0.00    -0.210 A  
HETATM   39  O   UNL     1     -13.742  12.997  71.478  1.00  0.00    -0.103 OA 
HETATM   40  C   UNL     1     -13.183  14.147  71.970  1.00  0.00    -0.402 A  
HETATM   41  C   UNL     1     -13.514  16.170  73.198  1.00  0.00    -0.381 A  
HETATM   42  C   UNL     1     -14.014  14.960  72.734  1.00  0.00    -0.325 A  
HETATM   43  H   UNL     1     -14.641  12.743  71.650  1.00  0.00     0.000 HD 
HETATM   44  N   UNL     1     -12.238  16.565  72.962  1.00  0.00    -0.434 NA 
HETATM   45  C   UNL     1     -14.402  17.143  73.916  1.00  0.00     3.525 C  
HETATM   46  C   UNL     1     -11.448  15.740  72.230  1.00  0.00    -0.318 A  
ENDBRANCH  35  38
ENDBRANCH  25  34
ENDBRANCH  24  25
ENDBRANCH   6  21
TORSDOF 8
ENDMDL
MODEL      165
REMARK 921   NORMALIZED FREE ENERGY PREDICTED BY IDOCK:   10.09 KCAL/MOL
REMARK 922        TOTAL FREE ENERGY PREDICTED BY IDOCK:   13.00 KCAL/MOL
REMARK 923 INTER-LIGAND FREE ENERGY PREDICTED BY IDOCK:    3.77 KCAL/MOL
REMARK 924 INTRA-LIGAND FREE ENERGY PREDICTED BY IDOCK:    9.23 KCAL/MOL
REMARK 927      BINDING AFFINITY PREDICTED BY RF-SCORE:    0.00 PKD
ROOT
HETATM    1  C   UNL     1      -5.125   9.307  68.626  1.00  0.00    -0.034 C  
HETATM    2  S   UNL     1      -5.496  10.564  67.369  1.00  0.00    -0.040 SA 
HETATM    3  C   UNL     1      -5.885  11.823  68.603  1.00  0.00    -0.049 C  
HETATM    4  C   UNL     1      -6.845  11.364  69.697  1.00  0.00    -0.068 C  
HETATM    5  CA  UNL     1      -7.071  10.058  70.012  1.00  0.00    -0.146 C  
HETATM    6  CA  UNL     1      -5.247   7.827  68.123  1.00  0.00    -0.031 C  
HETATM    7  O   UNL     1      -7.149   6.935  69.684  1.00  0.00    -0.064 OA 
HETATM    8  N   UNL     1      -6.327   9.078  69.404  1.00  0.00    -0.044 N  
HETATM    9  C   UNL     1      -8.190   9.686  70.971  1.00  0.00     0.402 C  
HETATM   10  OXT UNL     1      -9.076  10.456  71.313  1.00  0.00     1.727 OA 
HETATM   11  O   UNL     1      -8.129   8.455  71.514  1.00  0.00    -0.113 OA 
HETATM   12  C   UNL     1      -6.390   7.745  69.206  1.00  0.00    -0.035 C  
ENDROOT
BRANCH   4  13
HETATM   13  C   UNL     1      -7.593  12.572  70.271  1.00  0.00     2.811 C  
BRANCH  13  14
HETATM   14  S   UNL     1      -8.267  13.734  69.057  1.00  0.00     0.310 SA 
BRANCH  14  15
HETATM   15  C   UNL     1      -7.309  15.147  69.238  1.00  0.00    -0.188 A  
HETATM   16  N   UNL     1      -6.210  15.296  69.932  1.00  0.00    -0.152 NA 
HETATM   17  C   UNL     1      -8.712  16.685  67.784  1.00  0.00    -0.201 C  
HETATM   18  N   UNL     1      -5.853  16.618  69.792  1.00  0.00    -0.197 NA 
HETATM   19  N   UNL     1      -7.625  16.341  68.660  1.00  0.00    -0.176 NA 
HETATM   20  N   UNL     1      -6.713  17.263  69.017  1.00  0.00    -0.228 NA 
ENDBRANCH  14  15
ENDBRANCH  13  14
ENDBRANCH   4  13
BRANCH   6  21
HETATM   21  N   UNL     1      -5.693   7.695  66.702  1.00  0.00    -0.034 N  
HETATM   22  H   UNL     1      -5.376   6.886  66.167  1.00  0.00     0.000 HD 
HETATM   23  O   UNL     1      -7.082   9.508  66.703  1.00  0.00    -0.084 OA 
HETATM   24  C   UNL     1      -6.516   8.616  66.077  1.00  0.00    -0.057 C  
BRANCH  24  25
HETATM   25  CA  UNL     1      -6.492   8.524  64.521  1.00  0.00    -0.066 C  
BRANCH  25  26
HETATM   26  C   UNL     1      -6.560   7.067  64.052  1.00  0.00    -0.043 A  
HETATM   27  O   UNL     1      -6.609   3.084  62.811  1.00  0.00    -0.024 OA 
HETATM   28  C   UNL     1      -7.505   6.170  64.581  1.00  0.00    -0.085 A  
HETATM   29  C   UNL     1      -5.724   5.255  62.642  1.00  0.00    -0.014 A  
HETATM   30  C   UNL     1      -6.632   4.382  63.219  1.00  0.00    -0.034 A  
HETATM   31  C   UNL     1      -7.536   4.831  64.175  1.00  0.00    -0.063 A  
HETATM   32  H   UNL     1      -5.991   2.777  62.157  1.00  0.00     0.000 HD 
HETATM   33  C   UNL     1      -5.699   6.592  63.042  1.00  0.00    -0.030 A  
ENDBRANCH  25  26
BRANCH  25  34
HETATM   34  N   UNL     1      -7.644   9.301  64.020  1.00  0.00    -0.109 N  
HETATM   35  C   UNL     1      -8.247  10.278  64.782  1.00  0.00    -0.163 C  
HETATM   36  H   UNL     1      -8.002   9.109  63.085  1.00  0.00     0.000 HD 
HETATM   37  O   UNL     1      -7.836  10.634  65.881  1.00  0.00    -0.151 OA 
BRANCH  35  38
HETATM   38  C   UNL     1      -9.424  10.975  64.211  1.00  0.00    -0.270 A  
HETATM   39  O   UNL     1      -9.774  12.290  66.229  1.00  0.00    -0.235 OA 
HETATM   40  C   UNL     1     -10.122  11.933  64.952  1.00  0.00    -0.263 A  
HETATM   41  C   UNL     1     -11.675  12.186  63.154  1.00  0.00    -0.204 A  
HETATM   42  C   UNL     1     -11.240  12.564  64.418  1.00  0.00    -0.388 A  
HETATM   43  H   UNL     1     -10.247  12.941  66.732  1.00  0.00     0.000 HD 
HETATM   44  N   UNL     1     -11.025  11.254  62.413  1.00  0.00     1.170 NA 
HETATM   45  C   UNL     1     -12.947  12.738  62.582  1.00  0.00     1.619 C  
HETATM   46  C   UNL     1      -9.926  10.672  62.956  1.00  0.00    -0.187 A  
ENDBRANCH  35  38
ENDBRANCH  25  34
ENDBRANCH  24  25
ENDBRANCH   6  21
TORSDOF 8
ENDMDL
MODEL      166
REMARK 921   NORMALIZED FREE ENERGY PREDICTED BY IDOCK:   11.07 KCAL/MOL
REMARK 922        TOTAL FREE ENERGY PREDICTED BY IDOCK:   14.44 KCAL/MOL
REMARK 923 INTER-LIGAND FREE ENERGY PREDICTED BY IDOCK:    6.40 KCAL/MOL
REMARK 924 INTRA-LIGAND FREE ENERGY PREDICTED BY IDOCK:    8.04 KCAL/MOL
REMARK 927      BINDING AFFINITY PREDICTED BY RF-SCORE:    0.00 PKD
ROOT
HETATM    1  C   UNL     1     -12.547  12.184  67.245  1.00  0.00     1.758 C  
HETATM    2  S   UNL     1     -12.353  10.952  68.564  1.00  0.00     0.964 SA 
HETATM    3  C   UNL     1     -13.392  11.877  69.714  1.00  0.00     2.073 C  
HETATM    4  C   UNL     1     -13.042  13.358  69.836  1.00  0.00     0.836 C  
HETATM    5  CA  UNL     1     -12.337  14.052  68.900  1.00  0.00    -0.071 C  
HETATM    6  CA  UNL     1     -11.409  12.169  66.166  1.00  0.00    -0.361 C  
HETATM    7  O   UNL     1     -10.422  14.575  66.465  1.00  0.00    -0.277 OA 
HETATM    8  N   UNL     1     -12.002  13.442  67.718  1.00  0.00    -0.347 N  
HETATM    9  C   UNL     1     -11.859  15.464  69.195  1.00  0.00    -0.335 C  
HETATM   10  OXT UNL     1     -11.852  15.959  70.312  1.00  0.00    -0.344 OA 
HETATM   11  O   UNL     1     -11.503  16.210  68.132  1.00  0.00    -0.326 OA 
HETATM   12  C   UNL     1     -11.135  13.628  66.700  1.00  0.00    -0.306 C  
ENDROOT
BRANCH   4  13
HETATM   13  C   UNL     1     -13.483  13.884  71.206  1.00  0.00    -0.200 C  
BRANCH  13  14
HETATM   14  S   UNL     1     -12.608  13.197  72.635  1.00  0.00     0.940 SA 
BRANCH  14  15
HETATM   15  C   UNL     1     -12.325  11.557  72.217  1.00  0.00     1.401 A  
HETATM   16  N   UNL     1     -11.327  11.055  71.536  1.00  0.00     1.280 NA 
HETATM   17  C   UNL     1     -14.391  10.575  73.319  1.00  0.00     3.218 C  
HETATM   18  N   UNL     1     -11.580   9.707  71.434  1.00  0.00    -0.385 NA 
HETATM   19  N   UNL     1     -13.176  10.544  72.552  1.00  0.00     0.064 NA 
HETATM   20  N   UNL     1     -12.709   9.387  72.051  1.00  0.00    -0.393 NA 
ENDBRANCH  14  15
ENDBRANCH  13  14
ENDBRANCH   4  13
BRANCH   6  21
HETATM   21  N   UNL     1     -10.326  11.172  66.429  1.00  0.00    -0.244 N  
HETATM   22  H   UNL     1      -9.430  11.294  65.957  1.00  0.00     0.000 HD 
HETATM   23  O   UNL     1     -11.455   9.983  68.020  1.00  0.00    -0.178 OA 
HETATM   24  C   UNL     1     -10.480  10.092  67.281  1.00  0.00    -0.256 C  
BRANCH  24  25
HETATM   25  CA  UNL     1      -9.418   8.970  67.070  1.00  0.00    -0.163 C  
BRANCH  25  26
HETATM   26  C   UNL     1      -8.300   9.435  66.131  1.00  0.00    -0.118 A  
HETATM   27  O   UNL     1      -5.299  10.837  63.595  1.00  0.00    -0.251 OA 
HETATM   28  C   UNL     1      -6.954   9.113  66.379  1.00  0.00    -0.080 A  
HETATM   29  C   UNL     1      -7.579  10.637  64.130  1.00  0.00     0.187 A  
HETATM   30  C   UNL     1      -6.257  10.346  64.428  1.00  0.00    -0.065 A  
HETATM   31  C   UNL     1      -5.935   9.574  65.537  1.00  0.00    -0.064 A  
HETATM   32  H   UNL     1      -5.519  11.366  62.837  1.00  0.00     0.000 HD 
HETATM   33  C   UNL     1      -8.595  10.171  64.965  1.00  0.00    -0.178 A  
ENDBRANCH  25  26
BRANCH  25  34
HETATM   34  N   UNL     1      -8.886   8.616  68.401  1.00  0.00    -0.142 N  
HETATM   35  C   UNL     1      -8.999   7.343  68.913  1.00  0.00    -0.130 C  
HETATM   36  H   UNL     1      -8.422   9.335  68.956  1.00  0.00     0.000 HD 
HETATM   37  O   UNL     1      -9.465   6.396  68.288  1.00  0.00    -0.123 OA 
BRANCH  35  38
HETATM   38  C   UNL     1      -8.472   7.093  70.276  1.00  0.00    -0.138 A  
HETATM   39  O   UNL     1      -8.682   9.430  70.917  1.00  0.00    -0.213 OA 
HETATM   40  C   UNL     1      -8.340   8.134  71.199  1.00  0.00    -0.120 A  
HETATM   41  C   UNL     1      -7.393   6.609  72.776  1.00  0.00    -0.084 A  
HETATM   42  C   UNL     1      -7.820   7.894  72.466  1.00  0.00    -0.150 A  
HETATM   43  H   UNL     1      -8.593  10.138  71.544  1.00  0.00     0.000 HD 
HETATM   44  N   UNL     1      -7.501   5.579  71.900  1.00  0.00    -0.092 NA 
HETATM   45  C   UNL     1      -6.707   6.320  74.079  1.00  0.00    -0.075 C  
HETATM   46  C   UNL     1      -8.030   5.843  70.679  1.00  0.00    -0.110 A  
ENDBRANCH  35  38
ENDBRANCH  25  34
ENDBRANCH  24  25
ENDBRANCH   6  21
TORSDOF 8
ENDMDL
MODEL      167
REMARK 921   NORMALIZED FREE ENERGY PREDICTED BY IDOCK:   12.99 KCAL/MOL
REMARK 922        TOTAL FREE ENERGY PREDICTED BY IDOCK:   17.25 KCAL/MOL
REMARK 923 INTER-LIGAND FREE ENERGY PREDICTED BY IDOCK:    9.56 KCAL/MOL
REMARK 924 INTRA-LIGAND FREE ENERGY PREDICTED BY IDOCK:    7.69 KCAL/MOL
REMARK 927      BINDING AFFINITY PREDICTED BY RF-SCORE:    0.00 PKD
ROOT
HETATM    1  C   UNL     1     -12.395  12.095  67.370  1.00  0.00     0.784 C  
HETATM    2  S   UNL     1     -12.191  10.485  68.182  1.00  0.00     1.857 SA 
HETATM    3  C   UNL     1     -12.966  11.048  69.712  1.00  0.00     0.382 C  
HETATM    4  C   UNL     1     -12.431  12.374  70.244  1.00  0.00    -0.152 C  
HETATM    5  CA  UNL     1     -11.766  13.287  69.482  1.00  0.00    -0.322 C  
HETATM    6  CA  UNL     1     -11.405  12.358  66.183  1.00  0.00    -0.352 C  
HETATM    7  O   UNL     1     -10.111  14.449  67.078  1.00  0.00    -0.251 OA 
HETATM    8  N   UNL     1     -11.651  13.082  68.130  1.00  0.00    -0.319 N  
HETATM    9  C   UNL     1     -11.092  14.483  70.135  1.00  0.00    -0.082 C  
HETATM   10  OXT UNL     1     -10.891  14.576  71.337  1.00  0.00     0.510 OA 
HETATM   11  O   UNL     1     -10.781  15.511  69.323  1.00  0.00    -0.218 OA 
HETATM   12  C   UNL     1     -10.897  13.532  67.105  1.00  0.00    -0.284 C  
ENDROOT
BRANCH   4  13
HETATM   13  C   UNL     1     -12.637  12.446  71.761  1.00  0.00    -0.016 C  
BRANCH  13  14
HETATM   14  S   UNL     1     -11.553  11.391  72.756  1.00  0.00     8.479 SA 
BRANCH  14  15
HETATM   15  C   UNL     1     -11.291  10.004  71.780  1.00  0.00     0.371 A  
HETATM   16  N   UNL     1     -10.417   9.842  70.820  1.00  0.00    -0.257 NA 
HETATM   17  C   UNL     1     -13.080   8.530  72.816  1.00  0.00    -0.028 C  
HETATM   18  N   UNL     1     -10.633   8.578  70.321  1.00  0.00    -0.222 NA 
HETATM   19  N   UNL     1     -12.027   8.861  71.896  1.00  0.00    -0.348 NA 
HETATM   20  N   UNL     1     -11.617   7.973  70.973  1.00  0.00    -0.284 NA 
ENDBRANCH  14  15
ENDBRANCH  13  14
ENDBRANCH   4  13
BRANCH   6  21
HETATM   21  N   UNL     1     -10.424  11.254  65.945  1.00  0.00    -0.255 N  
HETATM   22  H   UNL     1      -9.510  11.492  65.560  1.00  0.00     0.000 HD 
HETATM   23  O   UNL     1     -11.694   9.586  66.852  1.00  0.00     1.346 OA 
HETATM   24  C   UNL     1     -10.696   9.926  66.222  1.00  0.00     0.083 C  
BRANCH  24  25
HETATM   25  CA  UNL     1      -9.738   8.926  65.505  1.00  0.00     0.081 C  
BRANCH  25  26
HETATM   26  C   UNL     1      -8.515   9.649  64.930  1.00  0.00    -0.161 A  
HETATM   27  O   UNL     1      -5.273  11.708  63.300  1.00  0.00    -0.237 OA 
HETATM   28  C   UNL     1      -7.499  10.149  65.764  1.00  0.00    -0.131 A  
HETATM   29  C   UNL     1      -7.266  10.496  63.009  1.00  0.00    -0.027 A  
HETATM   30  C   UNL     1      -6.306  11.021  63.860  1.00  0.00     0.753 A  
HETATM   31  C   UNL     1      -6.404  10.840  65.234  1.00  0.00     0.047 A  
HETATM   32  H   UNL     1      -5.206  11.832  62.361  1.00  0.00     0.000 HD 
HETATM   33  C   UNL     1      -8.353   9.800  63.538  1.00  0.00    -0.168 A  
ENDBRANCH  25  26
BRANCH  25  34
HETATM   34  N   UNL     1      -9.339   7.912  66.502  1.00  0.00    -0.189 N  
HETATM   35  C   UNL     1      -8.117   7.279  66.445  1.00  0.00    -0.119 C  
HETATM   36  H   UNL     1      -9.986   7.674  67.252  1.00  0.00     0.000 HD 
HETATM   37  O   UNL     1      -7.243   7.558  65.630  1.00  0.00    -0.063 OA 
BRANCH  35  38
HETATM   38  C   UNL     1      -7.822   6.244  67.464  1.00  0.00    -0.105 A  
HETATM   39  O   UNL     1      -9.395   4.664  66.489  1.00  0.00    -0.131 OA 
HETATM   40  C   UNL     1      -8.467   5.005  67.439  1.00  0.00    -0.105 A  
HETATM   41  C   UNL     1      -7.322   4.373  69.438  1.00  0.00    -0.051 A  
HETATM   42  C   UNL     1      -8.203   4.050  68.415  1.00  0.00    -0.088 A  
HETATM   43  H   UNL     1      -9.834   3.822  66.472  1.00  0.00     0.000 HD 
HETATM   44  N   UNL     1      -6.686   5.570  69.496  1.00  0.00    -0.056 NA 
HETATM   45  C   UNL     1      -7.099   3.432  70.586  1.00  0.00    -0.034 C  
HETATM   46  C   UNL     1      -6.951   6.472  68.518  1.00  0.00    -0.080 A  
ENDBRANCH  35  38
ENDBRANCH  25  34
ENDBRANCH  24  25
ENDBRANCH   6  21
TORSDOF 8
ENDMDL
MODEL      168
REMARK 921   NORMALIZED FREE ENERGY PREDICTED BY IDOCK:   20.48 KCAL/MOL
REMARK 922        TOTAL FREE ENERGY PREDICTED BY IDOCK:   28.24 KCAL/MOL
REMARK 923 INTER-LIGAND FREE ENERGY PREDICTED BY IDOCK:   28.33 KCAL/MOL
REMARK 924 INTRA-LIGAND FREE ENERGY PREDICTED BY IDOCK:   -0.09 KCAL/MOL
REMARK 927      BINDING AFFINITY PREDICTED BY RF-SCORE:    0.00 PKD
ROOT
HETATM    1  C   UNL     1     -10.855  10.699  71.154  1.00  0.00     1.169 C  
HETATM    2  S   UNL     1      -9.259  11.423  70.682  1.00  0.00     5.741 SA 
HETATM    3  C   UNL     1      -9.747  13.081  71.203  1.00  0.00     9.799 C  
HETATM    4  C   UNL     1     -11.107  13.536  70.681  1.00  0.00     1.149 C  
HETATM    5  CA  UNL     1     -12.075  12.685  70.240  1.00  0.00    -0.294 C  
HETATM    6  CA  UNL     1     -11.204   9.356  70.423  1.00  0.00    -0.262 C  
HETATM    7  O   UNL     1     -13.384  10.046  69.149  1.00  0.00     1.682 OA 
HETATM    8  N   UNL     1     -11.891  11.331  70.360  1.00  0.00    -0.348 N  
HETATM    9  C   UNL     1     -13.315  13.231  69.550  1.00  0.00     2.335 C  
HETATM   10  OXT UNL     1     -13.414  14.377  69.138  1.00  0.00     1.954 OA 
HETATM   11  O   UNL     1     -14.371  12.399  69.472  1.00  0.00     7.138 OA 
HETATM   12  C   UNL     1     -12.407  10.195  69.845  1.00  0.00     0.072 C  
ENDROOT
BRANCH   4  13
HETATM   13  C   UNL     1     -11.150  15.066  70.609  1.00  0.00    -0.203 C  
BRANCH  13  14
HETATM   14  S   UNL     1     -10.886  15.788  68.969  1.00  0.00    -0.270 SA 
BRANCH  14  15
HETATM   15  C   UNL     1      -9.394  15.120  68.443  1.00  0.00    -0.197 A  
HETATM   16  N   UNL     1      -8.525  14.431  69.138  1.00  0.00     0.004 NA 
HETATM   17  C   UNL     1      -9.513  15.910  66.033  1.00  0.00    -0.354 C  
HETATM   18  N   UNL     1      -7.484  14.164  68.280  1.00  0.00    -0.113 NA 
HETATM   19  N   UNL     1      -8.919  15.266  67.172  1.00  0.00    -0.197 NA 
HETATM   20  N   UNL     1      -7.716  14.672  67.077  1.00  0.00    -0.070 NA 
ENDBRANCH  14  15
ENDBRANCH  13  14
ENDBRANCH   4  13
BRANCH   6  21
HETATM   21  N   UNL     1     -10.183   8.918  69.422  1.00  0.00    -0.203 N  
HETATM   22  H   UNL     1     -10.248   9.283  68.472  1.00  0.00     0.000 HD 
HETATM   23  O   UNL     1      -8.904   7.708  70.877  1.00  0.00    -0.143 OA 
HETATM   24  C   UNL     1      -9.155   8.041  69.722  1.00  0.00    -0.149 C  
BRANCH  24  25
HETATM   25  CA  UNL     1      -8.497   7.393  68.466  1.00  0.00    -0.125 C  
BRANCH  25  26
HETATM   26  C   UNL     1      -8.900   5.921  68.328  1.00  0.00    -0.110 A  
HETATM   27  O   UNL     1      -9.866   1.884  67.907  1.00  0.00    -0.375 OA 
HETATM   28  C   UNL     1      -9.420   5.199  69.416  1.00  0.00    -0.198 A  
HETATM   29  C   UNL     1      -9.118   3.904  66.966  1.00  0.00    -0.168 A  
HETATM   30  C   UNL     1      -9.581   3.205  68.070  1.00  0.00    -0.075 A  
HETATM   31  C   UNL     1      -9.751   3.845  69.291  1.00  0.00    -0.157 A  
HETATM   32  H   UNL     1      -9.749   1.447  67.071  1.00  0.00     0.000 HD 
HETATM   33  C   UNL     1      -8.796   5.256  67.089  1.00  0.00    -0.109 A  
ENDBRANCH  25  26
BRANCH  25  34
HETATM   34  N   UNL     1      -8.929   8.178  67.292  1.00  0.00    -0.136 N  
HETATM   35  C   UNL     1      -8.054   8.980  66.593  1.00  0.00    -0.107 C  
HETATM   36  H   UNL     1      -9.901   8.125  66.991  1.00  0.00     0.000 HD 
HETATM   37  O   UNL     1      -6.852   9.044  66.830  1.00  0.00    -0.078 OA 
BRANCH  35  38
HETATM   38  C   UNL     1      -8.588   9.764  65.454  1.00  0.00    -0.163 A  
HETATM   39  O   UNL     1      -6.388  10.606  64.845  1.00  0.00    -0.323 OA 
HETATM   40  C   UNL     1      -7.742  10.529  64.648  1.00  0.00     0.019 A  
HETATM   41  C   UNL     1      -9.631  11.293  63.399  1.00  0.00    -0.333 A  
HETATM   42  C   UNL     1      -8.257  11.282  63.597  1.00  0.00     0.601 A  
HETATM   43  H   UNL     1      -5.813  11.126  64.297  1.00  0.00     0.000 HD 
HETATM   44  N   UNL     1     -10.479  10.567  64.170  1.00  0.00    -0.130 NA 
HETATM   45  C   UNL     1     -10.252  12.185  62.365  1.00  0.00     2.179 C  
HETATM   46  C   UNL     1      -9.944   9.828  65.173  1.00  0.00    -0.127 A  
ENDBRANCH  35  38
ENDBRANCH  25  34
ENDBRANCH  24  25
ENDBRANCH   6  21
TORSDOF 8
ENDMDL
MODEL      169
REMARK 921   NORMALIZED FREE ENERGY PREDICTED BY IDOCK:   29.65 KCAL/MOL
REMARK 922        TOTAL FREE ENERGY PREDICTED BY IDOCK:   41.70 KCAL/MOL
REMARK 923 INTER-LIGAND FREE ENERGY PREDICTED BY IDOCK:   38.20 KCAL/MOL
REMARK 924 INTRA-LIGAND FREE ENERGY PREDICTED BY IDOCK:    3.50 KCAL/MOL
REMARK 927      BINDING AFFINITY PREDICTED BY RF-SCORE:    0.00 PKD
ROOT
HETATM    1  C   UNL     1      -9.971   8.157  62.962  1.00  0.00     5.172 C  
HETATM    2  S   UNL     1      -8.159   8.097  62.883  1.00  0.00    -0.109 SA 
HETATM    3  C   UNL     1      -8.141   6.370  62.357  1.00  0.00    -0.097 C  
HETATM    4  C   UNL     1      -9.016   5.442  63.197  1.00  0.00     0.229 C  
HETATM    5  CA  UNL     1     -10.045   5.870  63.980  1.00  0.00     3.129 C  
HETATM    6  CA  UNL     1     -10.546   9.278  63.895  1.00  0.00     5.005 C  
HETATM    7  O   UNL     1     -11.829   7.834  65.661  1.00  0.00     6.656 OA 
HETATM    8  N   UNL     1     -10.412   7.191  63.950  1.00  0.00     8.681 N  
HETATM    9  C   UNL     1     -10.729   4.906  64.936  1.00  0.00     0.449 C  
HETATM   10  OXT UNL     1     -10.274   3.813  65.240  1.00  0.00    -0.114 OA 
HETATM   11  O   UNL     1     -11.939   5.278  65.396  1.00  0.00     1.247 OA 
HETATM   12  C   UNL     1     -11.125   8.055  64.704  1.00  0.00    11.217 C  
ENDROOT
BRANCH   4  13
HETATM   13  C   UNL     1      -8.474   4.011  63.122  1.00  0.00    -0.095 C  
BRANCH  13  14
HETATM   14  S   UNL     1      -7.183   3.591  64.320  1.00  0.00    -0.059 SA 
BRANCH  14  15
HETATM   15  C   UNL     1      -8.037   2.934  65.657  1.00  0.00    -0.087 A  
HETATM   16  N   UNL     1      -9.318   2.686  65.757  1.00  0.00    -0.069 NA 
HETATM   17  C   UNL     1      -6.050   2.657  67.213  1.00  0.00    -0.027 C  
HETATM   18  N   UNL     1      -9.511   2.208  67.032  1.00  0.00     0.041 NA 
HETATM   19  N   UNL     1      -7.435   2.601  66.835  1.00  0.00    -0.069 NA 
HETATM   20  N   UNL     1      -8.365   2.154  67.698  1.00  0.00    -0.066 NA 
ENDBRANCH  14  15
ENDBRANCH  13  14
ENDBRANCH   4  13
BRANCH   6  21
HETATM   21  N   UNL     1      -9.504  10.084  64.602  1.00  0.00    -0.290 N  
HETATM   22  H   UNL     1      -8.765   9.590  65.101  1.00  0.00     0.000 HD 
HETATM   23  O   UNL     1     -10.236  12.127  63.889  1.00  0.00    -0.351 OA 
HETATM   24  C   UNL     1      -9.494  11.468  64.613  1.00  0.00    -0.100 C  
BRANCH  24  25
HETATM   25  CA  UNL     1      -8.610  12.081  65.742  1.00  0.00     0.399 C  
BRANCH  25  26
HETATM   26  C   UNL     1      -9.275  13.318  66.355  1.00  0.00    -0.133 A  
HETATM   27  O   UNL     1     -11.057  16.757  67.905  1.00  0.00    -0.302 OA 
HETATM   28  C   UNL     1     -10.600  13.280  66.825  1.00  0.00    -0.276 A  
HETATM   29  C   UNL     1      -9.173  15.667  67.018  1.00  0.00    -0.239 A  
HETATM   30  C   UNL     1     -10.496  15.613  67.426  1.00  0.00    -0.291 A  
HETATM   31  C   UNL     1     -11.212  14.425  67.350  1.00  0.00    -0.337 A  
HETATM   32  H   UNL     1     -10.568  17.570  67.957  1.00  0.00     0.000 HD 
HETATM   33  C   UNL     1      -8.561  14.524  66.502  1.00  0.00     0.022 A  
ENDBRANCH  25  26
BRANCH  25  34
HETATM   34  N   UNL     1      -8.404  11.027  66.756  1.00  0.00    -0.141 N  
HETATM   35  C   UNL     1      -7.156  10.510  67.022  1.00  0.00    -0.094 C  
HETATM   36  H   UNL     1      -9.208  10.672  67.272  1.00  0.00     0.000 HD 
HETATM   37  O   UNL     1      -6.122  10.929  66.512  1.00  0.00    -0.095 OA 
BRANCH  35  38
HETATM   38  C   UNL     1      -7.053   9.424  68.026  1.00  0.00    -0.081 A  
HETATM   39  O   UNL     1      -8.242   7.840  66.613  1.00  0.00    -0.117 OA 
HETATM   40  C   UNL     1      -7.594   8.160  67.777  1.00  0.00    -0.098 A  
HETATM   41  C   UNL     1      -6.931   7.451  69.960  1.00  0.00    -0.060 A  
HETATM   42  C   UNL     1      -7.516   7.156  68.736  1.00  0.00    -0.102 A  
HETATM   43  H   UNL     1      -8.610   6.981  66.443  1.00  0.00     0.000 HD 
HETATM   44  N   UNL     1      -6.403   8.670  70.236  1.00  0.00    -0.037 NA 
HETATM   45  C   UNL     1      -6.934   6.448  71.076  1.00  0.00    -0.068 C  
HETATM   46  C   UNL     1      -6.479   9.622  69.272  1.00  0.00    -0.044 A  
ENDBRANCH  35  38
ENDBRANCH  25  34
ENDBRANCH  24  25
ENDBRANCH   6  21
TORSDOF 8
ENDMDL
MODEL      170
REMARK 921   NORMALIZED FREE ENERGY PREDICTED BY IDOCK:   30.06 KCAL/MOL
REMARK 922        TOTAL FREE ENERGY PREDICTED BY IDOCK:   42.30 KCAL/MOL
REMARK 923 INTER-LIGAND FREE ENERGY PREDICTED BY IDOCK:   34.48 KCAL/MOL
REMARK 924 INTRA-LIGAND FREE ENERGY PREDICTED BY IDOCK:    7.82 KCAL/MOL
REMARK 927      BINDING AFFINITY PREDICTED BY RF-SCORE:    0.00 PKD
ROOT
HETATM    1  C   UNL     1     -11.726   8.046  72.041  1.00  0.00    -0.323 C  
HETATM    2  S   UNL     1     -11.578   8.208  70.239  1.00  0.00     0.117 SA 
HETATM    3  C   UNL     1     -12.419   6.640  69.931  1.00  0.00     0.948 C  
HETATM    4  C   UNL     1     -11.895   5.466  70.755  1.00  0.00     1.612 C  
HETATM    5  CA  UNL     1     -11.186   5.604  71.910  1.00  0.00    -0.181 C  
HETATM    6  CA  UNL     1     -10.678   8.879  72.859  1.00  0.00     0.955 C  
HETATM    7  O   UNL     1      -9.406   6.965  74.112  1.00  0.00    -0.198 OA 
HETATM    8  N   UNL     1     -11.009   6.854  72.448  1.00  0.00    -0.236 N  
HETATM    9  C   UNL     1     -10.531   4.393  72.554  1.00  0.00    -0.168 C  
HETATM   10  OXT UNL     1     -10.386   3.319  71.989  1.00  0.00    -0.095 OA 
HETATM   11  O   UNL     1     -10.171   4.523  73.844  1.00  0.00    -0.161 OA 
HETATM   12  C   UNL     1     -10.203   7.457  73.348  1.00  0.00    -0.351 C  
ENDROOT
BRANCH   4  13
HETATM   13  C   UNL     1     -12.172   4.152  70.018  1.00  0.00    12.870 C  
BRANCH  13  14
HETATM   14  S   UNL     1     -10.744   3.066  69.774  1.00  0.00     4.099 SA 
BRANCH  14  15
HETATM   15  C   UNL     1      -9.732   3.928  68.688  1.00  0.00    -0.043 A  
HETATM   16  N   UNL     1     -10.042   4.947  67.928  1.00  0.00    -0.120 NA 
HETATM   17  C   UNL     1      -7.608   2.595  69.088  1.00  0.00    -0.043 C  
HETATM   18  N   UNL     1      -8.903   5.247  67.217  1.00  0.00    -0.106 NA 
HETATM   19  N   UNL     1      -8.423   3.609  68.476  1.00  0.00    -0.084 NA 
HETATM   20  N   UNL     1      -7.909   4.433  67.546  1.00  0.00    -0.085 NA 
ENDBRANCH  14  15
ENDBRANCH  13  14
ENDBRANCH   4  13
BRANCH   6  21
HETATM   21  N   UNL     1      -9.699   9.632  72.017  1.00  0.00     0.979 N  
HETATM   22  H   UNL     1      -9.043  10.261  72.480  1.00  0.00     0.000 HD 
HETATM   23  O   UNL     1     -10.265   8.652  70.032  1.00  0.00    -0.186 OA 
HETATM   24  C   UNL     1      -9.640   9.518  70.638  1.00  0.00    -0.227 C  
BRANCH  24  25
HETATM   25  CA  UNL     1      -8.875  10.686  69.944  1.00  0.00     0.485 C  
BRANCH  25  26
HETATM   26  C   UNL     1      -8.042  10.178  68.763  1.00  0.00    -0.111 A  
HETATM   27  O   UNL     1      -5.815   8.906  65.472  1.00  0.00    -0.049 OA 
HETATM   28  C   UNL     1      -6.661   9.942  68.889  1.00  0.00    -0.045 A  
HETATM   29  C   UNL     1      -7.886   9.475  66.429  1.00  0.00    -0.097 A  
HETATM   30  C   UNL     1      -6.518   9.300  66.570  1.00  0.00    -0.067 A  
HETATM   31  C   UNL     1      -5.900   9.513  67.795  1.00  0.00    -0.044 A  
HETATM   32  H   UNL     1      -6.238   8.760  64.634  1.00  0.00     0.000 HD 
HETATM   33  C   UNL     1      -8.645   9.895  67.521  1.00  0.00    -0.122 A  
ENDBRANCH  25  26
BRANCH  25  34
HETATM   34  N   UNL     1      -9.886  11.668  69.502  1.00  0.00    -0.086 N  
HETATM   35  C   UNL     1      -9.771  13.009  69.793  1.00  0.00     1.993 C  
HETATM   36  H   UNL     1     -10.690  11.344  68.967  1.00  0.00     0.000 HD 
HETATM   37  O   UNL     1      -8.801  13.503  70.358  1.00  0.00     3.411 OA 
BRANCH  35  38
HETATM   38  C   UNL     1     -10.857  13.913  69.344  1.00  0.00    -0.109 A  
HETATM   39  O   UNL     1     -12.501  12.855  70.792  1.00  0.00    -0.349 OA 
HETATM   40  C   UNL     1     -12.151  13.793  69.857  1.00  0.00    -0.348 A  
HETATM   41  C   UNL     1     -12.882  15.550  68.412  1.00  0.00     1.636 A  
HETATM   42  C   UNL     1     -13.169  14.629  69.410  1.00  0.00     1.356 A  
HETATM   43  H   UNL     1     -13.380  12.773  71.141  1.00  0.00     0.000 HD 
HETATM   44  N   UNL     1     -11.638  15.686  67.888  1.00  0.00    -0.259 NA 
HETATM   45  C   UNL     1     -13.967  16.387  67.802  1.00  0.00     8.560 C  
HETATM   46  C   UNL     1     -10.663  14.869  68.359  1.00  0.00    -0.245 A  
ENDBRANCH  35  38
ENDBRANCH  25  34
ENDBRANCH  24  25
ENDBRANCH   6  21
TORSDOF 8
ENDMDL
MODEL      171
REMARK 921   NORMALIZED FREE ENERGY PREDICTED BY IDOCK:   32.64 KCAL/MOL
REMARK 922        TOTAL FREE ENERGY PREDICTED BY IDOCK:   46.09 KCAL/MOL
REMARK 923 INTER-LIGAND FREE ENERGY PREDICTED BY IDOCK:   44.33 KCAL/MOL
REMARK 924 INTRA-LIGAND FREE ENERGY PREDICTED BY IDOCK:    1.76 KCAL/MOL
REMARK 927      BINDING AFFINITY PREDICTED BY RF-SCORE:    0.00 PKD
ROOT
HETATM    1  C   UNL     1      -9.269  12.643  65.685  1.00  0.00     0.247 C  
HETATM    2  S   UNL     1      -8.626  12.206  67.325  1.00  0.00    -0.187 SA 
HETATM    3  C   UNL     1      -7.628  10.847  66.679  1.00  0.00    -0.139 C  
HETATM    4  C   UNL     1      -8.376   9.898  65.747  1.00  0.00    -0.131 C  
HETATM    5  CA  UNL     1      -9.526  10.223  65.094  1.00  0.00    -0.252 C  
HETATM    6  CA  UNL     1     -10.624  13.432  65.705  1.00  0.00    -0.282 C  
HETATM    7  O   UNL     1     -12.180  11.764  64.421  1.00  0.00    -0.211 OA 
HETATM    8  N   UNL     1     -10.008  11.505  65.172  1.00  0.00    -0.252 N  
HETATM    9  C   UNL     1     -10.311   9.155  64.350  1.00  0.00     3.269 C  
HETATM   10  OXT UNL     1     -10.119   7.955  64.483  1.00  0.00     3.419 OA 
HETATM   11  O   UNL     1     -11.208   9.592  63.445  1.00  0.00     5.646 OA 
HETATM   12  C   UNL     1     -11.166  12.161  64.945  1.00  0.00    -0.323 C  
ENDROOT
BRANCH   4  13
HETATM   13  C   UNL     1      -7.714   8.516  65.774  1.00  0.00    -0.098 C  
BRANCH  13  14
HETATM   14  S   UNL     1      -7.016   8.005  67.364  1.00  0.00    -0.076 SA 
BRANCH  14  15
HETATM   15  C   UNL     1      -8.269   8.305  68.498  1.00  0.00    -0.131 A  
HETATM   16  N   UNL     1      -9.549   8.058  68.375  1.00  0.00    -0.149 NA 
HETATM   17  C   UNL     1      -6.825   9.314  70.326  1.00  0.00    -0.071 C  
HETATM   18  N   UNL     1     -10.134   8.518  69.533  1.00  0.00    -0.195 NA 
HETATM   19  N   UNL     1      -8.053   8.888  69.713  1.00  0.00    -0.104 NA 
HETATM   20  N   UNL     1      -9.227   9.027  70.354  1.00  0.00    -0.191 NA 
ENDBRANCH  14  15
ENDBRANCH  13  14
ENDBRANCH   4  13
BRANCH   6  21
HETATM   21  N   UNL     1     -11.186  13.654  67.073  1.00  0.00    -0.304 N  
HETATM   22  H   UNL     1     -11.253  12.856  67.705  1.00  0.00     0.000 HD 
HETATM   23  O   UNL     1     -11.404  15.921  66.894  1.00  0.00    -0.081 OA 
HETATM   24  C   UNL     1     -11.621  14.888  67.523  1.00  0.00    -0.339 C  
BRANCH  24  25
HETATM   25  CA  UNL     1     -12.552  14.809  68.772  1.00  0.00     0.342 C  
BRANCH  25  26
HETATM   26  C   UNL     1     -12.637  13.376  69.308  1.00  0.00     0.331 A  
HETATM   27  O   UNL     1     -12.751   9.443  70.694  1.00  0.00    -0.511 OA 
HETATM   28  C   UNL     1     -12.641  13.110  70.689  1.00  0.00    -0.286 A  
HETATM   29  C   UNL     1     -12.784  10.971  68.908  1.00  0.00     0.977 A  
HETATM   30  C   UNL     1     -12.736  10.737  70.273  1.00  0.00    -0.216 A  
HETATM   31  C   UNL     1     -12.681  11.796  71.171  1.00  0.00    -0.405 A  
HETATM   32  H   UNL     1     -12.789   8.718  70.081  1.00  0.00     0.000 HD 
HETATM   33  C   UNL     1     -12.752  12.280  68.429  1.00  0.00     1.658 A  
ENDBRANCH  25  26
BRANCH  25  34
HETATM   34  N   UNL     1     -12.000  15.728  69.787  1.00  0.00    -0.347 N  
HETATM   35  C   UNL     1     -11.453  16.945  69.444  1.00  0.00     0.514 C  
HETATM   36  H   UNL     1     -12.025  15.455  70.768  1.00  0.00     0.000 HD 
HETATM   37  O   UNL     1     -11.454  17.394  68.303  1.00  0.00     0.151 OA 
BRANCH  35  38
HETATM   38  C   UNL     1     -10.885  17.782  70.528  1.00  0.00     1.718 A  
HETATM   39  O   UNL     1     -12.926  17.670  71.848  1.00  0.00     5.918 OA 
HETATM   40  C   UNL     1     -11.639  18.101  71.660  1.00  0.00     4.670 A  
HETATM   41  C   UNL     1      -9.830  19.427  72.485  1.00  0.00     4.023 A  
HETATM   42  C   UNL     1     -11.106  18.908  72.660  1.00  0.00     3.963 A  
HETATM   43  H   UNL     1     -13.438  17.887  72.618  1.00  0.00     0.000 HD 
HETATM   44  N   UNL     1      -9.076  19.142  71.393  1.00  0.00     4.400 NA 
HETATM   45  C   UNL     1      -9.256  20.405  73.467  1.00  0.00     5.915 C  
HETATM   46  C   UNL     1      -9.618  18.336  70.446  1.00  0.00     2.451 A  
ENDBRANCH  35  38
ENDBRANCH  25  34
ENDBRANCH  24  25
ENDBRANCH   6  21
TORSDOF 8
ENDMDL
MODEL      172
REMARK 921   NORMALIZED FREE ENERGY PREDICTED BY IDOCK:   36.24 KCAL/MOL
REMARK 922        TOTAL FREE ENERGY PREDICTED BY IDOCK:   51.38 KCAL/MOL
REMARK 923 INTER-LIGAND FREE ENERGY PREDICTED BY IDOCK:   24.13 KCAL/MOL
REMARK 924 INTRA-LIGAND FREE ENERGY PREDICTED BY IDOCK:   27.24 KCAL/MOL
REMARK 927      BINDING AFFINITY PREDICTED BY RF-SCORE:    0.00 PKD
ROOT
HETATM    1  C   UNL     1     -11.487  10.378  68.215  1.00  0.00    -0.144 C  
HETATM    2  S   UNL     1     -11.339   9.234  69.617  1.00  0.00     0.151 SA 
HETATM    3  C   UNL     1     -12.804   9.895  70.438  1.00  0.00     0.054 C  
HETATM    4  C   UNL     1     -12.839  11.418  70.545  1.00  0.00    -0.123 C  
HETATM    5  CA  UNL     1     -12.108  12.252  69.756  1.00  0.00    -0.229 C  
HETATM    6  CA  UNL     1     -10.152  10.625  67.431  1.00  0.00    -0.194 C  
HETATM    7  O   UNL     1      -9.838  13.197  67.800  1.00  0.00    -0.216 OA 
HETATM    8  N   UNL     1     -11.370  11.731  68.722  1.00  0.00    -0.241 N  
HETATM    9  C   UNL     1     -12.048  13.739  70.065  1.00  0.00    -0.349 C  
HETATM   10  OXT UNL     1     -12.419  14.229  71.122  1.00  0.00    -0.319 OA 
HETATM   11  O   UNL     1     -11.627  14.542  69.069  1.00  0.00    -0.266 OA 
HETATM   12  C   UNL     1     -10.352  12.110  67.922  1.00  0.00    -0.206 C  
ENDROOT
BRANCH   4  13
HETATM   13  C   UNL     1     -13.701  11.833  71.742  1.00  0.00     0.324 C  
BRANCH  13  14
HETATM   14  S   UNL     1     -13.397  13.494  72.396  1.00  0.00    -0.510 SA 
BRANCH  14  15
HETATM   15  C   UNL     1     -11.688  13.656  72.375  1.00  0.00     2.042 A  
HETATM   16  N   UNL     1     -10.798  12.929  73.000  1.00  0.00    10.089 NA 
HETATM   17  C   UNL     1     -11.567  15.656  70.816  1.00  0.00    -0.382 C  
HETATM   18  N   UNL     1      -9.577  13.485  72.696  1.00  0.00    11.915 NA 
HETATM   19  N   UNL     1     -11.041  14.634  71.678  1.00  0.00     0.339 NA 
HETATM   20  N   UNL     1      -9.717  14.528  71.889  1.00  0.00     4.227 NA 
ENDBRANCH  14  15
ENDBRANCH  13  14
ENDBRANCH   4  13
BRANCH   6  21
HETATM   21  N   UNL     1      -8.966   9.912  67.997  1.00  0.00    -0.122 N  
HETATM   22  H   UNL     1      -8.769   8.965  67.674  1.00  0.00     0.000 HD 
HETATM   23  O   UNL     1      -8.183  11.665  69.235  1.00  0.00     0.140 OA 
HETATM   24  C   UNL     1      -8.121  10.475  68.938  1.00  0.00    -0.138 C  
BRANCH  24  25
HETATM   25  CA  UNL     1      -7.244   9.433  69.697  1.00  0.00    -0.067 C  
BRANCH  25  26
HETATM   26  C   UNL     1      -7.935   8.957  70.979  1.00  0.00    -0.183 A  
HETATM   27  O   UNL     1      -9.835   7.532  74.409  1.00  0.00    -0.342 OA 
HETATM   28  C   UNL     1      -7.289   9.020  72.226  1.00  0.00     0.261 A  
HETATM   29  C   UNL     1      -9.879   7.996  72.105  1.00  0.00    -0.286 A  
HETATM   30  C   UNL     1      -9.198   8.025  73.312  1.00  0.00    -0.278 A  
HETATM   31  C   UNL     1      -7.913   8.548  73.387  1.00  0.00    -0.064 A  
HETATM   32  H   UNL     1     -10.714   7.174  74.357  1.00  0.00     0.000 HD 
HETATM   33  C   UNL     1      -9.259   8.474  70.950  1.00  0.00    -0.213 A  
ENDBRANCH  25  26
BRANCH  25  34
HETATM   34  N   UNL     1      -7.001   8.309  68.771  1.00  0.00    -0.065 N  
HETATM   35  C   UNL     1      -6.625   8.515  67.462  1.00  0.00    -0.058 C  
HETATM   36  H   UNL     1      -7.116   7.355  69.109  1.00  0.00     0.000 HD 
HETATM   37  O   UNL     1      -6.384   9.621  66.989  1.00  0.00    -0.064 OA 
BRANCH  35  38
HETATM   38  C   UNL     1      -6.446   7.326  66.595  1.00  0.00    -0.052 A  
HETATM   39  O   UNL     1      -7.604   5.863  68.157  1.00  0.00    -0.086 OA 
HETATM   40  C   UNL     1      -6.936   6.075  66.979  1.00  0.00    -0.068 A  
HETATM   41  C   UNL     1      -6.009   5.109  65.000  1.00  0.00    -0.025 A  
HETATM   42  C   UNL     1      -6.740   4.960  66.171  1.00  0.00    -0.050 A  
HETATM   43  H   UNL     1      -7.937   5.013  68.418  1.00  0.00     0.000 HD 
HETATM   44  N   UNL     1      -5.513   6.308  64.603  1.00  0.00    -0.017 NA 
HETATM   45  C   UNL     1      -5.657   3.920  64.156  1.00  0.00    -0.014 C  
HETATM   46  C   UNL     1      -5.738   7.380  65.405  1.00  0.00    -0.037 A  
ENDBRANCH  35  38
ENDBRANCH  25  34
ENDBRANCH  24  25
ENDBRANCH   6  21
TORSDOF 8
ENDMDL
MODEL      173
REMARK 921   NORMALIZED FREE ENERGY PREDICTED BY IDOCK:   39.05 KCAL/MOL
REMARK 922        TOTAL FREE ENERGY PREDICTED BY IDOCK:   55.50 KCAL/MOL
REMARK 923 INTER-LIGAND FREE ENERGY PREDICTED BY IDOCK:   37.57 KCAL/MOL
REMARK 924 INTRA-LIGAND FREE ENERGY PREDICTED BY IDOCK:   17.94 KCAL/MOL
REMARK 927      BINDING AFFINITY PREDICTED BY RF-SCORE:    0.00 PKD
ROOT
HETATM    1  C   UNL     1     -12.256  12.697  70.015  1.00  0.00    -0.197 C  
HETATM    2  S   UNL     1     -10.538  12.890  70.567  1.00  0.00     3.477 SA 
HETATM    3  C   UNL     1     -10.642  14.692  70.583  1.00  0.00     0.458 C  
HETATM    4  C   UNL     1     -11.232  15.305  69.316  1.00  0.00    -0.291 C  
HETATM    5  CA  UNL     1     -12.007  14.620  68.429  1.00  0.00    -0.254 C  
HETATM    6  CA  UNL     1     -12.564  11.333  69.305  1.00  0.00     0.278 C  
HETATM    7  O   UNL     1     -13.278  12.169  66.929  1.00  0.00     3.084 OA 
HETATM    8  N   UNL     1     -12.388  13.334  68.719  1.00  0.00    -0.058 N  
HETATM    9  C   UNL     1     -12.381  15.247  67.096  1.00  0.00     0.814 C  
HETATM   10  OXT UNL     1     -11.842  16.246  66.641  1.00  0.00     0.822 OA 
HETATM   11  O   UNL     1     -13.419  14.692  66.443  1.00  0.00     1.284 OA 
HETATM   12  C   UNL     1     -12.874  12.257  68.065  1.00  0.00     2.632 C  
ENDROOT
BRANCH   4  13
HETATM   13  C   UNL     1     -10.711  16.735  69.140  1.00  0.00    -0.329 C  
BRANCH  13  14
HETATM   14  S   UNL     1     -11.087  17.525  67.555  1.00  0.00     0.250 SA 
BRANCH  14  15
HETATM   15  C   UNL     1     -10.371  16.494  66.383  1.00  0.00    -0.311 A  
HETATM   16  N   UNL     1      -9.183  15.946  66.405  1.00  0.00    -0.279 NA 
HETATM   17  C   UNL     1     -12.314  16.452  64.750  1.00  0.00     1.658 C  
HETATM   18  N   UNL     1      -9.067  15.249  65.224  1.00  0.00     0.605 NA 
HETATM   19  N   UNL     1     -10.995  16.135  65.225  1.00  0.00    -0.313 NA 
HETATM   20  N   UNL     1     -10.170  15.361  64.497  1.00  0.00     0.021 NA 
ENDBRANCH  14  15
ENDBRANCH  13  14
ENDBRANCH   4  13
BRANCH   6  21
HETATM   21  N   UNL     1     -11.378  10.435  69.159  1.00  0.00    -0.334 N  
HETATM   22  H   UNL     1     -10.574  10.775  68.632  1.00  0.00     0.000 HD 
HETATM   23  O   UNL     1     -12.163   8.759  70.499  1.00  0.00    -0.028 OA 
HETATM   24  C   UNL     1     -11.319   9.164  69.704  1.00  0.00     0.088 C  
BRANCH  24  25
HETATM   25  CA  UNL     1     -10.213   8.262  69.074  1.00  0.00    -0.217 C  
BRANCH  25  26
HETATM   26  C   UNL     1     -10.817   6.997  68.454  1.00  0.00    -0.191 A  
HETATM   27  O   UNL     1     -12.371   3.567  66.659  1.00  0.00     9.392 OA 
HETATM   28  C   UNL     1     -10.847   5.780  69.157  1.00  0.00    -0.355 A  
HETATM   29  C   UNL     1     -11.909   5.870  66.582  1.00  0.00     1.869 A  
HETATM   30  C   UNL     1     -11.878   4.674  67.280  1.00  0.00     6.828 A  
HETATM   31  C   UNL     1     -11.366   4.620  68.570  1.00  0.00     3.869 A  
HETATM   32  H   UNL     1     -12.721   3.604  65.776  1.00  0.00     0.000 HD 
HETATM   33  C   UNL     1     -11.398   7.028  67.170  1.00  0.00     0.107 A  
ENDBRANCH  25  26
BRANCH  25  34
HETATM   34  N   UNL     1      -9.514   9.074  68.058  1.00  0.00    -0.141 N  
HETATM   35  C   UNL     1      -8.627   8.513  67.165  1.00  0.00    -0.122 C  
HETATM   36  H   UNL     1      -9.693  10.076  68.015  1.00  0.00     0.000 HD 
HETATM   37  O   UNL     1      -8.412   7.308  67.086  1.00  0.00    -0.116 OA 
BRANCH  35  38
HETATM   38  C   UNL     1      -7.941   9.414  66.208  1.00  0.00    -0.111 A  
HETATM   39  O   UNL     1      -9.977  10.660  65.735  1.00  0.00    -0.232 OA 
HETATM   40  C   UNL     1      -8.639  10.428  65.548  1.00  0.00    -0.169 A  
HETATM   41  C   UNL     1      -6.653  11.013  64.356  1.00  0.00     0.789 A  
HETATM   42  C   UNL     1      -7.992  11.252  64.633  1.00  0.00     0.784 A  
HETATM   43  H   UNL     1     -10.451  11.349  65.287  1.00  0.00     0.000 HD 
HETATM   44  N   UNL     1      -5.949  10.031  64.974  1.00  0.00    -0.098 NA 
HETATM   45  C   UNL     1      -5.939  11.785  63.286  1.00  0.00     2.677 C  
HETATM   46  C   UNL     1      -6.605   9.258  65.876  1.00  0.00    -0.076 A  
ENDBRANCH  35  38
ENDBRANCH  25  34
ENDBRANCH  24  25
ENDBRANCH   6  21
TORSDOF 8
ENDMDL
MODEL      174
REMARK 921   NORMALIZED FREE ENERGY PREDICTED BY IDOCK:   45.09 KCAL/MOL
REMARK 922        TOTAL FREE ENERGY PREDICTED BY IDOCK:   64.37 KCAL/MOL
REMARK 923 INTER-LIGAND FREE ENERGY PREDICTED BY IDOCK:   55.79 KCAL/MOL
REMARK 924 INTRA-LIGAND FREE ENERGY PREDICTED BY IDOCK:    8.58 KCAL/MOL
REMARK 927      BINDING AFFINITY PREDICTED BY RF-SCORE:    0.00 PKD
ROOT
HETATM    1  C   UNL     1     -10.056   8.162  62.923  1.00  0.00     5.824 C  
HETATM    2  S   UNL     1      -8.271   7.919  63.145  1.00  0.00     0.036 SA 
HETATM    3  C   UNL     1      -8.343   6.193  62.622  1.00  0.00    -0.011 C  
HETATM    4  C   UNL     1      -9.433   5.368  63.301  1.00  0.00     0.757 C  
HETATM    5  CA  UNL     1     -10.529   5.907  63.905  1.00  0.00     4.451 C  
HETATM    6  CA  UNL     1     -10.660   9.348  63.753  1.00  0.00     4.548 C  
HETATM    7  O   UNL     1     -12.357   8.063  65.277  1.00  0.00    12.347 OA 
HETATM    8  N   UNL     1     -10.750   7.259  63.821  1.00  0.00    11.525 N  
HETATM    9  C   UNL     1     -11.455   5.030  64.731  1.00  0.00     1.627 C  
HETATM   10  OXT UNL     1     -11.170   3.901  65.101  1.00  0.00     0.156 OA 
HETATM   11  O   UNL     1     -12.680   5.527  64.986  1.00  0.00     3.651 OA 
HETATM   12  C   UNL     1     -11.486   8.199  64.450  1.00  0.00    15.578 C  
ENDROOT
BRANCH   4  13
HETATM   13  C   UNL     1      -9.034   3.889  63.311  1.00  0.00    -0.108 C  
BRANCH  13  14
HETATM   14  S   UNL     1      -8.072   3.339  64.743  1.00  0.00    -0.090 SA 
BRANCH  14  15
HETATM   15  C   UNL     1      -7.290   4.760  65.304  1.00  0.00    -0.072 A  
HETATM   16  N   UNL     1      -7.427   5.986  64.868  1.00  0.00    -0.077 NA 
HETATM   17  C   UNL     1      -5.898   3.671  67.127  1.00  0.00    -0.023 C  
HETATM   18  N   UNL     1      -6.557   6.750  65.611  1.00  0.00    -0.049 NA 
HETATM   19  N   UNL     1      -6.370   4.756  66.311  1.00  0.00    -0.035 NA 
HETATM   20  N   UNL     1      -5.906   6.005  66.494  1.00  0.00    -0.017 NA 
ENDBRANCH  14  15
ENDBRANCH  13  14
ENDBRANCH   4  13
BRANCH   6  21
HETATM   21  N   UNL     1      -9.673  10.053  64.626  1.00  0.00    -0.361 N  
HETATM   22  H   UNL     1      -9.083   9.493  65.242  1.00  0.00     0.000 HD 
HETATM   23  O   UNL     1     -10.058  12.150  63.804  1.00  0.00    -0.371 OA 
HETATM   24  C   UNL     1      -9.520  11.429  64.641  1.00  0.00    -0.148 C  
BRANCH  24  25
HETATM   25  CA  UNL     1      -8.779  11.965  65.903  1.00  0.00     0.134 C  
BRANCH  25  26
HETATM   26  C   UNL     1      -9.442  13.240  66.435  1.00  0.00    -0.225 A  
HETATM   27  O   UNL     1     -11.121  16.762  67.914  1.00  0.00    -0.302 OA 
HETATM   28  C   UNL     1     -10.298  14.011  65.629  1.00  0.00    -0.342 A  
HETATM   29  C   UNL     1      -9.808  14.840  68.245  1.00  0.00    -0.222 A  
HETATM   30  C   UNL     1     -10.607  15.606  67.410  1.00  0.00    -0.301 A  
HETATM   31  C   UNL     1     -10.871  15.194  66.110  1.00  0.00    -0.330 A  
HETATM   32  H   UNL     1     -10.940  17.043  68.803  1.00  0.00     0.000 HD 
HETATM   33  C   UNL     1      -9.244  13.657  67.767  1.00  0.00    -0.214 A  
ENDBRANCH  25  26
BRANCH  25  34
HETATM   34  N   UNL     1      -8.802  10.889  66.914  1.00  0.00    -0.140 N  
HETATM   35  C   UNL     1      -9.061  11.146  68.242  1.00  0.00    -0.162 C  
HETATM   36  H   UNL     1      -8.623   9.929  66.620  1.00  0.00     0.000 HD 
HETATM   37  O   UNL     1      -9.369  12.252  68.674  1.00  0.00    -0.133 OA 
BRANCH  35  38
HETATM   38  C   UNL     1      -9.021  10.007  69.191  1.00  0.00    -0.172 A  
HETATM   39  O   UNL     1      -6.619   9.718  68.931  1.00  0.00    -0.046 OA 
HETATM   40  C   UNL     1      -7.820   9.357  69.484  1.00  0.00    -0.091 A  
HETATM   41  C   UNL     1      -8.999   7.824  70.888  1.00  0.00    -0.147 A  
HETATM   42  C   UNL     1      -7.797   8.273  70.356  1.00  0.00    -0.089 A  
HETATM   43  H   UNL     1      -5.803   9.276  69.131  1.00  0.00     0.000 HD 
HETATM   44  N   UNL     1     -10.182   8.429  70.616  1.00  0.00    -0.192 NA 
HETATM   45  C   UNL     1      -9.051   6.583  71.730  1.00  0.00    -0.142 C  
HETATM   46  C   UNL     1     -10.167   9.495  69.778  1.00  0.00    -0.228 A  
ENDBRANCH  35  38
ENDBRANCH  25  34
ENDBRANCH  24  25
ENDBRANCH   6  21
TORSDOF 8
ENDMDL
MODEL      175
REMARK 921   NORMALIZED FREE ENERGY PREDICTED BY IDOCK:   52.10 KCAL/MOL
REMARK 922        TOTAL FREE ENERGY PREDICTED BY IDOCK:   74.66 KCAL/MOL
REMARK 923 INTER-LIGAND FREE ENERGY PREDICTED BY IDOCK:   75.87 KCAL/MOL
REMARK 924 INTRA-LIGAND FREE ENERGY PREDICTED BY IDOCK:   -1.21 KCAL/MOL
REMARK 927      BINDING AFFINITY PREDICTED BY RF-SCORE:    0.00 PKD
ROOT
HETATM    1  C   UNL     1     -10.037   9.128  62.551  1.00  0.00     2.817 C  
HETATM    2  S   UNL     1      -8.337   8.689  63.010  1.00  0.00    -0.109 SA 
HETATM    3  C   UNL     1      -8.536   6.972  62.492  1.00  0.00     0.121 C  
HETATM    4  C   UNL     1      -9.794   6.290  63.023  1.00  0.00     3.117 C  
HETATM    5  CA  UNL     1     -10.890   6.961  63.472  1.00  0.00    12.905 C  
HETATM    6  CA  UNL     1     -10.606  10.391  63.286  1.00  0.00     0.871 C  
HETATM    7  O   UNL     1     -12.625   9.336  64.576  1.00  0.00    12.811 OA 
HETATM    8  N   UNL     1     -10.942   8.327  63.352  1.00  0.00    12.219 N  
HETATM    9  C   UNL     1     -12.013   6.211  64.171  1.00  0.00     9.867 C  
HETATM   10  OXT UNL     1     -11.910   5.064  64.582  1.00  0.00     1.123 OA 
HETATM   11  O   UNL     1     -13.195   6.848  64.257  1.00  0.00    12.268 OA 
HETATM   12  C   UNL     1     -11.643   9.357  63.873  1.00  0.00    10.510 C  
ENDROOT
BRANCH   4  13
HETATM   13  C   UNL     1      -9.572   4.775  63.094  1.00  0.00     0.204 C  
BRANCH  13  14
HETATM   14  S   UNL     1      -9.029   4.130  64.696  1.00  0.00    -0.148 SA 
BRANCH  14  15
HETATM   15  C   UNL     1      -7.316   4.233  64.641  1.00  0.00    -0.071 A  
HETATM   16  N   UNL     1      -6.528   4.998  65.353  1.00  0.00    -0.035 NA 
HETATM   17  C   UNL     1      -6.939   2.502  62.822  1.00  0.00    -0.031 C  
HETATM   18  N   UNL     1      -5.251   4.743  64.906  1.00  0.00    -0.012 NA 
HETATM   19  N   UNL     1      -6.552   3.500  63.781  1.00  0.00    -0.034 NA 
HETATM   20  N   UNL     1      -5.258   3.829  63.945  1.00  0.00    -0.008 NA 
ENDBRANCH  14  15
ENDBRANCH  13  14
ENDBRANCH   4  13
BRANCH   6  21
HETATM   21  N   UNL     1      -9.669  10.998  64.280  1.00  0.00    -0.261 N  
HETATM   22  H   UNL     1      -9.131  10.375  64.884  1.00  0.00     0.000 HD 
HETATM   23  O   UNL     1      -9.961  13.164  63.616  1.00  0.00    -0.059 OA 
HETATM   24  C   UNL     1      -9.494  12.364  64.422  1.00  0.00     0.319 C  
BRANCH  24  25
HETATM   25  CA  UNL     1      -8.831  12.775  65.772  1.00  0.00     0.644 C  
BRANCH  25  26
HETATM   26  C   UNL     1      -9.810  13.559  66.653  1.00  0.00    -0.279 A  
HETATM   27  O   UNL     1     -12.418  15.815  69.002  1.00  0.00    -0.548 OA 
HETATM   28  C   UNL     1     -11.201  13.382  66.540  1.00  0.00    -0.327 A  
HETATM   29  C   UNL     1     -10.226  15.209  68.406  1.00  0.00    -0.221 A  
HETATM   30  C   UNL     1     -11.592  15.049  68.237  1.00  0.00    -0.334 A  
HETATM   31  C   UNL     1     -12.089  14.129  67.322  1.00  0.00    -0.407 A  
HETATM   32  H   UNL     1     -12.078  16.445  69.627  1.00  0.00     0.000 HD 
HETATM   33  C   UNL     1      -9.341  14.458  67.632  1.00  0.00    -0.200 A  
ENDBRANCH  25  26
BRANCH  25  34
HETATM   34  N   UNL     1      -8.390  11.534  66.438  1.00  0.00    -0.285 N  
HETATM   35  C   UNL     1      -7.057  11.207  66.556  1.00  0.00    -0.124 C  
HETATM   36  H   UNL     1      -9.091  10.901  66.822  1.00  0.00     0.000 HD 
HETATM   37  O   UNL     1      -6.142  11.942  66.200  1.00  0.00     0.033 OA 
BRANCH  35  38
HETATM   38  C   UNL     1      -6.712   9.918  67.203  1.00  0.00    -0.074 A  
HETATM   39  O   UNL     1      -8.123   8.641  65.687  1.00  0.00    -0.100 OA 
HETATM   40  C   UNL     1      -7.255   8.715  66.745  1.00  0.00    -0.078 A  
HETATM   41  C   UNL     1      -6.124   7.545  68.495  1.00  0.00    -0.028 A  
HETATM   42  C   UNL     1      -6.945   7.514  67.375  1.00  0.00    -0.083 A  
HETATM   43  H   UNL     1      -8.492   7.823  65.376  1.00  0.00     0.000 HD 
HETATM   44  N   UNL     1      -5.588   8.697  68.969  1.00  0.00    -0.039 NA 
HETATM   45  C   UNL     1      -5.861   6.299  69.289  1.00  0.00    -0.020 C  
HETATM   46  C   UNL     1      -5.895   9.848  68.320  1.00  0.00    -0.042 A  
ENDBRANCH  35  38
ENDBRANCH  25  34
ENDBRANCH  24  25
ENDBRANCH   6  21
TORSDOF 8
ENDMDL
MODEL      176
REMARK 921   NORMALIZED FREE ENERGY PREDICTED BY IDOCK:   64.11 KCAL/MOL
REMARK 922        TOTAL FREE ENERGY PREDICTED BY IDOCK:   92.28 KCAL/MOL
REMARK 923 INTER-LIGAND FREE ENERGY PREDICTED BY IDOCK:   84.97 KCAL/MOL
REMARK 924 INTRA-LIGAND FREE ENERGY PREDICTED BY IDOCK:    7.31 KCAL/MOL
REMARK 927      BINDING AFFINITY PREDICTED BY RF-SCORE:    0.00 PKD
ROOT
HETATM    1  C   UNL     1     -11.593  12.267  69.872  1.00  0.00    -0.203 C  
HETATM    2  S   UNL     1      -9.821  12.566  69.620  1.00  0.00     1.855 SA 
HETATM    3  C   UNL     1      -9.748  13.815  70.922  1.00  0.00     5.190 C  
HETATM    4  C   UNL     1     -10.839  14.880  70.843  1.00  0.00     0.015 C  
HETATM    5  CA  UNL     1     -12.010  14.719  70.166  1.00  0.00    -0.312 C  
HETATM    6  CA  UNL     1     -12.332  11.648  68.634  1.00  0.00     0.319 C  
HETATM    7  O   UNL     1     -14.067  13.536  68.108  1.00  0.00     7.914 OA 
HETATM    8  N   UNL     1     -12.303  13.503  69.602  1.00  0.00    -0.227 N  
HETATM    9  C   UNL     1     -12.947  15.900  69.969  1.00  0.00     0.631 C  
HETATM   10  OXT UNL     1     -12.626  17.062  70.169  1.00  0.00     2.638 OA 
HETATM   11  O   UNL     1     -14.216  15.606  69.628  1.00  0.00     1.984 OA 
HETATM   12  C   UNL     1     -13.142  13.001  68.672  1.00  0.00     2.658 C  
ENDROOT
BRANCH   4  13
HETATM   13  C   UNL     1     -10.355  16.169  71.515  1.00  0.00     1.981 C  
BRANCH  13  14
HETATM   14  S   UNL     1     -10.036  17.566  70.409  1.00  0.00     2.016 SA 
BRANCH  14  15
HETATM   15  C   UNL     1      -8.720  17.049  69.436  1.00  0.00     0.285 A  
HETATM   16  N   UNL     1      -7.887  16.064  69.657  1.00  0.00    -0.042 NA 
HETATM   17  C   UNL     1      -8.986  18.765  67.583  1.00  0.00    -0.279 C  
HETATM   18  N   UNL     1      -6.992  16.085  68.612  1.00  0.00    -0.127 NA 
HETATM   19  N   UNL     1      -8.369  17.662  68.268  1.00  0.00    -0.265 NA 
HETATM   20  N   UNL     1      -7.280  17.060  67.760  1.00  0.00    -0.150 NA 
ENDBRANCH  14  15
ENDBRANCH  13  14
ENDBRANCH   4  13
BRANCH   6  21
HETATM   21  N   UNL     1     -11.462  11.450  67.435  1.00  0.00    -0.285 N  
HETATM   22  H   UNL     1     -11.867  11.009  66.609  1.00  0.00     0.000 HD 
HETATM   23  O   UNL     1      -9.631  12.533  68.267  1.00  0.00    -0.213 OA 
HETATM   24  C   UNL     1     -10.134  11.836  67.390  1.00  0.00    -0.195 C  
BRANCH  24  25
HETATM   25  CA  UNL     1      -9.320  11.155  66.247  1.00  0.00    -0.195 C  
BRANCH  25  26
HETATM   26  C   UNL     1      -8.309  12.127  65.631  1.00  0.00     0.885 A  
HETATM   27  O   UNL     1      -5.550  14.845  64.079  1.00  0.00    16.958 OA 
HETATM   28  C   UNL     1      -7.111  11.671  65.054  1.00  0.00     2.075 A  
HETATM   29  C   UNL     1      -7.635  14.408  65.073  1.00  0.00    10.570 A  
HETATM   30  C   UNL     1      -6.440  13.932  64.557  1.00  0.00    20.241 A  
HETATM   31  C   UNL     1      -6.176  12.569  64.527  1.00  0.00     8.580 A  
HETATM   32  H   UNL     1      -5.731  15.777  64.099  1.00  0.00     0.000 HD 
HETATM   33  C   UNL     1      -8.570  13.512  65.592  1.00  0.00     1.736 A  
ENDBRANCH  25  26
BRANCH  25  34
HETATM   34  N   UNL     1      -8.643   9.981  66.834  1.00  0.00    -0.125 N  
HETATM   35  C   UNL     1      -9.081   8.696  66.596  1.00  0.00    -0.165 C  
HETATM   36  H   UNL     1      -7.830  10.125  67.431  1.00  0.00     0.000 HD 
HETATM   37  O   UNL     1      -9.996   8.420  65.828  1.00  0.00     0.059 OA 
BRANCH  35  38
HETATM   38  C   UNL     1      -8.363   7.583  67.263  1.00  0.00    -0.118 A  
HETATM   39  O   UNL     1      -9.833   5.900  66.300  1.00  0.00    -0.258 OA 
HETATM   40  C   UNL     1      -8.769   6.258  67.086  1.00  0.00    -0.109 A  
HETATM   41  C   UNL     1      -7.065   5.540  68.599  1.00  0.00    -0.065 A  
HETATM   42  C   UNL     1      -8.106   5.223  67.736  1.00  0.00    -0.099 A  
HETATM   43  H   UNL     1     -10.108   4.999  66.179  1.00  0.00     0.000 HD 
HETATM   44  N   UNL     1      -6.653   6.817  68.798  1.00  0.00    -0.049 NA 
HETATM   45  C   UNL     1      -6.399   4.478  69.424  1.00  0.00    -0.028 C  
HETATM   46  C   UNL     1      -7.308   7.802  68.134  1.00  0.00    -0.106 A  
ENDBRANCH  35  38
ENDBRANCH  25  34
ENDBRANCH  24  25
ENDBRANCH   6  21
TORSDOF 8
ENDMDL
