MODEL        1
REMARK 921   NORMALIZED FREE ENERGY PREDICTED BY IDOCK:   -7.44 KCAL/MOL
REMARK 922        TOTAL FREE ENERGY PREDICTED BY IDOCK:   -9.99 KCAL/MOL
REMARK 923 INTER-LIGAND FREE ENERGY PREDICTED BY IDOCK:   -9.17 KCAL/MOL
REMARK 924 INTRA-LIGAND FREE ENERGY PREDICTED BY IDOCK:   -0.81 KCAL/MOL
REMARK 927      BINDING AFFINITY PREDICTED BY RF-SCORE:    0.00 PKD
ROOT
HETATM    1  C   UNL     1     -12.039  14.422  66.223  1.00  0.00    -0.366 C  
HETATM    2  S   UNL     1     -11.731  12.901  67.152  1.00  0.00    -0.370 SA 
HETATM    3  C   UNL     1     -12.048  13.680  68.746  1.00  0.00    -0.297 C  
HETATM    4  C   UNL     1     -11.356  15.020  68.967  1.00  0.00    -0.306 C  
HETATM    5  CA  UNL     1     -10.911  15.826  67.955  1.00  0.00    -0.330 C  
HETATM    6  CA  UNL     1     -11.357  14.489  64.818  1.00  0.00    -0.396 C  
HETATM    7  C   UNL     1     -10.232  17.147  68.266  1.00  0.00    -0.334 C  
HETATM    8  O   UNL     1      -9.821  16.573  65.091  1.00  0.00    -0.411 OA 
HETATM    9  N   UNL     1     -11.100  15.438  66.655  1.00  0.00    -0.283 N  
HETATM   10  OXT UNL     1     -10.405  17.763  69.310  1.00  0.00    -0.318 OA 
HETATM   11  C   UNL     1     -10.625  15.736  65.426  1.00  0.00    -0.421 C  
HETATM   12  O   UNL     1      -9.413  17.658  67.329  1.00  0.00    -0.250 OA 
ENDROOT
BRANCH   4  13
HETATM   13  C   UNL     1     -11.124  15.288  70.397  1.00  0.00    -0.324 C  
HETATM   14  C   UNL     1     -12.078  15.506  71.317  1.00  0.00    -0.441 C  
HETATM   15  C   UNL     1     -11.803  15.717  72.771  1.00  0.00    -0.584 C  
ENDBRANCH   4  13
BRANCH   6  16
HETATM   16  N   UNL     1     -10.475  13.347  64.490  1.00  0.00    -0.453 N  
HETATM   17  H   UNL     1      -9.518  13.374  64.842  1.00  0.00     0.000 HD 
HETATM   18  C   UNL     1     -10.849  12.253  63.746  1.00  0.00    -0.442 C  
HETATM   19  O   UNL     1     -11.993  12.074  63.342  1.00  0.00    -0.484 OA 
BRANCH  18  20
HETATM   20  CA  UNL     1      -9.672  11.282  63.475  1.00  0.00    -0.336 C  
HETATM   21  H2  UNL     1     -10.307  10.877  61.515  1.00  0.00     0.000 HD 
HETATM   22  N   UNL     1     -10.028  10.367  62.353  1.00  0.00    -0.749 NA 
HETATM   23  H1  UNL     1      -9.253   9.727  62.174  1.00  0.00     0.000 HD 
BRANCH  20  24
HETATM   24  C   UNL     1      -9.282  10.515  64.725  1.00  0.00    -0.266 A  
HETATM   25  C   UNL     1     -10.278   9.877  65.481  1.00  0.00    -0.194 A  
HETATM   26  C   UNL     1      -9.960   9.192  66.657  1.00  0.00    -0.343 A  
HETATM   27  C   UNL     1      -8.636   9.132  67.078  1.00  0.00    -0.123 A  
HETATM   28  C   UNL     1      -7.627   9.721  66.329  1.00  0.00    -0.100 A  
HETATM   29  O   UNL     1      -8.286   8.505  68.235  1.00  0.00    -0.120 OA 
HETATM   30  H   UNL     1      -7.381   8.464  68.522  1.00  0.00     0.000 HD 
HETATM   31  C   UNL     1      -7.946  10.403  65.153  1.00  0.00    -0.134 A  
ENDBRANCH  20  24
ENDBRANCH  18  20
ENDBRANCH   6  16
TORSDOF 4
ENDMDL
MODEL        2
REMARK 921   NORMALIZED FREE ENERGY PREDICTED BY IDOCK:   -7.40 KCAL/MOL
REMARK 922        TOTAL FREE ENERGY PREDICTED BY IDOCK:   -9.95 KCAL/MOL
REMARK 923 INTER-LIGAND FREE ENERGY PREDICTED BY IDOCK:   -9.50 KCAL/MOL
REMARK 924 INTRA-LIGAND FREE ENERGY PREDICTED BY IDOCK:   -0.45 KCAL/MOL
REMARK 927      BINDING AFFINITY PREDICTED BY RF-SCORE:    0.00 PKD
ROOT
HETATM    1  C   UNL     1     -11.769  14.831  68.666  1.00  0.00    -0.325 C  
HETATM    2  S   UNL     1     -10.193  15.225  69.462  1.00  0.00    -0.250 SA 
HETATM    3  C   UNL     1     -10.031  16.803  68.608  1.00  0.00    -0.276 C  
HETATM    4  C   UNL     1     -10.289  16.764  67.106  1.00  0.00    -0.297 C  
HETATM    5  CA  UNL     1     -11.018  15.788  66.483  1.00  0.00    -0.165 C  
HETATM    6  CA  UNL     1     -12.115  13.308  68.599  1.00  0.00    -0.222 C  
HETATM    7  C   UNL     1     -11.228  15.827  64.980  1.00  0.00    -0.308 C  
HETATM    8  O   UNL     1     -12.271  12.929  66.027  1.00  0.00    -0.452 OA 
HETATM    9  N   UNL     1     -11.574  14.784  67.230  1.00  0.00    -0.379 N  
HETATM   10  OXT UNL     1     -11.164  16.854  64.318  1.00  0.00    -1.204 OA 
HETATM   11  C   UNL     1     -12.095  13.550  67.048  1.00  0.00    -0.354 C  
HETATM   12  O   UNL     1     -11.512  14.665  64.365  1.00  0.00    -0.342 OA 
ENDROOT
BRANCH   4  13
HETATM   13  C   UNL     1      -9.568  17.835  66.397  1.00  0.00    -0.293 C  
HETATM   14  C   UNL     1      -9.158  18.993  66.940  1.00  0.00    -0.327 C  
HETATM   15  C   UNL     1      -8.377  20.031  66.199  1.00  0.00    -0.304 C  
ENDBRANCH   4  13
BRANCH   6  16
HETATM   16  N   UNL     1     -11.061  12.399  69.101  1.00  0.00    -0.372 N  
HETATM   17  H   UNL     1     -10.361  12.791  69.733  1.00  0.00     0.000 HD 
HETATM   18  C   UNL     1     -10.953  11.067  68.782  1.00  0.00    -0.221 C  
HETATM   19  O   UNL     1     -11.781  10.470  68.100  1.00  0.00    -0.431 OA 
BRANCH  18  20
HETATM   20  CA  UNL     1      -9.680  10.409  69.370  1.00  0.00    -0.200 C  
HETATM   21  H2  UNL     1      -8.815  10.120  67.478  1.00  0.00     0.000 HD 
HETATM   22  N   UNL     1      -9.014   9.583  68.323  1.00  0.00    -0.124 NA 
HETATM   23  H1  UNL     1      -8.175   9.150  68.710  1.00  0.00     0.000 HD 
BRANCH  20  24
HETATM   24  C   UNL     1      -9.993   9.598  70.614  1.00  0.00    -0.299 A  
HETATM   25  C   UNL     1      -8.952   8.939  71.287  1.00  0.00    -0.312 A  
HETATM   26  C   UNL     1      -9.208   8.155  72.414  1.00  0.00    -0.292 A  
HETATM   27  C   UNL     1     -10.512   8.033  72.882  1.00  0.00    -0.332 A  
HETATM   28  C   UNL     1     -11.554   8.705  72.259  1.00  0.00    -0.424 A  
HETATM   29  O   UNL     1     -10.812   7.251  73.957  1.00  0.00    -0.556 OA 
HETATM   30  H   UNL     1     -11.702   7.169  74.276  1.00  0.00     0.000 HD 
HETATM   31  C   UNL     1     -11.296   9.491  71.134  1.00  0.00    -0.440 A  
ENDBRANCH  20  24
ENDBRANCH  18  20
ENDBRANCH   6  16
TORSDOF 4
ENDMDL
MODEL        3
REMARK 921   NORMALIZED FREE ENERGY PREDICTED BY IDOCK:   -7.35 KCAL/MOL
REMARK 922        TOTAL FREE ENERGY PREDICTED BY IDOCK:   -9.88 KCAL/MOL
REMARK 923 INTER-LIGAND FREE ENERGY PREDICTED BY IDOCK:   -9.15 KCAL/MOL
REMARK 924 INTRA-LIGAND FREE ENERGY PREDICTED BY IDOCK:   -0.72 KCAL/MOL
REMARK 927      BINDING AFFINITY PREDICTED BY RF-SCORE:    0.00 PKD
ROOT
HETATM    1  C   UNL     1     -11.420  14.865  68.732  1.00  0.00    -0.307 C  
HETATM    2  S   UNL     1      -9.714  14.984  69.320  1.00  0.00    -0.152 SA 
HETATM    3  C   UNL     1      -9.416  16.548  68.476  1.00  0.00    -0.235 C  
HETATM    4  C   UNL     1      -9.867  16.601  67.020  1.00  0.00    -0.260 C  
HETATM    5  CA  UNL     1     -10.813  15.771  66.484  1.00  0.00    -0.230 C  
HETATM    6  CA  UNL     1     -12.006  13.416  68.688  1.00  0.00    -0.327 C  
HETATM    7  C   UNL     1     -11.204  15.894  65.022  1.00  0.00    -0.290 C  
HETATM    8  O   UNL     1     -12.546  13.156  66.154  1.00  0.00    -0.398 OA 
HETATM    9  N   UNL     1     -11.420  14.838  67.282  1.00  0.00    -0.361 N  
HETATM   10  OXT UNL     1     -11.064  16.923  64.372  1.00  0.00    -1.128 OA 
HETATM   11  C   UNL     1     -12.146  13.707  67.152  1.00  0.00    -0.362 C  
HETATM   12  O   UNL     1     -11.743  14.812  64.432  1.00  0.00    -0.391 OA 
ENDROOT
BRANCH   4  13
HETATM   13  C   UNL     1      -9.083  17.573  66.238  1.00  0.00    -0.221 C  
HETATM   14  C   UNL     1      -8.746  18.810  66.640  1.00  0.00    -0.306 C  
HETATM   15  C   UNL     1      -7.899  19.746  65.839  1.00  0.00    -0.309 C  
ENDBRANCH   4  13
BRANCH   6  16
HETATM   16  N   UNL     1     -11.052  12.340  69.035  1.00  0.00    -0.290 N  
HETATM   17  H   UNL     1     -10.075  12.471  68.771  1.00  0.00     0.000 HD 
HETATM   18  C   UNL     1     -11.383  11.175  69.686  1.00  0.00    -0.294 C  
HETATM   19  O   UNL     1     -12.506  10.945  70.122  1.00  0.00    -0.314 OA 
BRANCH  18  20
HETATM   20  CA  UNL     1     -10.190  10.193  69.802  1.00  0.00    -0.247 C  
HETATM   21  H2  UNL     1      -8.779  11.742  69.938  1.00  0.00     0.000 HD 
HETATM   22  N   UNL     1      -8.932  10.886  69.404  1.00  0.00    -0.399 NA 
HETATM   23  H1  UNL     1      -8.146  10.240  69.481  1.00  0.00     0.000 HD 
BRANCH  20  24
HETATM   24  C   UNL     1     -10.422   8.934  68.987  1.00  0.00    -0.231 A  
HETATM   25  C   UNL     1     -10.650   7.717  69.650  1.00  0.00    -0.242 A  
HETATM   26  C   UNL     1     -10.833   6.532  68.933  1.00  0.00    -0.354 A  
HETATM   27  C   UNL     1     -10.798   6.560  67.543  1.00  0.00    -0.352 A  
HETATM   28  C   UNL     1     -10.612   7.755  66.862  1.00  0.00    -0.347 A  
HETATM   29  O   UNL     1     -10.936   5.423  66.805  1.00  0.00    -0.468 OA 
HETATM   30  H   UNL     1     -10.912   5.442  65.856  1.00  0.00     0.000 HD 
HETATM   31  C   UNL     1     -10.433   8.939  67.580  1.00  0.00    -0.337 A  
ENDBRANCH  20  24
ENDBRANCH  18  20
ENDBRANCH   6  16
TORSDOF 4
ENDMDL
MODEL        4
REMARK 921   NORMALIZED FREE ENERGY PREDICTED BY IDOCK:   -7.32 KCAL/MOL
REMARK 922        TOTAL FREE ENERGY PREDICTED BY IDOCK:   -9.85 KCAL/MOL
REMARK 923 INTER-LIGAND FREE ENERGY PREDICTED BY IDOCK:   -9.19 KCAL/MOL
REMARK 924 INTRA-LIGAND FREE ENERGY PREDICTED BY IDOCK:   -0.66 KCAL/MOL
REMARK 927      BINDING AFFINITY PREDICTED BY RF-SCORE:    0.00 PKD
ROOT
HETATM    1  C   UNL     1     -11.407  15.110  68.822  1.00  0.00    -0.300 C  
HETATM    2  S   UNL     1      -9.710  15.226  69.436  1.00  0.00    -0.224 SA 
HETATM    3  C   UNL     1      -9.358  16.726  68.502  1.00  0.00    -0.246 C  
HETATM    4  C   UNL     1      -9.779  16.699  67.038  1.00  0.00    -0.253 C  
HETATM    5  CA  UNL     1     -10.735  15.859  66.535  1.00  0.00    -0.258 C  
HETATM    6  CA  UNL     1     -12.027  13.676  68.857  1.00  0.00    -0.356 C  
HETATM    7  C   UNL     1     -11.095  15.899  65.060  1.00  0.00    -0.360 C  
HETATM    8  O   UNL     1     -12.525  13.269  66.333  1.00  0.00    -0.329 OA 
HETATM    9  N   UNL     1     -11.380  14.992  67.377  1.00  0.00    -0.337 N  
HETATM   10  OXT UNL     1     -10.917  16.880  64.351  1.00  0.00    -1.016 OA 
HETATM   11  C   UNL     1     -12.131  13.872  67.303  1.00  0.00    -0.368 C  
HETATM   12  O   UNL     1     -11.649  14.794  64.528  1.00  0.00    -0.395 OA 
ENDROOT
BRANCH   4  13
HETATM   13  C   UNL     1      -8.957  17.601  66.213  1.00  0.00    -0.211 C  
HETATM   14  C   UNL     1      -7.950  18.368  66.660  1.00  0.00    -0.278 C  
HETATM   15  C   UNL     1      -7.101  19.228  65.779  1.00  0.00    -0.306 C  
ENDBRANCH   4  13
BRANCH   6  16
HETATM   16  N   UNL     1     -11.107  12.601  69.289  1.00  0.00    -0.421 N  
HETATM   17  H   UNL     1     -10.238  12.879  69.746  1.00  0.00     0.000 HD 
HETATM   18  C   UNL     1     -11.336  11.256  69.123  1.00  0.00    -0.282 C  
HETATM   19  O   UNL     1     -12.379  10.803  68.664  1.00  0.00    -0.430 OA 
BRANCH  18  20
HETATM   20  CA  UNL     1     -10.136  10.384  69.573  1.00  0.00    -0.219 C  
HETATM   21  H2  UNL     1      -9.066  10.737  67.801  1.00  0.00     0.000 HD 
HETATM   22  N   UNL     1      -9.359   9.948  68.378  1.00  0.00    -0.132 NA 
HETATM   23  H1  UNL     1      -8.569   9.374  68.674  1.00  0.00     0.000 HD 
BRANCH  20  24
HETATM   24  C   UNL     1     -10.588   9.203  70.412  1.00  0.00    -0.275 A  
HETATM   25  C   UNL     1     -10.417   7.900  69.917  1.00  0.00    -0.229 A  
HETATM   26  C   UNL     1     -10.852   6.791  70.646  1.00  0.00    -0.292 A  
HETATM   27  C   UNL     1     -11.455   6.980  71.885  1.00  0.00    -0.268 A  
HETATM   28  C   UNL     1     -11.602   8.254  72.416  1.00  0.00    -0.464 A  
HETATM   29  O   UNL     1     -11.926   5.929  72.614  1.00  0.00    -0.509 OA 
HETATM   30  H   UNL     1     -12.337   6.058  73.461  1.00  0.00     0.000 HD 
HETATM   31  C   UNL     1     -11.163   9.361  71.687  1.00  0.00    -0.431 A  
ENDBRANCH  20  24
ENDBRANCH  18  20
ENDBRANCH   6  16
TORSDOF 4
ENDMDL
MODEL        5
REMARK 921   NORMALIZED FREE ENERGY PREDICTED BY IDOCK:   -7.24 KCAL/MOL
REMARK 922        TOTAL FREE ENERGY PREDICTED BY IDOCK:   -9.74 KCAL/MOL
REMARK 923 INTER-LIGAND FREE ENERGY PREDICTED BY IDOCK:   -8.96 KCAL/MOL
REMARK 924 INTRA-LIGAND FREE ENERGY PREDICTED BY IDOCK:   -0.78 KCAL/MOL
REMARK 927      BINDING AFFINITY PREDICTED BY RF-SCORE:    0.00 PKD
ROOT
HETATM    1  C   UNL     1     -11.807  13.869  67.981  1.00  0.00    -0.375 C  
HETATM    2  S   UNL     1     -10.531  12.613  67.727  1.00  0.00    -0.226 SA 
HETATM    3  C   UNL     1     -11.450  11.342  68.614  1.00  0.00    -0.296 C  
HETATM    4  C   UNL     1     -12.029  11.771  69.957  1.00  0.00    -0.421 C  
HETATM    5  CA  UNL     1     -12.269  13.073  70.304  1.00  0.00    -0.296 C  
HETATM    6  CA  UNL     1     -11.305  15.348  67.911  1.00  0.00    -0.325 C  
HETATM    7  C   UNL     1     -12.850  13.412  71.665  1.00  0.00    -0.321 C  
HETATM    8  O   UNL     1     -11.901  16.206  70.296  1.00  0.00    -0.292 OA 
HETATM    9  N   UNL     1     -11.998  14.069  69.404  1.00  0.00    -0.325 N  
HETATM   10  OXT UNL     1     -13.510  12.624  72.330  1.00  0.00    -0.561 OA 
HETATM   11  C   UNL     1     -11.819  15.408  69.393  1.00  0.00    -0.351 C  
HETATM   12  O   UNL     1     -12.630  14.651  72.141  1.00  0.00    -0.317 OA 
ENDROOT
BRANCH   4  13
HETATM   13  C   UNL     1     -12.192  10.631  70.875  1.00  0.00    -0.497 C  
HETATM   14  C   UNL     1     -11.222   9.774  71.237  1.00  0.00    -0.417 C  
HETATM   15  C   UNL     1     -11.415   8.661  72.217  1.00  0.00    -0.423 C  
ENDBRANCH   4  13
BRANCH   6  16
HETATM   16  N   UNL     1      -9.843  15.510  67.751  1.00  0.00    -0.213 N  
HETATM   17  H   UNL     1      -9.244  15.157  68.499  1.00  0.00     0.000 HD 
HETATM   18  C   UNL     1      -9.231  16.100  66.671  1.00  0.00    -0.246 C  
HETATM   19  O   UNL     1      -9.842  16.485  65.680  1.00  0.00    -0.511 OA 
BRANCH  18  20
HETATM   20  CA  UNL     1      -7.696  16.227  66.847  1.00  0.00    -0.243 C  
HETATM   21  H2  UNL     1      -7.387  14.159  66.651  1.00  0.00     0.000 HD 
HETATM   22  N   UNL     1      -7.134  14.917  67.285  1.00  0.00    -0.255 NA 
HETATM   23  H1  UNL     1      -6.124  15.000  67.400  1.00  0.00     0.000 HD 
BRANCH  20  24
HETATM   24  C   UNL     1      -7.334  17.345  67.807  1.00  0.00    -0.184 A  
HETATM   25  C   UNL     1      -7.943  18.602  67.661  1.00  0.00    -0.261 A  
HETATM   26  C   UNL     1      -7.608  19.664  68.505  1.00  0.00    -0.372 A  
HETATM   27  C   UNL     1      -6.666  19.470  69.510  1.00  0.00    -0.319 A  
HETATM   28  C   UNL     1      -6.078  18.228  69.700  1.00  0.00    -0.238 A  
HETATM   29  O   UNL     1      -6.285  20.487  70.332  1.00  0.00    -0.482 OA 
HETATM   30  H   UNL     1      -5.642  20.354  71.019  1.00  0.00     0.000 HD 
HETATM   31  C   UNL     1      -6.416  17.166  68.859  1.00  0.00    -0.192 A  
ENDBRANCH  20  24
ENDBRANCH  18  20
ENDBRANCH   6  16
TORSDOF 4
ENDMDL
MODEL        6
REMARK 921   NORMALIZED FREE ENERGY PREDICTED BY IDOCK:   -7.11 KCAL/MOL
REMARK 922        TOTAL FREE ENERGY PREDICTED BY IDOCK:   -9.58 KCAL/MOL
REMARK 923 INTER-LIGAND FREE ENERGY PREDICTED BY IDOCK:   -8.88 KCAL/MOL
REMARK 924 INTRA-LIGAND FREE ENERGY PREDICTED BY IDOCK:   -0.71 KCAL/MOL
REMARK 927      BINDING AFFINITY PREDICTED BY RF-SCORE:    0.00 PKD
ROOT
HETATM    1  C   UNL     1     -12.002  13.337  67.563  1.00  0.00    -0.324 C  
HETATM    2  S   UNL     1     -10.616  12.194  67.357  1.00  0.00    -0.231 SA 
HETATM    3  C   UNL     1     -11.348  10.939  68.423  1.00  0.00    -0.304 C  
HETATM    4  C   UNL     1     -11.898  11.450  69.750  1.00  0.00    -0.435 C  
HETATM    5  CA  UNL     1     -12.255  12.750  69.978  1.00  0.00    -0.209 C  
HETATM    6  CA  UNL     1     -11.662  14.842  67.313  1.00  0.00    -0.347 C  
HETATM    7  C   UNL     1     -12.796  13.173  71.333  1.00  0.00    -0.311 C  
HETATM    8  O   UNL     1     -12.219  15.886  69.633  1.00  0.00    -0.303 OA 
HETATM    9  N   UNL     1     -12.138  13.667  68.968  1.00  0.00    -0.340 N  
HETATM   10  OXT UNL     1     -13.333  12.399  72.114  1.00  0.00    -0.528 OA 
HETATM   11  C   UNL     1     -12.101  15.008  68.811  1.00  0.00    -0.180 C  
HETATM   12  O   UNL     1     -12.683  14.471  71.666  1.00  0.00    -0.312 OA 
ENDROOT
BRANCH   4  13
HETATM   13  C   UNL     1     -11.891  10.402  70.786  1.00  0.00    -0.466 C  
HETATM   14  C   UNL     1     -10.898   9.524  71.004  1.00  0.00    -0.423 C  
HETATM   15  C   UNL     1     -10.905   8.512  72.104  1.00  0.00    -0.427 C  
ENDBRANCH   4  13
BRANCH   6  16
HETATM   16  N   UNL     1     -10.236  15.130  67.046  1.00  0.00    -0.258 N  
HETATM   17  H   UNL     1      -9.544  14.690  67.652  1.00  0.00     0.000 HD 
HETATM   18  C   UNL     1      -9.774  15.947  66.041  1.00  0.00    -0.343 C  
HETATM   19  O   UNL     1     -10.507  16.462  65.204  1.00  0.00    -0.622 OA 
BRANCH  18  20
HETATM   20  CA  UNL     1      -8.238  16.145  66.088  1.00  0.00    -0.108 C  
HETATM   21  H2  UNL     1      -7.887  14.169  66.708  1.00  0.00     0.000 HD 
HETATM   22  N   UNL     1      -7.629  15.118  66.981  1.00  0.00    -0.263 NA 
HETATM   23  H1  UNL     1      -6.618  15.247  67.012  1.00  0.00     0.000 HD 
BRANCH  20  24
HETATM   24  C   UNL     1      -7.869  17.554  66.516  1.00  0.00    -0.312 A  
HETATM   25  C   UNL     1      -7.021  18.321  65.700  1.00  0.00    -0.234 A  
HETATM   26  C   UNL     1      -6.632  19.608  66.079  1.00  0.00    -0.240 A  
HETATM   27  C   UNL     1      -7.099  20.141  67.275  1.00  0.00    -0.260 A  
HETATM   28  C   UNL     1      -7.969  19.419  68.081  1.00  0.00    -0.352 A  
HETATM   29  O   UNL     1      -6.718  21.378  67.700  1.00  0.00    -0.503 OA 
HETATM   30  H   UNL     1      -7.038  21.742  68.517  1.00  0.00     0.000 HD 
HETATM   31  C   UNL     1      -8.360  18.134  67.700  1.00  0.00    -0.244 A  
ENDBRANCH  20  24
ENDBRANCH  18  20
ENDBRANCH   6  16
TORSDOF 4
ENDMDL
MODEL        7
REMARK 921   NORMALIZED FREE ENERGY PREDICTED BY IDOCK:   -6.99 KCAL/MOL
REMARK 922        TOTAL FREE ENERGY PREDICTED BY IDOCK:   -9.44 KCAL/MOL
REMARK 923 INTER-LIGAND FREE ENERGY PREDICTED BY IDOCK:   -8.77 KCAL/MOL
REMARK 924 INTRA-LIGAND FREE ENERGY PREDICTED BY IDOCK:   -0.66 KCAL/MOL
REMARK 927      BINDING AFFINITY PREDICTED BY RF-SCORE:    0.00 PKD
ROOT
HETATM    1  C   UNL     1     -11.435  12.069  68.110  1.00  0.00    -0.322 C  
HETATM    2  S   UNL     1      -9.808  11.285  68.216  1.00  0.00    -0.203 SA 
HETATM    3  C   UNL     1     -10.429   9.867  69.137  1.00  0.00    -0.217 C  
HETATM    4  C   UNL     1     -11.341  10.199  70.313  1.00  0.00    -0.387 C  
HETATM    5  CA  UNL     1     -12.030  11.375  70.435  1.00  0.00    -0.374 C  
HETATM    6  CA  UNL     1     -11.411  13.618  67.902  1.00  0.00    -0.314 C  
HETATM    7  C   UNL     1     -12.918  11.624  71.641  1.00  0.00    -0.378 C  
HETATM    8  O   UNL     1     -12.656  14.441  70.036  1.00  0.00    -0.330 OA 
HETATM    9  N   UNL     1     -11.926  12.321  69.450  1.00  0.00    -0.286 N  
HETATM   10  OXT UNL     1     -13.407  10.725  72.313  1.00  0.00    -0.385 OA 
HETATM   11  C   UNL     1     -12.172  13.637  69.274  1.00  0.00    -0.238 C  
HETATM   12  O   UNL     1     -13.181  12.903  71.963  1.00  0.00    -0.452 OA 
ENDROOT
BRANCH   4  13
HETATM   13  C   UNL     1     -11.301   9.155  71.351  1.00  0.00    -0.414 C  
HETATM   14  C   UNL     1     -10.198   8.728  71.989  1.00  0.00    -0.401 C  
HETATM   15  C   UNL     1     -10.208   7.705  73.079  1.00  0.00    -0.379 C  
ENDBRANCH   4  13
BRANCH   6  16
HETATM   16  N   UNL     1     -10.068  14.237  67.925  1.00  0.00    -0.230 N  
HETATM   17  H   UNL     1      -9.262  13.614  67.975  1.00  0.00     0.000 HD 
HETATM   18  C   UNL     1      -9.825  15.590  67.884  1.00  0.00    -0.216 C  
HETATM   19  O   UNL     1     -10.709  16.427  67.740  1.00  0.00    -0.322 OA 
BRANCH  18  20
HETATM   20  CA  UNL     1      -8.322  15.934  68.041  1.00  0.00    -0.160 C  
HETATM   21  H2  UNL     1      -8.058  14.578  69.623  1.00  0.00     0.000 HD 
HETATM   22  N   UNL     1      -7.863  15.556  69.408  1.00  0.00    -0.231 NA 
HETATM   23  H1  UNL     1      -6.874  15.782  69.511  1.00  0.00     0.000 HD 
BRANCH  20  24
HETATM   24  C   UNL     1      -8.049  17.396  67.739  1.00  0.00    -0.216 A  
HETATM   25  C   UNL     1      -7.825  17.794  66.411  1.00  0.00    -0.312 A  
HETATM   26  C   UNL     1      -7.536  19.125  66.099  1.00  0.00    -0.299 A  
HETATM   27  C   UNL     1      -7.481  20.071  67.118  1.00  0.00    -0.271 A  
HETATM   28  C   UNL     1      -7.737  19.711  68.434  1.00  0.00    -0.366 A  
HETATM   29  O   UNL     1      -7.169  21.372  66.864  1.00  0.00    -0.793 OA 
HETATM   30  H   UNL     1      -7.132  22.018  67.560  1.00  0.00     0.000 HD 
HETATM   31  C   UNL     1      -8.029  18.381  68.743  1.00  0.00    -0.278 A  
ENDBRANCH  20  24
ENDBRANCH  18  20
ENDBRANCH   6  16
TORSDOF 4
ENDMDL
MODEL        8
REMARK 921   NORMALIZED FREE ENERGY PREDICTED BY IDOCK:   -6.94 KCAL/MOL
REMARK 922        TOTAL FREE ENERGY PREDICTED BY IDOCK:   -9.37 KCAL/MOL
REMARK 923 INTER-LIGAND FREE ENERGY PREDICTED BY IDOCK:   -9.76 KCAL/MOL
REMARK 924 INTRA-LIGAND FREE ENERGY PREDICTED BY IDOCK:    0.39 KCAL/MOL
REMARK 927      BINDING AFFINITY PREDICTED BY RF-SCORE:    0.00 PKD
ROOT
HETATM    1  C   UNL     1     -10.164  14.471  66.634  1.00  0.00    -0.275 C  
HETATM    2  S   UNL     1      -9.574  13.472  68.022  1.00  0.00    -0.225 SA 
HETATM    3  C   UNL     1      -8.694  12.315  66.957  1.00  0.00    -0.199 C  
HETATM    4  C   UNL     1      -9.481  11.803  65.756  1.00  0.00    -0.232 C  
HETATM    5  CA  UNL     1     -10.560  12.450  65.219  1.00  0.00    -0.290 C  
HETATM    6  CA  UNL     1     -11.457  15.302  66.919  1.00  0.00    -0.143 C  
HETATM    7  C   UNL     1     -11.287  11.868  64.020  1.00  0.00    -0.397 C  
HETATM    8  O   UNL     1     -13.098  14.322  65.151  1.00  0.00    -0.704 OA 
HETATM    9  N   UNL     1     -10.969  13.639  65.761  1.00  0.00    -0.278 N  
HETATM   10  OXT UNL     1     -10.765  11.096  63.227  1.00  0.00    -0.319 OA 
HETATM   11  C   UNL     1     -12.058  14.439  65.755  1.00  0.00    -0.355 C  
HETATM   12  O   UNL     1     -12.565  12.245  63.829  1.00  0.00    -0.622 OA 
ENDROOT
BRANCH   4  13
HETATM   13  C   UNL     1      -9.013  10.477  65.318  1.00  0.00    -0.211 C  
HETATM   14  C   UNL     1      -9.165   9.329  66.000  1.00  0.00    -0.262 C  
HETATM   15  C   UNL     1      -8.726   7.993  65.494  1.00  0.00    -0.134 C  
ENDBRANCH   4  13
BRANCH   6  16
HETATM   16  N   UNL     1     -12.072  15.076  68.245  1.00  0.00    -0.567 N  
HETATM   17  H   UNL     1     -12.804  14.369  68.312  1.00  0.00     0.000 HD 
HETATM   18  C   UNL     1     -11.731  15.749  69.395  1.00  0.00    -0.370 C  
HETATM   19  O   UNL     1     -10.812  16.559  69.452  1.00  0.00    -0.302 OA 
BRANCH  18  20
HETATM   20  CA  UNL     1     -12.632  15.373  70.598  1.00  0.00    -0.439 C  
HETATM   21  H2  UNL     1     -12.133  17.114  71.663  1.00  0.00     0.000 HD 
HETATM   22  N   UNL     1     -12.174  16.105  71.814  1.00  0.00    -0.599 NA 
HETATM   23  H1  UNL     1     -12.767  15.859  72.606  1.00  0.00     0.000 HD 
BRANCH  20  24
HETATM   24  C   UNL     1     -12.667  13.873  70.824  1.00  0.00    -0.383 A  
HETATM   25  C   UNL     1     -13.463  13.350  71.856  1.00  0.00    -0.526 A  
HETATM   26  C   UNL     1     -13.493  11.977  72.115  1.00  0.00    -0.338 A  
HETATM   27  C   UNL     1     -12.731  11.116  71.333  1.00  0.00    -0.418 A  
HETATM   28  C   UNL     1     -11.966  11.603  70.281  1.00  0.00    -0.445 A  
HETATM   29  O   UNL     1     -12.703   9.775  71.572  1.00  0.00    -0.346 OA 
HETATM   30  H   UNL     1     -12.183   9.187  71.037  1.00  0.00     0.000 HD 
HETATM   31  C   UNL     1     -11.940  12.974  70.022  1.00  0.00    -0.383 A  
ENDBRANCH  20  24
ENDBRANCH  18  20
ENDBRANCH   6  16
TORSDOF 4
ENDMDL
MODEL        9
REMARK 921   NORMALIZED FREE ENERGY PREDICTED BY IDOCK:   -6.91 KCAL/MOL
REMARK 922        TOTAL FREE ENERGY PREDICTED BY IDOCK:   -9.34 KCAL/MOL
REMARK 923 INTER-LIGAND FREE ENERGY PREDICTED BY IDOCK:   -8.69 KCAL/MOL
REMARK 924 INTRA-LIGAND FREE ENERGY PREDICTED BY IDOCK:   -0.65 KCAL/MOL
REMARK 927      BINDING AFFINITY PREDICTED BY RF-SCORE:    0.00 PKD
ROOT
HETATM    1  C   UNL     1      -9.567  13.908  66.499  1.00  0.00    -0.287 C  
HETATM    2  S   UNL     1     -10.951  15.007  66.885  1.00  0.00    -0.324 SA 
HETATM    3  C   UNL     1     -10.175  16.436  66.110  1.00  0.00    -0.348 C  
HETATM    4  C   UNL     1      -8.716  16.671  66.483  1.00  0.00    -0.317 C  
HETATM    5  CA  UNL     1      -7.887  15.697  66.970  1.00  0.00    -0.231 C  
HETATM    6  CA  UNL     1      -9.433  12.660  67.431  1.00  0.00    -0.189 C  
HETATM    7  C   UNL     1      -6.444  16.018  67.317  1.00  0.00    -0.165 C  
HETATM    8  O   UNL     1      -7.076  13.042  68.469  1.00  0.00    -0.093 OA 
HETATM    9  N   UNL     1      -8.366  14.423  67.127  1.00  0.00    -0.206 N  
HETATM   10  OXT UNL     1      -5.825  16.951  66.823  1.00  0.00    -0.173 OA 
HETATM   11  C   UNL     1      -8.038  13.287  67.780  1.00  0.00    -0.166 C  
HETATM   12  O   UNL     1      -5.827  15.215  68.202  1.00  0.00    -0.113 OA 
ENDROOT
BRANCH   4  13
HETATM   13  C   UNL     1      -8.339  18.090  66.364  1.00  0.00    -0.275 C  
HETATM   14  C   UNL     1      -8.656  19.059  67.240  1.00  0.00    -0.298 C  
HETATM   15  C   UNL     1      -8.206  20.479  67.112  1.00  0.00    -0.353 C  
ENDBRANCH   4  13
BRANCH   6  16
HETATM   16  N   UNL     1     -10.392  12.607  68.556  1.00  0.00    -0.268 N  
HETATM   17  H   UNL     1     -10.211  13.209  69.360  1.00  0.00     0.000 HD 
HETATM   18  C   UNL     1     -11.510  11.807  68.600  1.00  0.00    -0.288 C  
HETATM   19  O   UNL     1     -11.872  11.106  67.661  1.00  0.00    -0.612 OA 
BRANCH  18  20
HETATM   20  CA  UNL     1     -12.252  11.888  69.958  1.00  0.00    -0.217 C  
HETATM   21  H2  UNL     1     -11.923  13.954  70.146  1.00  0.00     0.000 HD 
HETATM   22  N   UNL     1     -11.808  13.103  70.698  1.00  0.00    -0.522 NA 
HETATM   23  H1  UNL     1     -12.297  13.157  71.592  1.00  0.00     0.000 HD 
BRANCH  20  24
HETATM   24  C   UNL     1     -12.056  10.626  70.777  1.00  0.00    -0.474 A  
HETATM   25  C   UNL     1     -13.132  10.112  71.519  1.00  0.00    -0.529 A  
HETATM   26  C   UNL     1     -12.979   8.972  72.312  1.00  0.00    -0.490 A  
HETATM   27  C   UNL     1     -11.745   8.332  72.360  1.00  0.00    -0.397 A  
HETATM   28  C   UNL     1     -10.676   8.796  71.606  1.00  0.00    -0.397 A  
HETATM   29  O   UNL     1     -11.542   7.238  73.146  1.00  0.00    -0.576 OA 
HETATM   30  H   UNL     1     -10.700   6.801  73.178  1.00  0.00     0.000 HD 
HETATM   31  C   UNL     1     -10.832   9.933  70.811  1.00  0.00    -0.387 A  
ENDBRANCH  20  24
ENDBRANCH  18  20
ENDBRANCH   6  16
TORSDOF 4
ENDMDL
MODEL       10
REMARK 921   NORMALIZED FREE ENERGY PREDICTED BY IDOCK:   -6.85 KCAL/MOL
REMARK 922        TOTAL FREE ENERGY PREDICTED BY IDOCK:   -9.26 KCAL/MOL
REMARK 923 INTER-LIGAND FREE ENERGY PREDICTED BY IDOCK:   -8.36 KCAL/MOL
REMARK 924 INTRA-LIGAND FREE ENERGY PREDICTED BY IDOCK:   -0.91 KCAL/MOL
REMARK 927      BINDING AFFINITY PREDICTED BY RF-SCORE:    0.00 PKD
ROOT
HETATM    1  C   UNL     1      -7.835  16.373  68.888  1.00  0.00    -0.234 C  
HETATM    2  S   UNL     1      -6.828  15.622  67.586  1.00  0.00    -0.190 SA 
HETATM    3  C   UNL     1      -6.250  17.211  66.965  1.00  0.00    -0.177 C  
HETATM    4  C   UNL     1      -7.331  18.267  66.763  1.00  0.00    -0.237 C  
HETATM    5  CA  UNL     1      -8.544  18.247  67.395  1.00  0.00    -0.249 C  
HETATM    6  CA  UNL     1      -9.022  15.492  69.398  1.00  0.00    -0.275 C  
HETATM    7  C   UNL     1      -9.564  19.341  67.136  1.00  0.00    -0.325 C  
HETATM    8  O   UNL     1     -11.066  17.000  68.824  1.00  0.00    -0.245 OA 
HETATM    9  N   UNL     1      -8.826  17.239  68.279  1.00  0.00    -0.250 N  
HETATM   10  OXT UNL     1      -9.265  20.459  66.739  1.00  0.00    -0.330 OA 
HETATM   11  C   UNL     1      -9.900  16.685  68.881  1.00  0.00    -0.261 C  
HETATM   12  O   UNL     1     -10.856  19.052  67.375  1.00  0.00    -0.473 OA 
ENDROOT
BRANCH   4  13
HETATM   13  C   UNL     1      -6.958  19.243  65.726  1.00  0.00    -0.307 C  
HETATM   14  C   UNL     1      -6.018  19.062  64.783  1.00  0.00    -0.316 C  
HETATM   15  C   UNL     1      -5.708  20.056  63.710  1.00  0.00    -0.313 C  
ENDBRANCH   4  13
BRANCH   6  16
HETATM   16  N   UNL     1      -9.216  14.216  68.676  1.00  0.00    -0.304 N  
HETATM   17  H   UNL     1      -8.501  13.941  68.002  1.00  0.00     0.000 HD 
HETATM   18  C   UNL     1     -10.289  13.372  68.844  1.00  0.00    -0.072 C  
HETATM   19  O   UNL     1     -11.164  13.558  69.683  1.00  0.00    -0.180 OA 
BRANCH  18  20
HETATM   20  CA  UNL     1     -10.268  12.173  67.863  1.00  0.00    -0.198 C  
HETATM   21  H2  UNL     1      -8.501  11.385  68.681  1.00  0.00     0.000 HD 
HETATM   22  N   UNL     1      -8.883  11.629  67.767  1.00  0.00    -0.154 NA 
HETATM   23  H1  UNL     1      -8.869  10.840  67.121  1.00  0.00     0.000 HD 
BRANCH  20  24
HETATM   24  C   UNL     1     -10.819  12.555  66.502  1.00  0.00    -0.287 A  
HETATM   25  C   UNL     1     -12.100  13.124  66.413  1.00  0.00    -0.447 A  
HETATM   26  C   UNL     1     -12.654  13.457  65.174  1.00  0.00    -0.495 A  
HETATM   27  C   UNL     1     -11.921  13.231  64.013  1.00  0.00    -0.465 A  
HETATM   28  C   UNL     1     -10.638  12.706  64.076  1.00  0.00    -0.457 A  
HETATM   29  O   UNL     1     -12.436  13.508  62.783  1.00  0.00    -0.829 OA 
HETATM   30  H   UNL     1     -11.935  13.354  61.990  1.00  0.00     0.000 HD 
HETATM   31  C   UNL     1     -10.085  12.377  65.315  1.00  0.00    -0.285 A  
ENDBRANCH  20  24
ENDBRANCH  18  20
ENDBRANCH   6  16
TORSDOF 4
ENDMDL
MODEL       11
REMARK 921   NORMALIZED FREE ENERGY PREDICTED BY IDOCK:   -6.81 KCAL/MOL
REMARK 922        TOTAL FREE ENERGY PREDICTED BY IDOCK:   -9.21 KCAL/MOL
REMARK 923 INTER-LIGAND FREE ENERGY PREDICTED BY IDOCK:   -8.63 KCAL/MOL
REMARK 924 INTRA-LIGAND FREE ENERGY PREDICTED BY IDOCK:   -0.58 KCAL/MOL
REMARK 927      BINDING AFFINITY PREDICTED BY RF-SCORE:    0.00 PKD
ROOT
HETATM    1  C   UNL     1     -11.292  12.092  68.215  1.00  0.00    -0.286 C  
HETATM    2  S   UNL     1      -9.589  11.500  68.361  1.00  0.00    -0.188 SA 
HETATM    3  C   UNL     1     -10.079   9.936  69.109  1.00  0.00    -0.200 C  
HETATM    4  C   UNL     1     -11.090  10.044  70.246  1.00  0.00    -0.381 C  
HETATM    5  CA  UNL     1     -11.926  11.113  70.424  1.00  0.00    -0.378 C  
HETATM    6  CA  UNL     1     -11.449  13.645  68.147  1.00  0.00    -0.313 C  
HETATM    7  C   UNL     1     -12.904  11.138  71.585  1.00  0.00    -0.419 C  
HETATM    8  O   UNL     1     -12.905  14.107  70.256  1.00  0.00    -0.297 OA 
HETATM    9  N   UNL     1     -11.885  12.154  69.536  1.00  0.00    -0.322 N  
HETATM   10  OXT UNL     1     -13.315  10.127  72.140  1.00  0.00    -0.441 OA 
HETATM   11  C   UNL     1     -12.282  13.443  69.461  1.00  0.00    -0.205 C  
HETATM   12  O   UNL     1     -13.342  12.341  72.000  1.00  0.00    -0.506 OA 
ENDROOT
BRANCH   4  13
HETATM   13  C   UNL     1     -10.980   8.917  71.188  1.00  0.00    -0.356 C  
HETATM   14  C   UNL     1     -10.016   8.762  72.111  1.00  0.00    -0.359 C  
HETATM   15  C   UNL     1      -9.971   7.631  73.089  1.00  0.00    -0.363 C  
ENDBRANCH   4  13
BRANCH   6  16
HETATM   16  N   UNL     1     -10.197  14.414  68.315  1.00  0.00    -0.235 N  
HETATM   17  H   UNL     1      -9.898  14.628  69.267  1.00  0.00     0.000 HD 
HETATM   18  C   UNL     1      -9.405  14.863  67.284  1.00  0.00    -0.204 C  
HETATM   19  O   UNL     1      -9.620  14.595  66.107  1.00  0.00    -0.296 OA 
BRANCH  18  20
HETATM   20  CA  UNL     1      -8.223  15.738  67.773  1.00  0.00    -0.144 C  
HETATM   21  H2  UNL     1      -7.672  14.364  69.263  1.00  0.00     0.000 HD 
HETATM   22  N   UNL     1      -7.867  15.361  69.171  1.00  0.00    -0.194 NA 
HETATM   23  H1  UNL     1      -7.089  15.937  69.493  1.00  0.00     0.000 HD 
BRANCH  20  24
HETATM   24  C   UNL     1      -8.535  17.218  67.650  1.00  0.00    -0.212 A  
HETATM   25  C   UNL     1      -9.516  17.785  68.480  1.00  0.00    -0.304 A  
HETATM   26  C   UNL     1      -9.854  19.137  68.371  1.00  0.00    -0.473 A  
HETATM   27  C   UNL     1      -9.203  19.932  67.434  1.00  0.00    -0.351 A  
HETATM   28  C   UNL     1      -8.203  19.405  66.628  1.00  0.00    -0.322 A  
HETATM   29  O   UNL     1      -9.526  21.246  67.270  1.00  0.00    -0.625 OA 
HETATM   30  H   UNL     1      -9.081  21.789  66.630  1.00  0.00     0.000 HD 
HETATM   31  C   UNL     1      -7.864  18.055  66.741  1.00  0.00    -0.260 A  
ENDBRANCH  20  24
ENDBRANCH  18  20
ENDBRANCH   6  16
TORSDOF 4
ENDMDL
MODEL       12
REMARK 921   NORMALIZED FREE ENERGY PREDICTED BY IDOCK:   -6.75 KCAL/MOL
REMARK 922        TOTAL FREE ENERGY PREDICTED BY IDOCK:   -9.14 KCAL/MOL
REMARK 923 INTER-LIGAND FREE ENERGY PREDICTED BY IDOCK:   -9.71 KCAL/MOL
REMARK 924 INTRA-LIGAND FREE ENERGY PREDICTED BY IDOCK:    0.57 KCAL/MOL
REMARK 927      BINDING AFFINITY PREDICTED BY RF-SCORE:    0.00 PKD
ROOT
HETATM    1  C   UNL     1     -10.345  14.321  66.701  1.00  0.00    -0.279 C  
HETATM    2  S   UNL     1      -9.643  13.274  67.998  1.00  0.00    -0.223 SA 
HETATM    3  C   UNL     1      -8.788  12.206  66.825  1.00  0.00    -0.198 C  
HETATM    4  C   UNL     1      -9.626  11.728  65.645  1.00  0.00    -0.240 C  
HETATM    5  CA  UNL     1     -10.755  12.362  65.204  1.00  0.00    -0.292 C  
HETATM    6  CA  UNL     1     -11.646  15.089  67.102  1.00  0.00    -0.261 C  
HETATM    7  C   UNL     1     -11.530  11.817  64.018  1.00  0.00    -0.359 C  
HETATM    8  O   UNL     1     -13.354  14.142  65.378  1.00  0.00    -0.705 OA 
HETATM    9  N   UNL     1     -11.171  13.506  65.831  1.00  0.00    -0.299 N  
HETATM   10  OXT UNL     1     -11.029  11.106  63.157  1.00  0.00    -0.163 OA 
HETATM   11  C   UNL     1     -12.285  14.265  65.929  1.00  0.00    -0.407 C  
HETATM   12  O   UNL     1     -12.828  12.156  63.919  1.00  0.00    -0.687 OA 
ENDROOT
BRANCH   4  13
HETATM   13  C   UNL     1      -9.140  10.444  65.111  1.00  0.00    -0.232 C  
HETATM   14  C   UNL     1      -8.919   9.331  65.830  1.00  0.00    -0.225 C  
HETATM   15  C   UNL     1      -8.479   8.029  65.241  1.00  0.00    -0.133 C  
ENDBRANCH   4  13
BRANCH   6  16
HETATM   16  N   UNL     1     -12.176  14.772  68.446  1.00  0.00    -0.605 N  
HETATM   17  H   UNL     1     -12.916  14.072  68.510  1.00  0.00     0.000 HD 
HETATM   18  C   UNL     1     -11.747  15.351  69.617  1.00  0.00    -0.338 C  
HETATM   19  O   UNL     1     -10.810  16.141  69.672  1.00  0.00    -0.289 OA 
BRANCH  18  20
HETATM   20  CA  UNL     1     -12.573  14.899  70.848  1.00  0.00    -0.341 C  
HETATM   21  H2  UNL     1     -11.953  16.536  72.009  1.00  0.00     0.000 HD 
HETATM   22  N   UNL     1     -12.011  15.520  72.082  1.00  0.00    -0.399 NA 
HETATM   23  H1  UNL     1     -12.555  15.223  72.892  1.00  0.00     0.000 HD 
BRANCH  20  24
HETATM   24  C   UNL     1     -12.633  13.386  70.955  1.00  0.00    -0.425 A  
HETATM   25  C   UNL     1     -11.944  12.601  70.017  1.00  0.00    -0.377 A  
HETATM   26  C   UNL     1     -12.005  11.206  70.064  1.00  0.00    -0.447 A  
HETATM   27  C   UNL     1     -12.751  10.587  71.061  1.00  0.00    -0.408 A  
HETATM   28  C   UNL     1     -13.410  11.338  72.024  1.00  0.00    -0.386 A  
HETATM   29  O   UNL     1     -12.866   9.231  71.124  1.00  0.00    -0.428 OA 
HETATM   30  H   UNL     1     -13.376   8.808  71.805  1.00  0.00     0.000 HD 
HETATM   31  C   UNL     1     -13.345  12.732  71.978  1.00  0.00    -0.565 A  
ENDBRANCH  20  24
ENDBRANCH  18  20
ENDBRANCH   6  16
TORSDOF 4
ENDMDL
MODEL       13
REMARK 921   NORMALIZED FREE ENERGY PREDICTED BY IDOCK:   -6.73 KCAL/MOL
REMARK 922        TOTAL FREE ENERGY PREDICTED BY IDOCK:   -9.12 KCAL/MOL
REMARK 923 INTER-LIGAND FREE ENERGY PREDICTED BY IDOCK:   -8.59 KCAL/MOL
REMARK 924 INTRA-LIGAND FREE ENERGY PREDICTED BY IDOCK:   -0.53 KCAL/MOL
REMARK 927      BINDING AFFINITY PREDICTED BY RF-SCORE:    0.00 PKD
ROOT
HETATM    1  C   UNL     1     -11.555  14.143  67.428  1.00  0.00    -0.372 C  
HETATM    2  S   UNL     1      -9.923  13.956  68.186  1.00  0.00    -0.245 SA 
HETATM    3  C   UNL     1      -9.658  15.733  68.316  1.00  0.00    -0.201 C  
HETATM    4  C   UNL     1      -9.975  16.535  67.059  1.00  0.00    -0.268 C  
HETATM    5  CA  UNL     1     -10.807  16.098  66.064  1.00  0.00    -0.154 C  
HETATM    6  CA  UNL     1     -12.031  12.924  66.573  1.00  0.00    -0.377 C  
HETATM    7  C   UNL     1     -11.068  16.963  64.844  1.00  0.00     0.036 C  
HETATM    8  O   UNL     1     -12.315  14.022  64.228  1.00  0.00    -0.593 OA 
HETATM    9  N   UNL     1     -11.418  14.878  66.187  1.00  0.00    -0.316 N  
HETATM   10  OXT UNL     1     -10.941  18.181  64.843  1.00  0.00    -0.718 OA 
HETATM   11  C   UNL     1     -12.048  13.974  65.406  1.00  0.00    -0.401 C  
HETATM   12  O   UNL     1     -11.473  16.343  63.721  1.00  0.00    -1.002 OA 
ENDROOT
BRANCH   4  13
HETATM   13  C   UNL     1      -9.193  17.781  66.990  1.00  0.00    -0.257 C  
HETATM   14  C   UNL     1      -8.385  18.251  67.956  1.00  0.00    -0.272 C  
HETATM   15  C   UNL     1      -7.562  19.492  67.825  1.00  0.00    -0.307 C  
ENDBRANCH   4  13
BRANCH   6  16
HETATM   16  N   UNL     1     -11.040  11.836  66.418  1.00  0.00    -0.299 N  
HETATM   17  H   UNL     1     -10.307  11.961  65.720  1.00  0.00     0.000 HD 
HETATM   18  C   UNL     1     -11.034  10.670  67.145  1.00  0.00    -0.247 C  
HETATM   19  O   UNL     1     -11.815  10.447  68.065  1.00  0.00    -0.328 OA 
BRANCH  18  20
HETATM   20  CA  UNL     1      -9.942   9.676  66.675  1.00  0.00    -0.236 C  
HETATM   21  H2  UNL     1     -10.098  10.276  64.668  1.00  0.00     0.000 HD 
HETATM   22  N   UNL     1     -10.100   9.415  65.215  1.00  0.00    -0.276 NA 
HETATM   23  H1  UNL     1      -9.381   8.761  64.905  1.00  0.00     0.000 HD 
BRANCH  20  24
HETATM   24  C   UNL     1      -9.969   8.392  67.483  1.00  0.00    -0.259 A  
HETATM   25  C   UNL     1     -10.665   7.279  66.984  1.00  0.00    -0.406 A  
HETATM   26  C   UNL     1     -10.740   6.091  67.717  1.00  0.00    -0.369 A  
HETATM   27  C   UNL     1     -10.110   6.008  68.953  1.00  0.00    -0.176 A  
HETATM   28  C   UNL     1      -9.383   7.081  69.452  1.00  0.00    -0.146 A  
HETATM   29  O   UNL     1     -10.187   4.882  69.716  1.00  0.00    -0.252 OA 
HETATM   30  H   UNL     1      -9.756   4.826  70.561  1.00  0.00     0.000 HD 
HETATM   31  C   UNL     1      -9.306   8.266  68.718  1.00  0.00    -0.143 A  
ENDBRANCH  20  24
ENDBRANCH  18  20
ENDBRANCH   6  16
TORSDOF 4
ENDMDL
MODEL       14
REMARK 921   NORMALIZED FREE ENERGY PREDICTED BY IDOCK:   -6.50 KCAL/MOL
REMARK 922        TOTAL FREE ENERGY PREDICTED BY IDOCK:   -8.83 KCAL/MOL
REMARK 923 INTER-LIGAND FREE ENERGY PREDICTED BY IDOCK:   -8.09 KCAL/MOL
REMARK 924 INTRA-LIGAND FREE ENERGY PREDICTED BY IDOCK:   -0.74 KCAL/MOL
REMARK 927      BINDING AFFINITY PREDICTED BY RF-SCORE:    0.00 PKD
ROOT
HETATM    1  C   UNL     1      -9.709  10.878  68.603  1.00  0.00    -0.185 C  
HETATM    2  S   UNL     1      -9.446   9.096  68.432  1.00  0.00    -0.143 SA 
HETATM    3  C   UNL     1      -8.784   9.242  66.763  1.00  0.00    -0.127 C  
HETATM    4  C   UNL     1      -9.590  10.123  65.815  1.00  0.00    -0.288 C  
HETATM    5  CA  UNL     1     -10.460  11.094  66.230  1.00  0.00    -0.259 C  
HETATM    6  CA  UNL     1     -10.797  11.290  69.647  1.00  0.00    -0.095 C  
HETATM    7  C   UNL     1     -11.223  11.927  65.215  1.00  0.00    -0.295 C  
HETATM    8  O   UNL     1     -12.503  12.554  68.139  1.00  0.00    -0.011 OA 
HETATM    9  N   UNL     1     -10.625  11.322  67.570  1.00  0.00    -0.207 N  
HETATM   10  OXT UNL     1     -10.840  12.105  64.066  1.00  0.00    -0.316 OA 
HETATM   11  C   UNL     1     -11.503  11.927  68.399  1.00  0.00    -0.299 C  
HETATM   12  O   UNL     1     -12.369  12.503  65.623  1.00  0.00    -0.615 OA 
ENDROOT
BRANCH   4  13
HETATM   13  C   UNL     1      -9.406   9.728  64.408  1.00  0.00    -0.278 C  
HETATM   14  C   UNL     1      -8.403   8.970  63.934  1.00  0.00    -0.178 C  
HETATM   15  C   UNL     1      -8.283   8.542  62.506  1.00  0.00    -0.189 C  
ENDBRANCH   4  13
BRANCH   6  16
HETATM   16  N   UNL     1     -11.529  10.166  70.272  1.00  0.00    -0.285 N  
HETATM   17  H   UNL     1     -11.249   9.219  70.014  1.00  0.00     0.000 HD 
HETATM   18  C   UNL     1     -12.558  10.303  71.173  1.00  0.00    -0.400 C  
HETATM   19  O   UNL     1     -12.923  11.386  71.617  1.00  0.00    -0.448 OA 
BRANCH  18  20
HETATM   20  CA  UNL     1     -13.200   8.946  71.559  1.00  0.00    -0.327 C  
HETATM   21  H2  UNL     1     -14.773   9.860  72.610  1.00  0.00     0.000 HD 
HETATM   22  N   UNL     1     -14.074   9.130  72.753  1.00  0.00    -1.013 NA 
HETATM   23  H1  UNL     1     -14.498   8.237  73.008  1.00  0.00     0.000 HD 
BRANCH  20  24
HETATM   24  C   UNL     1     -12.149   7.876  71.790  1.00  0.00    -0.340 A  
HETATM   25  C   UNL     1     -11.359   7.925  72.949  1.00  0.00    -0.399 A  
HETATM   26  C   UNL     1     -10.358   6.977  73.178  1.00  0.00    -0.314 A  
HETATM   27  C   UNL     1     -10.150   5.964  72.248  1.00  0.00    -0.182 A  
HETATM   28  C   UNL     1     -10.943   5.870  71.113  1.00  0.00    -0.327 A  
HETATM   29  O   UNL     1      -9.163   5.040  72.413  1.00  0.00    -0.132 OA 
HETATM   30  H   UNL     1      -9.021   4.348  71.778  1.00  0.00     0.000 HD 
HETATM   31  C   UNL     1     -11.944   6.816  70.887  1.00  0.00    -0.437 A  
ENDBRANCH  20  24
ENDBRANCH  18  20
ENDBRANCH   6  16
TORSDOF 4
ENDMDL
MODEL       15
REMARK 921   NORMALIZED FREE ENERGY PREDICTED BY IDOCK:   -6.47 KCAL/MOL
REMARK 922        TOTAL FREE ENERGY PREDICTED BY IDOCK:   -8.80 KCAL/MOL
REMARK 923 INTER-LIGAND FREE ENERGY PREDICTED BY IDOCK:   -8.09 KCAL/MOL
REMARK 924 INTRA-LIGAND FREE ENERGY PREDICTED BY IDOCK:   -0.71 KCAL/MOL
REMARK 927      BINDING AFFINITY PREDICTED BY RF-SCORE:    0.00 PKD
ROOT
HETATM    1  C   UNL     1     -10.488  17.663  67.366  1.00  0.00    -0.356 C  
HETATM    2  S   UNL     1     -10.511  18.086  69.125  1.00  0.00     0.296 SA 
HETATM    3  C   UNL     1      -9.432  19.513  68.908  1.00  0.00    -0.364 C  
HETATM    4  C   UNL     1      -8.188  19.269  68.062  1.00  0.00    -0.346 C  
HETATM    5  CA  UNL     1      -8.070  18.253  67.154  1.00  0.00    -0.225 C  
HETATM    6  CA  UNL     1     -10.801  16.167  67.041  1.00  0.00    -0.194 C  
HETATM    7  C   UNL     1      -6.792  18.084  66.351  1.00  0.00    -0.235 C  
HETATM    8  O   UNL     1      -8.603  15.427  65.857  1.00  0.00     0.004 OA 
HETATM    9  N   UNL     1      -9.122  17.398  66.961  1.00  0.00    -0.236 N  
HETATM   10  OXT UNL     1      -6.011  19.000  66.129  1.00  0.00    -0.156 OA 
HETATM   11  C   UNL     1      -9.358  16.180  66.426  1.00  0.00    -0.298 C  
HETATM   12  O   UNL     1      -6.531  16.861  65.855  1.00  0.00     0.014 OA 
ENDROOT
BRANCH   4  13
HETATM   13  C   UNL     1      -7.092  20.187  68.420  1.00  0.00    -0.278 C  
HETATM   14  C   UNL     1      -6.275  20.053  69.477  1.00  0.00    -0.376 C  
HETATM   15  C   UNL     1      -5.136  20.976  69.775  1.00  0.00    -0.403 C  
ENDBRANCH   4  13
BRANCH   6  16
HETATM   16  N   UNL     1     -10.970  15.287  68.218  1.00  0.00    -0.265 N  
HETATM   17  H   UNL     1     -10.614  15.624  69.114  1.00  0.00     0.000 HD 
HETATM   18  C   UNL     1     -11.570  14.050  68.196  1.00  0.00    -0.334 C  
HETATM   19  O   UNL     1     -12.105  13.580  67.198  1.00  0.00    -0.378 OA 
BRANCH  18  20
HETATM   20  CA  UNL     1     -11.491  13.322  69.562  1.00  0.00    -0.234 C  
HETATM   21  H2  UNL     1     -11.668  11.420  68.687  1.00  0.00     0.000 HD 
HETATM   22  N   UNL     1     -12.094  11.964  69.439  1.00  0.00    -0.256 NA 
HETATM   23  H1  UNL     1     -12.042  11.484  70.337  1.00  0.00     0.000 HD 
BRANCH  20  24
HETATM   24  C   UNL     1     -12.146  14.131  70.666  1.00  0.00    -0.421 A  
HETATM   25  C   UNL     1     -13.530  14.021  70.872  1.00  0.00    -0.096 A  
HETATM   26  C   UNL     1     -14.173  14.777  71.855  1.00  0.00    -0.632 A  
HETATM   27  C   UNL     1     -13.428  15.644  72.648  1.00  0.00    -0.566 A  
HETATM   28  C   UNL     1     -12.053  15.743  72.491  1.00  0.00    -0.591 A  
HETATM   29  O   UNL     1     -14.019  16.425  73.595  1.00  0.00    -0.791 OA 
HETATM   30  H   UNL     1     -13.510  17.017  74.137  1.00  0.00     0.000 HD 
HETATM   31  C   UNL     1     -11.412  14.985  71.510  1.00  0.00    -0.377 A  
ENDBRANCH  20  24
ENDBRANCH  18  20
ENDBRANCH   6  16
TORSDOF 4
ENDMDL
MODEL       16
REMARK 921   NORMALIZED FREE ENERGY PREDICTED BY IDOCK:   -6.44 KCAL/MOL
REMARK 922        TOTAL FREE ENERGY PREDICTED BY IDOCK:   -8.76 KCAL/MOL
REMARK 923 INTER-LIGAND FREE ENERGY PREDICTED BY IDOCK:   -7.99 KCAL/MOL
REMARK 924 INTRA-LIGAND FREE ENERGY PREDICTED BY IDOCK:   -0.77 KCAL/MOL
REMARK 927      BINDING AFFINITY PREDICTED BY RF-SCORE:    0.00 PKD
ROOT
HETATM    1  C   UNL     1     -11.003   9.974  69.154  1.00  0.00    -0.220 C  
HETATM    2  S   UNL     1      -9.310  10.604  69.230  1.00  0.00    -0.054 SA 
HETATM    3  C   UNL     1      -8.656   9.079  69.933  1.00  0.00    -0.140 C  
HETATM    4  C   UNL     1      -9.451   8.504  71.100  1.00  0.00    -0.249 C  
HETATM    5  CA  UNL     1     -10.767   8.791  71.342  1.00  0.00    -0.286 C  
HETATM    6  CA  UNL     1     -12.118  11.070  69.149  1.00  0.00    -0.263 C  
HETATM    7  C   UNL     1     -11.482   8.173  72.530  1.00  0.00    -0.404 C  
HETATM    8  O   UNL     1     -13.436  10.472  71.314  1.00  0.00    -0.263 OA 
HETATM    9  N   UNL     1     -11.440   9.628  70.493  1.00  0.00    -0.272 N  
HETATM   10  OXT UNL     1     -11.129   7.126  73.058  1.00  0.00    -0.302 OA 
HETATM   11  C   UNL     1     -12.570  10.367  70.478  1.00  0.00    -0.302 C  
HETATM   12  O   UNL     1     -12.566   8.815  73.002  1.00  0.00    -0.225 OA 
ENDROOT
BRANCH   4  13
HETATM   13  C   UNL     1      -8.605   7.697  71.996  1.00  0.00    -0.136 C  
HETATM   14  C   UNL     1      -7.293   7.890  72.216  1.00  0.00    -0.100 C  
HETATM   15  C   UNL     1      -6.481   7.083  73.178  1.00  0.00    -0.065 C  
ENDBRANCH   4  13
BRANCH   6  16
HETATM   16  N   UNL     1     -11.637  12.459  69.311  1.00  0.00    -0.302 N  
HETATM   17  H   UNL     1     -11.143  12.690  70.173  1.00  0.00     0.000 HD 
HETATM   18  C   UNL     1     -11.806  13.463  68.386  1.00  0.00    -0.366 C  
HETATM   19  O   UNL     1     -12.310  13.281  67.283  1.00  0.00    -0.262 OA 
BRANCH  18  20
HETATM   20  CA  UNL     1     -11.296  14.836  68.892  1.00  0.00    -0.282 C  
HETATM   21  H2  UNL     1      -9.371  14.539  68.105  1.00  0.00     0.000 HD 
HETATM   22  N   UNL     1      -9.808  14.812  68.986  1.00  0.00    -0.275 NA 
HETATM   23  H1  UNL     1      -9.472  15.716  69.318  1.00  0.00     0.000 HD 
BRANCH  20  24
HETATM   24  C   UNL     1     -11.938  15.219  70.212  1.00  0.00    -0.367 A  
HETATM   25  C   UNL     1     -11.124  15.619  71.284  1.00  0.00    -0.315 A  
HETATM   26  C   UNL     1     -11.678  15.945  72.524  1.00  0.00    -0.564 A  
HETATM   27  C   UNL     1     -13.057  15.884  72.696  1.00  0.00    -0.472 A  
HETATM   28  C   UNL     1     -13.887  15.530  71.642  1.00  0.00    -0.554 A  
HETATM   29  O   UNL     1     -13.636  16.160  73.897  1.00  0.00    -0.879 OA 
HETATM   30  H   UNL     1     -14.578  16.118  74.014  1.00  0.00     0.000 HD 
HETATM   31  C   UNL     1     -13.333  15.207  70.402  1.00  0.00    -0.080 A  
ENDBRANCH  20  24
ENDBRANCH  18  20
ENDBRANCH   6  16
TORSDOF 4
ENDMDL
MODEL       17
REMARK 921   NORMALIZED FREE ENERGY PREDICTED BY IDOCK:   -6.42 KCAL/MOL
REMARK 922        TOTAL FREE ENERGY PREDICTED BY IDOCK:   -8.74 KCAL/MOL
REMARK 923 INTER-LIGAND FREE ENERGY PREDICTED BY IDOCK:   -8.05 KCAL/MOL
REMARK 924 INTRA-LIGAND FREE ENERGY PREDICTED BY IDOCK:   -0.68 KCAL/MOL
REMARK 927      BINDING AFFINITY PREDICTED BY RF-SCORE:    0.00 PKD
ROOT
HETATM    1  C   UNL     1     -11.526  11.610  66.149  1.00  0.00    -0.127 C  
HETATM    2  S   UNL     1      -9.984  11.502  65.209  1.00  0.00    -0.269 SA 
HETATM    3  C   UNL     1      -9.841   9.720  65.436  1.00  0.00    -0.295 C  
HETATM    4  C   UNL     1     -10.058   9.223  66.861  1.00  0.00    -0.324 C  
HETATM    5  CA  UNL     1     -10.742   9.923  67.817  1.00  0.00    -0.277 C  
HETATM    6  CA  UNL     1     -11.827  13.013  66.769  1.00  0.00    -0.388 C  
HETATM    7  C   UNL     1     -10.911   9.351  69.214  1.00  0.00    -0.172 C  
HETATM    8  O   UNL     1     -11.902  12.448  69.310  1.00  0.00    -0.303 OA 
HETATM    9  N   UNL     1     -11.290  11.137  67.499  1.00  0.00    -0.300 N  
HETATM   10  OXT UNL     1     -10.857   8.154  69.462  1.00  0.00    -0.213 OA 
HETATM   11  C   UNL     1     -11.771  12.231  68.128  1.00  0.00    -0.349 C  
HETATM   12  O   UNL     1     -11.146  10.220  70.213  1.00  0.00    -0.282 OA 
ENDROOT
BRANCH   4  13
HETATM   13  C   UNL     1      -9.347   7.958  67.115  1.00  0.00    -0.190 C  
HETATM   14  C   UNL     1      -8.485   7.363  66.273  1.00  0.00    -0.138 C  
HETATM   15  C   UNL     1      -7.739   6.107  66.592  1.00  0.00    -0.103 C  
ENDBRANCH   4  13
BRANCH   6  16
HETATM   16  N   UNL     1     -10.763  14.025  66.587  1.00  0.00    -0.280 N  
HETATM   17  H   UNL     1      -9.915  13.924  67.147  1.00  0.00     0.000 HD 
HETATM   18  C   UNL     1     -10.830  15.090  65.720  1.00  0.00    -0.350 C  
HETATM   19  O   UNL     1     -11.761  15.264  64.941  1.00  0.00    -0.319 OA 
BRANCH  18  20
HETATM   20  CA  UNL     1      -9.610  16.038  65.840  1.00  0.00    -0.335 C  
HETATM   21  H2  UNL     1      -8.226  14.470  65.647  1.00  0.00     0.000 HD 
HETATM   22  N   UNL     1      -8.412  15.260  66.266  1.00  0.00    -0.394 NA 
HETATM   23  H1  UNL     1      -7.609  15.883  66.345  1.00  0.00     0.000 HD 
BRANCH  20  24
HETATM   24  C   UNL     1      -9.893  17.196  66.779  1.00  0.00    -0.288 A  
HETATM   25  C   UNL     1     -10.409  18.394  66.259  1.00  0.00    -0.440 A  
HETATM   26  C   UNL     1     -10.649  19.492  67.088  1.00  0.00    -0.605 A  
HETATM   27  C   UNL     1     -10.382  19.395  68.450  1.00  0.00    -0.359 A  
HETATM   28  C   UNL     1      -9.908  18.210  68.996  1.00  0.00    -0.259 A  
HETATM   29  O   UNL     1     -10.568  20.452  69.289  1.00  0.00    -0.418 OA 
HETATM   30  H   UNL     1     -10.386  20.384  70.218  1.00  0.00     0.000 HD 
HETATM   31  C   UNL     1      -9.671  17.111  68.166  1.00  0.00    -0.276 A  
ENDBRANCH  20  24
ENDBRANCH  18  20
ENDBRANCH   6  16
TORSDOF 4
ENDMDL
MODEL       18
REMARK 921   NORMALIZED FREE ENERGY PREDICTED BY IDOCK:   -6.40 KCAL/MOL
REMARK 922        TOTAL FREE ENERGY PREDICTED BY IDOCK:   -8.71 KCAL/MOL
REMARK 923 INTER-LIGAND FREE ENERGY PREDICTED BY IDOCK:   -8.12 KCAL/MOL
REMARK 924 INTRA-LIGAND FREE ENERGY PREDICTED BY IDOCK:   -0.59 KCAL/MOL
REMARK 927      BINDING AFFINITY PREDICTED BY RF-SCORE:    0.00 PKD
ROOT
HETATM    1  C   UNL     1      -8.957   8.719  71.223  1.00  0.00    -0.231 C  
HETATM    2  S   UNL     1     -10.577   8.731  72.025  1.00  0.00    -0.312 SA 
HETATM    3  C   UNL     1     -10.395   7.057  72.666  1.00  0.00    -0.209 C  
HETATM    4  C   UNL     1      -9.902   6.023  71.660  1.00  0.00    -0.196 C  
HETATM    5  CA  UNL     1      -9.213   6.335  70.520  1.00  0.00    -0.158 C  
HETATM    6  CA  UNL     1      -8.803   9.714  70.027  1.00  0.00    -0.232 C  
HETATM    7  C   UNL     1      -8.757   5.239  69.573  1.00  0.00    -0.104 C  
HETATM    8  O   UNL     1      -8.279   8.082  68.066  1.00  0.00    -0.126 OA 
HETATM    9  N   UNL     1      -8.919   7.645  70.250  1.00  0.00    -0.145 N  
HETATM   10  OXT UNL     1      -8.581   4.079  69.920  1.00  0.00    -0.063 OA 
HETATM   11  C   UNL     1      -8.538   8.406  69.201  1.00  0.00    -0.134 C  
HETATM   12  O   UNL     1      -8.528   5.585  68.293  1.00  0.00    -0.099 OA 
ENDROOT
BRANCH   4  13
HETATM   13  C   UNL     1     -10.355   4.664  72.004  1.00  0.00    -0.234 C  
HETATM   14  C   UNL     1     -10.468   4.168  73.247  1.00  0.00    -0.249 C  
HETATM   15  C   UNL     1     -10.987   2.801  73.558  1.00  0.00    -0.316 C  
ENDBRANCH   4  13
BRANCH   6  16
HETATM   16  N   UNL     1     -10.032  10.448  69.655  1.00  0.00    -0.372 N  
HETATM   17  H   UNL     1     -10.892  10.209  70.149  1.00  0.00     0.000 HD 
HETATM   18  C   UNL     1     -10.102  11.429  68.694  1.00  0.00    -0.210 C  
HETATM   19  O   UNL     1      -9.119  11.855  68.096  1.00  0.00    -0.178 OA 
BRANCH  18  20
HETATM   20  CA  UNL     1     -11.548  11.928  68.451  1.00  0.00    -0.317 C  
HETATM   21  H2  UNL     1     -12.392  10.420  69.644  1.00  0.00     0.000 HD 
HETATM   22  N   UNL     1     -12.510  10.820  68.712  1.00  0.00    -0.721 NA 
HETATM   23  H1  UNL     1     -13.463  11.148  68.553  1.00  0.00     0.000 HD 
BRANCH  20  24
HETATM   24  C   UNL     1     -11.715  12.501  67.055  1.00  0.00    -0.437 A  
HETATM   25  C   UNL     1     -12.081  13.848  66.903  1.00  0.00    -0.467 A  
HETATM   26  C   UNL     1     -12.277  14.400  65.635  1.00  0.00    -0.352 A  
HETATM   27  C   UNL     1     -12.097  13.607  64.507  1.00  0.00    -0.419 A  
HETATM   28  C   UNL     1     -11.697  12.283  64.628  1.00  0.00    -0.420 A  
HETATM   29  O   UNL     1     -12.311  14.094  63.253  1.00  0.00    -1.140 OA 
HETATM   30  H   UNL     1     -12.187  13.552  62.483  1.00  0.00     0.000 HD 
HETATM   31  C   UNL     1     -11.498  11.733  65.896  1.00  0.00    -0.273 A  
ENDBRANCH  20  24
ENDBRANCH  18  20
ENDBRANCH   6  16
TORSDOF 4
ENDMDL
MODEL       19
REMARK 921   NORMALIZED FREE ENERGY PREDICTED BY IDOCK:   -6.35 KCAL/MOL
REMARK 922        TOTAL FREE ENERGY PREDICTED BY IDOCK:   -8.64 KCAL/MOL
REMARK 923 INTER-LIGAND FREE ENERGY PREDICTED BY IDOCK:   -7.85 KCAL/MOL
REMARK 924 INTRA-LIGAND FREE ENERGY PREDICTED BY IDOCK:   -0.80 KCAL/MOL
REMARK 927      BINDING AFFINITY PREDICTED BY RF-SCORE:    0.00 PKD
ROOT
HETATM    1  C   UNL     1     -11.103  14.744  68.651  1.00  0.00    -0.262 C  
HETATM    2  S   UNL     1      -9.377  14.976  69.137  1.00  0.00    -0.156 SA 
HETATM    3  C   UNL     1      -9.261  16.598  68.359  1.00  0.00    -0.225 C  
HETATM    4  C   UNL     1      -9.811  16.683  66.940  1.00  0.00    -0.267 C  
HETATM    5  CA  UNL     1     -10.722  15.803  66.420  1.00  0.00    -0.277 C  
HETATM    6  CA  UNL     1     -11.573  13.255  68.568  1.00  0.00    -0.333 C  
HETATM    7  C   UNL     1     -11.217  15.963  64.994  1.00  0.00    -0.290 C  
HETATM    8  O   UNL     1     -12.259  13.072  66.062  1.00  0.00    -0.434 OA 
HETATM    9  N   UNL     1     -11.198  14.787  67.205  1.00  0.00    -0.334 N  
HETATM   10  OXT UNL     1     -11.204  17.029  64.392  1.00  0.00    -1.167 OA 
HETATM   11  C   UNL     1     -11.838  13.606  67.061  1.00  0.00    -0.408 C  
HETATM   12  O   UNL     1     -11.706  14.868  64.383  1.00  0.00    -0.390 OA 
ENDROOT
BRANCH   4  13
HETATM   13  C   UNL     1      -9.161  17.752  66.162  1.00  0.00    -0.139 C  
HETATM   14  C   UNL     1      -8.168  18.544  66.600  1.00  0.00    -0.288 C  
HETATM   15  C   UNL     1      -7.495  19.581  65.759  1.00  0.00    -0.276 C  
ENDBRANCH   4  13
BRANCH   6  16
HETATM   16  N   UNL     1     -10.516  12.247  68.796  1.00  0.00    -0.347 N  
HETATM   17  H   UNL     1      -9.546  12.549  68.700  1.00  0.00     0.000 HD 
HETATM   18  C   UNL     1     -10.742  10.932  69.129  1.00  0.00    -0.226 C  
HETATM   19  O   UNL     1     -11.859  10.478  69.352  1.00  0.00    -0.261 OA 
BRANCH  18  20
HETATM   20  CA  UNL     1      -9.439  10.096  69.188  1.00  0.00    -0.206 C  
HETATM   21  H2  UNL     1      -8.511  11.423  70.525  1.00  0.00     0.000 HD 
HETATM   22  N   UNL     1      -8.310  10.960  69.638  1.00  0.00    -0.347 NA 
HETATM   23  H1  UNL     1      -7.452  10.410  69.678  1.00  0.00     0.000 HD 
BRANCH  20  24
HETATM   24  C   UNL     1      -9.142   9.429  67.857  1.00  0.00    -0.136 A  
HETATM   25  C   UNL     1      -8.175   9.990  67.007  1.00  0.00    -0.117 A  
HETATM   26  C   UNL     1      -7.900   9.424  65.760  1.00  0.00    -0.099 A  
HETATM   27  C   UNL     1      -8.587   8.283  65.359  1.00  0.00    -0.151 A  
HETATM   28  C   UNL     1      -9.520   7.687  66.196  1.00  0.00    -0.117 A  
HETATM   29  O   UNL     1      -8.376   7.719  64.137  1.00  0.00    -0.348 OA 
HETATM   30  H   UNL     1      -8.845   6.939  63.864  1.00  0.00     0.000 HD 
HETATM   31  C   UNL     1      -9.791   8.252  67.444  1.00  0.00    -0.246 A  
ENDBRANCH  20  24
ENDBRANCH  18  20
ENDBRANCH   6  16
TORSDOF 4
ENDMDL
MODEL       20
REMARK 921   NORMALIZED FREE ENERGY PREDICTED BY IDOCK:   -6.33 KCAL/MOL
REMARK 922        TOTAL FREE ENERGY PREDICTED BY IDOCK:   -8.62 KCAL/MOL
REMARK 923 INTER-LIGAND FREE ENERGY PREDICTED BY IDOCK:   -8.20 KCAL/MOL
REMARK 924 INTRA-LIGAND FREE ENERGY PREDICTED BY IDOCK:   -0.42 KCAL/MOL
REMARK 927      BINDING AFFINITY PREDICTED BY RF-SCORE:    0.00 PKD
ROOT
HETATM    1  C   UNL     1     -10.419  12.847  65.990  1.00  0.00    -0.276 C  
HETATM    2  S   UNL     1     -12.050  13.604  66.184  1.00  0.00    -0.443 SA 
HETATM    3  C   UNL     1     -11.579  15.106  65.308  1.00  0.00    -0.206 C  
HETATM    4  C   UNL     1     -10.250  15.721  65.733  1.00  0.00    -0.394 C  
HETATM    5  CA  UNL     1      -9.254  15.025  66.363  1.00  0.00    -0.295 C  
HETATM    6  CA  UNL     1     -10.066  11.755  67.052  1.00  0.00    -0.209 C  
HETATM    7  C   UNL     1      -7.960  15.718  66.751  1.00  0.00    -0.238 C  
HETATM    8  O   UNL     1      -7.954  12.790  68.170  1.00  0.00    -0.137 OA 
HETATM    9  N   UNL     1      -9.427  13.692  66.624  1.00  0.00    -0.275 N  
HETATM   10  OXT UNL     1      -7.544  16.727  66.197  1.00  0.00    -0.286 OA 
HETATM   11  C   UNL     1      -8.891  12.732  67.409  1.00  0.00    -0.190 C  
HETATM   12  O   UNL     1      -7.240  15.170  67.747  1.00  0.00    -0.133 OA 
ENDROOT
BRANCH   4  13
HETATM   13  C   UNL     1     -10.213  17.173  65.488  1.00  0.00    -0.072 C  
HETATM   14  C   UNL     1     -10.654  18.120  66.334  1.00  0.00    -0.288 C  
HETATM   15  C   UNL     1     -10.547  19.588  66.072  1.00  0.00    -0.589 C  
ENDBRANCH   4  13
BRANCH   6  16
HETATM   16  N   UNL     1     -11.069  11.569  68.123  1.00  0.00    -0.226 N  
HETATM   17  H   UNL     1     -12.027  11.862  67.929  1.00  0.00     0.000 HD 
HETATM   18  C   UNL     1     -10.807  11.030  69.360  1.00  0.00    -0.231 C  
HETATM   19  O   UNL     1      -9.715  10.569  69.675  1.00  0.00    -0.176 OA 
BRANCH  18  20
HETATM   20  CA  UNL     1     -12.035  11.073  70.305  1.00  0.00    -0.365 C  
HETATM   21  H2  UNL     1     -13.043   9.560  69.252  1.00  0.00     0.000 HD 
HETATM   22  N   UNL     1     -13.222  10.500  69.608  1.00  0.00    -0.311 NA 
HETATM   23  H1  UNL     1     -14.030  10.528  70.230  1.00  0.00     0.000 HD 
BRANCH  20  24
HETATM   24  C   UNL     1     -12.302  12.479  70.810  1.00  0.00    -0.376 A  
HETATM   25  C   UNL     1     -11.667  13.566  70.188  1.00  0.00    -0.280 A  
HETATM   26  C   UNL     1     -11.862  14.871  70.648  1.00  0.00    -0.357 A  
HETATM   27  C   UNL     1     -12.705  15.097  71.730  1.00  0.00    -0.349 A  
HETATM   28  C   UNL     1     -13.376  14.044  72.338  1.00  0.00    -0.617 A  
HETATM   29  O   UNL     1     -12.897  16.348  72.233  1.00  0.00    -0.372 OA 
HETATM   30  H   UNL     1     -13.473  16.502  72.972  1.00  0.00     0.000 HD 
HETATM   31  C   UNL     1     -13.182  12.741  71.875  1.00  0.00    -0.511 A  
ENDBRANCH  20  24
ENDBRANCH  18  20
ENDBRANCH   6  16
TORSDOF 4
ENDMDL
MODEL       21
REMARK 921   NORMALIZED FREE ENERGY PREDICTED BY IDOCK:   -6.32 KCAL/MOL
REMARK 922        TOTAL FREE ENERGY PREDICTED BY IDOCK:   -8.61 KCAL/MOL
REMARK 923 INTER-LIGAND FREE ENERGY PREDICTED BY IDOCK:   -7.90 KCAL/MOL
REMARK 924 INTRA-LIGAND FREE ENERGY PREDICTED BY IDOCK:   -0.71 KCAL/MOL
REMARK 927      BINDING AFFINITY PREDICTED BY RF-SCORE:    0.00 PKD
ROOT
HETATM    1  C   UNL     1      -9.471   9.519  69.729  1.00  0.00    -0.210 C  
HETATM    2  S   UNL     1     -10.532   9.840  71.158  1.00  0.00     0.104 SA 
HETATM    3  C   UNL     1     -10.368   8.163  71.796  1.00  0.00    -0.230 C  
HETATM    4  C   UNL     1     -10.560   7.052  70.771  1.00  0.00    -0.240 C  
HETATM    5  CA  UNL     1     -10.413   7.225  69.421  1.00  0.00    -0.216 C  
HETATM    6  CA  UNL     1      -9.705  10.464  68.506  1.00  0.00    -0.168 C  
HETATM    7  C   UNL     1     -10.623   6.061  68.469  1.00  0.00    -0.265 C  
HETATM    8  O   UNL     1     -10.399   8.758  66.664  1.00  0.00    -0.279 OA 
HETATM    9  N   UNL     1     -10.056   8.455  68.936  1.00  0.00    -0.195 N  
HETATM   10  OXT UNL     1     -10.508   4.889  68.804  1.00  0.00    -0.063 OA 
HETATM   11  C   UNL     1     -10.064   9.127  67.765  1.00  0.00    -0.203 C  
HETATM   12  O   UNL     1     -10.937   6.354  67.194  1.00  0.00    -0.354 OA 
ENDROOT
BRANCH   4  13
HETATM   13  C   UNL     1     -11.033   5.804  71.395  1.00  0.00    -0.304 C  
HETATM   14  C   UNL     1     -10.917   5.489  72.696  1.00  0.00    -0.320 C  
HETATM   15  C   UNL     1     -11.462   4.235  73.302  1.00  0.00    -0.245 C  
ENDBRANCH   4  13
BRANCH   6  16
HETATM   16  N   UNL     1     -10.826  11.417  68.650  1.00  0.00    -0.195 N  
HETATM   17  H   UNL     1     -11.767  11.030  68.737  1.00  0.00     0.000 HD 
HETATM   18  C   UNL     1     -10.697  12.786  68.676  1.00  0.00    -0.246 C  
HETATM   19  O   UNL     1      -9.612  13.358  68.662  1.00  0.00    -0.172 OA 
BRANCH  18  20
HETATM   20  CA  UNL     1     -12.063  13.516  68.720  1.00  0.00    -0.270 C  
HETATM   21  H2  UNL     1     -11.813  14.342  66.805  1.00  0.00     0.000 HD 
HETATM   22  N   UNL     1     -12.056  14.647  67.748  1.00  0.00    -0.587 NA 
HETATM   23  H1  UNL     1     -12.955  15.128  67.777  1.00  0.00     0.000 HD 
BRANCH  20  24
HETATM   24  C   UNL     1     -12.401  13.982  70.124  1.00  0.00    -0.409 A  
HETATM   25  C   UNL     1     -12.219  15.333  70.464  1.00  0.00    -0.415 A  
HETATM   26  C   UNL     1     -12.488  15.790  71.757  1.00  0.00    -0.524 A  
HETATM   27  C   UNL     1     -12.951  14.898  72.717  1.00  0.00    -0.447 A  
HETATM   28  C   UNL     1     -13.177  13.566  72.397  1.00  0.00    -0.577 A  
HETATM   29  O   UNL     1     -13.192  15.294  73.998  1.00  0.00    -0.589 OA 
HETATM   30  H   UNL     1     -13.509  14.684  74.654  1.00  0.00     0.000 HD 
HETATM   31  C   UNL     1     -12.911  13.111  71.104  1.00  0.00    -0.280 A  
ENDBRANCH  20  24
ENDBRANCH  18  20
ENDBRANCH   6  16
TORSDOF 4
ENDMDL
MODEL       22
REMARK 921   NORMALIZED FREE ENERGY PREDICTED BY IDOCK:   -6.31 KCAL/MOL
REMARK 922        TOTAL FREE ENERGY PREDICTED BY IDOCK:   -8.60 KCAL/MOL
REMARK 923 INTER-LIGAND FREE ENERGY PREDICTED BY IDOCK:   -8.32 KCAL/MOL
REMARK 924 INTRA-LIGAND FREE ENERGY PREDICTED BY IDOCK:   -0.28 KCAL/MOL
REMARK 927      BINDING AFFINITY PREDICTED BY RF-SCORE:    0.00 PKD
ROOT
HETATM    1  C   UNL     1      -9.954  16.790  67.184  1.00  0.00    -0.274 C  
HETATM    2  S   UNL     1     -10.333  17.763  68.662  1.00  0.00    -0.303 SA 
HETATM    3  C   UNL     1      -8.941  18.881  68.416  1.00  0.00    -0.340 C  
HETATM    4  C   UNL     1      -7.609  18.208  68.104  1.00  0.00    -0.269 C  
HETATM    5  CA  UNL     1      -7.494  16.945  67.592  1.00  0.00    -0.160 C  
HETATM    6  CA  UNL     1     -10.503  15.326  67.197  1.00  0.00    -0.280 C  
HETATM    7  C   UNL     1      -6.125  16.351  67.310  1.00  0.00    -0.166 C  
HETATM    8  O   UNL     1      -8.300  13.950  67.013  1.00  0.00    -0.178 OA 
HETATM    9  N   UNL     1      -8.626  16.224  67.318  1.00  0.00    -0.174 N  
HETATM   10  OXT UNL     1      -5.127  17.030  67.105  1.00  0.00    -0.124 OA 
HETATM   11  C   UNL     1      -8.985  14.942  67.089  1.00  0.00    -0.214 C  
HETATM   12  O   UNL     1      -6.028  15.010  67.273  1.00  0.00    -0.319 OA 
ENDROOT
BRANCH   4  13
HETATM   13  C   UNL     1      -6.465  19.035  68.525  1.00  0.00    -0.266 C  
HETATM   14  C   UNL     1      -6.536  20.138  69.289  1.00  0.00    -0.302 C  
HETATM   15  C   UNL     1      -5.344  20.918  69.742  1.00  0.00    -0.408 C  
ENDBRANCH   4  13
BRANCH   6  16
HETATM   16  N   UNL     1     -11.163  14.911  68.454  1.00  0.00    -0.278 N  
HETATM   17  H   UNL     1     -11.154  15.570  69.233  1.00  0.00     0.000 HD 
HETATM   18  C   UNL     1     -11.788  13.702  68.652  1.00  0.00    -0.374 C  
HETATM   19  O   UNL     1     -11.932  12.867  67.765  1.00  0.00    -0.347 OA 
BRANCH  18  20
HETATM   20  CA  UNL     1     -12.282  13.514  70.108  1.00  0.00    -0.330 C  
HETATM   21  H2  UNL     1     -11.521  15.371  70.728  1.00  0.00     0.000 HD 
HETATM   22  N   UNL     1     -11.496  14.393  71.020  1.00  0.00    -0.517 NA 
HETATM   23  H1  UNL     1     -11.821  14.270  71.979  1.00  0.00     0.000 HD 
BRANCH  20  24
HETATM   24  C   UNL     1     -12.219  12.059  70.536  1.00  0.00    -0.414 A  
HETATM   25  C   UNL     1     -13.151  11.575  71.468  1.00  0.00    -0.429 A  
HETATM   26  C   UNL     1     -13.102  10.251  71.911  1.00  0.00    -0.568 A  
HETATM   27  C   UNL     1     -12.122   9.398  71.414  1.00  0.00    -0.363 A  
HETATM   28  C   UNL     1     -11.213   9.840  70.463  1.00  0.00    -0.381 A  
HETATM   29  O   UNL     1     -12.016   8.110  71.844  1.00  0.00    -0.286 OA 
HETATM   30  H   UNL     1     -11.347   7.527  71.504  1.00  0.00     0.000 HD 
HETATM   31  C   UNL     1     -11.265  11.163  70.018  1.00  0.00    -0.261 A  
ENDBRANCH  20  24
ENDBRANCH  18  20
ENDBRANCH   6  16
TORSDOF 4
ENDMDL
MODEL       23
REMARK 921   NORMALIZED FREE ENERGY PREDICTED BY IDOCK:   -6.31 KCAL/MOL
REMARK 922        TOTAL FREE ENERGY PREDICTED BY IDOCK:   -8.60 KCAL/MOL
REMARK 923 INTER-LIGAND FREE ENERGY PREDICTED BY IDOCK:   -7.73 KCAL/MOL
REMARK 924 INTRA-LIGAND FREE ENERGY PREDICTED BY IDOCK:   -0.87 KCAL/MOL
REMARK 927      BINDING AFFINITY PREDICTED BY RF-SCORE:    0.00 PKD
ROOT
HETATM    1  C   UNL     1     -12.101  12.066  68.977  1.00  0.00    -0.166 C  
HETATM    2  S   UNL     1     -12.250  11.235  70.576  1.00  0.00    -0.380 SA 
HETATM    3  C   UNL     1     -13.035  12.653  71.364  1.00  0.00    -0.258 C  
HETATM    4  C   UNL     1     -12.360  13.996  71.113  1.00  0.00    -0.443 C  
HETATM    5  CA  UNL     1     -11.533  14.248  70.053  1.00  0.00    -0.219 C  
HETATM    6  CA  UNL     1     -10.974  11.512  68.045  1.00  0.00    -0.231 C  
HETATM    7  C   UNL     1     -10.902  15.618  69.878  1.00  0.00    -0.318 C  
HETATM    8  O   UNL     1      -9.469  13.617  67.752  1.00  0.00    -0.206 OA 
HETATM    9  N   UNL     1     -11.292  13.258  69.137  1.00  0.00    -0.278 N  
HETATM   10  OXT UNL     1     -11.375  16.642  70.353  1.00  0.00    -0.207 OA 
HETATM   11  C   UNL     1     -10.402  12.969  68.163  1.00  0.00    -0.240 C  
HETATM   12  O   UNL     1      -9.773  15.692  69.149  1.00  0.00    -0.214 OA 
ENDROOT
BRANCH   4  13
HETATM   13  C   UNL     1     -12.613  14.951  72.206  1.00  0.00    -0.413 C  
HETATM   14  C   UNL     1     -12.114  14.865  73.451  1.00  0.00    -0.408 C  
HETATM   15  C   UNL     1     -12.350  15.887  74.517  1.00  0.00    -0.752 C  
ENDBRANCH   4  13
BRANCH   6  16
HETATM   16  N   UNL     1     -10.124  10.458  68.642  1.00  0.00    -0.168 N  
HETATM   17  H   UNL     1      -9.625  10.685  69.502  1.00  0.00     0.000 HD 
HETATM   18  C   UNL     1      -9.957   9.196  68.123  1.00  0.00    -0.176 C  
HETATM   19  O   UNL     1     -10.569   8.786  67.143  1.00  0.00    -0.291 OA 
BRANCH  18  20
HETATM   20  CA  UNL     1      -8.915   8.359  68.908  1.00  0.00    -0.146 C  
HETATM   21  H2  UNL     1      -8.276   7.333  67.190  1.00  0.00     0.000 HD 
HETATM   22  N   UNL     1      -8.586   7.124  68.140  1.00  0.00    -0.128 NA 
HETATM   23  H1  UNL     1      -7.900   6.573  68.656  1.00  0.00     0.000 HD 
BRANCH  20  24
HETATM   24  C   UNL     1      -9.398   8.038  70.310  1.00  0.00    -0.159 A  
HETATM   25  C   UNL     1     -10.454   7.128  70.484  1.00  0.00    -0.228 A  
HETATM   26  C   UNL     1     -10.948   6.835  71.758  1.00  0.00    -0.266 A  
HETATM   27  C   UNL     1     -10.379   7.446  72.870  1.00  0.00    -0.279 A  
HETATM   28  C   UNL     1      -9.309   8.319  72.730  1.00  0.00    -0.338 A  
HETATM   29  O   UNL     1     -10.851   7.216  74.127  1.00  0.00    -0.532 OA 
HETATM   30  H   UNL     1     -10.462   7.633  74.886  1.00  0.00     0.000 HD 
HETATM   31  C   UNL     1      -8.814   8.609  71.456  1.00  0.00    -0.285 A  
ENDBRANCH  20  24
ENDBRANCH  18  20
ENDBRANCH   6  16
TORSDOF 4
ENDMDL
MODEL       24
REMARK 921   NORMALIZED FREE ENERGY PREDICTED BY IDOCK:   -6.31 KCAL/MOL
REMARK 922        TOTAL FREE ENERGY PREDICTED BY IDOCK:   -8.60 KCAL/MOL
REMARK 923 INTER-LIGAND FREE ENERGY PREDICTED BY IDOCK:   -8.09 KCAL/MOL
REMARK 924 INTRA-LIGAND FREE ENERGY PREDICTED BY IDOCK:   -0.51 KCAL/MOL
REMARK 927      BINDING AFFINITY PREDICTED BY RF-SCORE:    0.00 PKD
ROOT
HETATM    1  C   UNL     1     -11.915  14.425  68.518  1.00  0.00    -0.298 C  
HETATM    2  S   UNL     1     -10.285  13.711  68.197  1.00  0.00    -0.252 SA 
HETATM    3  C   UNL     1     -10.808  12.042  68.630  1.00  0.00    -0.237 C  
HETATM    4  C   UNL     1     -11.598  11.921  69.928  1.00  0.00    -0.333 C  
HETATM    5  CA  UNL     1     -12.274  12.959  70.510  1.00  0.00    -0.314 C  
HETATM    6  CA  UNL     1     -11.916  15.952  68.852  1.00  0.00    -0.189 C  
HETATM    7  C   UNL     1     -13.037  12.750  71.805  1.00  0.00    -0.356 C  
HETATM    8  O   UNL     1     -12.942  15.953  71.245  1.00  0.00    -0.471 OA 
HETATM    9  N   UNL     1     -12.271  14.187  69.903  1.00  0.00    -0.346 N  
HETATM   10  OXT UNL     1     -13.455  11.660  72.171  1.00  0.00    -0.423 OA 
HETATM   11  C   UNL     1     -12.535  15.475  70.213  1.00  0.00    -0.367 C  
HETATM   12  O   UNL     1     -13.269  13.834  72.569  1.00  0.00    -0.478 OA 
ENDROOT
BRANCH   4  13
HETATM   13  C   UNL     1     -11.453  10.588  70.537  1.00  0.00    -0.433 C  
HETATM   14  C   UNL     1     -10.554   9.657  70.176  1.00  0.00    -0.320 C  
HETATM   15  C   UNL     1     -10.401   8.336  70.858  1.00  0.00    -0.225 C  
ENDBRANCH   4  13
BRANCH   6  16
HETATM   16  N   UNL     1     -10.578  16.574  68.960  1.00  0.00    -0.302 N  
HETATM   17  H   UNL     1      -9.974  16.266  69.723  1.00  0.00     0.000 HD 
HETATM   18  C   UNL     1     -10.087  17.536  68.110  1.00  0.00    -0.341 C  
HETATM   19  O   UNL     1     -10.689  17.922  67.114  1.00  0.00    -0.331 OA 
BRANCH  18  20
HETATM   20  CA  UNL     1      -8.703  18.075  68.550  1.00  0.00    -0.295 C  
HETATM   21  H2  UNL     1      -9.486  19.030  70.249  1.00  0.00     0.000 HD 
HETATM   22  N   UNL     1      -8.887  19.248  69.452  1.00  0.00     0.006 NA 
HETATM   23  H1  UNL     1      -7.976  19.603  69.742  1.00  0.00     0.000 HD 
BRANCH  20  24
HETATM   24  C   UNL     1      -7.830  18.415  67.355  1.00  0.00    -0.237 A  
HETATM   25  C   UNL     1      -6.889  17.477  66.902  1.00  0.00    -0.220 A  
HETATM   26  C   UNL     1      -6.045  17.769  65.827  1.00  0.00    -0.192 A  
HETATM   27  C   UNL     1      -6.146  19.002  65.191  1.00  0.00    -0.279 A  
HETATM   28  C   UNL     1      -7.095  19.932  65.595  1.00  0.00    -0.337 A  
HETATM   29  O   UNL     1      -5.321  19.342  64.162  1.00  0.00    -0.197 OA 
HETATM   30  H   UNL     1      -5.391  20.184  63.728  1.00  0.00     0.000 HD 
HETATM   31  C   UNL     1      -7.940  19.638  66.667  1.00  0.00    -0.321 A  
ENDBRANCH  20  24
ENDBRANCH  18  20
ENDBRANCH   6  16
TORSDOF 4
ENDMDL
MODEL       25
REMARK 921   NORMALIZED FREE ENERGY PREDICTED BY IDOCK:   -6.31 KCAL/MOL
REMARK 922        TOTAL FREE ENERGY PREDICTED BY IDOCK:   -8.59 KCAL/MOL
REMARK 923 INTER-LIGAND FREE ENERGY PREDICTED BY IDOCK:   -7.92 KCAL/MOL
REMARK 924 INTRA-LIGAND FREE ENERGY PREDICTED BY IDOCK:   -0.68 KCAL/MOL
REMARK 927      BINDING AFFINITY PREDICTED BY RF-SCORE:    0.00 PKD
ROOT
HETATM    1  C   UNL     1      -8.602   8.944  67.838  1.00  0.00    -0.126 C  
HETATM    2  S   UNL     1      -9.547  10.477  68.011  1.00  0.00    -0.150 SA 
HETATM    3  C   UNL     1     -10.095  10.080  69.681  1.00  0.00    -0.236 C  
HETATM    4  C   UNL     1     -10.637   8.668  69.873  1.00  0.00    -0.227 C  
HETATM    5  CA  UNL     1     -10.343   7.619  69.045  1.00  0.00    -0.213 C  
HETATM    6  CA  UNL     1      -8.364   8.475  66.365  1.00  0.00    -0.114 C  
HETATM    7  C   UNL     1     -10.926   6.243  69.311  1.00  0.00    -0.369 C  
HETATM    8  O   UNL     1      -9.544   6.154  66.368  1.00  0.00    -0.158 OA 
HETATM    9  N   UNL     1      -9.501   7.816  67.983  1.00  0.00    -0.144 N  
HETATM   10  OXT UNL     1     -11.301   5.873  70.416  1.00  0.00    -0.301 OA 
HETATM   11  C   UNL     1      -9.166   7.207  66.824  1.00  0.00    -0.158 C  
HETATM   12  O   UNL     1     -11.014   5.396  68.269  1.00  0.00    -0.006 OA 
ENDROOT
BRANCH   4  13
HETATM   13  C   UNL     1     -11.600   8.596  70.985  1.00  0.00    -0.325 C  
HETATM   14  C   UNL     1     -12.587   9.477  71.222  1.00  0.00    -0.425 C  
HETATM   15  C   UNL     1     -13.582   9.337  72.329  1.00  0.00    -0.544 C  
ENDBRANCH   4  13
BRANCH   6  16
HETATM   16  N   UNL     1      -9.031   9.293  65.328  1.00  0.00    -0.204 N  
HETATM   17  H   UNL     1     -10.031   9.149  65.184  1.00  0.00     0.000 HD 
HETATM   18  C   UNL     1      -8.404  10.231  64.543  1.00  0.00    -0.168 C  
HETATM   19  O   UNL     1      -7.227  10.546  64.684  1.00  0.00    -0.065 OA 
BRANCH  18  20
HETATM   20  CA  UNL     1      -9.342  10.839  63.470  1.00  0.00    -0.279 C  
HETATM   21  H2  UNL     1      -7.800  11.008  62.053  1.00  0.00     0.000 HD 
HETATM   22  N   UNL     1      -8.533  11.586  62.465  1.00  0.00    -0.631 NA 
HETATM   23  H1  UNL     1      -9.150  11.986  61.758  1.00  0.00     0.000 HD 
BRANCH  20  24
HETATM   24  C   UNL     1     -10.413  11.713  64.094  1.00  0.00    -0.402 A  
HETATM   25  C   UNL     1     -11.701  11.729  63.535  1.00  0.00    -0.485 A  
HETATM   26  C   UNL     1     -12.703  12.548  64.062  1.00  0.00    -0.416 A  
HETATM   27  C   UNL     1     -12.423  13.351  65.162  1.00  0.00    -0.459 A  
HETATM   28  C   UNL     1     -11.170  13.325  65.759  1.00  0.00    -0.313 A  
HETATM   29  O   UNL     1     -13.360  14.190  65.687  1.00  0.00    -0.697 OA 
HETATM   30  H   UNL     1     -13.168  14.738  66.439  1.00  0.00     0.000 HD 
HETATM   31  C   UNL     1     -10.171  12.503  65.233  1.00  0.00    -0.302 A  
ENDBRANCH  20  24
ENDBRANCH  18  20
ENDBRANCH   6  16
TORSDOF 4
ENDMDL
MODEL       26
REMARK 921   NORMALIZED FREE ENERGY PREDICTED BY IDOCK:   -6.24 KCAL/MOL
REMARK 922        TOTAL FREE ENERGY PREDICTED BY IDOCK:   -8.52 KCAL/MOL
REMARK 923 INTER-LIGAND FREE ENERGY PREDICTED BY IDOCK:   -7.84 KCAL/MOL
REMARK 924 INTRA-LIGAND FREE ENERGY PREDICTED BY IDOCK:   -0.68 KCAL/MOL
REMARK 927      BINDING AFFINITY PREDICTED BY RF-SCORE:    0.00 PKD
ROOT
HETATM    1  C   UNL     1      -7.953   8.462  69.087  1.00  0.00    -0.110 C  
HETATM    2  S   UNL     1      -8.567   9.219  70.611  1.00  0.00    -0.204 SA 
HETATM    3  C   UNL     1      -8.495   7.674  71.537  1.00  0.00    -0.115 C  
HETATM    4  C   UNL     1      -9.095   6.462  70.834  1.00  0.00    -0.151 C  
HETATM    5  CA  UNL     1      -9.263   6.372  69.479  1.00  0.00    -0.144 C  
HETATM    6  CA  UNL     1      -8.343   9.212  67.772  1.00  0.00    -0.117 C  
HETATM    7  C   UNL     1      -9.870   5.124  68.861  1.00  0.00    -0.172 C  
HETATM    8  O   UNL     1      -9.713   7.382  66.524  1.00  0.00    -0.197 OA 
HETATM    9  N   UNL     1      -8.864   7.410  68.681  1.00  0.00    -0.127 N  
HETATM   10  OXT UNL     1      -9.846   4.026  69.402  1.00  0.00    -0.185 OA 
HETATM   11  C   UNL     1      -9.065   7.862  67.424  1.00  0.00    -0.133 C  
HETATM   12  O   UNL     1     -10.445   5.250  67.651  1.00  0.00    -0.176 OA 
ENDROOT
BRANCH   4  13
HETATM   13  C   UNL     1      -9.573   5.452  71.793  1.00  0.00    -0.186 C  
HETATM   14  C   UNL     1     -10.723   5.513  72.485  1.00  0.00    -0.289 C  
HETATM   15  C   UNL     1     -11.201   4.438  73.408  1.00  0.00    -0.386 C  
ENDBRANCH   4  13
BRANCH   6  16
HETATM   16  N   UNL     1      -9.244  10.372  67.950  1.00  0.00    -0.138 N  
HETATM   17  H   UNL     1      -9.357  10.741  68.895  1.00  0.00     0.000 HD 
HETATM   18  C   UNL     1      -9.940  10.990  66.939  1.00  0.00    -0.196 C  
HETATM   19  O   UNL     1      -9.819  10.686  65.757  1.00  0.00    -0.216 OA 
BRANCH  18  20
HETATM   20  CA  UNL     1     -10.888  12.101  67.456  1.00  0.00    -0.243 C  
HETATM   21  H2  UNL     1     -12.086  10.744  68.521  1.00  0.00     0.000 HD 
HETATM   22  N   UNL     1     -12.196  11.501  67.846  1.00  0.00    -0.427 NA 
HETATM   23  H1  UNL     1     -12.821  12.232  68.186  1.00  0.00     0.000 HD 
BRANCH  20  24
HETATM   24  C   UNL     1     -11.060  13.210  66.434  1.00  0.00    -0.311 A  
HETATM   25  C   UNL     1     -10.048  14.172  66.285  1.00  0.00    -0.308 A  
HETATM   26  C   UNL     1     -10.186  15.226  65.379  1.00  0.00    -0.414 A  
HETATM   27  C   UNL     1     -11.339  15.318  64.606  1.00  0.00    -0.358 A  
HETATM   28  C   UNL     1     -12.337  14.358  64.704  1.00  0.00    -0.435 A  
HETATM   29  O   UNL     1     -11.531  16.348  63.735  1.00  0.00    -1.590 OA 
HETATM   30  H   UNL     1     -12.318  16.410  63.207  1.00  0.00     0.000 HD 
HETATM   31  C   UNL     1     -12.196  13.303  65.608  1.00  0.00    -0.514 A  
ENDBRANCH  20  24
ENDBRANCH  18  20
ENDBRANCH   6  16
TORSDOF 4
ENDMDL
MODEL       27
REMARK 921   NORMALIZED FREE ENERGY PREDICTED BY IDOCK:   -6.24 KCAL/MOL
REMARK 922        TOTAL FREE ENERGY PREDICTED BY IDOCK:   -8.51 KCAL/MOL
REMARK 923 INTER-LIGAND FREE ENERGY PREDICTED BY IDOCK:   -7.64 KCAL/MOL
REMARK 924 INTRA-LIGAND FREE ENERGY PREDICTED BY IDOCK:   -0.87 KCAL/MOL
REMARK 927      BINDING AFFINITY PREDICTED BY RF-SCORE:    0.00 PKD
ROOT
HETATM    1  C   UNL     1     -11.591  13.826  68.298  1.00  0.00    -0.338 C  
HETATM    2  S   UNL     1     -10.062  14.523  68.968  1.00  0.00    -0.134 SA 
HETATM    3  C   UNL     1     -10.350  16.144  68.236  1.00  0.00    -0.266 C  
HETATM    4  C   UNL     1     -10.762  16.134  66.768  1.00  0.00    -0.235 C  
HETATM    5  CA  UNL     1     -11.322  15.055  66.140  1.00  0.00    -0.270 C  
HETATM    6  CA  UNL     1     -11.597  12.271  68.140  1.00  0.00    -0.339 C  
HETATM    7  C   UNL     1     -11.703  15.133  64.672  1.00  0.00    -0.348 C  
HETATM    8  O   UNL     1     -11.955  12.017  65.573  1.00  0.00    -0.443 OA 
HETATM    9  N   UNL     1     -11.554  13.909  66.852  1.00  0.00    -0.357 N  
HETATM   10  OXT UNL     1     -11.943  16.185  64.094  1.00  0.00    -0.774 OA 
HETATM   11  C   UNL     1     -11.806  12.602  66.620  1.00  0.00    -0.380 C  
HETATM   12  O   UNL     1     -11.791  13.974  63.994  1.00  0.00    -0.390 OA 
ENDROOT
BRANCH   4  13
HETATM   13  C   UNL     1     -10.381  17.381  66.082  1.00  0.00    -0.329 C  
HETATM   14  C   UNL     1     -10.526  18.621  66.578  1.00  0.00    -0.465 C  
HETATM   15  C   UNL     1     -10.073  19.860  65.873  1.00  0.00    -0.519 C  
ENDBRANCH   4  13
BRANCH   6  16
HETATM   16  N   UNL     1     -10.318  11.600  68.462  1.00  0.00    -0.207 N  
HETATM   17  H   UNL     1      -9.474  12.173  68.473  1.00  0.00     0.000 HD 
HETATM   18  C   UNL     1     -10.182  10.262  68.747  1.00  0.00    -0.192 C  
HETATM   19  O   UNL     1     -11.135   9.496  68.843  1.00  0.00    -0.142 OA 
BRANCH  18  20
HETATM   20  CA  UNL     1      -8.704   9.835  68.928  1.00  0.00    -0.136 C  
HETATM   21  H2  UNL     1      -8.730  10.204  70.996  1.00  0.00     0.000 HD 
HETATM   22  N   UNL     1      -8.161  10.434  70.181  1.00  0.00    -0.387 NA 
HETATM   23  H1  UNL     1      -7.187  10.153  70.301  1.00  0.00     0.000 HD 
BRANCH  20  24
HETATM   24  C   UNL     1      -7.864  10.201  67.718  1.00  0.00    -0.098 A  
HETATM   25  C   UNL     1      -8.185   9.652  66.466  1.00  0.00    -0.119 A  
HETATM   26  C   UNL     1      -7.413   9.939  65.337  1.00  0.00    -0.132 A  
HETATM   27  C   UNL     1      -6.318  10.788  65.454  1.00  0.00     0.015 A  
HETATM   28  C   UNL     1      -6.002  11.375  66.671  1.00  0.00    -0.147 A  
HETATM   29  O   UNL     1      -5.519  11.067  64.387  1.00  0.00    -0.439 OA 
HETATM   30  H   UNL     1      -4.771  11.648  64.467  1.00  0.00     0.000 HD 
HETATM   31  C   UNL     1      -6.776  11.090  67.798  1.00  0.00    -0.064 A  
ENDBRANCH  20  24
ENDBRANCH  18  20
ENDBRANCH   6  16
TORSDOF 4
ENDMDL
MODEL       28
REMARK 921   NORMALIZED FREE ENERGY PREDICTED BY IDOCK:   -6.24 KCAL/MOL
REMARK 922        TOTAL FREE ENERGY PREDICTED BY IDOCK:   -8.51 KCAL/MOL
REMARK 923 INTER-LIGAND FREE ENERGY PREDICTED BY IDOCK:   -7.74 KCAL/MOL
REMARK 924 INTRA-LIGAND FREE ENERGY PREDICTED BY IDOCK:   -0.77 KCAL/MOL
REMARK 927      BINDING AFFINITY PREDICTED BY RF-SCORE:    0.00 PKD
ROOT
HETATM    1  C   UNL     1      -9.433   9.600  68.704  1.00  0.00    -0.146 C  
HETATM    2  S   UNL     1      -7.976   9.922  69.727  1.00  0.00    -0.181 SA 
HETATM    3  C   UNL     1      -8.430   8.685  70.956  1.00  0.00    -0.164 C  
HETATM    4  C   UNL     1      -9.880   8.729  71.424  1.00  0.00    -0.353 C  
HETATM    5  CA  UNL     1     -10.896   9.301  70.707  1.00  0.00    -0.284 C  
HETATM    6  CA  UNL     1      -9.868  10.784  67.780  1.00  0.00    -0.166 C  
HETATM    7  C   UNL     1     -12.314   9.300  71.250  1.00  0.00    -0.328 C  
HETATM    8  O   UNL     1     -12.270  11.268  68.660  1.00  0.00    -0.562 OA 
HETATM    9  N   UNL     1     -10.626   9.858  69.486  1.00  0.00    -0.226 N  
HETATM   10  OXT UNL     1     -12.721   8.484  72.066  1.00  0.00    -0.336 OA 
HETATM   11  C   UNL     1     -11.197  10.715  68.611  1.00  0.00    -0.278 C  
HETATM   12  O   UNL     1     -13.154  10.242  70.785  1.00  0.00    -0.381 OA 
ENDROOT
BRANCH   4  13
HETATM   13  C   UNL     1     -10.034   8.187  72.785  1.00  0.00    -0.361 C  
HETATM   14  C   UNL     1      -9.777   6.922  73.156  1.00  0.00    -0.200 C  
HETATM   15  C   UNL     1      -9.891   6.424  74.561  1.00  0.00    -0.356 C  
ENDBRANCH   4  13
BRANCH   6  16
HETATM   16  N   UNL     1      -9.092  12.032  67.946  1.00  0.00    -0.176 N  
HETATM   17  H   UNL     1      -8.344  12.034  68.641  1.00  0.00     0.000 HD 
HETATM   18  C   UNL     1      -9.302  13.190  67.236  1.00  0.00    -0.225 C  
HETATM   19  O   UNL     1     -10.116  13.279  66.322  1.00  0.00    -0.280 OA 
BRANCH  18  20
HETATM   20  CA  UNL     1      -8.408  14.360  67.717  1.00  0.00    -0.169 C  
HETATM   21  H2  UNL     1      -7.448  13.182  69.167  1.00  0.00     0.000 HD 
HETATM   22  N   UNL     1      -7.923  14.083  69.099  1.00  0.00    -0.339 NA 
HETATM   23  H1  UNL     1      -7.334  14.853  69.416  1.00  0.00     0.000 HD 
BRANCH  20  24
HETATM   24  C   UNL     1      -9.134  15.690  67.631  1.00  0.00    -0.193 A  
HETATM   25  C   UNL     1      -8.802  16.590  66.604  1.00  0.00    -0.288 A  
HETATM   26  C   UNL     1      -9.425  17.838  66.515  1.00  0.00    -0.300 A  
HETATM   27  C   UNL     1     -10.394  18.189  67.449  1.00  0.00    -0.389 A  
HETATM   28  C   UNL     1     -10.768  17.303  68.450  1.00  0.00    -0.332 A  
HETATM   29  O   UNL     1     -11.001  19.408  67.419  1.00  0.00    -0.490 OA 
HETATM   30  H   UNL     1     -11.663  19.647  68.057  1.00  0.00     0.000 HD 
HETATM   31  C   UNL     1     -10.147  16.055  68.536  1.00  0.00    -0.233 A  
ENDBRANCH  20  24
ENDBRANCH  18  20
ENDBRANCH   6  16
TORSDOF 4
ENDMDL
MODEL       29
REMARK 921   NORMALIZED FREE ENERGY PREDICTED BY IDOCK:   -6.21 KCAL/MOL
REMARK 922        TOTAL FREE ENERGY PREDICTED BY IDOCK:   -8.48 KCAL/MOL
REMARK 923 INTER-LIGAND FREE ENERGY PREDICTED BY IDOCK:   -7.77 KCAL/MOL
REMARK 924 INTRA-LIGAND FREE ENERGY PREDICTED BY IDOCK:   -0.71 KCAL/MOL
REMARK 927      BINDING AFFINITY PREDICTED BY RF-SCORE:    0.00 PKD
ROOT
HETATM    1  C   UNL     1     -11.474  14.693  68.079  1.00  0.00    -0.324 C  
HETATM    2  S   UNL     1      -9.847  14.480  68.841  1.00  0.00    -0.148 SA 
HETATM    3  C   UNL     1      -9.494  16.247  68.839  1.00  0.00    -0.252 C  
HETATM    4  C   UNL     1      -9.780  16.970  67.528  1.00  0.00    -0.251 C  
HETATM    5  CA  UNL     1     -10.641  16.503  66.572  1.00  0.00    -0.217 C  
HETATM    6  CA  UNL     1     -12.017  13.441  67.316  1.00  0.00    -0.347 C  
HETATM    7  C   UNL     1     -10.869  17.290  65.293  1.00  0.00     0.004 C  
HETATM    8  O   UNL     1     -12.265  14.378  64.899  1.00  0.00    -0.413 OA 
HETATM    9  N   UNL     1     -11.311  15.328  66.786  1.00  0.00    -0.245 N  
HETATM   10  OXT UNL     1     -10.682  18.496  65.203  1.00  0.00    -0.524 OA 
HETATM   11  C   UNL     1     -11.991  14.402  66.076  1.00  0.00    -0.367 C  
HETATM   12  O   UNL     1     -11.313  16.610  64.220  1.00  0.00    -1.116 OA 
ENDROOT
BRANCH   4  13
HETATM   13  C   UNL     1      -8.938  18.167  67.366  1.00  0.00    -0.256 C  
HETATM   14  C   UNL     1      -8.113  18.675  68.297  1.00  0.00    -0.339 C  
HETATM   15  C   UNL     1      -7.230  19.860  68.073  1.00  0.00    -0.327 C  
ENDBRANCH   4  13
BRANCH   6  16
HETATM   16  N   UNL     1     -11.083  12.296  67.237  1.00  0.00    -0.259 N  
HETATM   17  H   UNL     1     -10.203  12.438  66.741  1.00  0.00     0.000 HD 
HETATM   18  C   UNL     1     -11.312  11.055  67.782  1.00  0.00    -0.292 C  
HETATM   19  O   UNL     1     -12.295  10.793  68.468  1.00  0.00    -0.417 OA 
BRANCH  18  20
HETATM   20  CA  UNL     1     -10.202  10.032  67.433  1.00  0.00    -0.219 C  
HETATM   21  H2  UNL     1     -11.512   8.809  66.339  1.00  0.00     0.000 HD 
HETATM   22  N   UNL     1     -10.821   8.722  67.085  1.00  0.00    -0.376 NA 
HETATM   23  H1  UNL     1     -10.090   8.048  66.854  1.00  0.00     0.000 HD 
BRANCH  20  24
HETATM   24  C   UNL     1      -9.193   9.897  68.558  1.00  0.00    -0.136 A  
HETATM   25  C   UNL     1      -8.159  10.841  68.673  1.00  0.00    -0.136 A  
HETATM   26  C   UNL     1      -7.192  10.729  69.676  1.00  0.00    -0.127 A  
HETATM   27  C   UNL     1      -7.260   9.673  70.578  1.00  0.00    -0.136 A  
HETATM   28  C   UNL     1      -8.293   8.748  70.511  1.00  0.00    -0.161 A  
HETATM   29  O   UNL     1      -6.320   9.506  71.549  1.00  0.00    -0.240 OA 
HETATM   30  H   UNL     1      -6.367   8.784  72.166  1.00  0.00     0.000 HD 
HETATM   31  C   UNL     1      -9.261   8.863  69.511  1.00  0.00    -0.150 A  
ENDBRANCH  20  24
ENDBRANCH  18  20
ENDBRANCH   6  16
TORSDOF 4
ENDMDL
MODEL       30
REMARK 921   NORMALIZED FREE ENERGY PREDICTED BY IDOCK:   -6.18 KCAL/MOL
REMARK 922        TOTAL FREE ENERGY PREDICTED BY IDOCK:   -8.44 KCAL/MOL
REMARK 923 INTER-LIGAND FREE ENERGY PREDICTED BY IDOCK:   -7.86 KCAL/MOL
REMARK 924 INTRA-LIGAND FREE ENERGY PREDICTED BY IDOCK:   -0.59 KCAL/MOL
REMARK 927      BINDING AFFINITY PREDICTED BY RF-SCORE:    0.00 PKD
ROOT
HETATM    1  C   UNL     1     -10.395   7.130  71.796  1.00  0.00    -0.196 C  
HETATM    2  S   UNL     1     -11.542   6.724  70.457  1.00  0.00    -0.370 SA 
HETATM    3  C   UNL     1     -10.656   5.221  70.007  1.00  0.00    -0.230 C  
HETATM    4  C   UNL     1      -9.144   5.367  69.877  1.00  0.00    -0.165 C  
HETATM    5  CA  UNL     1      -8.421   6.365  70.470  1.00  0.00    -0.138 C  
HETATM    6  CA  UNL     1     -10.343   8.643  72.187  1.00  0.00    -0.333 C  
HETATM    7  C   UNL     1      -6.915   6.435  70.289  1.00  0.00    -0.063 C  
HETATM    8  O   UNL     1      -7.848   9.212  71.703  1.00  0.00    -0.340 OA 
HETATM    9  N   UNL     1      -9.064   7.293  71.246  1.00  0.00    -0.146 N  
HETATM   10  OXT UNL     1      -6.225   5.464  70.009  1.00  0.00    -0.024 OA 
HETATM   11  C   UNL     1      -8.837   8.520  71.762  1.00  0.00    -0.211 C  
HETATM   12  O   UNL     1      -6.326   7.632  70.464  1.00  0.00    -0.037 OA 
ENDROOT
BRANCH   4  13
HETATM   13  C   UNL     1      -8.574   4.375  68.949  1.00  0.00    -0.104 C  
HETATM   14  C   UNL     1      -9.279   3.554  68.152  1.00  0.00    -0.228 C  
HETATM   15  C   UNL     1      -8.662   2.601  67.181  1.00  0.00    -0.135 C  
ENDBRANCH   4  13
BRANCH   6  16
HETATM   16  N   UNL     1     -11.158   9.541  71.340  1.00  0.00    -0.371 N  
HETATM   17  H   UNL     1     -10.727   9.913  70.493  1.00  0.00     0.000 HD 
HETATM   18  C   UNL     1     -12.454   9.913  71.609  1.00  0.00    -0.415 C  
HETATM   19  O   UNL     1     -13.100   9.466  72.551  1.00  0.00    -0.404 OA 
BRANCH  18  20
HETATM   20  CA  UNL     1     -13.001  10.954  70.600  1.00  0.00    -0.184 C  
HETATM   21  H2  UNL     1     -12.494   9.778  68.936  1.00  0.00     0.000 HD 
HETATM   22  N   UNL     1     -12.372  10.736  69.267  1.00  0.00    -0.691 NA 
HETATM   23  H1  UNL     1     -12.731  11.421  68.602  1.00  0.00     0.000 HD 
BRANCH  20  24
HETATM   24  C   UNL     1     -12.794  12.374  71.095  1.00  0.00    -0.299 A  
HETATM   25  C   UNL     1     -11.944  13.235  70.382  1.00  0.00    -0.350 A  
HETATM   26  C   UNL     1     -11.703  14.537  70.827  1.00  0.00    -0.325 A  
HETATM   27  C   UNL     1     -12.322  14.990  71.987  1.00  0.00    -0.347 A  
HETATM   28  C   UNL     1     -13.197  14.173  72.689  1.00  0.00    -0.612 A  
HETATM   29  O   UNL     1     -12.088  16.240  72.476  1.00  0.00    -0.509 OA 
HETATM   30  H   UNL     1     -12.512  16.549  73.268  1.00  0.00     0.000 HD 
HETATM   31  C   UNL     1     -13.440  12.873  72.241  1.00  0.00    -0.631 A  
ENDBRANCH  20  24
ENDBRANCH  18  20
ENDBRANCH   6  16
TORSDOF 4
ENDMDL
MODEL       31
REMARK 921   NORMALIZED FREE ENERGY PREDICTED BY IDOCK:   -6.17 KCAL/MOL
REMARK 922        TOTAL FREE ENERGY PREDICTED BY IDOCK:   -8.42 KCAL/MOL
REMARK 923 INTER-LIGAND FREE ENERGY PREDICTED BY IDOCK:   -7.70 KCAL/MOL
REMARK 924 INTRA-LIGAND FREE ENERGY PREDICTED BY IDOCK:   -0.73 KCAL/MOL
REMARK 927      BINDING AFFINITY PREDICTED BY RF-SCORE:    0.00 PKD
ROOT
HETATM    1  C   UNL     1      -8.793   9.235  67.469  1.00  0.00    -0.118 C  
HETATM    2  S   UNL     1      -8.989  10.807  68.342  1.00  0.00    -0.160 SA 
HETATM    3  C   UNL     1      -8.502  10.112  69.931  1.00  0.00    -0.081 C  
HETATM    4  C   UNL     1      -9.171   8.792  70.300  1.00  0.00    -0.191 C  
HETATM    5  CA  UNL     1      -9.729   7.938  69.388  1.00  0.00    -0.170 C  
HETATM    6  CA  UNL     1      -9.626   9.100  66.153  1.00  0.00    -0.266 C  
HETATM    7  C   UNL     1     -10.375   6.642  69.844  1.00  0.00    -0.200 C  
HETATM    8  O   UNL     1     -11.132   7.049  66.707  1.00  0.00    -0.289 OA 
HETATM    9  N   UNL     1      -9.683   8.253  68.056  1.00  0.00    -0.157 N  
HETATM   10  OXT UNL     1     -10.090   6.081  70.894  1.00  0.00    -0.186 OA 
HETATM   11  C   UNL     1     -10.292   7.894  66.905  1.00  0.00    -0.330 C  
HETATM   12  O   UNL     1     -11.295   6.091  69.032  1.00  0.00    -0.340 OA 
ENDROOT
BRANCH   4  13
HETATM   13  C   UNL     1      -9.245   8.604  71.759  1.00  0.00    -0.338 C  
HETATM   14  C   UNL     1      -8.208   8.317  72.564  1.00  0.00    -0.224 C  
HETATM   15  C   UNL     1      -8.315   8.191  74.050  1.00  0.00    -0.309 C  
ENDBRANCH   4  13
BRANCH   6  16
HETATM   16  N   UNL     1     -10.534  10.231  65.862  1.00  0.00    -0.153 N  
HETATM   17  H   UNL     1     -11.224  10.478  66.573  1.00  0.00     0.000 HD 
HETATM   18  C   UNL     1     -10.518  10.976  64.707  1.00  0.00    -0.316 C  
HETATM   19  O   UNL     1      -9.682  10.824  63.822  1.00  0.00    -0.264 OA 
BRANCH  18  20
HETATM   20  CA  UNL     1     -11.665  12.016  64.647  1.00  0.00    -0.287 C  
HETATM   21  H2  UNL     1     -12.197  11.488  62.685  1.00  0.00     0.000 HD 
HETATM   22  N   UNL     1     -11.983  12.327  63.224  1.00  0.00    -0.733 NA 
HETATM   23  H1  UNL     1     -12.739  13.012  63.185  1.00  0.00     0.000 HD 
BRANCH  20  24
HETATM   24  C   UNL     1     -11.327  13.267  65.436  1.00  0.00    -0.317 A  
HETATM   25  C   UNL     1     -10.532  14.261  64.842  1.00  0.00    -0.454 A  
HETATM   26  C   UNL     1     -10.172  15.410  65.551  1.00  0.00    -0.411 A  
HETATM   27  C   UNL     1     -10.614  15.576  66.859  1.00  0.00    -0.307 A  
HETATM   28  C   UNL     1     -11.433  14.627  67.456  1.00  0.00    -0.378 A  
HETATM   29  O   UNL     1     -10.258  16.664  67.597  1.00  0.00    -0.269 OA 
HETATM   30  H   UNL     1     -10.561  16.777  68.490  1.00  0.00     0.000 HD 
HETATM   31  C   UNL     1     -11.795  13.481  66.746  1.00  0.00    -0.450 A  
ENDBRANCH  20  24
ENDBRANCH  18  20
ENDBRANCH   6  16
TORSDOF 4
ENDMDL
MODEL       32
REMARK 921   NORMALIZED FREE ENERGY PREDICTED BY IDOCK:   -6.15 KCAL/MOL
REMARK 922        TOTAL FREE ENERGY PREDICTED BY IDOCK:   -8.40 KCAL/MOL
REMARK 923 INTER-LIGAND FREE ENERGY PREDICTED BY IDOCK:   -7.78 KCAL/MOL
REMARK 924 INTRA-LIGAND FREE ENERGY PREDICTED BY IDOCK:   -0.62 KCAL/MOL
REMARK 927      BINDING AFFINITY PREDICTED BY RF-SCORE:    0.00 PKD
ROOT
HETATM    1  C   UNL     1     -11.576  15.455  68.537  1.00  0.00    -0.359 C  
HETATM    2  S   UNL     1     -10.089  15.650  69.549  1.00  0.00    -0.287 SA 
HETATM    3  C   UNL     1      -9.985  17.424  69.251  1.00  0.00    -0.116 C  
HETATM    4  C   UNL     1     -10.141  17.853  67.797  1.00  0.00    -0.350 C  
HETATM    5  CA  UNL     1     -10.754  17.093  66.839  1.00  0.00    -0.121 C  
HETATM    6  CA  UNL     1     -11.805  14.018  67.966  1.00  0.00    -0.368 C  
HETATM    7  C   UNL     1     -10.867  17.599  65.411  1.00  0.00     0.104 C  
HETATM    8  O   UNL     1     -11.764  14.472  65.402  1.00  0.00    -0.350 OA 
HETATM    9  N   UNL     1     -11.284  15.877  67.182  1.00  0.00    -0.143 N  
HETATM   10  OXT UNL     1     -10.833  18.785  65.114  1.00  0.00    -0.523 OA 
HETATM   11  C   UNL     1     -11.700  14.743  66.578  1.00  0.00    -0.271 C  
HETATM   12  O   UNL     1     -11.025  16.681  64.440  1.00  0.00    -0.924 OA 
ENDROOT
BRANCH   4  13
HETATM   13  C   UNL     1      -9.454  19.127  67.524  1.00  0.00    -0.365 C  
HETATM   14  C   UNL     1      -8.131  19.338  67.617  1.00  0.00    -0.311 C  
HETATM   15  C   UNL     1      -7.465  20.632  67.275  1.00  0.00    -0.395 C  
ENDBRANCH   4  13
BRANCH   6  16
HETATM   16  N   UNL     1     -10.724  13.048  68.246  1.00  0.00    -0.237 N  
HETATM   17  H   UNL     1      -9.770  13.408  68.307  1.00  0.00     0.000 HD 
HETATM   18  C   UNL     1     -10.906  11.698  68.432  1.00  0.00    -0.219 C  
HETATM   19  O   UNL     1     -12.012  11.168  68.463  1.00  0.00    -0.526 OA 
BRANCH  18  20
HETATM   20  CA  UNL     1      -9.571  10.929  68.591  1.00  0.00    -0.190 C  
HETATM   21  H2  UNL     1      -8.709  12.439  69.769  1.00  0.00     0.000 HD 
HETATM   22  N   UNL     1      -8.482  11.885  68.943  1.00  0.00    -0.368 NA 
HETATM   23  H1  UNL     1      -7.603  11.379  69.048  1.00  0.00     0.000 HD 
BRANCH  20  24
HETATM   24  C   UNL     1      -9.236  10.126  67.348  1.00  0.00    -0.156 A  
HETATM   25  C   UNL     1      -9.765  10.524  66.109  1.00  0.00    -0.259 A  
HETATM   26  C   UNL     1      -9.507   9.789  64.949  1.00  0.00    -0.331 A  
HETATM   27  C   UNL     1      -8.706   8.654  65.020  1.00  0.00    -0.118 A  
HETATM   28  C   UNL     1      -8.139   8.262  66.225  1.00  0.00    -0.109 A  
HETATM   29  O   UNL     1      -8.457   7.890  63.921  1.00  0.00    -0.377 OA 
HETATM   30  H   UNL     1      -7.910   7.115  63.970  1.00  0.00     0.000 HD 
HETATM   31  C   UNL     1      -8.395   8.999  67.383  1.00  0.00    -0.112 A  
ENDBRANCH  20  24
ENDBRANCH  18  20
ENDBRANCH   6  16
TORSDOF 4
ENDMDL
MODEL       33
REMARK 921   NORMALIZED FREE ENERGY PREDICTED BY IDOCK:   -6.14 KCAL/MOL
REMARK 922        TOTAL FREE ENERGY PREDICTED BY IDOCK:   -8.39 KCAL/MOL
REMARK 923 INTER-LIGAND FREE ENERGY PREDICTED BY IDOCK:   -7.37 KCAL/MOL
REMARK 924 INTRA-LIGAND FREE ENERGY PREDICTED BY IDOCK:   -1.02 KCAL/MOL
REMARK 927      BINDING AFFINITY PREDICTED BY RF-SCORE:    0.00 PKD
ROOT
HETATM    1  C   UNL     1     -12.232  13.487  66.386  1.00  0.00    -0.400 C  
HETATM    2  S   UNL     1     -11.024  14.090  65.182  1.00  0.00    -0.377 SA 
HETATM    3  C   UNL     1     -10.799  12.469  64.430  1.00  0.00    -0.342 C  
HETATM    4  C   UNL     1     -10.591  11.317  65.407  1.00  0.00    -0.312 C  
HETATM    5  CA  UNL     1     -10.981  11.350  66.718  1.00  0.00    -0.291 C  
HETATM    6  CA  UNL     1     -12.361  14.348  67.684  1.00  0.00     0.006 C  
HETATM    7  C   UNL     1     -10.735  10.155  67.623  1.00  0.00    -0.285 C  
HETATM    8  O   UNL     1     -11.697  12.620  69.515  1.00  0.00    -0.291 OA 
HETATM    9  N   UNL     1     -11.613  12.463  67.204  1.00  0.00    -0.355 N  
HETATM   10  OXT UNL     1     -10.596   9.013  67.206  1.00  0.00    -0.276 OA 
HETATM   11  C   UNL     1     -11.907  13.026  68.397  1.00  0.00    -0.334 C  
HETATM   12  O   UNL     1     -10.684  10.383  68.948  1.00  0.00    -0.197 OA 
ENDROOT
BRANCH   4  13
HETATM   13  C   UNL     1      -9.822  10.216  64.802  1.00  0.00    -0.382 C  
HETATM   14  C   UNL     1      -8.487  10.188  64.649  1.00  0.00    -0.178 C  
HETATM   15  C   UNL     1      -7.737   9.025  64.082  1.00  0.00    -0.124 C  
ENDBRANCH   4  13
BRANCH   6  16
HETATM   16  N   UNL     1     -11.407  15.473  67.791  1.00  0.00    -0.317 N  
HETATM   17  H   UNL     1     -10.871  15.719  66.958  1.00  0.00     0.000 HD 
HETATM   18  C   UNL     1     -11.189  16.214  68.929  1.00  0.00    -0.351 C  
HETATM   19  O   UNL     1     -11.833  16.063  69.962  1.00  0.00    -0.318 OA 
BRANCH  18  20
HETATM   20  CA  UNL     1     -10.047  17.247  68.762  1.00  0.00    -0.337 C  
HETATM   21  H2  UNL     1     -11.318  18.688  67.914  1.00  0.00     0.000 HD 
HETATM   22  N   UNL     1     -10.422  18.242  67.717  1.00  0.00    -0.405 NA 
HETATM   23  H1  UNL     1      -9.670  18.923  67.607  1.00  0.00     0.000 HD 
BRANCH  20  24
HETATM   24  C   UNL     1      -8.724  16.572  68.449  1.00  0.00    -0.218 A  
HETATM   25  C   UNL     1      -8.017  16.947  67.295  1.00  0.00    -0.198 A  
HETATM   26  C   UNL     1      -6.813  16.322  66.957  1.00  0.00    -0.235 A  
HETATM   27  C   UNL     1      -6.304  15.324  67.780  1.00  0.00    -0.160 A  
HETATM   28  C   UNL     1      -6.963  14.963  68.947  1.00  0.00    -0.112 A  
HETATM   29  O   UNL     1      -5.152  14.666  67.470  1.00  0.00    -0.329 OA 
HETATM   30  H   UNL     1      -4.805  13.984  68.033  1.00  0.00     0.000 HD 
HETATM   31  C   UNL     1      -8.164  15.589  69.286  1.00  0.00    -0.255 A  
ENDBRANCH  20  24
ENDBRANCH  18  20
ENDBRANCH   6  16
TORSDOF 4
ENDMDL
MODEL       34
REMARK 921   NORMALIZED FREE ENERGY PREDICTED BY IDOCK:   -6.12 KCAL/MOL
REMARK 922        TOTAL FREE ENERGY PREDICTED BY IDOCK:   -8.36 KCAL/MOL
REMARK 923 INTER-LIGAND FREE ENERGY PREDICTED BY IDOCK:   -7.70 KCAL/MOL
REMARK 924 INTRA-LIGAND FREE ENERGY PREDICTED BY IDOCK:   -0.66 KCAL/MOL
REMARK 927      BINDING AFFINITY PREDICTED BY RF-SCORE:    0.00 PKD
ROOT
HETATM    1  C   UNL     1     -12.026  12.557  68.018  1.00  0.00    -0.223 C  
HETATM    2  S   UNL     1     -11.798  11.516  69.479  1.00  0.00    -0.359 SA 
HETATM    3  C   UNL     1     -12.354  12.800  70.615  1.00  0.00    -0.297 C  
HETATM    4  C   UNL     1     -11.742  14.178  70.394  1.00  0.00    -0.312 C  
HETATM    5  CA  UNL     1     -11.190  14.587  69.211  1.00  0.00    -0.281 C  
HETATM    6  CA  UNL     1     -11.162  12.155  66.778  1.00  0.00    -0.322 C  
HETATM    7  C   UNL     1     -10.602  15.980  69.077  1.00  0.00    -0.257 C  
HETATM    8  O   UNL     1      -9.744  14.311  66.420  1.00  0.00    -0.277 OA 
HETATM    9  N   UNL     1     -11.187  13.733  68.139  1.00  0.00    -0.259 N  
HETATM   10  OXT UNL     1     -10.936  16.922  69.785  1.00  0.00    -0.231 OA 
HETATM   11  C   UNL     1     -10.560  13.594  66.951  1.00  0.00    -0.271 C  
HETATM   12  O   UNL     1      -9.680  16.173  68.116  1.00  0.00    -0.218 OA 
ENDROOT
BRANCH   4  13
HETATM   13  C   UNL     1     -11.716  14.973  71.634  1.00  0.00    -0.439 C  
HETATM   14  C   UNL     1     -12.693  15.018  72.555  1.00  0.00    -0.440 C  
HETATM   15  C   UNL     1     -12.603  15.793  73.830  1.00  0.00    -0.754 C  
ENDBRANCH   4  13
BRANCH   6  16
HETATM   16  N   UNL     1     -10.207  11.049  67.007  1.00  0.00    -0.203 N  
HETATM   17  H   UNL     1      -9.859  10.914  67.957  1.00  0.00     0.000 HD 
HETATM   18  C   UNL     1      -9.752  10.189  66.035  1.00  0.00    -0.226 C  
HETATM   19  O   UNL     1     -10.162  10.204  64.879  1.00  0.00    -0.300 OA 
BRANCH  18  20
HETATM   20  CA  UNL     1      -8.672   9.210  66.559  1.00  0.00    -0.128 C  
HETATM   21  H2  UNL     1      -7.090  10.469  65.991  1.00  0.00     0.000 HD 
HETATM   22  N   UNL     1      -7.372   9.494  65.887  1.00  0.00    -0.095 NA 
HETATM   23  H1  UNL     1      -6.660   8.850  66.232  1.00  0.00     0.000 HD 
BRANCH  20  24
HETATM   24  C   UNL     1      -9.095   7.763  66.379  1.00  0.00    -0.216 A  
HETATM   25  C   UNL     1      -8.304   6.907  65.596  1.00  0.00    -0.147 A  
HETATM   26  C   UNL     1      -8.680   5.579  65.380  1.00  0.00    -0.148 A  
HETATM   27  C   UNL     1      -9.849   5.096  65.957  1.00  0.00    -0.163 A  
HETATM   28  C   UNL     1     -10.629   5.910  66.768  1.00  0.00    -0.368 A  
HETATM   29  O   UNL     1     -10.272   3.818  65.745  1.00  0.00    -0.419 OA 
HETATM   30  H   UNL     1     -11.070   3.488  66.140  1.00  0.00     0.000 HD 
HETATM   31  C   UNL     1     -10.250   7.236  66.986  1.00  0.00    -0.348 A  
ENDBRANCH  20  24
ENDBRANCH  18  20
ENDBRANCH   6  16
TORSDOF 4
ENDMDL
MODEL       35
REMARK 921   NORMALIZED FREE ENERGY PREDICTED BY IDOCK:   -6.11 KCAL/MOL
REMARK 922        TOTAL FREE ENERGY PREDICTED BY IDOCK:   -8.35 KCAL/MOL
REMARK 923 INTER-LIGAND FREE ENERGY PREDICTED BY IDOCK:   -7.73 KCAL/MOL
REMARK 924 INTRA-LIGAND FREE ENERGY PREDICTED BY IDOCK:   -0.63 KCAL/MOL
REMARK 927      BINDING AFFINITY PREDICTED BY RF-SCORE:    0.00 PKD
ROOT
HETATM    1  C   UNL     1      -8.753   9.867  69.425  1.00  0.00    -0.179 C  
HETATM    2  S   UNL     1     -10.177   9.306  70.388  1.00  0.00    -0.253 SA 
HETATM    3  C   UNL     1      -9.762   7.563  70.193  1.00  0.00    -0.172 C  
HETATM    4  C   UNL     1      -9.414   7.129  68.774  1.00  0.00    -0.141 C  
HETATM    5  CA  UNL     1      -8.989   7.987  67.796  1.00  0.00    -0.132 C  
HETATM    6  CA  UNL     1      -8.908  11.282  68.778  1.00  0.00    -0.102 C  
HETATM    7  C   UNL     1      -8.663   7.469  66.407  1.00  0.00    -0.145 C  
HETATM    8  O   UNL     1      -8.682  10.718  66.246  1.00  0.00    -0.157 OA 
HETATM    9  N   UNL     1      -8.842   9.317  68.086  1.00  0.00    -0.129 N  
HETATM   10  OXT UNL     1      -8.344   6.309  66.179  1.00  0.00    -0.118 OA 
HETATM   11  C   UNL     1      -8.730  10.494  67.433  1.00  0.00    -0.125 C  
HETATM   12  O   UNL     1      -8.717   8.348  65.390  1.00  0.00    -0.175 OA 
ENDROOT
BRANCH   4  13
HETATM   13  C   UNL     1      -9.699   5.701  68.551  1.00  0.00    -0.172 C  
HETATM   14  C   UNL     1      -9.162   4.680  69.240  1.00  0.00    -0.185 C  
HETATM   15  C   UNL     1      -9.521   3.245  69.021  1.00  0.00    -0.187 C  
ENDBRANCH   4  13
BRANCH   6  16
HETATM   16  N   UNL     1     -10.232  11.917  68.959  1.00  0.00    -0.417 N  
HETATM   17  H   UNL     1     -11.013  11.314  69.219  1.00  0.00     0.000 HD 
HETATM   18  C   UNL     1     -10.488  13.258  68.803  1.00  0.00    -0.169 C  
HETATM   19  O   UNL     1      -9.614  14.087  68.573  1.00  0.00    -0.216 OA 
BRANCH  18  20
HETATM   20  CA  UNL     1     -11.993  13.602  68.945  1.00  0.00    -0.356 C  
HETATM   21  H2  UNL     1     -12.172  14.166  66.930  1.00  0.00     0.000 HD 
HETATM   22  N   UNL     1     -12.397  14.534  67.855  1.00  0.00    -0.599 NA 
HETATM   23  H1  UNL     1     -13.388  14.760  67.947  1.00  0.00     0.000 HD 
BRANCH  20  24
HETATM   24  C   UNL     1     -12.310  14.167  70.317  1.00  0.00    -0.421 A  
HETATM   25  C   UNL     1     -11.907  15.475  70.632  1.00  0.00    -0.400 A  
HETATM   26  C   UNL     1     -12.151  16.016  71.897  1.00  0.00    -0.590 A  
HETATM   27  C   UNL     1     -12.811  15.252  72.854  1.00  0.00    -0.438 A  
HETATM   28  C   UNL     1     -13.254  13.971  72.555  1.00  0.00    -0.602 A  
HETATM   29  O   UNL     1     -13.038  15.727  74.110  1.00  0.00    -0.781 OA 
HETATM   30  H   UNL     1     -13.490  15.206  74.763  1.00  0.00     0.000 HD 
HETATM   31  C   UNL     1     -13.013  13.433  71.290  1.00  0.00    -0.368 A  
ENDBRANCH  20  24
ENDBRANCH  18  20
ENDBRANCH   6  16
TORSDOF 4
ENDMDL
MODEL       36
REMARK 921   NORMALIZED FREE ENERGY PREDICTED BY IDOCK:   -6.10 KCAL/MOL
REMARK 922        TOTAL FREE ENERGY PREDICTED BY IDOCK:   -8.34 KCAL/MOL
REMARK 923 INTER-LIGAND FREE ENERGY PREDICTED BY IDOCK:   -8.09 KCAL/MOL
REMARK 924 INTRA-LIGAND FREE ENERGY PREDICTED BY IDOCK:   -0.25 KCAL/MOL
REMARK 927      BINDING AFFINITY PREDICTED BY RF-SCORE:    0.00 PKD
ROOT
HETATM    1  C   UNL     1     -11.345  14.121  67.491  1.00  0.00    -0.322 C  
HETATM    2  S   UNL     1      -9.725  14.149  68.294  1.00  0.00    -0.230 SA 
HETATM    3  C   UNL     1      -9.681  15.948  68.388  1.00  0.00    -0.214 C  
HETATM    4  C   UNL     1     -10.056  16.679  67.104  1.00  0.00    -0.276 C  
HETATM    5  CA  UNL     1     -10.801  16.124  66.100  1.00  0.00    -0.138 C  
HETATM    6  CA  UNL     1     -11.646  12.836  66.653  1.00  0.00    -0.370 C  
HETATM    7  C   UNL     1     -11.130  16.925  64.853  1.00  0.00     0.036 C  
HETATM    8  O   UNL     1     -11.994  13.842  64.277  1.00  0.00    -0.425 OA 
HETATM    9  N   UNL     1     -11.264  14.842  66.236  1.00  0.00    -0.342 N  
HETATM   10  OXT UNL     1     -11.151  18.149  64.826  1.00  0.00    -0.636 OA 
HETATM   11  C   UNL     1     -11.757  13.851  65.461  1.00  0.00    -0.349 C  
HETATM   12  O   UNL     1     -11.425  16.237  63.735  1.00  0.00    -0.888 OA 
ENDROOT
BRANCH   4  13
HETATM   13  C   UNL     1      -9.428  18.009  67.026  1.00  0.00    -0.273 C  
HETATM   14  C   UNL     1      -9.803  19.093  67.726  1.00  0.00    -0.412 C  
HETATM   15  C   UNL     1      -9.102  20.412  67.661  1.00  0.00    -0.393 C  
ENDBRANCH   4  13
BRANCH   6  16
HETATM   16  N   UNL     1     -10.528  11.873  66.550  1.00  0.00    -0.216 N  
HETATM   17  H   UNL     1      -9.888  11.807  67.342  1.00  0.00     0.000 HD 
HETATM   18  C   UNL     1     -10.285  11.062  65.467  1.00  0.00    -0.268 C  
HETATM   19  O   UNL     1     -11.032  10.997  64.496  1.00  0.00    -0.270 OA 
BRANCH  18  20
HETATM   20  CA  UNL     1      -8.974  10.249  65.609  1.00  0.00    -0.172 C  
HETATM   21  H2  UNL     1      -7.993  11.352  64.114  1.00  0.00     0.000 HD 
HETATM   22  N   UNL     1      -8.170  10.377  64.360  1.00  0.00    -0.246 NA 
HETATM   23  H1  UNL     1      -7.306   9.842  64.453  1.00  0.00     0.000 HD 
BRANCH  20  24
HETATM   24  C   UNL     1      -9.251   8.797  65.954  1.00  0.00    -0.282 A  
HETATM   25  C   UNL     1      -8.413   7.795  65.439  1.00  0.00    -0.124 A  
HETATM   26  C   UNL     1      -8.658   6.446  65.708  1.00  0.00    -0.152 A  
HETATM   27  C   UNL     1      -9.742   6.092  66.504  1.00  0.00    -0.149 A  
HETATM   28  C   UNL     1     -10.563   7.064  67.057  1.00  0.00    -0.412 A  
HETATM   29  O   UNL     1     -10.038   4.787  66.762  1.00  0.00    -0.208 OA 
HETATM   30  H   UNL     1     -10.778   4.546  67.306  1.00  0.00     0.000 HD 
HETATM   31  C   UNL     1     -10.315   8.413  66.790  1.00  0.00    -0.357 A  
ENDBRANCH  20  24
ENDBRANCH  18  20
ENDBRANCH   6  16
TORSDOF 4
ENDMDL
MODEL       37
REMARK 921   NORMALIZED FREE ENERGY PREDICTED BY IDOCK:   -6.09 KCAL/MOL
REMARK 922        TOTAL FREE ENERGY PREDICTED BY IDOCK:   -8.33 KCAL/MOL
REMARK 923 INTER-LIGAND FREE ENERGY PREDICTED BY IDOCK:   -7.75 KCAL/MOL
REMARK 924 INTRA-LIGAND FREE ENERGY PREDICTED BY IDOCK:   -0.58 KCAL/MOL
REMARK 927      BINDING AFFINITY PREDICTED BY RF-SCORE:    0.00 PKD
ROOT
HETATM    1  C   UNL     1     -11.011   8.990  69.029  1.00  0.00     0.027 C  
HETATM    2  S   UNL     1     -10.499   9.121  67.299  1.00  0.00    -0.236 SA 
HETATM    3  C   UNL     1     -10.408   7.335  67.077  1.00  0.00    -0.306 C  
HETATM    4  C   UNL     1      -9.671   6.576  68.174  1.00  0.00    -0.126 C  
HETATM    5  CA  UNL     1      -9.480   7.059  69.440  1.00  0.00    -0.145 C  
HETATM    6  CA  UNL     1     -10.694  10.242  69.910  1.00  0.00    -0.294 C  
HETATM    7  C   UNL     1      -8.734   6.234  70.473  1.00  0.00    -0.143 C  
HETATM    8  O   UNL     1      -9.119   9.218  71.712  1.00  0.00    -0.303 OA 
HETATM    9  N   UNL     1      -9.986   8.287  69.774  1.00  0.00    -0.188 N  
HETATM   10  OXT UNL     1      -8.640   5.015  70.421  1.00  0.00    -0.104 OA 
HETATM   11  C   UNL     1      -9.825   9.227  70.731  1.00  0.00    -0.283 C  
HETATM   12  O   UNL     1      -8.165   6.895  71.498  1.00  0.00    -0.109 OA 
ENDROOT
BRANCH   4  13
HETATM   13  C   UNL     1      -9.092   5.316  67.677  1.00  0.00    -0.113 C  
HETATM   14  C   UNL     1      -9.721   4.422  66.895  1.00  0.00    -0.233 C  
HETATM   15  C   UNL     1      -9.079   3.181  66.363  1.00  0.00    -0.164 C  
ENDBRANCH   4  13
BRANCH   6  16
HETATM   16  N   UNL     1      -9.930  11.313  69.232  1.00  0.00    -0.428 N  
HETATM   17  H   UNL     1      -8.934  11.156  69.077  1.00  0.00     0.000 HD 
HETATM   18  C   UNL     1     -10.462  12.503  68.796  1.00  0.00    -0.144 C  
HETATM   19  O   UNL     1     -11.658  12.766  68.855  1.00  0.00    -0.274 OA 
BRANCH  18  20
HETATM   20  CA  UNL     1      -9.389  13.468  68.231  1.00  0.00    -0.205 C  
HETATM   21  H2  UNL     1      -8.553  13.831  70.124  1.00  0.00     0.000 HD 
HETATM   22  N   UNL     1      -8.895  14.359  69.320  1.00  0.00    -0.383 NA 
HETATM   23  H1  UNL     1      -8.188  14.994  68.949  1.00  0.00     0.000 HD 
BRANCH  20  24
HETATM   24  C   UNL     1      -9.917  14.261  67.050  1.00  0.00    -0.258 A  
HETATM   25  C   UNL     1      -9.879  15.664  67.091  1.00  0.00    -0.229 A  
HETATM   26  C   UNL     1     -10.388  16.427  66.037  1.00  0.00    -0.365 A  
HETATM   27  C   UNL     1     -10.930  15.787  64.927  1.00  0.00    -0.427 A  
HETATM   28  C   UNL     1     -10.944  14.402  64.845  1.00  0.00    -0.416 A  
HETATM   29  O   UNL     1     -11.468  16.492  63.893  1.00  0.00    -1.608 OA 
HETATM   30  H   UNL     1     -11.839  16.055  63.135  1.00  0.00     0.000 HD 
HETATM   31  C   UNL     1     -10.433  13.641  65.897  1.00  0.00    -0.297 A  
ENDBRANCH  20  24
ENDBRANCH  18  20
ENDBRANCH   6  16
TORSDOF 4
ENDMDL
MODEL       38
REMARK 921   NORMALIZED FREE ENERGY PREDICTED BY IDOCK:   -6.05 KCAL/MOL
REMARK 922        TOTAL FREE ENERGY PREDICTED BY IDOCK:   -8.28 KCAL/MOL
REMARK 923 INTER-LIGAND FREE ENERGY PREDICTED BY IDOCK:   -7.57 KCAL/MOL
REMARK 924 INTRA-LIGAND FREE ENERGY PREDICTED BY IDOCK:   -0.71 KCAL/MOL
REMARK 927      BINDING AFFINITY PREDICTED BY RF-SCORE:    0.00 PKD
ROOT
HETATM    1  C   UNL     1     -10.129  11.663  66.980  1.00  0.00    -0.209 C  
HETATM    2  S   UNL     1     -11.162  11.900  68.446  1.00  0.00    -0.285 SA 
HETATM    3  C   UNL     1     -11.147  13.696  68.301  1.00  0.00    -0.256 C  
HETATM    4  C   UNL     1      -9.777  14.321  68.060  1.00  0.00    -0.223 C  
HETATM    5  CA  UNL     1      -8.710  13.642  67.538  1.00  0.00    -0.198 C  
HETATM    6  CA  UNL     1      -9.339  10.314  66.939  1.00  0.00    -0.158 C  
HETATM    7  C   UNL     1      -7.380  14.344  67.330  1.00  0.00    -0.142 C  
HETATM    8  O   UNL     1      -6.878  11.163  66.868  1.00  0.00    -0.108 OA 
HETATM    9  N   UNL     1      -8.857  12.327  67.186  1.00  0.00    -0.188 N  
HETATM   10  OXT UNL     1      -7.272  15.556  67.195  1.00  0.00    -0.209 OA 
HETATM   11  C   UNL     1      -8.082  11.254  66.917  1.00  0.00    -0.155 C  
HETATM   12  O   UNL     1      -6.277  13.575  67.280  1.00  0.00    -0.313 OA 
ENDROOT
BRANCH   4  13
HETATM   13  C   UNL     1      -9.709  15.705  68.561  1.00  0.00    -0.202 C  
HETATM   14  C   UNL     1     -10.374  16.755  68.050  1.00  0.00    -0.317 C  
HETATM   15  C   UNL     1     -10.323  18.134  68.623  1.00  0.00    -0.315 C  
ENDBRANCH   4  13
BRANCH   6  16
HETATM   16  N   UNL     1      -9.466   9.471  68.148  1.00  0.00    -0.133 N  
HETATM   17  H   UNL     1      -9.031   9.809  69.007  1.00  0.00     0.000 HD 
HETATM   18  C   UNL     1     -10.127   8.267  68.201  1.00  0.00    -0.200 C  
HETATM   19  O   UNL     1     -10.755   7.803  67.255  1.00  0.00    -0.307 OA 
BRANCH  18  20
HETATM   20  CA  UNL     1      -9.987   7.566  69.576  1.00  0.00    -0.180 C  
HETATM   21  H2  UNL     1      -9.148   5.833  68.736  1.00  0.00     0.000 HD 
HETATM   22  N   UNL     1      -9.899   6.091  69.378  1.00  0.00    -0.157 NA 
HETATM   23  H1  UNL     1      -9.806   5.629  70.283  1.00  0.00     0.000 HD 
BRANCH  20  24
HETATM   24  C   UNL     1     -11.120   7.942  70.513  1.00  0.00    -0.260 A  
HETATM   25  C   UNL     1     -12.137   7.009  70.773  1.00  0.00    -0.374 A  
HETATM   26  C   UNL     1     -13.214   7.333  71.602  1.00  0.00    -0.421 A  
HETATM   27  C   UNL     1     -13.274   8.594  72.186  1.00  0.00    -0.383 A  
HETATM   28  C   UNL     1     -12.262   9.521  71.977  1.00  0.00    -0.370 A  
HETATM   29  O   UNL     1     -14.322   8.963  72.973  1.00  0.00    -1.115 OA 
HETATM   30  H   UNL     1     -14.363   9.824  73.372  1.00  0.00     0.000 HD 
HETATM   31  C   UNL     1     -11.185   9.195  71.150  1.00  0.00    -0.395 A  
ENDBRANCH  20  24
ENDBRANCH  18  20
ENDBRANCH   6  16
TORSDOF 4
ENDMDL
MODEL       39
REMARK 921   NORMALIZED FREE ENERGY PREDICTED BY IDOCK:   -6.03 KCAL/MOL
REMARK 922        TOTAL FREE ENERGY PREDICTED BY IDOCK:   -8.25 KCAL/MOL
REMARK 923 INTER-LIGAND FREE ENERGY PREDICTED BY IDOCK:   -7.49 KCAL/MOL
REMARK 924 INTRA-LIGAND FREE ENERGY PREDICTED BY IDOCK:   -0.77 KCAL/MOL
REMARK 927      BINDING AFFINITY PREDICTED BY RF-SCORE:    0.00 PKD
ROOT
HETATM    1  C   UNL     1     -11.971  13.746  68.091  1.00  0.00    -0.358 C  
HETATM    2  S   UNL     1     -10.479  12.759  67.822  1.00  0.00    -0.227 SA 
HETATM    3  C   UNL     1     -11.182  11.287  68.588  1.00  0.00    -0.250 C  
HETATM    4  C   UNL     1     -11.876  11.514  69.926  1.00  0.00    -0.430 C  
HETATM    5  CA  UNL     1     -12.360  12.726  70.339  1.00  0.00    -0.247 C  
HETATM    6  CA  UNL     1     -11.743  15.292  68.134  1.00  0.00    -0.279 C  
HETATM    7  C   UNL     1     -13.039  12.863  71.690  1.00  0.00    -0.335 C  
HETATM    8  O   UNL     1     -12.567  15.867  70.536  1.00  0.00    -0.377 OA 
HETATM    9  N   UNL     1     -12.243  13.813  69.514  1.00  0.00    -0.325 N  
HETATM   10  OXT UNL     1     -13.567  11.927  72.275  1.00  0.00    -0.364 OA 
HETATM   11  C   UNL     1     -12.310  15.160  69.591  1.00  0.00    -0.207 C  
HETATM   12  O   UNL     1     -13.064  14.087  72.248  1.00  0.00    -0.376 OA 
ENDROOT
BRANCH   4  13
HETATM   13  C   UNL     1     -11.860  10.304  70.766  1.00  0.00    -0.459 C  
HETATM   14  C   UNL     1     -10.759   9.670  71.203  1.00  0.00    -0.365 C  
HETATM   15  C   UNL     1     -10.785   8.475  72.102  1.00  0.00    -0.426 C  
ENDBRANCH   4  13
BRANCH   6  16
HETATM   16  N   UNL     1     -10.330  15.724  68.051  1.00  0.00    -0.246 N  
HETATM   17  H   UNL     1      -9.668  15.301  68.703  1.00  0.00     0.000 HD 
HETATM   18  C   UNL     1      -9.842  16.652  67.162  1.00  0.00    -0.257 C  
HETATM   19  O   UNL     1     -10.526  17.163  66.281  1.00  0.00    -0.319 OA 
BRANCH  18  20
HETATM   20  CA  UNL     1      -8.346  16.979  67.398  1.00  0.00    -0.191 C  
HETATM   21  H2  UNL     1      -8.215  18.168  65.671  1.00  0.00     0.000 HD 
HETATM   22  N   UNL     1      -7.717  17.394  66.111  1.00  0.00    -0.431 NA 
HETATM   23  H1  UNL     1      -6.732  17.610  66.266  1.00  0.00     0.000 HD 
BRANCH  20  24
HETATM   24  C   UNL     1      -7.612  15.812  68.033  1.00  0.00    -0.134 A  
HETATM   25  C   UNL     1      -7.311  14.682  67.256  1.00  0.00    -0.122 A  
HETATM   26  C   UNL     1      -6.668  13.576  67.816  1.00  0.00    -0.173 A  
HETATM   27  C   UNL     1      -6.312  13.598  69.161  1.00  0.00    -0.103 A  
HETATM   28  C   UNL     1      -6.563  14.718  69.942  1.00  0.00    -0.175 A  
HETATM   29  O   UNL     1      -5.715  12.529  69.756  1.00  0.00    -0.090 OA 
HETATM   30  H   UNL     1      -5.471  12.545  70.674  1.00  0.00     0.000 HD 
HETATM   31  C   UNL     1      -7.203  15.825  69.380  1.00  0.00    -0.217 A  
ENDBRANCH  20  24
ENDBRANCH  18  20
ENDBRANCH   6  16
TORSDOF 4
ENDMDL
MODEL       40
REMARK 921   NORMALIZED FREE ENERGY PREDICTED BY IDOCK:   -5.99 KCAL/MOL
REMARK 922        TOTAL FREE ENERGY PREDICTED BY IDOCK:   -8.20 KCAL/MOL
REMARK 923 INTER-LIGAND FREE ENERGY PREDICTED BY IDOCK:   -7.78 KCAL/MOL
REMARK 924 INTRA-LIGAND FREE ENERGY PREDICTED BY IDOCK:   -0.42 KCAL/MOL
REMARK 927      BINDING AFFINITY PREDICTED BY RF-SCORE:    0.00 PKD
ROOT
HETATM    1  C   UNL     1     -11.134   8.023  70.213  1.00  0.00    -0.224 C  
HETATM    2  S   UNL     1     -10.885   7.769  68.439  1.00  0.00     0.162 SA 
HETATM    3  C   UNL     1     -10.714   5.983  68.607  1.00  0.00    -0.297 C  
HETATM    4  C   UNL     1      -9.780   5.517  69.719  1.00  0.00    -0.236 C  
HETATM    5  CA  UNL     1      -9.440   6.283  70.801  1.00  0.00    -0.172 C  
HETATM    6  CA  UNL     1     -10.774   9.452  70.734  1.00  0.00    -0.305 C  
HETATM    7  C   UNL     1      -8.502   5.739  71.863  1.00  0.00    -0.127 C  
HETATM    8  O   UNL     1      -8.894   8.914  72.453  1.00  0.00    -0.396 OA 
HETATM    9  N   UNL     1      -9.970   7.540  70.928  1.00  0.00    -0.181 N  
HETATM   10  OXT UNL     1      -8.339   4.543  72.069  1.00  0.00    -0.108 OA 
HETATM   11  C   UNL     1      -9.733   8.678  71.615  1.00  0.00    -0.278 C  
HETATM   12  O   UNL     1      -7.835   6.633  72.615  1.00  0.00    -0.101 OA 
ENDROOT
BRANCH   4  13
HETATM   13  C   UNL     1      -9.200   4.194  69.430  1.00  0.00    -0.210 C  
HETATM   14  C   UNL     1      -9.197   3.586  68.232  1.00  0.00    -0.225 C  
HETATM   15  C   UNL     1      -8.546   2.267  67.967  1.00  0.00    -0.109 C  
ENDBRANCH   4  13
BRANCH   6  16
HETATM   16  N   UNL     1     -10.185  10.361  69.726  1.00  0.00    -0.374 N  
HETATM   17  H   UNL     1      -9.167  10.406  69.668  1.00  0.00     0.000 HD 
HETATM   18  C   UNL     1     -10.906  11.149  68.861  1.00  0.00    -0.216 C  
HETATM   19  O   UNL     1     -12.130  11.117  68.784  1.00  0.00    -0.522 OA 
BRANCH  18  20
HETATM   20  CA  UNL     1     -10.008  12.078  68.005  1.00  0.00    -0.197 C  
HETATM   21  H2  UNL     1      -9.106  12.949  69.690  1.00  0.00     0.000 HD 
HETATM   22  N   UNL     1      -9.566  13.241  68.827  1.00  0.00    -0.410 NA 
HETATM   23  H1  UNL     1      -8.974  13.852  68.264  1.00  0.00     0.000 HD 
BRANCH  20  24
HETATM   24  C   UNL     1     -10.711  12.520  66.735  1.00  0.00    -0.261 A  
HETATM   25  C   UNL     1     -10.619  11.721  65.584  1.00  0.00    -0.314 A  
HETATM   26  C   UNL     1     -11.224  12.114  64.387  1.00  0.00    -0.400 A  
HETATM   27  C   UNL     1     -11.936  13.307  64.339  1.00  0.00    -0.406 A  
HETATM   28  C   UNL     1     -12.075  14.096  65.473  1.00  0.00    -0.421 A  
HETATM   29  O   UNL     1     -12.512  13.745  63.185  1.00  0.00    -1.089 OA 
HETATM   30  H   UNL     1     -12.999  14.560  63.152  1.00  0.00     0.000 HD 
HETATM   31  C   UNL     1     -11.473  13.701  66.669  1.00  0.00    -0.365 A  
ENDBRANCH  20  24
ENDBRANCH  18  20
ENDBRANCH   6  16
TORSDOF 4
ENDMDL
MODEL       41
REMARK 921   NORMALIZED FREE ENERGY PREDICTED BY IDOCK:   -5.99 KCAL/MOL
REMARK 922        TOTAL FREE ENERGY PREDICTED BY IDOCK:   -8.20 KCAL/MOL
REMARK 923 INTER-LIGAND FREE ENERGY PREDICTED BY IDOCK:   -7.69 KCAL/MOL
REMARK 924 INTRA-LIGAND FREE ENERGY PREDICTED BY IDOCK:   -0.50 KCAL/MOL
REMARK 927      BINDING AFFINITY PREDICTED BY RF-SCORE:    0.00 PKD
ROOT
HETATM    1  C   UNL     1     -11.850  14.828  68.191  1.00  0.00    -0.287 C  
HETATM    2  S   UNL     1     -10.472  14.913  69.360  1.00  0.00    -0.192 SA 
HETATM    3  C   UNL     1     -10.372  16.711  69.280  1.00  0.00    -0.318 C  
HETATM    4  C   UNL     1     -10.393  17.305  67.877  1.00  0.00    -0.360 C  
HETATM    5  CA  UNL     1     -10.897  16.658  66.781  1.00  0.00    -0.037 C  
HETATM    6  CA  UNL     1     -11.996  13.466  67.438  1.00  0.00    -0.346 C  
HETATM    7  C   UNL     1     -10.878  17.325  65.418  1.00  0.00    -0.021 C  
HETATM    8  O   UNL     1     -11.713  14.215  64.960  1.00  0.00    -0.343 OA 
HETATM    9  N   UNL     1     -11.435  15.407  66.928  1.00  0.00    -0.155 N  
HETATM   10  OXT UNL     1     -10.838  18.539  65.264  1.00  0.00    -0.606 OA 
HETATM   11  C   UNL     1     -11.770  14.347  66.160  1.00  0.00    -0.378 C  
HETATM   12  O   UNL     1     -10.925  16.526  64.337  1.00  0.00    -0.872 OA 
ENDROOT
BRANCH   4  13
HETATM   13  C   UNL     1      -9.707  18.607  67.821  1.00  0.00    -0.344 C  
HETATM   14  C   UNL     1      -8.378  18.794  67.891  1.00  0.00    -0.300 C  
HETATM   15  C   UNL     1      -7.715  20.129  67.773  1.00  0.00    -0.321 C  
ENDBRANCH   4  13
BRANCH   6  16
HETATM   16  N   UNL     1     -10.929  12.477  67.710  1.00  0.00    -0.225 N  
HETATM   17  H   UNL     1      -9.964  12.766  67.546  1.00  0.00     0.000 HD 
HETATM   18  C   UNL     1     -11.141  11.198  68.168  1.00  0.00    -0.264 C  
HETATM   19  O   UNL     1     -12.247  10.770  68.478  1.00  0.00    -0.470 OA 
BRANCH  18  20
HETATM   20  CA  UNL     1      -9.836  10.365  68.245  1.00  0.00    -0.154 C  
HETATM   21  H2  UNL     1      -9.309  10.795  66.257  1.00  0.00     0.000 HD 
HETATM   22  N   UNL     1      -9.405   9.984  66.870  1.00  0.00    -0.156 NA 
HETATM   23  H1  UNL     1      -8.546   9.436  66.919  1.00  0.00     0.000 HD 
BRANCH  20  24
HETATM   24  C   UNL     1     -10.000   9.152  69.141  1.00  0.00    -0.189 A  
HETATM   25  C   UNL     1      -9.862   7.867  68.592  1.00  0.00    -0.177 A  
HETATM   26  C   UNL     1     -10.040   6.726  69.380  1.00  0.00    -0.183 A  
HETATM   27  C   UNL     1     -10.349   6.867  70.728  1.00  0.00    -0.203 A  
HETATM   28  C   UNL     1     -10.452   8.125  71.305  1.00  0.00    -0.254 A  
HETATM   29  O   UNL     1     -10.565   5.783  71.525  1.00  0.00    -0.229 OA 
HETATM   30  H   UNL     1     -10.775   5.879  72.446  1.00  0.00     0.000 HD 
HETATM   31  C   UNL     1     -10.271   9.264  70.517  1.00  0.00    -0.309 A  
ENDBRANCH  20  24
ENDBRANCH  18  20
ENDBRANCH   6  16
TORSDOF 4
ENDMDL
MODEL       42
REMARK 921   NORMALIZED FREE ENERGY PREDICTED BY IDOCK:   -5.96 KCAL/MOL
REMARK 922        TOTAL FREE ENERGY PREDICTED BY IDOCK:   -8.16 KCAL/MOL
REMARK 923 INTER-LIGAND FREE ENERGY PREDICTED BY IDOCK:   -7.71 KCAL/MOL
REMARK 924 INTRA-LIGAND FREE ENERGY PREDICTED BY IDOCK:   -0.45 KCAL/MOL
REMARK 927      BINDING AFFINITY PREDICTED BY RF-SCORE:    0.00 PKD
ROOT
HETATM    1  C   UNL     1     -11.036  10.088  68.869  1.00  0.00    -0.207 C  
HETATM    2  S   UNL     1      -9.232  10.211  68.817  1.00  0.00    -0.173 SA 
HETATM    3  C   UNL     1      -8.991   8.524  69.403  1.00  0.00    -0.149 C  
HETATM    4  C   UNL     1      -9.827   8.128  70.615  1.00  0.00    -0.196 C  
HETATM    5  CA  UNL     1     -10.984   8.758  70.983  1.00  0.00    -0.268 C  
HETATM    6  CA  UNL     1     -11.788  11.452  69.003  1.00  0.00    -0.348 C  
HETATM    7  C   UNL     1     -11.755   8.296  72.207  1.00  0.00    -0.388 C  
HETATM    8  O   UNL     1     -13.056  11.121  71.253  1.00  0.00    -0.366 OA 
HETATM    9  N   UNL     1     -11.451   9.800  70.228  1.00  0.00    -0.260 N  
HETATM   10  OXT UNL     1     -11.677   7.163  72.663  1.00  0.00    -0.234 OA 
HETATM   11  C   UNL     1     -12.322  10.827  70.340  1.00  0.00    -0.353 C  
HETATM   12  O   UNL     1     -12.572   9.188  72.796  1.00  0.00    -0.234 OA 
ENDROOT
BRANCH   4  13
HETATM   13  C   UNL     1      -9.181   7.063  71.402  1.00  0.00    -0.151 C  
HETATM   14  C   UNL     1      -7.966   7.137  71.969  1.00  0.00    -0.092 C  
HETATM   15  C   UNL     1      -7.369   6.054  72.810  1.00  0.00    -0.090 C  
ENDBRANCH   4  13
BRANCH   6  16
HETATM   16  N   UNL     1     -10.920  12.638  69.171  1.00  0.00    -0.414 N  
HETATM   17  H   UNL     1     -10.007  12.497  69.605  1.00  0.00     0.000 HD 
HETATM   18  C   UNL     1     -11.251  13.916  68.787  1.00  0.00    -0.272 C  
HETATM   19  O   UNL     1     -12.282  14.190  68.183  1.00  0.00    -0.306 OA 
BRANCH  18  20
HETATM   20  CA  UNL     1     -10.185  14.961  69.201  1.00  0.00    -0.242 C  
HETATM   21  H2  UNL     1     -10.377  14.518  71.245  1.00  0.00     0.000 HD 
HETATM   22  N   UNL     1     -10.379  15.333  70.631  1.00  0.00    -0.457 NA 
HETATM   23  H1  UNL     1      -9.677  16.021  70.905  1.00  0.00     0.000 HD 
BRANCH  20  24
HETATM   24  C   UNL     1     -10.213  16.178  68.294  1.00  0.00    -0.248 A  
HETATM   25  C   UNL     1     -10.328  17.457  68.861  1.00  0.00    -0.340 A  
HETATM   26  C   UNL     1     -10.392  18.597  68.055  1.00  0.00    -0.421 A  
HETATM   27  C   UNL     1     -10.331  18.462  66.672  1.00  0.00    -0.396 A  
HETATM   28  C   UNL     1     -10.178  17.213  66.087  1.00  0.00    -0.343 A  
HETATM   29  O   UNL     1     -10.424  19.543  65.848  1.00  0.00    -0.493 OA 
HETATM   30  H   UNL     1     -10.382  19.451  64.903  1.00  0.00     0.000 HD 
HETATM   31  C   UNL     1     -10.111  16.075  66.894  1.00  0.00    -0.266 A  
ENDBRANCH  20  24
ENDBRANCH  18  20
ENDBRANCH   6  16
TORSDOF 4
ENDMDL
MODEL       43
REMARK 921   NORMALIZED FREE ENERGY PREDICTED BY IDOCK:   -5.95 KCAL/MOL
REMARK 922        TOTAL FREE ENERGY PREDICTED BY IDOCK:   -8.15 KCAL/MOL
REMARK 923 INTER-LIGAND FREE ENERGY PREDICTED BY IDOCK:   -7.53 KCAL/MOL
REMARK 924 INTRA-LIGAND FREE ENERGY PREDICTED BY IDOCK:   -0.62 KCAL/MOL
REMARK 927      BINDING AFFINITY PREDICTED BY RF-SCORE:    0.00 PKD
ROOT
HETATM    1  C   UNL     1      -9.693  11.605  67.647  1.00  0.00    -0.180 C  
HETATM    2  S   UNL     1      -9.182   9.937  68.122  1.00  0.00    -0.128 SA 
HETATM    3  C   UNL     1      -8.234   9.679  66.612  1.00  0.00    -0.120 C  
HETATM    4  C   UNL     1      -8.946  10.063  65.320  1.00  0.00    -0.220 C  
HETATM    5  CA  UNL     1      -9.994  10.940  65.258  1.00  0.00    -0.273 C  
HETATM    6  CA  UNL     1     -11.005  12.115  68.328  1.00  0.00    -0.234 C  
HETATM    7  C   UNL     1     -10.645  11.267  63.926  1.00  0.00    -0.391 C  
HETATM    8  O   UNL     1     -12.533  12.522  66.259  1.00  0.00    -0.475 OA 
HETATM    9  N   UNL     1     -10.441  11.536  66.407  1.00  0.00    -0.241 N  
HETATM   10  OXT UNL     1     -10.073  11.149  62.850  1.00  0.00    -0.283 OA 
HETATM   11  C   UNL     1     -11.532  12.197  66.852  1.00  0.00    -0.351 C  
HETATM   12  O   UNL     1     -11.911  11.723  63.951  1.00  0.00    -0.396 OA 
ENDROOT
BRANCH   4  13
HETATM   13  C   UNL     1      -8.446   9.293  64.168  1.00  0.00    -0.203 C  
HETATM   14  C   UNL     1      -7.783   8.126  64.235  1.00  0.00    -0.128 C  
HETATM   15  C   UNL     1      -7.342   7.346  63.038  1.00  0.00    -0.089 C  
ENDBRANCH   4  13
BRANCH   6  16
HETATM   16  N   UNL     1     -11.698  11.125  69.183  1.00  0.00    -0.311 N  
HETATM   17  H   UNL     1     -11.809  10.180  68.815  1.00  0.00     0.000 HD 
HETATM   18  C   UNL     1     -12.202  11.384  70.435  1.00  0.00    -0.362 C  
HETATM   19  O   UNL     1     -12.054  12.458  71.010  1.00  0.00    -0.222 OA 
BRANCH  18  20
HETATM   20  CA  UNL     1     -12.973  10.180  71.032  1.00  0.00    -0.385 C  
HETATM   21  H2  UNL     1     -14.232  11.408  72.180  1.00  0.00     0.000 HD 
HETATM   22  N   UNL     1     -13.634  10.591  72.304  1.00  0.00    -0.506 NA 
HETATM   23  H1  UNL     1     -14.142   9.798  72.697  1.00  0.00     0.000 HD 
BRANCH  20  24
HETATM   24  C   UNL     1     -12.068   8.979  71.229  1.00  0.00    -0.375 A  
HETATM   25  C   UNL     1     -12.608   7.686  71.135  1.00  0.00    -0.257 A  
HETATM   26  C   UNL     1     -11.812   6.558  71.345  1.00  0.00    -0.384 A  
HETATM   27  C   UNL     1     -10.462   6.717  71.642  1.00  0.00    -0.207 A  
HETATM   28  C   UNL     1      -9.894   7.982  71.702  1.00  0.00    -0.223 A  
HETATM   29  O   UNL     1      -9.657   5.646  71.888  1.00  0.00    -0.151 OA 
HETATM   30  H   UNL     1      -8.736   5.755  72.090  1.00  0.00     0.000 HD 
HETATM   31  C   UNL     1     -10.691   9.109  71.489  1.00  0.00    -0.437 A  
ENDBRANCH  20  24
ENDBRANCH  18  20
ENDBRANCH   6  16
TORSDOF 4
ENDMDL
MODEL       44
REMARK 921   NORMALIZED FREE ENERGY PREDICTED BY IDOCK:   -5.90 KCAL/MOL
REMARK 922        TOTAL FREE ENERGY PREDICTED BY IDOCK:   -8.10 KCAL/MOL
REMARK 923 INTER-LIGAND FREE ENERGY PREDICTED BY IDOCK:   -7.36 KCAL/MOL
REMARK 924 INTRA-LIGAND FREE ENERGY PREDICTED BY IDOCK:   -0.74 KCAL/MOL
REMARK 927      BINDING AFFINITY PREDICTED BY RF-SCORE:    0.00 PKD
ROOT
HETATM    1  C   UNL     1     -10.680  11.703  66.972  1.00  0.00    -0.253 C  
HETATM    2  S   UNL     1      -8.879  11.550  67.054  1.00  0.00    -0.179 SA 
HETATM    3  C   UNL     1      -8.941  10.096  68.117  1.00  0.00    -0.122 C  
HETATM    4  C   UNL     1      -9.887  10.197  69.309  1.00  0.00    -0.235 C  
HETATM    5  CA  UNL     1     -10.943  11.064  69.374  1.00  0.00    -0.248 C  
HETATM    6  CA  UNL     1     -11.208  13.137  66.642  1.00  0.00    -0.304 C  
HETATM    7  C   UNL     1     -11.836  11.098  70.601  1.00  0.00    -0.302 C  
HETATM    8  O   UNL     1     -12.617  13.668  68.766  1.00  0.00     0.063 OA 
HETATM    9  N   UNL     1     -11.200  11.891  68.312  1.00  0.00    -0.239 N  
HETATM   10  OXT UNL     1     -11.963  10.152  71.367  1.00  0.00    -0.369 OA 
HETATM   11  C   UNL     1     -11.897  13.017  68.046  1.00  0.00    -0.347 C  
HETATM   12  O   UNL     1     -12.525  12.230  70.834  1.00  0.00    -0.371 OA 
ENDROOT
BRANCH   4  13
HETATM   13  C   UNL     1      -9.460   9.333  70.423  1.00  0.00    -0.292 C  
HETATM   14  C   UNL     1      -8.887   8.124  70.299  1.00  0.00    -0.141 C  
HETATM   15  C   UNL     1      -8.414   7.302  71.455  1.00  0.00    -0.113 C  
ENDBRANCH   4  13
BRANCH   6  16
HETATM   16  N   UNL     1     -10.169  14.185  66.545  1.00  0.00    -0.272 N  
HETATM   17  H   UNL     1      -9.372  14.121  67.180  1.00  0.00     0.000 HD 
HETATM   18  C   UNL     1     -10.195  15.239  65.663  1.00  0.00    -0.372 C  
HETATM   19  O   UNL     1     -11.056  15.373  64.801  1.00  0.00    -0.416 OA 
BRANCH  18  20
HETATM   20  CA  UNL     1      -9.026  16.233  65.881  1.00  0.00    -0.186 C  
HETATM   21  H2  UNL     1      -7.585  14.706  65.929  1.00  0.00     0.000 HD 
HETATM   22  N   UNL     1      -7.866  15.515  66.483  1.00  0.00    -0.262 NA 
HETATM   23  H1  UNL     1      -7.096  16.169  66.627  1.00  0.00     0.000 HD 
BRANCH  20  24
HETATM   24  C   UNL     1      -9.452  17.421  66.724  1.00  0.00    -0.282 A  
HETATM   25  C   UNL     1      -9.303  17.364  68.119  1.00  0.00    -0.277 A  
HETATM   26  C   UNL     1      -9.716  18.425  68.929  1.00  0.00    -0.318 A  
HETATM   27  C   UNL     1     -10.275  19.557  68.344  1.00  0.00    -0.431 A  
HETATM   28  C   UNL     1     -10.398  19.654  66.965  1.00  0.00    -0.581 A  
HETATM   29  O   UNL     1     -10.723  20.599  69.098  1.00  0.00    -0.150 OA 
HETATM   30  H   UNL     1     -11.104  21.372  68.698  1.00  0.00     0.000 HD 
HETATM   31  C   UNL     1      -9.981  18.595  66.156  1.00  0.00    -0.355 A  
ENDBRANCH  20  24
ENDBRANCH  18  20
ENDBRANCH   6  16
TORSDOF 4
ENDMDL
MODEL       45
REMARK 921   NORMALIZED FREE ENERGY PREDICTED BY IDOCK:   -5.90 KCAL/MOL
REMARK 922        TOTAL FREE ENERGY PREDICTED BY IDOCK:   -8.09 KCAL/MOL
REMARK 923 INTER-LIGAND FREE ENERGY PREDICTED BY IDOCK:   -7.35 KCAL/MOL
REMARK 924 INTRA-LIGAND FREE ENERGY PREDICTED BY IDOCK:   -0.75 KCAL/MOL
REMARK 927      BINDING AFFINITY PREDICTED BY RF-SCORE:    0.00 PKD
ROOT
HETATM    1  C   UNL     1      -9.039   7.708  72.579  1.00  0.00    -0.155 C  
HETATM    2  S   UNL     1     -10.702   7.500  73.259  1.00  0.00    -0.316 SA 
HETATM    3  C   UNL     1     -10.352   5.856  73.907  1.00  0.00    -0.277 C  
HETATM    4  C   UNL     1      -9.656   4.907  72.937  1.00  0.00    -0.159 C  
HETATM    5  CA  UNL     1      -8.931   5.320  71.853  1.00  0.00    -0.135 C  
HETATM    6  CA  UNL     1      -8.929   8.729  71.400  1.00  0.00    -0.238 C  
HETATM    7  C   UNL     1      -8.269   4.304  70.939  1.00  0.00    -0.079 C  
HETATM    8  O   UNL     1      -8.055   7.203  69.479  1.00  0.00    -0.125 OA 
HETATM    9  N   UNL     1      -8.791   6.660  71.608  1.00  0.00    -0.134 N  
HETATM   10  OXT UNL     1      -7.969   3.172  71.295  1.00  0.00    -0.056 OA 
HETATM   11  C   UNL     1      -8.437   7.477  70.592  1.00  0.00    -0.132 C  
HETATM   12  O   UNL     1      -7.994   4.692  69.680  1.00  0.00    -0.064 OA 
ENDROOT
BRANCH   4  13
HETATM   13  C   UNL     1      -9.952   3.496  73.243  1.00  0.00    -0.189 C  
HETATM   14  C   UNL     1     -11.179   2.964  73.365  1.00  0.00    -0.259 C  
HETATM   15  C   UNL     1     -11.438   1.513  73.619  1.00  0.00    -0.292 C  
ENDBRANCH   4  13
BRANCH   6  16
HETATM   16  N   UNL     1     -10.213   9.303  70.940  1.00  0.00    -0.278 N  
HETATM   17  H   UNL     1     -11.053   9.060  71.465  1.00  0.00     0.000 HD 
HETATM   18  C   UNL     1     -10.358  10.139  69.859  1.00  0.00    -0.261 C  
HETATM   19  O   UNL     1      -9.410  10.563  69.205  1.00  0.00    -0.199 OA 
BRANCH  18  20
HETATM   20  CA  UNL     1     -11.839  10.479  69.558  1.00  0.00    -0.215 C  
HETATM   21  H2  UNL     1     -11.635  10.082  67.506  1.00  0.00     0.000 HD 
HETATM   22  N   UNL     1     -11.991  10.819  68.115  1.00  0.00    -0.801 NA 
HETATM   23  H1  UNL     1     -12.967  11.043  67.917  1.00  0.00     0.000 HD 
BRANCH  20  24
HETATM   24  C   UNL     1     -12.350  11.591  70.456  1.00  0.00    -0.432 A  
HETATM   25  C   UNL     1     -12.035  12.924  70.147  1.00  0.00    -0.373 A  
HETATM   26  C   UNL     1     -12.459  13.971  70.970  1.00  0.00    -0.444 A  
HETATM   27  C   UNL     1     -13.212  13.689  72.105  1.00  0.00    -0.449 A  
HETATM   28  C   UNL     1     -13.569  12.384  72.412  1.00  0.00    -0.262 A  
HETATM   29  O   UNL     1     -13.616  14.676  72.953  1.00  0.00    -0.511 OA 
HETATM   30  H   UNL     1     -14.130  14.483  73.728  1.00  0.00     0.000 HD 
HETATM   31  C   UNL     1     -13.148  11.338  71.587  1.00  0.00    -0.513 A  
ENDBRANCH  20  24
ENDBRANCH  18  20
ENDBRANCH   6  16
TORSDOF 4
ENDMDL
MODEL       46
REMARK 921   NORMALIZED FREE ENERGY PREDICTED BY IDOCK:   -5.89 KCAL/MOL
REMARK 922        TOTAL FREE ENERGY PREDICTED BY IDOCK:   -8.08 KCAL/MOL
REMARK 923 INTER-LIGAND FREE ENERGY PREDICTED BY IDOCK:   -7.46 KCAL/MOL
REMARK 924 INTRA-LIGAND FREE ENERGY PREDICTED BY IDOCK:   -0.62 KCAL/MOL
REMARK 927      BINDING AFFINITY PREDICTED BY RF-SCORE:    0.00 PKD
ROOT
HETATM    1  C   UNL     1     -10.692   8.287  69.925  1.00  0.00    -0.234 C  
HETATM    2  S   UNL     1     -11.024   7.193  68.523  1.00  0.00     0.045 SA 
HETATM    3  C   UNL     1     -10.707   5.697  69.475  1.00  0.00    -0.310 C  
HETATM    4  C   UNL     1      -9.435   5.714  70.316  1.00  0.00    -0.202 C  
HETATM    5  CA  UNL     1      -8.804   6.858  70.720  1.00  0.00    -0.150 C  
HETATM    6  CA  UNL     1     -10.263   9.741  69.542  1.00  0.00    -0.221 C  
HETATM    7  C   UNL     1      -7.540   6.783  71.558  1.00  0.00    -0.088 C  
HETATM    8  O   UNL     1      -7.896   9.877  70.619  1.00  0.00    -0.278 OA 
HETATM    9  N   UNL     1      -9.332   8.075  70.379  1.00  0.00    -0.158 N  
HETATM   10  OXT UNL     1      -7.252   5.820  72.257  1.00  0.00    -0.085 OA 
HETATM   11  C   UNL     1      -8.948   9.368  70.313  1.00  0.00    -0.240 C  
HETATM   12  O   UNL     1      -6.715   7.846  71.529  1.00  0.00    -0.044 OA 
ENDROOT
BRANCH   4  13
HETATM   13  C   UNL     1      -8.909   4.357  70.542  1.00  0.00    -0.136 C  
HETATM   14  C   UNL     1      -9.543   3.371  71.199  1.00  0.00    -0.234 C  
HETATM   15  C   UNL     1      -8.998   1.988  71.357  1.00  0.00    -0.133 C  
ENDBRANCH   4  13
BRANCH   6  16
HETATM   16  N   UNL     1     -10.089   9.987  68.094  1.00  0.00    -0.153 N  
HETATM   17  H   UNL     1      -9.291   9.548  67.633  1.00  0.00     0.000 HD 
HETATM   18  C   UNL     1     -10.921  10.763  67.323  1.00  0.00    -0.297 C  
HETATM   19  O   UNL     1     -11.953  11.271  67.749  1.00  0.00    -0.637 OA 
BRANCH  18  20
HETATM   20  CA  UNL     1     -10.413  10.925  65.868  1.00  0.00    -0.221 C  
HETATM   21  H2  UNL     1      -8.618   9.906  66.260  1.00  0.00     0.000 HD 
HETATM   22  N   UNL     1      -8.929  10.782  65.839  1.00  0.00    -0.178 NA 
HETATM   23  H1  UNL     1      -8.594  10.888  64.881  1.00  0.00     0.000 HD 
BRANCH  20  24
HETATM   24  C   UNL     1     -10.864  12.240  65.261  1.00  0.00    -0.332 A  
HETATM   25  C   UNL     1     -10.260  13.436  65.682  1.00  0.00    -0.300 A  
HETATM   26  C   UNL     1     -10.674  14.669  65.171  1.00  0.00    -0.430 A  
HETATM   27  C   UNL     1     -11.693  14.711  64.224  1.00  0.00    -0.275 A  
HETATM   28  C   UNL     1     -12.280  13.541  63.762  1.00  0.00    -0.449 A  
HETATM   29  O   UNL     1     -12.151  15.892  63.725  1.00  0.00    -1.239 OA 
HETATM   30  H   UNL     1     -12.846  15.921  63.079  1.00  0.00     0.000 HD 
HETATM   31  C   UNL     1     -11.863  12.309  64.272  1.00  0.00    -0.482 A  
ENDBRANCH  20  24
ENDBRANCH  18  20
ENDBRANCH   6  16
TORSDOF 4
ENDMDL
MODEL       47
REMARK 921   NORMALIZED FREE ENERGY PREDICTED BY IDOCK:   -5.87 KCAL/MOL
REMARK 922        TOTAL FREE ENERGY PREDICTED BY IDOCK:   -8.05 KCAL/MOL
REMARK 923 INTER-LIGAND FREE ENERGY PREDICTED BY IDOCK:   -7.45 KCAL/MOL
REMARK 924 INTRA-LIGAND FREE ENERGY PREDICTED BY IDOCK:   -0.61 KCAL/MOL
REMARK 927      BINDING AFFINITY PREDICTED BY RF-SCORE:    0.00 PKD
ROOT
HETATM    1  C   UNL     1     -11.748  13.989  66.301  1.00  0.00    -0.387 C  
HETATM    2  S   UNL     1     -10.343  13.228  65.453  1.00  0.00    -0.301 SA 
HETATM    3  C   UNL     1     -10.863  11.552  65.863  1.00  0.00    -0.260 C  
HETATM    4  C   UNL     1     -11.259  11.328  67.318  1.00  0.00    -0.364 C  
HETATM    5  CA  UNL     1     -11.650  12.329  68.165  1.00  0.00    -0.339 C  
HETATM    6  CA  UNL     1     -11.522  15.466  66.762  1.00  0.00    -0.045 C  
HETATM    7  C   UNL     1     -12.029  12.016  69.602  1.00  0.00    -0.293 C  
HETATM    8  O   UNL     1     -11.822  15.252  69.340  1.00  0.00    -0.315 OA 
HETATM    9  N   UNL     1     -11.714  13.616  67.702  1.00  0.00    -0.342 N  
HETATM   10  OXT UNL     1     -12.418  10.916  69.971  1.00  0.00    -0.323 OA 
HETATM   11  C   UNL     1     -11.768  14.873  68.194  1.00  0.00    -0.318 C  
HETATM   12  O   UNL     1     -11.940  13.016  70.497  1.00  0.00    -0.322 OA 
ENDROOT
BRANCH   4  13
HETATM   13  C   UNL     1     -11.062   9.928  67.732  1.00  0.00    -0.196 C  
HETATM   14  C   UNL     1     -10.456   8.976  67.003  1.00  0.00    -0.316 C  
HETATM   15  C   UNL     1     -10.225   7.578  67.482  1.00  0.00    -0.288 C  
ENDBRANCH   4  13
BRANCH   6  16
HETATM   16  N   UNL     1     -10.160  15.997  66.533  1.00  0.00    -0.273 N  
HETATM   17  H   UNL     1      -9.547  15.470  65.910  1.00  0.00     0.000 HD 
HETATM   18  C   UNL     1      -9.659  17.147  67.096  1.00  0.00    -0.255 C  
HETATM   19  O   UNL     1     -10.330  17.901  67.792  1.00  0.00    -0.352 OA 
BRANCH  18  20
HETATM   20  CA  UNL     1      -8.165  17.378  66.758  1.00  0.00    -0.249 C  
HETATM   21  H2  UNL     1      -8.067  15.691  65.511  1.00  0.00     0.000 HD 
HETATM   22  N   UNL     1      -7.554  16.100  66.292  1.00  0.00    -0.084 NA 
HETATM   23  H1  UNL     1      -6.571  16.252  66.069  1.00  0.00     0.000 HD 
BRANCH  20  24
HETATM   24  C   UNL     1      -7.411  17.968  67.935  1.00  0.00    -0.224 A  
HETATM   25  C   UNL     1      -6.585  17.136  68.710  1.00  0.00    -0.191 A  
HETATM   26  C   UNL     1      -5.903  17.636  69.822  1.00  0.00    -0.250 A  
HETATM   27  C   UNL     1      -6.035  18.979  70.160  1.00  0.00    -0.202 A  
HETATM   28  C   UNL     1      -6.814  19.831  69.389  1.00  0.00    -0.364 A  
HETATM   29  O   UNL     1      -5.416  19.500  71.255  1.00  0.00    -0.257 OA 
HETATM   30  H   UNL     1      -5.506  20.417  71.486  1.00  0.00     0.000 HD 
HETATM   31  C   UNL     1      -7.493  19.330  68.276  1.00  0.00    -0.335 A  
ENDBRANCH  20  24
ENDBRANCH  18  20
ENDBRANCH   6  16
TORSDOF 4
ENDMDL
MODEL       48
REMARK 921   NORMALIZED FREE ENERGY PREDICTED BY IDOCK:   -5.86 KCAL/MOL
REMARK 922        TOTAL FREE ENERGY PREDICTED BY IDOCK:   -8.05 KCAL/MOL
REMARK 923 INTER-LIGAND FREE ENERGY PREDICTED BY IDOCK:   -7.34 KCAL/MOL
REMARK 924 INTRA-LIGAND FREE ENERGY PREDICTED BY IDOCK:   -0.71 KCAL/MOL
REMARK 927      BINDING AFFINITY PREDICTED BY RF-SCORE:    0.00 PKD
ROOT
HETATM    1  C   UNL     1      -9.459   9.611  69.115  1.00  0.00    -0.171 C  
HETATM    2  S   UNL     1     -10.672  10.248  70.295  1.00  0.00    -0.178 SA 
HETATM    3  C   UNL     1     -10.712   8.720  71.248  1.00  0.00    -0.269 C  
HETATM    4  C   UNL     1     -10.846   7.441  70.429  1.00  0.00    -0.258 C  
HETATM    5  CA  UNL     1     -10.512   7.345  69.105  1.00  0.00    -0.213 C  
HETATM    6  CA  UNL     1      -9.463  10.312  67.718  1.00  0.00    -0.148 C  
HETATM    7  C   UNL     1     -10.677   6.030  68.365  1.00  0.00    -0.280 C  
HETATM    8  O   UNL     1     -10.029   8.316  66.143  1.00  0.00    -0.178 OA 
HETATM    9  N   UNL     1     -10.008   8.441  68.457  1.00  0.00    -0.182 N  
HETATM   10  OXT UNL     1     -10.689   4.940  68.922  1.00  0.00     0.093 OA 
HETATM   11  C   UNL     1      -9.815   8.875  67.193  1.00  0.00    -0.207 C  
HETATM   12  O   UNL     1     -10.800   6.085  67.026  1.00  0.00    -0.308 OA 
ENDROOT
BRANCH   4  13
HETATM   13  C   UNL     1     -11.483   6.359  71.199  1.00  0.00    -0.381 C  
HETATM   14  C   UNL     1     -11.001   5.816  72.329  1.00  0.00    -0.314 C  
HETATM   15  C   UNL     1     -11.707   4.758  73.114  1.00  0.00    -0.213 C  
ENDBRANCH   4  13
BRANCH   6  16
HETATM   16  N   UNL     1     -10.524  11.324  67.523  1.00  0.00    -0.193 N  
HETATM   17  H   UNL     1     -10.990  11.686  68.356  1.00  0.00     0.000 HD 
HETATM   18  C   UNL     1     -10.929  11.815  66.304  1.00  0.00    -0.300 C  
HETATM   19  O   UNL     1     -10.386  11.516  65.246  1.00  0.00    -0.250 OA 
BRANCH  18  20
HETATM   20  CA  UNL     1     -12.139  12.776  66.416  1.00  0.00    -0.300 C  
HETATM   21  H2  UNL     1     -12.966  12.133  64.596  1.00  0.00     0.000 HD 
HETATM   22  N   UNL     1     -12.721  13.007  65.063  1.00  0.00    -0.689 NA 
HETATM   23  H1  UNL     1     -13.518  13.639  65.137  1.00  0.00     0.000 HD 
BRANCH  20  24
HETATM   24  C   UNL     1     -11.756  14.079  67.094  1.00  0.00    -0.421 A  
HETATM   25  C   UNL     1     -11.015  15.035  66.381  1.00  0.00    -0.336 A  
HETATM   26  C   UNL     1     -10.615  16.230  66.983  1.00  0.00    -0.284 A  
HETATM   27  C   UNL     1     -10.964  16.481  68.306  1.00  0.00    -0.346 A  
HETATM   28  C   UNL     1     -11.730  15.571  69.022  1.00  0.00    -0.392 A  
HETATM   29  O   UNL     1     -10.566  17.617  68.943  1.00  0.00    -0.342 OA 
HETATM   30  H   UNL     1     -10.806  17.788  69.846  1.00  0.00     0.000 HD 
HETATM   31  C   UNL     1     -12.132  14.378  68.417  1.00  0.00    -0.278 A  
ENDBRANCH  20  24
ENDBRANCH  18  20
ENDBRANCH   6  16
TORSDOF 4
ENDMDL
MODEL       49
REMARK 921   NORMALIZED FREE ENERGY PREDICTED BY IDOCK:   -5.86 KCAL/MOL
REMARK 922        TOTAL FREE ENERGY PREDICTED BY IDOCK:   -8.04 KCAL/MOL
REMARK 923 INTER-LIGAND FREE ENERGY PREDICTED BY IDOCK:   -7.57 KCAL/MOL
REMARK 924 INTRA-LIGAND FREE ENERGY PREDICTED BY IDOCK:   -0.47 KCAL/MOL
REMARK 927      BINDING AFFINITY PREDICTED BY RF-SCORE:    0.00 PKD
ROOT
HETATM    1  C   UNL     1      -9.299   9.674  68.679  1.00  0.00    -0.143 C  
HETATM    2  S   UNL     1     -10.610  10.772  69.268  1.00  0.00    -0.221 SA 
HETATM    3  C   UNL     1     -11.027   9.707  70.660  1.00  0.00    -0.320 C  
HETATM    4  C   UNL     1     -11.181   8.227  70.328  1.00  0.00    -0.176 C  
HETATM    5  CA  UNL     1     -10.627   7.630  69.229  1.00  0.00    -0.201 C  
HETATM    6  CA  UNL     1      -8.954   9.810  67.160  1.00  0.00    -0.135 C  
HETATM    7  C   UNL     1     -10.830   6.147  68.975  1.00  0.00    -0.350 C  
HETATM    8  O   UNL     1      -9.487   7.412  66.295  1.00  0.00    -0.161 OA 
HETATM    9  N   UNL     1      -9.871   8.379  68.366  1.00  0.00    -0.171 N  
HETATM   10  OXT UNL     1     -11.090   5.343  69.859  1.00  0.00    -0.164 OA 
HETATM   11  C   UNL     1      -9.394   8.305  67.104  1.00  0.00    -0.151 C  
HETATM   12  O   UNL     1     -10.698   5.713  67.708  1.00  0.00    -0.228 OA 
ENDROOT
BRANCH   4  13
HETATM   13  C   UNL     1     -12.087   7.545  71.268  1.00  0.00    -0.351 C  
HETATM   14  C   UNL     1     -13.429   7.556  71.208  1.00  0.00    -0.325 C  
HETATM   15  C   UNL     1     -14.313   6.802  72.149  1.00  0.00    -0.173 C  
ENDBRANCH   4  13
BRANCH   6  16
HETATM   16  N   UNL     1      -9.816  10.740  66.398  1.00  0.00    -0.201 N  
HETATM   17  H   UNL     1     -10.325  11.451  66.925  1.00  0.00     0.000 HD 
HETATM   18  C   UNL     1      -9.982  10.720  65.034  1.00  0.00    -0.300 C  
HETATM   19  O   UNL     1      -9.359   9.967  64.293  1.00  0.00    -0.266 OA 
BRANCH  18  20
HETATM   20  CA  UNL     1     -11.037  11.743  64.543  1.00  0.00    -0.315 C  
HETATM   21  H2  UNL     1     -10.778  11.216  62.526  1.00  0.00     0.000 HD 
HETATM   22  N   UNL     1     -10.797  12.056  63.105  1.00  0.00    -0.683 NA 
HETATM   23  H1  UNL     1     -11.492  12.730  62.781  1.00  0.00     0.000 HD 
BRANCH  20  24
HETATM   24  C   UNL     1     -11.041  12.996  65.399  1.00  0.00    -0.300 A  
HETATM   25  C   UNL     1     -11.879  13.058  66.525  1.00  0.00    -0.464 A  
HETATM   26  C   UNL     1     -11.934  14.208  67.316  1.00  0.00    -0.449 A  
HETATM   27  C   UNL     1     -11.141  15.303  66.990  1.00  0.00    -0.305 A  
HETATM   28  C   UNL     1     -10.275  15.254  65.907  1.00  0.00    -0.353 A  
HETATM   29  O   UNL     1     -11.189  16.456  67.714  1.00  0.00    -0.254 OA 
HETATM   30  H   UNL     1     -10.647  17.203  67.492  1.00  0.00     0.000 HD 
HETATM   31  C   UNL     1     -10.218  14.103  65.118  1.00  0.00    -0.411 A  
ENDBRANCH  20  24
ENDBRANCH  18  20
ENDBRANCH   6  16
TORSDOF 4
ENDMDL
MODEL       50
REMARK 921   NORMALIZED FREE ENERGY PREDICTED BY IDOCK:   -5.86 KCAL/MOL
REMARK 922        TOTAL FREE ENERGY PREDICTED BY IDOCK:   -8.04 KCAL/MOL
REMARK 923 INTER-LIGAND FREE ENERGY PREDICTED BY IDOCK:   -7.45 KCAL/MOL
REMARK 924 INTRA-LIGAND FREE ENERGY PREDICTED BY IDOCK:   -0.59 KCAL/MOL
REMARK 927      BINDING AFFINITY PREDICTED BY RF-SCORE:    0.00 PKD
ROOT
HETATM    1  C   UNL     1     -11.402  11.102  67.934  1.00  0.00    -0.309 C  
HETATM    2  S   UNL     1      -9.771  10.994  67.160  1.00  0.00    -0.176 SA 
HETATM    3  C   UNL     1      -9.748   9.193  67.204  1.00  0.00    -0.182 C  
HETATM    4  C   UNL     1     -10.150   8.566  68.535  1.00  0.00    -0.214 C  
HETATM    5  CA  UNL     1     -10.902   9.206  69.482  1.00  0.00    -0.180 C  
HETATM    6  CA  UNL     1     -11.698  12.451  68.667  1.00  0.00    -0.326 C  
HETATM    7  C   UNL     1     -11.259   8.506  70.782  1.00  0.00    -0.257 C  
HETATM    8  O   UNL     1     -12.092  11.633  71.108  1.00  0.00    -0.232 OA 
HETATM    9  N   UNL     1     -11.347  10.479  69.242  1.00  0.00    -0.254 N  
HETATM   10  OXT UNL     1     -11.295   7.288  70.902  1.00  0.00    -0.264 OA 
HETATM   11  C   UNL     1     -11.838  11.531  69.931  1.00  0.00    -0.355 C  
HETATM   12  O   UNL     1     -11.561   9.281  71.839  1.00  0.00    -0.372 OA 
ENDROOT
BRANCH   4  13
HETATM   13  C   UNL     1      -9.540   7.239  68.724  1.00  0.00    -0.142 C  
HETATM   14  C   UNL     1      -8.252   7.007  69.028  1.00  0.00    -0.125 C  
HETATM   15  C   UNL     1      -7.684   5.645  69.268  1.00  0.00    -0.088 C  
ENDBRANCH   4  13
BRANCH   6  16
HETATM   16  N   UNL     1     -10.569  13.405  68.713  1.00  0.00    -0.326 N  
HETATM   17  H   UNL     1      -9.842  13.244  69.410  1.00  0.00     0.000 HD 
HETATM   18  C   UNL     1     -10.426  14.494  67.886  1.00  0.00    -0.242 C  
HETATM   19  O   UNL     1     -11.192  14.740  66.960  1.00  0.00    -0.328 OA 
BRANCH  18  20
HETATM   20  CA  UNL     1      -9.202  15.370  68.253  1.00  0.00    -0.188 C  
HETATM   21  H2  UNL     1      -8.840  14.318  70.035  1.00  0.00     0.000 HD 
HETATM   22  N   UNL     1      -8.948  15.283  69.720  1.00  0.00    -0.425 NA 
HETATM   23  H1  UNL     1      -8.141  15.859  69.962  1.00  0.00     0.000 HD 
BRANCH  20  24
HETATM   24  C   UNL     1      -9.384  16.806  67.797  1.00  0.00    -0.233 A  
HETATM   25  C   UNL     1     -10.298  17.631  68.472  1.00  0.00    -0.370 A  
HETATM   26  C   UNL     1     -10.518  18.948  68.058  1.00  0.00    -0.427 A  
HETATM   27  C   UNL     1      -9.814  19.450  66.969  1.00  0.00    -0.343 A  
HETATM   28  C   UNL     1      -8.876  18.667  66.309  1.00  0.00    -0.227 A  
HETATM   29  O   UNL     1     -10.022  20.716  66.510  1.00  0.00    -0.580 OA 
HETATM   30  H   UNL     1      -9.540  21.058  65.766  1.00  0.00     0.000 HD 
HETATM   31  C   UNL     1      -8.655  17.353  66.725  1.00  0.00    -0.284 A  
ENDBRANCH  20  24
ENDBRANCH  18  20
ENDBRANCH   6  16
TORSDOF 4
ENDMDL
MODEL       51
REMARK 921   NORMALIZED FREE ENERGY PREDICTED BY IDOCK:   -5.84 KCAL/MOL
REMARK 922        TOTAL FREE ENERGY PREDICTED BY IDOCK:   -8.02 KCAL/MOL
REMARK 923 INTER-LIGAND FREE ENERGY PREDICTED BY IDOCK:   -7.71 KCAL/MOL
REMARK 924 INTRA-LIGAND FREE ENERGY PREDICTED BY IDOCK:   -0.31 KCAL/MOL
REMARK 927      BINDING AFFINITY PREDICTED BY RF-SCORE:    0.00 PKD
ROOT
HETATM    1  C   UNL     1     -10.443  14.395  67.205  1.00  0.00    -0.263 C  
HETATM    2  S   UNL     1      -8.687  14.004  67.401  1.00  0.00    -0.217 SA 
HETATM    3  C   UNL     1      -8.284  15.637  68.048  1.00  0.00    -0.144 C  
HETATM    4  C   UNL     1      -8.858  16.811  67.263  1.00  0.00    -0.216 C  
HETATM    5  CA  UNL     1      -9.942  16.718  66.434  1.00  0.00    -0.304 C  
HETATM    6  CA  UNL     1     -11.199  13.530  66.144  1.00  0.00    -0.295 C  
HETATM    7  C   UNL     1     -10.448  17.941  65.690  1.00  0.00    -0.104 C  
HETATM    8  O   UNL     1     -11.998  15.355  64.467  1.00  0.00    -0.358 OA 
HETATM    9  N   UNL     1     -10.579  15.514  66.293  1.00  0.00    -0.301 N  
HETATM   10  OXT UNL     1     -10.247  19.088  66.066  1.00  0.00    -0.420 OA 
HETATM   11  C   UNL     1     -11.444  14.914  65.447  1.00  0.00    -0.320 C  
HETATM   12  O   UNL     1     -11.165  17.731  64.570  1.00  0.00    -0.692 OA 
ENDROOT
BRANCH   4  13
HETATM   13  C   UNL     1      -8.039  18.026  67.417  1.00  0.00    -0.227 C  
HETATM   14  C   UNL     1      -7.119  18.233  68.374  1.00  0.00    -0.264 C  
HETATM   15  C   UNL     1      -6.267  19.459  68.461  1.00  0.00    -0.270 C  
ENDBRANCH   4  13
BRANCH   6  16
HETATM   16  N   UNL     1     -10.352  12.587  65.380  1.00  0.00    -0.278 N  
HETATM   17  H   UNL     1      -9.371  12.509  65.648  1.00  0.00     0.000 HD 
HETATM   18  C   UNL     1     -10.789  11.809  64.334  1.00  0.00    -0.334 C  
HETATM   19  O   UNL     1     -11.962  11.759  63.978  1.00  0.00    -0.348 OA 
BRANCH  18  20
HETATM   20  CA  UNL     1      -9.644  11.013  63.660  1.00  0.00    -0.292 C  
HETATM   21  H2  UNL     1     -10.458  11.245  61.738  1.00  0.00     0.000 HD 
HETATM   22  N   UNL     1     -10.103  10.500  62.338  1.00  0.00    -0.746 NA 
HETATM   23  H1  UNL     1      -9.349   9.976  61.893  1.00  0.00     0.000 HD 
BRANCH  20  24
HETATM   24  C   UNL     1      -9.139   9.895  64.554  1.00  0.00    -0.296 A  
HETATM   25  C   UNL     1      -8.181   8.996  64.058  1.00  0.00    -0.167 A  
HETATM   26  C   UNL     1      -7.719   7.934  64.840  1.00  0.00    -0.112 A  
HETATM   27  C   UNL     1      -8.209   7.772  66.132  1.00  0.00    -0.123 A  
HETATM   28  C   UNL     1      -9.127   8.668  66.660  1.00  0.00    -0.203 A  
HETATM   29  O   UNL     1      -7.813   6.731  66.916  1.00  0.00    -0.104 OA 
HETATM   30  H   UNL     1      -8.147   6.620  67.799  1.00  0.00     0.000 HD 
HETATM   31  C   UNL     1      -9.585   9.731  65.878  1.00  0.00    -0.313 A  
ENDBRANCH  20  24
ENDBRANCH  18  20
ENDBRANCH   6  16
TORSDOF 4
ENDMDL
MODEL       52
REMARK 921   NORMALIZED FREE ENERGY PREDICTED BY IDOCK:   -5.78 KCAL/MOL
REMARK 922        TOTAL FREE ENERGY PREDICTED BY IDOCK:   -7.95 KCAL/MOL
REMARK 923 INTER-LIGAND FREE ENERGY PREDICTED BY IDOCK:   -7.09 KCAL/MOL
REMARK 924 INTRA-LIGAND FREE ENERGY PREDICTED BY IDOCK:   -0.86 KCAL/MOL
REMARK 927      BINDING AFFINITY PREDICTED BY RF-SCORE:    0.00 PKD
ROOT
HETATM    1  C   UNL     1      -8.580   8.559  67.628  1.00  0.00    -0.133 C  
HETATM    2  S   UNL     1      -8.355  10.190  68.376  1.00  0.00    -0.117 SA 
HETATM    3  C   UNL     1      -8.033   9.515  70.016  1.00  0.00    -0.156 C  
HETATM    4  C   UNL     1      -9.009   8.442  70.484  1.00  0.00    -0.160 C  
HETATM    5  CA  UNL     1      -9.781   7.692  69.640  1.00  0.00    -0.171 C  
HETATM    6  CA  UNL     1      -9.442   8.541  66.324  1.00  0.00    -0.231 C  
HETATM    7  C   UNL     1     -10.728   6.641  70.193  1.00  0.00    -0.239 C  
HETATM    8  O   UNL     1     -11.411   6.990  67.031  1.00  0.00    -0.238 OA 
HETATM    9  N   UNL     1      -9.680   7.883  68.288  1.00  0.00    -0.156 N  
HETATM   10  OXT UNL     1     -10.577   6.107  71.284  1.00  0.00    -0.226 OA 
HETATM   11  C   UNL     1     -10.380   7.605  67.166  1.00  0.00    -0.315 C  
HETATM   12  O   UNL     1     -11.772   6.283  69.423  1.00  0.00    -0.319 OA 
ENDROOT
BRANCH   4  13
HETATM   13  C   UNL     1      -9.104   8.389  71.953  1.00  0.00    -0.288 C  
HETATM   14  C   UNL     1      -8.084   8.146  72.794  1.00  0.00    -0.221 C  
HETATM   15  C   UNL     1      -8.210   8.158  74.284  1.00  0.00    -0.290 C  
ENDBRANCH   4  13
BRANCH   6  16
HETATM   16  N   UNL     1     -10.038   9.841  65.945  1.00  0.00    -0.273 N  
HETATM   17  H   UNL     1     -10.792  10.204  66.529  1.00  0.00     0.000 HD 
HETATM   18  C   UNL     1      -9.652  10.597  64.863  1.00  0.00    -0.269 C  
HETATM   19  O   UNL     1      -8.705  10.302  64.141  1.00  0.00    -0.179 OA 
BRANCH  18  20
HETATM   20  CA  UNL     1     -10.540  11.850  64.660  1.00  0.00    -0.306 C  
HETATM   21  H2  UNL     1      -9.966  12.073  62.652  1.00  0.00     0.000 HD 
HETATM   22  N   UNL     1     -10.035  12.638  63.499  1.00  0.00    -0.683 NA 
HETATM   23  H1  UNL     1     -10.620  13.463  63.364  1.00  0.00     0.000 HD 
BRANCH  20  24
HETATM   24  C   UNL     1     -10.617  12.691  65.921  1.00  0.00    -0.297 A  
HETATM   25  C   UNL     1      -9.433  13.184  66.493  1.00  0.00    -0.246 A  
HETATM   26  C   UNL     1      -9.463  13.932  67.672  1.00  0.00    -0.212 A  
HETATM   27  C   UNL     1     -10.683  14.201  68.282  1.00  0.00    -0.249 A  
HETATM   28  C   UNL     1     -11.871  13.760  67.717  1.00  0.00    -0.404 A  
HETATM   29  O   UNL     1     -10.756  14.897  69.451  1.00  0.00    -0.245 OA 
HETATM   30  H   UNL     1     -11.590  15.081  69.867  1.00  0.00     0.000 HD 
HETATM   31  C   UNL     1     -11.841  13.014  66.536  1.00  0.00    -0.464 A  
ENDBRANCH  20  24
ENDBRANCH  18  20
ENDBRANCH   6  16
TORSDOF 4
ENDMDL
MODEL       53
REMARK 921   NORMALIZED FREE ENERGY PREDICTED BY IDOCK:   -5.75 KCAL/MOL
REMARK 922        TOTAL FREE ENERGY PREDICTED BY IDOCK:   -7.91 KCAL/MOL
REMARK 923 INTER-LIGAND FREE ENERGY PREDICTED BY IDOCK:   -7.25 KCAL/MOL
REMARK 924 INTRA-LIGAND FREE ENERGY PREDICTED BY IDOCK:   -0.65 KCAL/MOL
REMARK 927      BINDING AFFINITY PREDICTED BY RF-SCORE:    0.00 PKD
ROOT
HETATM    1  C   UNL     1      -9.523  10.246  68.876  1.00  0.00    -0.188 C  
HETATM    2  S   UNL     1      -8.988   8.622  68.285  1.00  0.00    -0.142 SA 
HETATM    3  C   UNL     1      -8.263   9.288  66.776  1.00  0.00    -0.115 C  
HETATM    4  C   UNL     1      -9.138  10.276  66.011  1.00  0.00    -0.189 C  
HETATM    5  CA  UNL     1     -10.165  10.981  66.576  1.00  0.00    -0.234 C  
HETATM    6  CA  UNL     1     -10.717  10.222  69.885  1.00  0.00    -0.294 C  
HETATM    7  C   UNL     1     -10.986  11.946  65.740  1.00  0.00    -0.311 C  
HETATM    8  O   UNL     1     -12.506  11.607  68.595  1.00  0.00    -0.274 OA 
HETATM    9  N   UNL     1     -10.436  10.823  67.909  1.00  0.00    -0.187 N  
HETATM   10  OXT UNL     1     -10.570  12.469  64.714  1.00  0.00    -0.282 OA 
HETATM   11  C   UNL     1     -11.440  11.069  68.779  1.00  0.00    -0.305 C  
HETATM   12  O   UNL     1     -12.226  12.240  66.172  1.00  0.00    -0.647 OA 
ENDROOT
BRANCH   4  13
HETATM   13  C   UNL     1      -8.818  10.293  64.574  1.00  0.00    -0.223 C  
HETATM   14  C   UNL     1      -8.196   9.311  63.899  1.00  0.00    -0.165 C  
HETATM   15  C   UNL     1      -7.941   9.343  62.426  1.00  0.00    -0.127 C  
ENDBRANCH   4  13
BRANCH   6  16
HETATM   16  N   UNL     1     -11.307   8.889  70.134  1.00  0.00    -0.423 N  
HETATM   17  H   UNL     1     -11.545   8.318  69.322  1.00  0.00     0.000 HD 
HETATM   18  C   UNL     1     -11.558   8.360  71.378  1.00  0.00    -0.284 C  
HETATM   19  O   UNL     1     -11.239   8.918  72.422  1.00  0.00    -0.286 OA 
BRANCH  18  20
HETATM   20  CA  UNL     1     -12.286   6.993  71.313  1.00  0.00    -0.383 C  
HETATM   21  H2  UNL     1     -14.119   7.810  71.934  1.00  0.00     0.000 HD 
HETATM   22  N   UNL     1     -13.502   7.033  72.175  1.00  0.00    -0.542 NA 
HETATM   23  H1  UNL     1     -13.982   6.134  72.132  1.00  0.00     0.000 HD 
BRANCH  20  24
HETATM   24  C   UNL     1     -11.363   5.850  71.692  1.00  0.00    -0.272 A  
HETATM   25  C   UNL     1     -10.563   5.254  70.704  1.00  0.00    -0.263 A  
HETATM   26  C   UNL     1      -9.728   4.176  71.010  1.00  0.00    -0.260 A  
HETATM   27  C   UNL     1      -9.681   3.694  72.314  1.00  0.00    -0.157 A  
HETATM   28  C   UNL     1     -10.432   4.291  73.318  1.00  0.00    -0.257 A  
HETATM   29  O   UNL     1      -8.907   2.625  72.649  1.00  0.00    -0.073 OA 
HETATM   30  H   UNL     1      -8.875   2.296  73.540  1.00  0.00     0.000 HD 
HETATM   31  C   UNL     1     -11.264   5.369  73.011  1.00  0.00    -0.370 A  
ENDBRANCH  20  24
ENDBRANCH  18  20
ENDBRANCH   6  16
TORSDOF 4
ENDMDL
MODEL       54
REMARK 921   NORMALIZED FREE ENERGY PREDICTED BY IDOCK:   -5.69 KCAL/MOL
REMARK 922        TOTAL FREE ENERGY PREDICTED BY IDOCK:   -7.83 KCAL/MOL
REMARK 923 INTER-LIGAND FREE ENERGY PREDICTED BY IDOCK:   -7.15 KCAL/MOL
REMARK 924 INTRA-LIGAND FREE ENERGY PREDICTED BY IDOCK:   -0.68 KCAL/MOL
REMARK 927      BINDING AFFINITY PREDICTED BY RF-SCORE:    0.00 PKD
ROOT
HETATM    1  C   UNL     1      -8.202   7.857  67.403  1.00  0.00    -0.123 C  
HETATM    2  S   UNL     1      -9.343   8.902  68.339  1.00  0.00    -0.136 SA 
HETATM    3  C   UNL     1      -9.356   7.802  69.765  1.00  0.00    -0.153 C  
HETATM    4  C   UNL     1      -9.552   6.323  69.449  1.00  0.00    -0.157 C  
HETATM    5  CA  UNL     1      -9.288   5.763  68.229  1.00  0.00    -0.117 C  
HETATM    6  CA  UNL     1      -8.268   8.029  65.850  1.00  0.00    -0.127 C  
HETATM    7  C   UNL     1      -9.511   4.279  68.000  1.00  0.00    -0.159 C  
HETATM    8  O   UNL     1      -8.945   5.630  65.096  1.00  0.00    -0.105 OA 
HETATM    9  N   UNL     1      -8.802   6.550  67.218  1.00  0.00    -0.112 N  
HETATM   10  OXT UNL     1      -9.510   3.451  68.902  1.00  0.00    -0.166 OA 
HETATM   11  C   UNL     1      -8.669   6.512  65.875  1.00  0.00    -0.141 C  
HETATM   12  O   UNL     1      -9.702   3.870  66.732  1.00  0.00    -0.214 OA 
ENDROOT
BRANCH   4  13
HETATM   13  C   UNL     1     -10.164   5.597  70.575  1.00  0.00    -0.297 C  
HETATM   14  C   UNL     1     -10.575   6.148  71.729  1.00  0.00    -0.268 C  
HETATM   15  C   UNL     1     -11.245   5.384  72.826  1.00  0.00    -0.358 C  
ENDBRANCH   4  13
BRANCH   6  16
HETATM   16  N   UNL     1      -9.323   8.944  65.362  1.00  0.00    -0.433 N  
HETATM   17  H   UNL     1     -10.294   8.679  65.531  1.00  0.00     0.000 HD 
HETATM   18  C   UNL     1      -9.093  10.125  64.696  1.00  0.00    -0.227 C  
HETATM   19  O   UNL     1      -7.970  10.583  64.509  1.00  0.00    -0.127 OA 
BRANCH  18  20
HETATM   20  CA  UNL     1     -10.398  10.803  64.210  1.00  0.00    -0.331 C  
HETATM   21  H2  UNL     1      -9.915  10.543  62.182  1.00  0.00     0.000 HD 
HETATM   22  N   UNL     1     -10.219  11.287  62.811  1.00  0.00    -0.641 NA 
HETATM   23  H1  UNL     1     -11.078  11.733  62.490  1.00  0.00     0.000 HD 
BRANCH  20  24
HETATM   24  C   UNL     1     -10.827  11.921  65.142  1.00  0.00    -0.350 A  
HETATM   25  C   UNL     1     -11.280  11.605  66.433  1.00  0.00    -0.349 A  
HETATM   26  C   UNL     1     -11.716  12.606  67.306  1.00  0.00    -0.435 A  
HETATM   27  C   UNL     1     -11.691  13.933  66.893  1.00  0.00    -0.399 A  
HETATM   28  C   UNL     1     -11.212  14.277  65.637  1.00  0.00    -0.314 A  
HETATM   29  O   UNL     1     -12.139  14.937  67.699  1.00  0.00    -0.516 OA 
HETATM   30  H   UNL     1     -12.122  15.844  67.417  1.00  0.00     0.000 HD 
HETATM   31  C   UNL     1     -10.774  13.276  64.766  1.00  0.00    -0.393 A  
ENDBRANCH  20  24
ENDBRANCH  18  20
ENDBRANCH   6  16
TORSDOF 4
ENDMDL
MODEL       55
REMARK 921   NORMALIZED FREE ENERGY PREDICTED BY IDOCK:   -5.68 KCAL/MOL
REMARK 922        TOTAL FREE ENERGY PREDICTED BY IDOCK:   -7.83 KCAL/MOL
REMARK 923 INTER-LIGAND FREE ENERGY PREDICTED BY IDOCK:   -7.15 KCAL/MOL
REMARK 924 INTRA-LIGAND FREE ENERGY PREDICTED BY IDOCK:   -0.68 KCAL/MOL
REMARK 927      BINDING AFFINITY PREDICTED BY RF-SCORE:    0.00 PKD
ROOT
HETATM    1  C   UNL     1     -11.661   6.608  70.004  1.00  0.00    -0.362 C  
HETATM    2  S   UNL     1     -10.298   6.239  68.873  1.00  0.00    -0.229 SA 
HETATM    3  C   UNL     1      -9.914   4.670  69.671  1.00  0.00    -0.211 C  
HETATM    4  C   UNL     1      -9.827   4.715  71.193  1.00  0.00    -0.261 C  
HETATM    5  CA  UNL     1     -10.416   5.681  71.962  1.00  0.00    -0.219 C  
HETATM    6  CA  UNL     1     -12.013   8.125  70.143  1.00  0.00     0.433 C  
HETATM    7  C   UNL     1     -10.279   5.649  73.474  1.00  0.00    -0.212 C  
HETATM    8  O   UNL     1     -11.591   8.519  72.683  1.00  0.00    -0.357 OA 
HETATM    9  N   UNL     1     -11.147   6.670  71.358  1.00  0.00    -0.252 N  
HETATM   10  OXT UNL     1     -10.046   4.628  74.107  1.00  0.00    -0.160 OA 
HETATM   11  C   UNL     1     -11.638   7.894  71.649  1.00  0.00    -0.272 C  
HETATM   12  O   UNL     1     -10.441   6.810  74.134  1.00  0.00    -0.365 OA 
ENDROOT
BRANCH   4  13
HETATM   13  C   UNL     1      -8.943   3.664  71.723  1.00  0.00    -0.153 C  
HETATM   14  C   UNL     1      -7.700   3.396  71.290  1.00  0.00    -0.051 C  
HETATM   15  C   UNL     1      -6.811   2.356  71.895  1.00  0.00    -0.022 C  
ENDBRANCH   4  13
BRANCH   6  16
HETATM   16  N   UNL     1     -11.119   9.050  69.413  1.00  0.00    -0.434 N  
HETATM   17  H   UNL     1     -10.219   8.686  69.097  1.00  0.00     0.000 HD 
HETATM   18  C   UNL     1     -11.410  10.363  69.127  1.00  0.00    -0.226 C  
HETATM   19  O   UNL     1     -12.491  10.882  69.383  1.00  0.00    -0.352 OA 
BRANCH  18  20
HETATM   20  CA  UNL     1     -10.229  11.106  68.454  1.00  0.00    -0.188 C  
HETATM   21  H2  UNL     1     -10.034  12.470  70.038  1.00  0.00     0.000 HD 
HETATM   22  N   UNL     1     -10.114  12.480  69.021  1.00  0.00    -0.421 NA 
HETATM   23  H1  UNL     1      -9.336  12.969  68.578  1.00  0.00     0.000 HD 
BRANCH  20  24
HETATM   24  C   UNL     1     -10.372  11.130  66.943  1.00  0.00    -0.272 A  
HETATM   25  C   UNL     1     -11.185  12.106  66.344  1.00  0.00    -0.380 A  
HETATM   26  C   UNL     1     -11.368  12.137  64.959  1.00  0.00    -0.379 A  
HETATM   27  C   UNL     1     -10.728  11.195  64.162  1.00  0.00    -0.345 A  
HETATM   28  C   UNL     1      -9.888  10.243  64.725  1.00  0.00    -0.403 A  
HETATM   29  O   UNL     1     -10.905  11.167  62.812  1.00  0.00    -0.779 OA 
HETATM   30  H   UNL     1     -10.468  10.523  62.268  1.00  0.00     0.000 HD 
HETATM   31  C   UNL     1      -9.703  10.215  66.109  1.00  0.00    -0.275 A  
ENDBRANCH  20  24
ENDBRANCH  18  20
ENDBRANCH   6  16
TORSDOF 4
ENDMDL
MODEL       56
REMARK 921   NORMALIZED FREE ENERGY PREDICTED BY IDOCK:   -5.67 KCAL/MOL
REMARK 922        TOTAL FREE ENERGY PREDICTED BY IDOCK:   -7.81 KCAL/MOL
REMARK 923 INTER-LIGAND FREE ENERGY PREDICTED BY IDOCK:   -7.22 KCAL/MOL
REMARK 924 INTRA-LIGAND FREE ENERGY PREDICTED BY IDOCK:   -0.59 KCAL/MOL
REMARK 927      BINDING AFFINITY PREDICTED BY RF-SCORE:    0.00 PKD
ROOT
HETATM    1  C   UNL     1      -8.359  16.316  69.285  1.00  0.00    -0.138 C  
HETATM    2  S   UNL     1      -7.061  15.349  68.478  1.00  0.00    -0.119 SA 
HETATM    3  C   UNL     1      -6.248  16.805  67.794  1.00  0.00    -0.144 C  
HETATM    4  C   UNL     1      -7.171  17.810  67.114  1.00  0.00    -0.204 C  
HETATM    5  CA  UNL     1      -8.514  17.900  67.359  1.00  0.00    -0.235 C  
HETATM    6  CA  UNL     1      -9.685  15.539  69.568  1.00  0.00    -0.282 C  
HETATM    7  C   UNL     1      -9.359  18.933  66.635  1.00  0.00    -0.330 C  
HETATM    8  O   UNL     1     -11.399  16.924  68.180  1.00  0.00    -0.217 OA 
HETATM    9  N   UNL     1      -9.087  17.063  68.279  1.00  0.00    -0.234 N  
HETATM   10  OXT UNL     1      -8.902  19.965  66.161  1.00  0.00    -0.365 OA 
HETATM   11  C   UNL     1     -10.316  16.623  68.626  1.00  0.00    -0.304 C  
HETATM   12  O   UNL     1     -10.679  18.690  66.534  1.00  0.00    -0.367 OA 
ENDROOT
BRANCH   4  13
HETATM   13  C   UNL     1      -6.467  18.590  66.081  1.00  0.00    -0.256 C  
HETATM   14  C   UNL     1      -5.974  18.100  64.931  1.00  0.00     0.080 C  
HETATM   15  C   UNL     1      -5.316  18.937  63.882  1.00  0.00    -0.252 C  
ENDBRANCH   4  13
BRANCH   6  16
HETATM   16  N   UNL     1      -9.729  14.156  69.044  1.00  0.00    -0.411 N  
HETATM   17  H   UNL     1      -8.839  13.691  68.863  1.00  0.00     0.000 HD 
HETATM   18  C   UNL     1     -10.880  13.450  68.783  1.00  0.00    -0.246 C  
HETATM   19  O   UNL     1     -12.001  13.875  69.039  1.00  0.00    -0.336 OA 
BRANCH  18  20
HETATM   20  CA  UNL     1     -10.603  12.071  68.133  1.00  0.00    -0.210 C  
HETATM   21  H2  UNL     1     -11.806  12.489  66.462  1.00  0.00     0.000 HD 
HETATM   22  N   UNL     1     -11.685  11.752  67.159  1.00  0.00    -0.593 NA 
HETATM   23  H1  UNL     1     -11.503  10.845  66.730  1.00  0.00     0.000 HD 
BRANCH  20  24
HETATM   24  C   UNL     1     -10.447  10.982  69.178  1.00  0.00    -0.238 A  
HETATM   25  C   UNL     1     -11.527  10.678  70.023  1.00  0.00    -0.404 A  
HETATM   26  C   UNL     1     -11.408   9.706  71.019  1.00  0.00    -0.444 A  
HETATM   27  C   UNL     1     -10.207   9.022  71.169  1.00  0.00    -0.293 A  
HETATM   28  C   UNL     1      -9.137   9.275  70.323  1.00  0.00    -0.271 A  
HETATM   29  O   UNL     1     -10.036   8.091  72.149  1.00  0.00    -0.198 OA 
HETATM   30  H   UNL     1      -9.216   7.624  72.251  1.00  0.00     0.000 HD 
HETATM   31  C   UNL     1      -9.257  10.245  69.325  1.00  0.00    -0.215 A  
ENDBRANCH  20  24
ENDBRANCH  18  20
ENDBRANCH   6  16
TORSDOF 4
ENDMDL
MODEL       57
REMARK 921   NORMALIZED FREE ENERGY PREDICTED BY IDOCK:   -5.67 KCAL/MOL
REMARK 922        TOTAL FREE ENERGY PREDICTED BY IDOCK:   -7.81 KCAL/MOL
REMARK 923 INTER-LIGAND FREE ENERGY PREDICTED BY IDOCK:   -7.34 KCAL/MOL
REMARK 924 INTRA-LIGAND FREE ENERGY PREDICTED BY IDOCK:   -0.47 KCAL/MOL
REMARK 927      BINDING AFFINITY PREDICTED BY RF-SCORE:    0.00 PKD
ROOT
HETATM    1  C   UNL     1     -11.409   7.056  69.914  1.00  0.00    -0.216 C  
HETATM    2  S   UNL     1     -10.521   6.591  68.408  1.00  0.00    -0.244 SA 
HETATM    3  C   UNL     1     -10.101   4.953  69.029  1.00  0.00    -0.140 C  
HETATM    4  C   UNL     1      -9.541   4.915  70.446  1.00  0.00    -0.259 C  
HETATM    5  CA  UNL     1      -9.739   5.902  71.372  1.00  0.00    -0.166 C  
HETATM    6  CA  UNL     1     -11.514   8.594  70.173  1.00  0.00    -0.005 C  
HETATM    7  C   UNL     1      -9.144   5.783  72.763  1.00  0.00    -0.133 C  
HETATM    8  O   UNL     1     -10.279   8.816  72.455  1.00  0.00    -0.251 OA 
HETATM    9  N   UNL     1     -10.496   6.994  71.039  1.00  0.00    -0.212 N  
HETATM   10  OXT UNL     1      -8.851   4.712  73.280  1.00  0.00    -0.107 OA 
HETATM   11  C   UNL     1     -10.720   8.250  71.482  1.00  0.00    -0.235 C  
HETATM   12  O   UNL     1      -8.950   6.921  73.453  1.00  0.00    -0.125 OA 
ENDROOT
BRANCH   4  13
HETATM   13  C   UNL     1      -8.669   3.747  70.660  1.00  0.00    -0.121 C  
HETATM   14  C   UNL     1      -7.519   3.499  70.011  1.00  0.00    -0.044 C  
HETATM   15  C   UNL     1      -6.633   2.330  70.299  1.00  0.00    -0.029 C  
ENDBRANCH   4  13
BRANCH   6  16
HETATM   16  N   UNL     1     -10.786   9.447  69.208  1.00  0.00    -0.336 N  
HETATM   17  H   UNL     1      -9.853   9.148  68.924  1.00  0.00     0.000 HD 
HETATM   18  C   UNL     1     -11.274  10.612  68.666  1.00  0.00    -0.278 C  
HETATM   19  O   UNL     1     -12.411  11.024  68.870  1.00  0.00    -0.516 OA 
BRANCH  18  20
HETATM   20  CA  UNL     1     -10.234  11.342  67.778  1.00  0.00    -0.180 C  
HETATM   21  H2  UNL     1      -9.046  11.890  69.422  1.00  0.00     0.000 HD 
HETATM   22  N   UNL     1      -9.474  12.324  68.604  1.00  0.00    -0.391 NA 
HETATM   23  H1  UNL     1      -8.789  12.804  68.020  1.00  0.00     0.000 HD 
BRANCH  20  24
HETATM   24  C   UNL     1     -10.887  12.000  66.578  1.00  0.00    -0.314 A  
HETATM   25  C   UNL     1     -10.790  11.387  65.318  1.00  0.00    -0.297 A  
HETATM   26  C   UNL     1     -11.350  11.982  64.185  1.00  0.00    -0.455 A  
HETATM   27  C   UNL     1     -12.021  13.193  64.307  1.00  0.00    -0.411 A  
HETATM   28  C   UNL     1     -12.165  13.801  65.547  1.00  0.00    -0.470 A  
HETATM   29  O   UNL     1     -12.552  13.825  63.223  1.00  0.00    -1.005 OA 
HETATM   30  H   UNL     1     -13.010  14.653  63.308  1.00  0.00     0.000 HD 
HETATM   31  C   UNL     1     -11.608  13.204  66.680  1.00  0.00    -0.403 A  
ENDBRANCH  20  24
ENDBRANCH  18  20
ENDBRANCH   6  16
TORSDOF 4
ENDMDL
MODEL       58
REMARK 921   NORMALIZED FREE ENERGY PREDICTED BY IDOCK:   -5.64 KCAL/MOL
REMARK 922        TOTAL FREE ENERGY PREDICTED BY IDOCK:   -7.77 KCAL/MOL
REMARK 923 INTER-LIGAND FREE ENERGY PREDICTED BY IDOCK:   -7.20 KCAL/MOL
REMARK 924 INTRA-LIGAND FREE ENERGY PREDICTED BY IDOCK:   -0.58 KCAL/MOL
REMARK 927      BINDING AFFINITY PREDICTED BY RF-SCORE:    0.00 PKD
ROOT
HETATM    1  C   UNL     1      -8.657   9.807  69.790  1.00  0.00    -0.201 C  
HETATM    2  S   UNL     1      -7.986   8.805  68.442  1.00  0.00    -0.110 SA 
HETATM    3  C   UNL     1      -8.100  10.144  67.242  1.00  0.00    -0.114 C  
HETATM    4  C   UNL     1      -9.427  10.895  67.225  1.00  0.00    -0.176 C  
HETATM    5  CA  UNL     1     -10.303  10.920  68.275  1.00  0.00    -0.173 C  
HETATM    6  CA  UNL     1      -9.320   8.997  70.951  1.00  0.00    -0.264 C  
HETATM    7  C   UNL     1     -11.605  11.695  68.172  1.00  0.00    -0.319 C  
HETATM    8  O   UNL     1     -11.762   9.897  70.879  1.00  0.00    -0.307 OA 
HETATM    9  N   UNL     1      -9.989  10.254  69.430  1.00  0.00    -0.225 N  
HETATM   10  OXT UNL     1     -11.769  12.636  67.407  1.00  0.00    -0.344 OA 
HETATM   11  C   UNL     1     -10.607   9.794  70.539  1.00  0.00    -0.312 C  
HETATM   12  O   UNL     1     -12.612  11.323  68.983  1.00  0.00    -0.332 OA 
ENDROOT
BRANCH   4  13
HETATM   13  C   UNL     1      -9.702  11.492  65.907  1.00  0.00    -0.260 C  
HETATM   14  C   UNL     1     -10.120  10.825  64.817  1.00  0.00    -0.396 C  
HETATM   15  C   UNL     1     -10.444  11.478  63.512  1.00  0.00    -0.486 C  
ENDBRANCH   4  13
BRANCH   6  16
HETATM   16  N   UNL     1      -9.396   7.535  70.737  1.00  0.00    -0.162 N  
HETATM   17  H   UNL     1      -8.751   7.122  70.062  1.00  0.00     0.000 HD 
HETATM   18  C   UNL     1     -10.271   6.691  71.379  1.00  0.00    -0.199 C  
HETATM   19  O   UNL     1     -11.033   7.061  72.266  1.00  0.00    -0.229 OA 
BRANCH  18  20
HETATM   20  CA  UNL     1     -10.190   5.234  70.858  1.00  0.00    -0.234 C  
HETATM   21  H2  UNL     1      -8.982   4.607  72.458  1.00  0.00     0.000 HD 
HETATM   22  N   UNL     1      -8.993   4.562  71.438  1.00  0.00    -0.124 NA 
HETATM   23  H1  UNL     1      -8.939   3.602  71.096  1.00  0.00     0.000 HD 
BRANCH  20  24
HETATM   24  C   UNL     1     -10.185   5.183  69.341  1.00  0.00    -0.293 A  
HETATM   25  C   UNL     1     -10.914   6.141  68.618  1.00  0.00    -0.415 A  
HETATM   26  C   UNL     1     -10.960   6.104  67.222  1.00  0.00    -0.418 A  
HETATM   27  C   UNL     1     -10.268   5.110  66.539  1.00  0.00    -0.264 A  
HETATM   28  C   UNL     1      -9.509   4.174  67.228  1.00  0.00    -0.220 A  
HETATM   29  O   UNL     1     -10.314   5.016  65.181  1.00  0.00    -0.400 OA 
HETATM   30  H   UNL     1      -9.840   4.337  64.715  1.00  0.00     0.000 HD 
HETATM   31  C   UNL     1      -9.460   4.214  68.623  1.00  0.00    -0.221 A  
ENDBRANCH  20  24
ENDBRANCH  18  20
ENDBRANCH   6  16
TORSDOF 4
ENDMDL
MODEL       59
REMARK 921   NORMALIZED FREE ENERGY PREDICTED BY IDOCK:   -5.60 KCAL/MOL
REMARK 922        TOTAL FREE ENERGY PREDICTED BY IDOCK:   -7.73 KCAL/MOL
REMARK 923 INTER-LIGAND FREE ENERGY PREDICTED BY IDOCK:   -7.47 KCAL/MOL
REMARK 924 INTRA-LIGAND FREE ENERGY PREDICTED BY IDOCK:   -0.26 KCAL/MOL
REMARK 927      BINDING AFFINITY PREDICTED BY RF-SCORE:    0.00 PKD
ROOT
HETATM    1  C   UNL     1      -9.636   8.726  68.983  1.00  0.00    -0.162 C  
HETATM    2  S   UNL     1      -7.934   9.235  69.326  1.00  0.00    -0.102 SA 
HETATM    3  C   UNL     1      -7.673   7.931  70.542  1.00  0.00    -0.086 C  
HETATM    4  C   UNL     1      -8.783   7.768  71.574  1.00  0.00    -0.140 C  
HETATM    5  CA  UNL     1     -10.068   8.201  71.387  1.00  0.00    -0.198 C  
HETATM    6  CA  UNL     1     -10.560   9.849  68.409  1.00  0.00    -0.222 C  
HETATM    7  C   UNL     1     -11.113   7.996  72.470  1.00  0.00    -0.375 C  
HETATM    8  O   UNL     1     -12.405   9.984  70.242  1.00  0.00    -0.190 OA 
HETATM    9  N   UNL     1     -10.409   8.806  70.207  1.00  0.00    -0.196 N  
HETATM   10  OXT UNL     1     -11.036   7.121  73.322  1.00  0.00    -0.322 OA 
HETATM   11  C   UNL     1     -11.394   9.586  69.712  1.00  0.00    -0.083 C  
HETATM   12  O   UNL     1     -12.178   8.818  72.465  1.00  0.00    -0.364 OA 
ENDROOT
BRANCH   4  13
HETATM   13  C   UNL     1      -8.282   7.192  72.833  1.00  0.00    -0.122 C  
HETATM   14  C   UNL     1      -7.690   5.993  72.964  1.00  0.00    -0.102 C  
HETATM   15  C   UNL     1      -7.142   5.468  74.252  1.00  0.00    -0.082 C  
ENDBRANCH   4  13
BRANCH   6  16
HETATM   16  N   UNL     1      -9.943  11.191  68.325  1.00  0.00    -0.180 N  
HETATM   17  H   UNL     1     -10.017  11.798  69.142  1.00  0.00     0.000 HD 
HETATM   18  C   UNL     1      -9.277  11.683  67.227  1.00  0.00    -0.170 C  
HETATM   19  O   UNL     1      -9.055  11.016  66.222  1.00  0.00    -0.170 OA 
BRANCH  18  20
HETATM   20  CA  UNL     1      -8.845  13.161  67.400  1.00  0.00    -0.204 C  
HETATM   21  H2  UNL     1      -8.579  12.961  69.473  1.00  0.00     0.000 HD 
HETATM   22  N   UNL     1      -9.053  13.580  68.815  1.00  0.00    -0.389 NA 
HETATM   23  H1  UNL     1      -8.769  14.553  68.929  1.00  0.00     0.000 HD 
BRANCH  20  24
HETATM   24  C   UNL     1      -9.573  14.073  66.429  1.00  0.00    -0.299 A  
HETATM   25  C   UNL     1      -9.361  15.459  66.496  1.00  0.00    -0.311 A  
HETATM   26  C   UNL     1     -10.040  16.332  65.642  1.00  0.00    -0.340 A  
HETATM   27  C   UNL     1     -10.932  15.818  64.706  1.00  0.00    -0.393 A  
HETATM   28  C   UNL     1     -11.131  14.449  64.593  1.00  0.00    -0.363 A  
HETATM   29  O   UNL     1     -11.641  16.635  63.877  1.00  0.00    -1.582 OA 
HETATM   30  H   UNL     1     -12.249  16.284  63.238  1.00  0.00     0.000 HD 
HETATM   31  C   UNL     1     -10.449  13.578  65.445  1.00  0.00    -0.322 A  
ENDBRANCH  20  24
ENDBRANCH  18  20
ENDBRANCH   6  16
TORSDOF 4
ENDMDL
MODEL       60
REMARK 921   NORMALIZED FREE ENERGY PREDICTED BY IDOCK:   -5.59 KCAL/MOL
REMARK 922        TOTAL FREE ENERGY PREDICTED BY IDOCK:   -7.71 KCAL/MOL
REMARK 923 INTER-LIGAND FREE ENERGY PREDICTED BY IDOCK:   -6.97 KCAL/MOL
REMARK 924 INTRA-LIGAND FREE ENERGY PREDICTED BY IDOCK:   -0.74 KCAL/MOL
REMARK 927      BINDING AFFINITY PREDICTED BY RF-SCORE:    0.00 PKD
ROOT
HETATM    1  C   UNL     1     -12.282  12.424  68.451  1.00  0.00     0.159 C  
HETATM    2  S   UNL     1     -11.663  13.006  70.048  1.00  0.00    -0.148 SA 
HETATM    3  C   UNL     1     -11.886  14.743  69.626  1.00  0.00    -0.319 C  
HETATM    4  C   UNL     1     -11.358  15.157  68.257  1.00  0.00    -0.338 C  
HETATM    5  CA  UNL     1     -11.151  14.284  67.224  1.00  0.00    -0.306 C  
HETATM    6  CA  UNL     1     -11.791  11.002  68.028  1.00  0.00    -0.072 C  
HETATM    7  C   UNL     1     -10.623  14.783  65.890  1.00  0.00    -0.314 C  
HETATM    8  O   UNL     1     -10.526  11.532  65.814  1.00  0.00    -0.245 OA 
HETATM    9  N   UNL     1     -11.443  12.957  67.396  1.00  0.00    -0.315 N  
HETATM   10  OXT UNL     1     -10.750  15.938  65.506  1.00  0.00    -0.361 OA 
HETATM   11  C   UNL     1     -11.165  11.771  66.812  1.00  0.00    -0.328 C  
HETATM   12  O   UNL     1     -10.000  13.891  65.099  1.00  0.00    -0.308 OA 
ENDROOT
BRANCH   4  13
HETATM   13  C   UNL     1     -10.993  16.583  68.217  1.00  0.00    -0.346 C  
HETATM   14  C   UNL     1      -9.942  17.138  68.844  1.00  0.00    -0.304 C  
HETATM   15  C   UNL     1      -9.571  18.582  68.732  1.00  0.00    -0.365 C  
ENDBRANCH   4  13
BRANCH   6  16
HETATM   16  N   UNL     1     -10.810  10.376  68.941  1.00  0.00    -0.221 N  
HETATM   17  H   UNL     1     -10.560  10.888  69.789  1.00  0.00     0.000 HD 
HETATM   18  C   UNL     1     -10.209   9.157  68.734  1.00  0.00    -0.210 C  
HETATM   19  O   UNL     1     -10.492   8.419  67.797  1.00  0.00    -0.236 OA 
BRANCH  18  20
HETATM   20  CA  UNL     1      -9.141   8.825  69.808  1.00  0.00    -0.151 C  
HETATM   21  H2  UNL     1      -7.579   8.780  68.405  1.00  0.00     0.000 HD 
HETATM   22  N   UNL     1      -7.955   8.200  69.156  1.00  0.00    -0.111 NA 
HETATM   23  H1  UNL     1      -7.252   7.981  69.862  1.00  0.00     0.000 HD 
BRANCH  20  24
HETATM   24  C   UNL     1      -9.709   7.946  70.907  1.00  0.00    -0.177 A  
HETATM   25  C   UNL     1      -9.769   6.556  70.714  1.00  0.00    -0.194 A  
HETATM   26  C   UNL     1     -10.317   5.719  71.690  1.00  0.00    -0.266 A  
HETATM   27  C   UNL     1     -10.800   6.269  72.872  1.00  0.00    -0.256 A  
HETATM   28  C   UNL     1     -10.717   7.635  73.104  1.00  0.00    -0.445 A  
HETATM   29  O   UNL     1     -11.374   5.495  73.834  1.00  0.00    -0.390 OA 
HETATM   30  H   UNL     1     -11.704   5.871  74.642  1.00  0.00     0.000 HD 
HETATM   31  C   UNL     1     -10.167   8.470  72.129  1.00  0.00    -0.403 A  
ENDBRANCH  20  24
ENDBRANCH  18  20
ENDBRANCH   6  16
TORSDOF 4
ENDMDL
MODEL       61
REMARK 921   NORMALIZED FREE ENERGY PREDICTED BY IDOCK:   -5.55 KCAL/MOL
REMARK 922        TOTAL FREE ENERGY PREDICTED BY IDOCK:   -7.66 KCAL/MOL
REMARK 923 INTER-LIGAND FREE ENERGY PREDICTED BY IDOCK:   -6.99 KCAL/MOL
REMARK 924 INTRA-LIGAND FREE ENERGY PREDICTED BY IDOCK:   -0.68 KCAL/MOL
REMARK 927      BINDING AFFINITY PREDICTED BY RF-SCORE:    0.00 PKD
ROOT
HETATM    1  C   UNL     1      -9.894   7.195  69.271  1.00  0.00    -0.161 C  
HETATM    2  S   UNL     1      -8.211   7.689  68.830  1.00  0.00    -0.129 SA 
HETATM    3  C   UNL     1      -7.451   6.540  69.991  1.00  0.00    -0.094 C  
HETATM    4  C   UNL     1      -8.045   6.541  71.395  1.00  0.00    -0.112 C  
HETATM    5  CA  UNL     1      -9.305   6.988  71.690  1.00  0.00    -0.156 C  
HETATM    6  CA  UNL     1     -10.995   8.266  68.982  1.00  0.00     0.124 C  
HETATM    7  C   UNL     1      -9.818   6.952  73.119  1.00  0.00    -0.186 C  
HETATM    8  O   UNL     1     -11.944   8.686  71.371  1.00  0.00    -0.285 OA 
HETATM    9  N   UNL     1     -10.107   7.451  70.682  1.00  0.00    -0.190 N  
HETATM   10  OXT UNL     1      -9.383   6.189  73.971  1.00  0.00    -0.128 OA 
HETATM   11  C   UNL     1     -11.225   8.194  70.533  1.00  0.00    -0.247 C  
HETATM   12  O   UNL     1     -10.811   7.800  73.441  1.00  0.00    -0.341 OA 
ENDROOT
BRANCH   4  13
HETATM   13  C   UNL     1      -7.065   6.112  72.407  1.00  0.00    -0.084 C  
HETATM   14  C   UNL     1      -6.497   4.896  72.480  1.00  0.00    -0.046 C  
HETATM   15  C   UNL     1      -5.461   4.517  73.489  1.00  0.00    -0.008 C  
ENDBRANCH   4  13
BRANCH   6  16
HETATM   16  N   UNL     1     -10.495   9.567  68.486  1.00  0.00    -0.211 N  
HETATM   17  H   UNL     1      -9.539   9.601  68.132  1.00  0.00     0.000 HD 
HETATM   18  C   UNL     1     -11.223  10.734  68.467  1.00  0.00    -0.279 C  
HETATM   19  O   UNL     1     -12.404  10.794  68.790  1.00  0.00    -0.435 OA 
BRANCH  18  20
HETATM   20  CA  UNL     1     -10.389  11.953  67.998  1.00  0.00    -0.196 C  
HETATM   21  H2  UNL     1     -10.019  12.600  69.962  1.00  0.00     0.000 HD 
HETATM   22  N   UNL     1     -10.357  12.981  69.078  1.00  0.00    -0.436 NA 
HETATM   23  H1  UNL     1      -9.808  13.783  68.770  1.00  0.00     0.000 HD 
BRANCH  20  24
HETATM   24  C   UNL     1     -10.915  12.521  66.693  1.00  0.00    -0.303 A  
HETATM   25  C   UNL     1     -11.418  13.832  66.667  1.00  0.00    -0.362 A  
HETATM   26  C   UNL     1     -11.942  14.377  65.492  1.00  0.00    -0.358 A  
HETATM   27  C   UNL     1     -11.956  13.613  64.330  1.00  0.00    -0.445 A  
HETATM   28  C   UNL     1     -11.429  12.329  64.319  1.00  0.00    -0.429 A  
HETATM   29  O   UNL     1     -12.489  14.091  63.171  1.00  0.00    -1.137 OA 
HETATM   30  H   UNL     1     -12.498  13.570  62.377  1.00  0.00     0.000 HD 
HETATM   31  C   UNL     1     -10.903  11.787  65.493  1.00  0.00    -0.348 A  
ENDBRANCH  20  24
ENDBRANCH  18  20
ENDBRANCH   6  16
TORSDOF 4
ENDMDL
MODEL       62
REMARK 921   NORMALIZED FREE ENERGY PREDICTED BY IDOCK:   -5.55 KCAL/MOL
REMARK 922        TOTAL FREE ENERGY PREDICTED BY IDOCK:   -7.66 KCAL/MOL
REMARK 923 INTER-LIGAND FREE ENERGY PREDICTED BY IDOCK:   -7.44 KCAL/MOL
REMARK 924 INTRA-LIGAND FREE ENERGY PREDICTED BY IDOCK:   -0.22 KCAL/MOL
REMARK 927      BINDING AFFINITY PREDICTED BY RF-SCORE:    0.00 PKD
ROOT
HETATM    1  C   UNL     1      -9.041   8.883  71.577  1.00  0.00    -0.229 C  
HETATM    2  S   UNL     1      -8.652   8.605  69.832  1.00  0.00    -0.136 SA 
HETATM    3  C   UNL     1      -9.381  10.167  69.308  1.00  0.00    -0.215 C  
HETATM    4  C   UNL     1     -10.762  10.469  69.880  1.00  0.00    -0.301 C  
HETATM    5  CA  UNL     1     -11.254   9.901  71.024  1.00  0.00    -0.364 C  
HETATM    6  CA  UNL     1      -9.144   7.588  72.446  1.00  0.00    -0.136 C  
HETATM    7  C   UNL     1     -12.642  10.260  71.524  1.00  0.00    -0.440 C  
HETATM    8  O   UNL     1     -11.609   7.722  73.276  1.00  0.00    -0.248 OA 
HETATM    9  N   UNL     1     -10.476   9.019  71.725  1.00  0.00    -0.354 N  
HETATM   10  OXT UNL     1     -13.209  11.308  71.243  1.00  0.00    -0.282 OA 
HETATM   11  C   UNL     1     -10.620   8.070  72.675  1.00  0.00    -0.350 C  
HETATM   12  O   UNL     1     -13.258   9.374  72.327  1.00  0.00    -0.422 OA 
ENDROOT
BRANCH   4  13
HETATM   13  C   UNL     1     -11.541  11.353  68.997  1.00  0.00    -0.383 C  
HETATM   14  C   UNL     1     -11.163  12.573  68.581  1.00  0.00    -0.319 C  
HETATM   15  C   UNL     1     -11.958  13.417  67.637  1.00  0.00    -0.362 C  
ENDBRANCH   4  13
BRANCH   6  16
HETATM   16  N   UNL     1      -9.012   6.316  71.702  1.00  0.00    -0.144 N  
HETATM   17  H   UNL     1      -8.466   6.328  70.840  1.00  0.00     0.000 HD 
HETATM   18  C   UNL     1      -9.570   5.119  72.084  1.00  0.00    -0.152 C  
HETATM   19  O   UNL     1     -10.175   4.967  73.140  1.00  0.00    -0.164 OA 
BRANCH  18  20
HETATM   20  CA  UNL     1      -9.353   3.996  71.040  1.00  0.00    -0.149 C  
HETATM   21  H2  UNL     1      -7.646   3.259  72.017  1.00  0.00     0.000 HD 
HETATM   22  N   UNL     1      -7.933   3.544  71.080  1.00  0.00    -0.058 NA 
HETATM   23  H1  UNL     1      -7.790   2.804  70.393  1.00  0.00     0.000 HD 
BRANCH  20  24
HETATM   24  C   UNL     1      -9.764   4.439  69.648  1.00  0.00    -0.289 A  
HETATM   25  C   UNL     1     -10.606   5.553  69.502  1.00  0.00    -0.366 A  
HETATM   26  C   UNL     1     -11.033   5.970  68.238  1.00  0.00    -0.347 A  
HETATM   27  C   UNL     1     -10.609   5.277  67.109  1.00  0.00    -0.155 A  
HETATM   28  C   UNL     1      -9.746   4.196  67.223  1.00  0.00    -0.214 A  
HETATM   29  O   UNL     1     -11.029   5.627  65.861  1.00  0.00    -0.633 OA 
HETATM   30  H   UNL     1     -10.739   5.154  65.090  1.00  0.00     0.000 HD 
HETATM   31  C   UNL     1      -9.317   3.783  68.486  1.00  0.00    -0.227 A  
ENDBRANCH  20  24
ENDBRANCH  18  20
ENDBRANCH   6  16
TORSDOF 4
ENDMDL
MODEL       63
REMARK 921   NORMALIZED FREE ENERGY PREDICTED BY IDOCK:   -5.51 KCAL/MOL
REMARK 922        TOTAL FREE ENERGY PREDICTED BY IDOCK:   -7.61 KCAL/MOL
REMARK 923 INTER-LIGAND FREE ENERGY PREDICTED BY IDOCK:   -6.94 KCAL/MOL
REMARK 924 INTRA-LIGAND FREE ENERGY PREDICTED BY IDOCK:   -0.67 KCAL/MOL
REMARK 927      BINDING AFFINITY PREDICTED BY RF-SCORE:    0.00 PKD
ROOT
HETATM    1  C   UNL     1      -8.903   8.162  71.328  1.00  0.00    -0.146 C  
HETATM    2  S   UNL     1     -10.450   8.146  72.265  1.00  0.00    -0.329 SA 
HETATM    3  C   UNL     1     -10.213   6.455  72.840  1.00  0.00    -0.191 C  
HETATM    4  C   UNL     1      -9.806   5.451  71.767  1.00  0.00    -0.223 C  
HETATM    5  CA  UNL     1      -9.215   5.798  70.582  1.00  0.00    -0.152 C  
HETATM    6  CA  UNL     1      -8.852   9.191  70.152  1.00  0.00    -0.197 C  
HETATM    7  C   UNL     1      -8.841   4.731  69.569  1.00  0.00    -0.087 C  
HETATM    8  O   UNL     1      -8.494   7.617  68.108  1.00  0.00    -0.123 OA 
HETATM    9  N   UNL     1      -8.947   7.116  70.325  1.00  0.00    -0.151 N  
HETATM   10  OXT UNL     1      -8.635   3.562  69.867  1.00  0.00    -0.054 OA 
HETATM   11  C   UNL     1      -8.657   7.908  69.270  1.00  0.00    -0.138 C  
HETATM   12  O   UNL     1      -8.721   5.114  68.284  1.00  0.00    -0.102 OA 
ENDROOT
BRANCH   4  13
HETATM   13  C   UNL     1     -10.226   4.081  72.109  1.00  0.00    -0.210 C  
HETATM   14  C   UNL     1     -10.865   3.717  73.233  1.00  0.00    -0.290 C  
HETATM   15  C   UNL     1     -11.326   2.323  73.517  1.00  0.00    -0.314 C  
ENDBRANCH   4  13
BRANCH   6  16
HETATM   16  N   UNL     1     -10.109   9.931  69.907  1.00  0.00    -0.245 N  
HETATM   17  H   UNL     1     -10.931   9.658  70.446  1.00  0.00     0.000 HD 
HETATM   18  C   UNL     1     -10.252  10.961  69.007  1.00  0.00    -0.203 C  
HETATM   19  O   UNL     1      -9.317  11.427  68.366  1.00  0.00    -0.183 OA 
BRANCH  18  20
HETATM   20  CA  UNL     1     -11.716  11.458  68.893  1.00  0.00    -0.343 C  
HETATM   21  H2  UNL     1     -11.685  11.421  66.793  1.00  0.00     0.000 HD 
HETATM   22  N   UNL     1     -11.934  12.061  67.547  1.00  0.00    -0.578 NA 
HETATM   23  H1  UNL     1     -12.898  12.388  67.471  1.00  0.00     0.000 HD 
BRANCH  20  24
HETATM   24  C   UNL     1     -12.066  12.425  70.008  1.00  0.00    -0.335 A  
HETATM   25  C   UNL     1     -12.763  11.955  71.133  1.00  0.00    -0.384 A  
HETATM   26  C   UNL     1     -13.133  12.824  72.163  1.00  0.00    -0.454 A  
HETATM   27  C   UNL     1     -12.796  14.171  72.078  1.00  0.00    -0.338 A  
HETATM   28  C   UNL     1     -12.073  14.653  70.996  1.00  0.00    -0.393 A  
HETATM   29  O   UNL     1     -13.167  15.059  73.042  1.00  0.00    -0.450 OA 
HETATM   30  H   UNL     1     -12.936  15.978  72.983  1.00  0.00     0.000 HD 
HETATM   31  C   UNL     1     -11.702  13.784  69.968  1.00  0.00    -0.327 A  
ENDBRANCH  20  24
ENDBRANCH  18  20
ENDBRANCH   6  16
TORSDOF 4
ENDMDL
MODEL       64
REMARK 921   NORMALIZED FREE ENERGY PREDICTED BY IDOCK:   -5.48 KCAL/MOL
REMARK 922        TOTAL FREE ENERGY PREDICTED BY IDOCK:   -7.57 KCAL/MOL
REMARK 923 INTER-LIGAND FREE ENERGY PREDICTED BY IDOCK:   -7.41 KCAL/MOL
REMARK 924 INTRA-LIGAND FREE ENERGY PREDICTED BY IDOCK:   -0.15 KCAL/MOL
REMARK 927      BINDING AFFINITY PREDICTED BY RF-SCORE:    0.00 PKD
ROOT
HETATM    1  C   UNL     1     -11.771   6.263  70.805  1.00  0.00    -0.220 C  
HETATM    2  S   UNL     1     -11.020   6.519  69.180  1.00  0.00    -0.325 SA 
HETATM    3  C   UNL     1     -10.090   4.977  69.245  1.00  0.00    -0.200 C  
HETATM    4  C   UNL     1      -9.340   4.721  70.548  1.00  0.00    -0.219 C  
HETATM    5  CA  UNL     1      -9.660   5.309  71.741  1.00  0.00    -0.150 C  
HETATM    6  CA  UNL     1     -12.247   7.566  71.527  1.00  0.00    -0.331 C  
HETATM    7  C   UNL     1      -8.859   4.996  72.992  1.00  0.00    -0.116 C  
HETATM    8  O   UNL     1     -10.799   7.512  73.691  1.00  0.00    -0.329 OA 
HETATM    9  N   UNL     1     -10.723   6.171  71.802  1.00  0.00    -0.234 N  
HETATM   10  OXT UNL     1      -8.218   3.964  73.140  1.00  0.00    -0.086 OA 
HETATM   11  C   UNL     1     -11.208   7.130  72.620  1.00  0.00    -0.293 C  
HETATM   12  O   UNL     1      -8.881   5.905  73.984  1.00  0.00    -0.122 OA 
ENDROOT
BRANCH   4  13
HETATM   13  C   UNL     1      -8.166   3.855  70.345  1.00  0.00    -0.071 C  
HETATM   14  C   UNL     1      -7.680   3.464  69.155  1.00  0.00    -0.051 C  
HETATM   15  C   UNL     1      -6.449   2.631  68.988  1.00  0.00    -0.029 C  
ENDBRANCH   4  13
BRANCH   6  16
HETATM   16  N   UNL     1     -11.923   8.829  70.827  1.00  0.00    -0.455 N  
HETATM   17  H   UNL     1     -10.973   8.941  70.471  1.00  0.00     0.000 HD 
HETATM   18  C   UNL     1     -12.805   9.863  70.622  1.00  0.00    -0.137 C  
HETATM   19  O   UNL     1     -13.990   9.806  70.932  1.00  0.00    -0.094 OA 
BRANCH  18  20
HETATM   20  CA  UNL     1     -12.140  11.097  69.962  1.00  0.00    -0.359 C  
HETATM   21  H2  UNL     1     -10.390  10.040  69.480  1.00  0.00     0.000 HD 
HETATM   22  N   UNL     1     -10.661  10.912  69.935  1.00  0.00    -0.451 NA 
HETATM   23  H1  UNL     1     -10.222  11.724  69.501  1.00  0.00     0.000 HD 
BRANCH  20  24
HETATM   24  C   UNL     1     -12.534  12.384  70.662  1.00  0.00    -0.320 A  
HETATM   25  C   UNL     1     -12.229  13.616  70.061  1.00  0.00    -0.395 A  
HETATM   26  C   UNL     1     -12.545  14.822  70.692  1.00  0.00    -0.414 A  
HETATM   27  C   UNL     1     -13.181  14.801  71.929  1.00  0.00    -0.345 A  
HETATM   28  C   UNL     1     -13.528  13.598  72.528  1.00  0.00    -0.675 A  
HETATM   29  O   UNL     1     -13.476  15.952  72.596  1.00  0.00    -0.508 OA 
HETATM   30  H   UNL     1     -13.911  15.937  73.441  1.00  0.00     0.000 HD 
HETATM   31  C   UNL     1     -13.214  12.394  71.894  1.00  0.00    -0.486 A  
ENDBRANCH  20  24
ENDBRANCH  18  20
ENDBRANCH   6  16
TORSDOF 4
ENDMDL
MODEL       65
REMARK 921   NORMALIZED FREE ENERGY PREDICTED BY IDOCK:   -5.43 KCAL/MOL
REMARK 922        TOTAL FREE ENERGY PREDICTED BY IDOCK:   -7.51 KCAL/MOL
REMARK 923 INTER-LIGAND FREE ENERGY PREDICTED BY IDOCK:   -6.90 KCAL/MOL
REMARK 924 INTRA-LIGAND FREE ENERGY PREDICTED BY IDOCK:   -0.60 KCAL/MOL
REMARK 927      BINDING AFFINITY PREDICTED BY RF-SCORE:    0.00 PKD
ROOT
HETATM    1  C   UNL     1     -11.121  13.139  67.274  1.00  0.00    -0.279 C  
HETATM    2  S   UNL     1      -9.400  13.598  67.590  1.00  0.00    -0.225 SA 
HETATM    3  C   UNL     1      -9.709  15.356  67.343  1.00  0.00    -0.215 C  
HETATM    4  C   UNL     1     -10.515  15.709  66.099  1.00  0.00    -0.327 C  
HETATM    5  CA  UNL     1     -11.341  14.832  65.450  1.00  0.00    -0.356 C  
HETATM    6  CA  UNL     1     -11.336  11.666  66.794  1.00  0.00    -0.286 C  
HETATM    7  C   UNL     1     -12.109  15.269  64.215  1.00  0.00    -0.208 C  
HETATM    8  O   UNL     1     -12.426  12.041  64.459  1.00  0.00    -0.317 OA 
HETATM    9  N   UNL     1     -11.484  13.559  65.935  1.00  0.00    -0.313 N  
HETATM   10  OXT UNL     1     -12.389  16.437  63.975  1.00  0.00    -0.734 OA 
HETATM   11  C   UNL     1     -11.928  12.355  65.514  1.00  0.00    -0.391 C  
HETATM   12  O   UNL     1     -12.507  14.308  63.362  1.00  0.00    -0.761 OA 
ENDROOT
BRANCH   4  13
HETATM   13  C   UNL     1     -10.212  17.067  65.615  1.00  0.00    -0.196 C  
HETATM   14  C   UNL     1     -10.373  18.201  66.318  1.00  0.00    -0.407 C  
HETATM   15  C   UNL     1      -9.998  19.557  65.812  1.00  0.00    -0.249 C  
ENDBRANCH   4  13
BRANCH   6  16
HETATM   16  N   UNL     1     -10.097  10.890  66.567  1.00  0.00    -0.215 N  
HETATM   17  H   UNL     1      -9.239  11.411  66.388  1.00  0.00     0.000 HD 
HETATM   18  C   UNL     1     -10.016   9.517  66.580  1.00  0.00    -0.247 C  
HETATM   19  O   UNL     1     -10.963   8.791  66.865  1.00  0.00    -0.060 OA 
BRANCH  18  20
HETATM   20  CA  UNL     1      -8.609   8.996  66.195  1.00  0.00    -0.135 C  
HETATM   21  H2  UNL     1      -8.907   9.362  64.148  1.00  0.00     0.000 HD 
HETATM   22  N   UNL     1      -8.598   8.603  64.757  1.00  0.00    -0.323 NA 
HETATM   23  H1  UNL     1      -7.671   8.260  64.503  1.00  0.00     0.000 HD 
BRANCH  20  24
HETATM   24  C   UNL     1      -8.170   7.855  67.094  1.00  0.00    -0.118 A  
HETATM   25  C   UNL     1      -8.088   8.064  68.480  1.00  0.00    -0.125 A  
HETATM   26  C   UNL     1      -7.655   7.047  69.335  1.00  0.00    -0.099 A  
HETATM   27  C   UNL     1      -7.310   5.808  68.806  1.00  0.00    -0.084 A  
HETATM   28  C   UNL     1      -7.419   5.563  67.444  1.00  0.00    -0.084 A  
HETATM   29  O   UNL     1      -6.850   4.800  69.599  1.00  0.00    -0.048 OA 
HETATM   30  H   UNL     1      -6.615   3.953  69.237  1.00  0.00     0.000 HD 
HETATM   31  C   UNL     1      -7.855   6.579  66.592  1.00  0.00    -0.104 A  
ENDBRANCH  20  24
ENDBRANCH  18  20
ENDBRANCH   6  16
TORSDOF 4
ENDMDL
MODEL       66
REMARK 921   NORMALIZED FREE ENERGY PREDICTED BY IDOCK:   -5.38 KCAL/MOL
REMARK 922        TOTAL FREE ENERGY PREDICTED BY IDOCK:   -7.45 KCAL/MOL
REMARK 923 INTER-LIGAND FREE ENERGY PREDICTED BY IDOCK:   -6.77 KCAL/MOL
REMARK 924 INTRA-LIGAND FREE ENERGY PREDICTED BY IDOCK:   -0.68 KCAL/MOL
REMARK 927      BINDING AFFINITY PREDICTED BY RF-SCORE:    0.00 PKD
ROOT
HETATM    1  C   UNL     1     -12.243  11.139  68.997  1.00  0.00    -0.125 C  
HETATM    2  S   UNL     1     -12.040  10.713  70.744  1.00  0.00    -0.395 SA 
HETATM    3  C   UNL     1     -12.790  12.247  71.318  1.00  0.00    -0.239 C  
HETATM    4  C   UNL     1     -12.283  13.516  70.642  1.00  0.00    -0.434 C  
HETATM    5  CA  UNL     1     -11.678  13.536  69.415  1.00  0.00    -0.325 C  
HETATM    6  CA  UNL     1     -11.255  10.420  68.022  1.00  0.00    -0.272 C  
HETATM    7  C   UNL     1     -11.203  14.847  68.813  1.00  0.00    -0.275 C  
HETATM    8  O   UNL     1     -10.004  12.449  66.972  1.00  0.00    -0.209 OA 
HETATM    9  N   UNL     1     -11.520  12.365  68.723  1.00  0.00    -0.279 N  
HETATM   10  OXT UNL     1     -11.669  15.936  69.121  1.00  0.00    -0.376 OA 
HETATM   11  C   UNL     1     -10.793  11.883  67.691  1.00  0.00    -0.227 C  
HETATM   12  O   UNL     1     -10.230  14.786  67.886  1.00  0.00    -0.226 OA 
ENDROOT
BRANCH   4  13
HETATM   13  C   UNL     1     -12.419  14.695  71.513  1.00  0.00    -0.411 C  
HETATM   14  C   UNL     1     -12.824  14.678  72.795  1.00  0.00    -0.530 C  
HETATM   15  C   UNL     1     -12.894  15.892  73.664  1.00  0.00    -0.717 C  
ENDBRANCH   4  13
BRANCH   6  16
HETATM   16  N   UNL     1     -10.229   9.575  68.672  1.00  0.00    -0.188 N  
HETATM   17  H   UNL     1     -10.283   9.462  69.685  1.00  0.00     0.000 HD 
HETATM   18  C   UNL     1      -9.208   8.931  68.014  1.00  0.00    -0.139 C  
HETATM   19  O   UNL     1      -9.093   8.928  66.793  1.00  0.00    -0.134 OA 
BRANCH  18  20
HETATM   20  CA  UNL     1      -8.228   8.219  68.980  1.00  0.00    -0.119 C  
HETATM   21  H2  UNL     1      -6.562   9.265  68.245  1.00  0.00     0.000 HD 
HETATM   22  N   UNL     1      -6.842   8.303  68.437  1.00  0.00    -0.064 NA 
HETATM   23  H1  UNL     1      -6.196   7.834  69.072  1.00  0.00     0.000 HD 
BRANCH  20  24
HETATM   24  C   UNL     1      -8.645   6.783  69.240  1.00  0.00    -0.129 A  
HETATM   25  C   UNL     1      -9.539   6.505  70.286  1.00  0.00    -0.172 A  
HETATM   26  C   UNL     1      -9.918   5.191  70.577  1.00  0.00    -0.304 A  
HETATM   27  C   UNL     1      -9.410   4.147  69.813  1.00  0.00    -0.167 A  
HETATM   28  C   UNL     1      -8.555   4.397  68.749  1.00  0.00    -0.102 A  
HETATM   29  O   UNL     1      -9.725   2.849  70.084  1.00  0.00    -0.110 OA 
HETATM   30  H   UNL     1      -9.378   2.136  69.561  1.00  0.00     0.000 HD 
HETATM   31  C   UNL     1      -8.179   5.710  68.457  1.00  0.00    -0.106 A  
ENDBRANCH  20  24
ENDBRANCH  18  20
ENDBRANCH   6  16
TORSDOF 4
ENDMDL
MODEL       67
REMARK 921   NORMALIZED FREE ENERGY PREDICTED BY IDOCK:   -5.37 KCAL/MOL
REMARK 922        TOTAL FREE ENERGY PREDICTED BY IDOCK:   -7.44 KCAL/MOL
REMARK 923 INTER-LIGAND FREE ENERGY PREDICTED BY IDOCK:   -6.79 KCAL/MOL
REMARK 924 INTRA-LIGAND FREE ENERGY PREDICTED BY IDOCK:   -0.65 KCAL/MOL
REMARK 927      BINDING AFFINITY PREDICTED BY RF-SCORE:    0.00 PKD
ROOT
HETATM    1  C   UNL     1     -11.551   8.248  72.259  1.00  0.00    -0.383 C  
HETATM    2  S   UNL     1     -12.535   7.083  71.285  1.00  0.00    -0.358 SA 
HETATM    3  C   UNL     1     -12.387   5.767  72.507  1.00  0.00     0.169 C  
HETATM    4  C   UNL     1     -10.979   5.523  73.038  1.00  0.00    -0.336 C  
HETATM    5  CA  UNL     1      -9.977   6.453  72.997  1.00  0.00    -0.174 C  
HETATM    6  CA  UNL     1     -10.866   9.386  71.435  1.00  0.00    -0.360 C  
HETATM    7  C   UNL     1      -8.601   6.127  73.551  1.00  0.00    -0.125 C  
HETATM    8  O   UNL     1      -8.350   8.939  71.935  1.00  0.00    -0.349 OA 
HETATM    9  N   UNL     1     -10.229   7.691  72.467  1.00  0.00    -0.223 N  
HETATM   10  OXT UNL     1      -8.405   5.268  74.401  1.00  0.00    -0.104 OA 
HETATM   11  C   UNL     1      -9.543   8.753  71.991  1.00  0.00    -0.286 C  
HETATM   12  O   UNL     1      -7.560   6.838  73.081  1.00  0.00    -0.087 OA 
ENDROOT
BRANCH   4  13
HETATM   13  C   UNL     1     -10.798   4.135  73.496  1.00  0.00    -0.340 C  
HETATM   14  C   UNL     1     -10.533   3.080  72.707  1.00  0.00    -0.212 C  
HETATM   15  C   UNL     1     -10.298   1.694  73.217  1.00  0.00    -0.183 C  
ENDBRANCH   4  13
BRANCH   6  16
HETATM   16  N   UNL     1     -11.033   9.291  69.968  1.00  0.00    -0.234 N  
HETATM   17  H   UNL     1     -11.720   8.625  69.613  1.00  0.00     0.000 HD 
HETATM   18  C   UNL     1     -10.333  10.033  69.047  1.00  0.00    -0.206 C  
HETATM   19  O   UNL     1      -9.544  10.919  69.358  1.00  0.00    -0.114 OA 
BRANCH  18  20
HETATM   20  CA  UNL     1     -10.646   9.625  67.585  1.00  0.00    -0.275 C  
HETATM   21  H2  UNL     1      -9.543   7.843  67.724  1.00  0.00     0.000 HD 
HETATM   22  N   UNL     1      -9.622   8.652  67.107  1.00  0.00    -0.161 NA 
HETATM   23  H1  UNL     1      -9.829   8.383  66.145  1.00  0.00     0.000 HD 
BRANCH  20  24
HETATM   24  C   UNL     1     -10.741  10.836  66.675  1.00  0.00    -0.268 A  
HETATM   25  C   UNL     1      -9.891  10.928  65.561  1.00  0.00    -0.298 A  
HETATM   26  C   UNL     1      -9.926  12.045  64.722  1.00  0.00    -0.241 A  
HETATM   27  C   UNL     1     -10.822  13.074  64.988  1.00  0.00    -0.308 A  
HETATM   28  C   UNL     1     -11.700  12.990  66.060  1.00  0.00    -0.442 A  
HETATM   29  O   UNL     1     -10.866  14.196  64.216  1.00  0.00    -0.600 OA 
HETATM   30  H   UNL     1     -11.479  14.899  64.398  1.00  0.00     0.000 HD 
HETATM   31  C   UNL     1     -11.667  11.873  66.896  1.00  0.00    -0.291 A  
ENDBRANCH  20  24
ENDBRANCH  18  20
ENDBRANCH   6  16
TORSDOF 4
ENDMDL
MODEL       68
REMARK 921   NORMALIZED FREE ENERGY PREDICTED BY IDOCK:   -5.37 KCAL/MOL
REMARK 922        TOTAL FREE ENERGY PREDICTED BY IDOCK:   -7.44 KCAL/MOL
REMARK 923 INTER-LIGAND FREE ENERGY PREDICTED BY IDOCK:   -7.54 KCAL/MOL
REMARK 924 INTRA-LIGAND FREE ENERGY PREDICTED BY IDOCK:    0.10 KCAL/MOL
REMARK 927      BINDING AFFINITY PREDICTED BY RF-SCORE:    0.00 PKD
ROOT
HETATM    1  C   UNL     1      -9.458  12.452  66.465  1.00  0.00    -0.242 C  
HETATM    2  S   UNL     1     -10.921  12.923  67.419  1.00  0.00    -0.269 SA 
HETATM    3  C   UNL     1     -10.803  14.658  66.950  1.00  0.00    -0.305 C  
HETATM    4  C   UNL     1      -9.416  15.277  67.076  1.00  0.00    -0.235 C  
HETATM    5  CA  UNL     1      -8.255  14.552  67.087  1.00  0.00    -0.188 C  
HETATM    6  CA  UNL     1      -8.741  11.150  66.951  1.00  0.00    -0.152 C  
HETATM    7  C   UNL     1      -6.913  15.251  67.215  1.00  0.00    -0.116 C  
HETATM    8  O   UNL     1      -6.379  12.061  67.563  1.00  0.00    -0.088 OA 
HETATM    9  N   UNL     1      -8.312  13.190  66.961  1.00  0.00    -0.134 N  
HETATM   10  OXT UNL     1      -6.730  16.419  66.898  1.00  0.00    -0.198 OA 
HETATM   11  C   UNL     1      -7.525  12.115  67.181  1.00  0.00    -0.129 C  
HETATM   12  O   UNL     1      -5.883  14.528  67.690  1.00  0.00    -0.298 OA 
ENDROOT
BRANCH   4  13
HETATM   13  C   UNL     1      -9.481  16.732  67.299  1.00  0.00    -0.231 C  
HETATM   14  C   UNL     1     -10.554  17.407  67.745  1.00  0.00    -0.371 C  
HETATM   15  C   UNL     1     -10.562  18.878  68.013  1.00  0.00    -0.376 C  
ENDBRANCH   4  13
BRANCH   6  16
HETATM   16  N   UNL     1      -9.298  10.545  68.181  1.00  0.00    -0.145 N  
HETATM   17  H   UNL     1      -8.867  10.802  69.070  1.00  0.00     0.000 HD 
HETATM   18  C   UNL     1     -10.351   9.663  68.216  1.00  0.00    -0.204 C  
HETATM   19  O   UNL     1     -10.996   9.347  67.222  1.00  0.00    -0.183 OA 
BRANCH  18  20
HETATM   20  CA  UNL     1     -10.628   9.115  69.639  1.00  0.00    -0.228 C  
HETATM   21  H2  UNL     1     -10.550   7.113  69.009  1.00  0.00     0.000 HD 
HETATM   22  N   UNL     1     -11.164   7.727  69.545  1.00  0.00    -0.446 NA 
HETATM   23  H1  UNL     1     -11.345   7.366  70.481  1.00  0.00     0.000 HD 
BRANCH  20  24
HETATM   24  C   UNL     1     -11.558  10.027  70.418  1.00  0.00    -0.379 A  
HETATM   25  C   UNL     1     -11.622  11.390  70.087  1.00  0.00    -0.368 A  
HETATM   26  C   UNL     1     -12.441  12.266  70.804  1.00  0.00    -0.356 A  
HETATM   27  C   UNL     1     -13.211  11.778  71.855  1.00  0.00    -0.362 A  
HETATM   28  C   UNL     1     -13.196  10.428  72.177  1.00  0.00    -0.418 A  
HETATM   29  O   UNL     1     -13.997  12.602  72.603  1.00  0.00    -0.655 OA 
HETATM   30  H   UNL     1     -14.523  12.268  73.320  1.00  0.00     0.000 HD 
HETATM   31  C   UNL     1     -12.380   9.553  71.457  1.00  0.00    -0.465 A  
ENDBRANCH  20  24
ENDBRANCH  18  20
ENDBRANCH   6  16
TORSDOF 4
ENDMDL
MODEL       69
REMARK 921   NORMALIZED FREE ENERGY PREDICTED BY IDOCK:   -5.36 KCAL/MOL
REMARK 922        TOTAL FREE ENERGY PREDICTED BY IDOCK:   -7.43 KCAL/MOL
REMARK 923 INTER-LIGAND FREE ENERGY PREDICTED BY IDOCK:   -6.75 KCAL/MOL
REMARK 924 INTRA-LIGAND FREE ENERGY PREDICTED BY IDOCK:   -0.67 KCAL/MOL
REMARK 927      BINDING AFFINITY PREDICTED BY RF-SCORE:    0.00 PKD
ROOT
HETATM    1  C   UNL     1      -8.081   9.613  66.516  1.00  0.00    -0.119 C  
HETATM    2  S   UNL     1      -9.560   8.943  65.719  1.00  0.00    -0.089 SA 
HETATM    3  C   UNL     1      -9.776  10.385  64.660  1.00  0.00    -0.329 C  
HETATM    4  C   UNL     1      -9.671  11.734  65.363  1.00  0.00    -0.242 C  
HETATM    5  CA  UNL     1      -9.029  11.925  66.556  1.00  0.00    -0.199 C  
HETATM    6  CA  UNL     1      -7.775   9.035  67.936  1.00  0.00    -0.097 C  
HETATM    7  C   UNL     1      -8.971  13.305  67.186  1.00  0.00    -0.229 C  
HETATM    8  O   UNL     1      -7.886  11.184  69.401  1.00  0.00    -0.063 OA 
HETATM    9  N   UNL     1      -8.420  10.862  67.169  1.00  0.00    -0.126 N  
HETATM   10  OXT UNL     1      -9.082  14.342  66.545  1.00  0.00    -0.249 OA 
HETATM   11  C   UNL     1      -7.946  10.527  68.389  1.00  0.00    -0.116 C  
HETATM   12  O   UNL     1      -8.774  13.370  68.515  1.00  0.00    -0.157 OA 
ENDROOT
BRANCH   4  13
HETATM   13  C   UNL     1     -10.438  12.779  64.663  1.00  0.00    -0.373 C  
HETATM   14  C   UNL     1     -11.716  13.110  64.913  1.00  0.00    -0.377 C  
HETATM   15  C   UNL     1     -12.443  14.217  64.219  1.00  0.00    -0.304 C  
ENDBRANCH   4  13
BRANCH   6  16
HETATM   16  N   UNL     1      -8.790   8.101  68.469  1.00  0.00    -0.134 N  
HETATM   17  H   UNL     1      -9.536   7.804  67.838  1.00  0.00     0.000 HD 
HETATM   18  C   UNL     1      -8.805   7.602  69.750  1.00  0.00    -0.140 C  
HETATM   19  O   UNL     1      -7.917   7.823  70.567  1.00  0.00    -0.095 OA 
BRANCH  18  20
HETATM   20  CA  UNL     1     -10.058   6.740  70.044  1.00  0.00    -0.184 C  
HETATM   21  H2  UNL     1      -9.837   5.613  68.286  1.00  0.00     0.000 HD 
HETATM   22  N   UNL     1     -10.561   6.140  68.775  1.00  0.00    -0.241 NA 
HETATM   23  H1  UNL     1     -11.386   5.572  68.968  1.00  0.00     0.000 HD 
BRANCH  20  24
HETATM   24  C   UNL     1     -11.134   7.542  70.753  1.00  0.00    -0.280 A  
HETATM   25  C   UNL     1     -12.356   6.926  71.069  1.00  0.00    -0.401 A  
HETATM   26  C   UNL     1     -13.382   7.643  71.691  1.00  0.00    -0.400 A  
HETATM   27  C   UNL     1     -13.186   8.983  72.008  1.00  0.00    -0.429 A  
HETATM   28  C   UNL     1     -11.974   9.605  71.742  1.00  0.00    -0.421 A  
HETATM   29  O   UNL     1     -14.171   9.729  72.583  1.00  0.00    -0.599 OA 
HETATM   30  H   UNL     1     -14.037  10.644  72.800  1.00  0.00     0.000 HD 
HETATM   31  C   UNL     1     -10.949   8.887  71.124  1.00  0.00    -0.356 A  
ENDBRANCH  20  24
ENDBRANCH  18  20
ENDBRANCH   6  16
TORSDOF 4
ENDMDL
MODEL       70
REMARK 921   NORMALIZED FREE ENERGY PREDICTED BY IDOCK:   -5.34 KCAL/MOL
REMARK 922        TOTAL FREE ENERGY PREDICTED BY IDOCK:   -7.40 KCAL/MOL
REMARK 923 INTER-LIGAND FREE ENERGY PREDICTED BY IDOCK:   -6.79 KCAL/MOL
REMARK 924 INTRA-LIGAND FREE ENERGY PREDICTED BY IDOCK:   -0.61 KCAL/MOL
REMARK 927      BINDING AFFINITY PREDICTED BY RF-SCORE:    0.00 PKD
ROOT
HETATM    1  C   UNL     1      -7.778   9.592  66.468  1.00  0.00    -0.098 C  
HETATM    2  S   UNL     1      -9.221   8.782  65.737  1.00  0.00    -0.174 SA 
HETATM    3  C   UNL     1      -9.665  10.221  64.748  1.00  0.00    -0.332 C  
HETATM    4  C   UNL     1      -9.667  11.551  65.494  1.00  0.00    -0.259 C  
HETATM    5  CA  UNL     1      -8.975  11.778  66.652  1.00  0.00    -0.195 C  
HETATM    6  CA  UNL     1      -7.319   9.009  67.844  1.00  0.00    -0.084 C  
HETATM    7  C   UNL     1      -9.033  13.135  67.329  1.00  0.00    -0.216 C  
HETATM    8  O   UNL     1      -7.577  11.086  69.394  1.00  0.00    -0.128 OA 
HETATM    9  N   UNL     1      -8.213  10.773  67.187  1.00  0.00    -0.121 N  
HETATM   10  OXT UNL     1      -9.299  14.172  66.736  1.00  0.00    -0.261 OA 
HETATM   11  C   UNL     1      -7.627  10.458  68.363  1.00  0.00    -0.093 C  
HETATM   12  O   UNL     1      -8.759  13.182  68.646  1.00  0.00    -0.091 OA 
ENDROOT
BRANCH   4  13
HETATM   13  C   UNL     1     -10.590  12.522  64.881  1.00  0.00    -0.330 C  
HETATM   14  C   UNL     1     -11.373  12.292  63.814  1.00  0.00    -0.534 C  
HETATM   15  C   UNL     1     -12.340  13.287  63.257  1.00  0.00    -0.317 C  
ENDBRANCH   4  13
BRANCH   6  16
HETATM   16  N   UNL     1      -8.187   7.949  68.402  1.00  0.00    -0.123 N  
HETATM   17  H   UNL     1      -8.863   7.514  67.774  1.00  0.00     0.000 HD 
HETATM   18  C   UNL     1      -8.151   7.507  69.703  1.00  0.00    -0.127 C  
HETATM   19  O   UNL     1      -7.327   7.898  70.523  1.00  0.00    -0.065 OA 
BRANCH  18  20
HETATM   20  CA  UNL     1      -9.260   6.471  70.015  1.00  0.00    -0.157 C  
HETATM   21  H2  UNL     1      -8.897   5.381  68.257  1.00  0.00     0.000 HD 
HETATM   22  N   UNL     1      -9.685   5.799  68.754  1.00  0.00    -0.126 NA 
HETATM   23  H1  UNL     1     -10.415   5.116  68.959  1.00  0.00     0.000 HD 
BRANCH  20  24
HETATM   24  C   UNL     1     -10.433   7.109  70.736  1.00  0.00    -0.227 A  
HETATM   25  C   UNL     1     -10.264   8.358  71.356  1.00  0.00    -0.284 A  
HETATM   26  C   UNL     1     -11.312   8.959  72.058  1.00  0.00    -0.427 A  
HETATM   27  C   UNL     1     -12.542   8.315  72.136  1.00  0.00    -0.337 A  
HETATM   28  C   UNL     1     -12.748   7.099  71.500  1.00  0.00    -0.433 A  
HETATM   29  O   UNL     1     -13.580   8.849  72.839  1.00  0.00    -0.824 OA 
HETATM   30  H   UNL     1     -14.421   8.409  72.892  1.00  0.00     0.000 HD 
HETATM   31  C   UNL     1     -11.701   6.501  70.795  1.00  0.00    -0.427 A  
ENDBRANCH  20  24
ENDBRANCH  18  20
ENDBRANCH   6  16
TORSDOF 4
ENDMDL
MODEL       71
REMARK 921   NORMALIZED FREE ENERGY PREDICTED BY IDOCK:   -5.31 KCAL/MOL
REMARK 922        TOTAL FREE ENERGY PREDICTED BY IDOCK:   -7.37 KCAL/MOL
REMARK 923 INTER-LIGAND FREE ENERGY PREDICTED BY IDOCK:   -6.77 KCAL/MOL
REMARK 924 INTRA-LIGAND FREE ENERGY PREDICTED BY IDOCK:   -0.60 KCAL/MOL
REMARK 927      BINDING AFFINITY PREDICTED BY RF-SCORE:    0.00 PKD
ROOT
HETATM    1  C   UNL     1      -8.976   7.807  68.544  1.00  0.00    -0.133 C  
HETATM    2  S   UNL     1     -10.463   7.910  67.519  1.00  0.00    -0.248 SA 
HETATM    3  C   UNL     1      -9.536   8.256  66.014  1.00  0.00    -0.119 C  
HETATM    4  C   UNL     1      -8.459   9.328  66.141  1.00  0.00    -0.135 C  
HETATM    5  CA  UNL     1      -7.887   9.697  67.327  1.00  0.00    -0.095 C  
HETATM    6  CA  UNL     1      -9.200   8.084  70.066  1.00  0.00    -0.156 C  
HETATM    7  C   UNL     1      -6.819  10.777  67.362  1.00  0.00    -0.078 C  
HETATM    8  O   UNL     1      -7.671  10.158  70.440  1.00  0.00    -0.230 OA 
HETATM    9  N   UNL     1      -8.271   9.072  68.483  1.00  0.00    -0.111 N  
HETATM   10  OXT UNL     1      -6.121  11.064  66.399  1.00  0.00    -0.115 OA 
HETATM   11  C   UNL     1      -8.202   9.270  69.818  1.00  0.00    -0.131 C  
HETATM   12  O   UNL     1      -6.636  11.428  68.525  1.00  0.00    -0.057 OA 
ENDROOT
BRANCH   4  13
HETATM   13  C   UNL     1      -8.194   9.995  64.854  1.00  0.00    -0.154 C  
HETATM   14  C   UNL     1      -9.125  10.368  63.960  1.00  0.00    -0.271 C  
HETATM   15  C   UNL     1      -8.819  11.095  62.690  1.00  0.00    -0.315 C  
ENDBRANCH   4  13
BRANCH   6  16
HETATM   16  N   UNL     1     -10.573   8.493  70.437  1.00  0.00    -0.217 N  
HETATM   17  H   UNL     1     -11.265   8.557  69.690  1.00  0.00     0.000 HD 
HETATM   18  C   UNL     1     -10.986   8.791  71.714  1.00  0.00    -0.345 C  
HETATM   19  O   UNL     1     -10.266   8.669  72.699  1.00  0.00    -0.253 OA 
BRANCH  18  20
HETATM   20  CA  UNL     1     -12.449   9.298  71.767  1.00  0.00    -0.381 C  
HETATM   21  H2  UNL     1     -13.229   7.468  71.095  1.00  0.00     0.000 HD 
HETATM   22  N   UNL     1     -13.301   8.462  70.874  1.00  0.00    -0.411 NA 
HETATM   23  H1  UNL     1     -14.264   8.795  70.910  1.00  0.00     0.000 HD 
BRANCH  20  24
HETATM   24  C   UNL     1     -12.543  10.772  71.417  1.00  0.00    -0.516 A  
HETATM   25  C   UNL     1     -13.388  11.605  72.167  1.00  0.00    -0.310 A  
HETATM   26  C   UNL     1     -13.526  12.960  71.852  1.00  0.00    -0.478 A  
HETATM   27  C   UNL     1     -12.809  13.491  70.785  1.00  0.00    -0.173 A  
HETATM   28  C   UNL     1     -11.937  12.698  70.052  1.00  0.00    -0.377 A  
HETATM   29  O   UNL     1     -12.940  14.797  70.421  1.00  0.00    -0.534 OA 
HETATM   30  H   UNL     1     -12.449  15.160  69.693  1.00  0.00     0.000 HD 
HETATM   31  C   UNL     1     -11.798  11.345  70.370  1.00  0.00    -0.428 A  
ENDBRANCH  20  24
ENDBRANCH  18  20
ENDBRANCH   6  16
TORSDOF 4
ENDMDL
MODEL       72
REMARK 921   NORMALIZED FREE ENERGY PREDICTED BY IDOCK:   -5.30 KCAL/MOL
REMARK 922        TOTAL FREE ENERGY PREDICTED BY IDOCK:   -7.35 KCAL/MOL
REMARK 923 INTER-LIGAND FREE ENERGY PREDICTED BY IDOCK:   -6.85 KCAL/MOL
REMARK 924 INTRA-LIGAND FREE ENERGY PREDICTED BY IDOCK:   -0.51 KCAL/MOL
REMARK 927      BINDING AFFINITY PREDICTED BY RF-SCORE:    0.00 PKD
ROOT
HETATM    1  C   UNL     1      -9.228  15.329  69.190  1.00  0.00    -0.234 C  
HETATM    2  S   UNL     1      -7.486  14.891  68.977  1.00  0.00    -0.154 SA 
HETATM    3  C   UNL     1      -6.907  16.552  69.367  1.00  0.00    -0.220 C  
HETATM    4  C   UNL     1      -7.639  17.683  68.654  1.00  0.00    -0.276 C  
HETATM    5  CA  UNL     1      -8.897  17.567  68.129  1.00  0.00    -0.263 C  
HETATM    6  CA  UNL     1     -10.238  14.414  68.425  1.00  0.00    -0.243 C  
HETATM    7  C   UNL     1      -9.553  18.747  67.435  1.00  0.00    -0.306 C  
HETATM    8  O   UNL     1     -11.401  16.134  66.853  1.00  0.00     0.028 OA 
HETATM    9  N   UNL     1      -9.569  16.380  68.251  1.00  0.00    -0.216 N  
HETATM   10  OXT UNL     1      -9.246  19.912  67.654  1.00  0.00    -0.326 OA 
HETATM   11  C   UNL     1     -10.627  15.749  67.698  1.00  0.00    -0.301 C  
HETATM   12  O   UNL     1     -10.530  18.479  66.550  1.00  0.00    -0.389 OA 
ENDROOT
BRANCH   4  13
HETATM   13  C   UNL     1      -6.788  18.876  68.499  1.00  0.00    -0.285 C  
HETATM   14  C   UNL     1      -6.260  19.595  69.504  1.00  0.00    -0.349 C  
HETATM   15  C   UNL     1      -5.353  20.767  69.304  1.00  0.00    -0.391 C  
ENDBRANCH   4  13
BRANCH   6  16
HETATM   16  N   UNL     1      -9.626  13.386  67.555  1.00  0.00    -0.215 N  
HETATM   17  H   UNL     1      -8.635  13.181  67.692  1.00  0.00     0.000 HD 
HETATM   18  C   UNL     1     -10.290  12.686  66.577  1.00  0.00    -0.242 C  
HETATM   19  O   UNL     1     -11.497  12.788  66.379  1.00  0.00    -0.318 OA 
BRANCH  18  20
HETATM   20  CA  UNL     1      -9.353  11.763  65.757  1.00  0.00    -0.185 C  
HETATM   21  H2  UNL     1      -9.417  13.008  64.066  1.00  0.00     0.000 HD 
HETATM   22  N   UNL     1      -9.544  12.023  64.302  1.00  0.00    -0.485 NA 
HETATM   23  H1  UNL     1      -8.927  11.416  63.762  1.00  0.00     0.000 HD 
BRANCH  20  24
HETATM   24  C   UNL     1      -9.567  10.301  66.102  1.00  0.00    -0.248 A  
HETATM   25  C   UNL     1      -8.903   9.314  65.356  1.00  0.00    -0.230 A  
HETATM   26  C   UNL     1      -9.103   7.957  65.622  1.00  0.00    -0.018 A  
HETATM   27  C   UNL     1      -9.964   7.579  66.647  1.00  0.00    -0.200 A  
HETATM   28  C   UNL     1     -10.602   8.535  67.425  1.00  0.00    -0.304 A  
HETATM   29  O   UNL     1     -10.214   6.268  66.918  1.00  0.00    -0.171 OA 
HETATM   30  H   UNL     1     -10.802   6.010  67.619  1.00  0.00     0.000 HD 
HETATM   31  C   UNL     1     -10.399   9.891  67.160  1.00  0.00    -0.304 A  
ENDBRANCH  20  24
ENDBRANCH  18  20
ENDBRANCH   6  16
TORSDOF 4
ENDMDL
MODEL       73
REMARK 921   NORMALIZED FREE ENERGY PREDICTED BY IDOCK:   -5.30 KCAL/MOL
REMARK 922        TOTAL FREE ENERGY PREDICTED BY IDOCK:   -7.35 KCAL/MOL
REMARK 923 INTER-LIGAND FREE ENERGY PREDICTED BY IDOCK:   -6.74 KCAL/MOL
REMARK 924 INTRA-LIGAND FREE ENERGY PREDICTED BY IDOCK:   -0.61 KCAL/MOL
REMARK 927      BINDING AFFINITY PREDICTED BY RF-SCORE:    0.00 PKD
ROOT
HETATM    1  C   UNL     1     -10.414  12.960  66.563  1.00  0.00    -0.265 C  
HETATM    2  S   UNL     1     -11.677  13.485  67.747  1.00  0.00    -0.366 SA 
HETATM    3  C   UNL     1     -11.466  15.233  67.364  1.00  0.00    -0.241 C  
HETATM    4  C   UNL     1     -10.023  15.722  67.319  1.00  0.00    -0.238 C  
HETATM    5  CA  UNL     1      -8.945  14.904  67.117  1.00  0.00    -0.214 C  
HETATM    6  CA  UNL     1      -9.761  11.572  66.864  1.00  0.00    -0.186 C  
HETATM    7  C   UNL     1      -7.540  15.476  67.085  1.00  0.00    -0.218 C  
HETATM    8  O   UNL     1      -7.262  12.236  67.170  1.00  0.00    -0.144 OA 
HETATM    9  N   UNL     1      -9.147  13.563  66.925  1.00  0.00    -0.245 N  
HETATM   10  OXT UNL     1      -7.295  16.644  66.811  1.00  0.00    -0.199 OA 
HETATM   11  C   UNL     1      -8.439  12.412  66.965  1.00  0.00    -0.170 C  
HETATM   12  O   UNL     1      -6.524  14.638  67.361  1.00  0.00    -0.306 OA 
ENDROOT
BRANCH   4  13
HETATM   13  C   UNL     1      -9.920  17.159  67.630  1.00  0.00    -0.283 C  
HETATM   14  C   UNL     1     -10.433  18.157  66.891  1.00  0.00    -0.372 C  
HETATM   15  C   UNL     1     -10.357  19.601  67.272  1.00  0.00    -0.577 C  
ENDBRANCH   4  13
BRANCH   6  16
HETATM   16  N   UNL     1     -10.191  10.933  68.126  1.00  0.00    -0.170 N  
HETATM   17  H   UNL     1     -10.178  11.502  68.973  1.00  0.00     0.000 HD 
HETATM   18  C   UNL     1     -10.609   9.628  68.245  1.00  0.00    -0.225 C  
HETATM   19  O   UNL     1     -10.744   8.876  67.285  1.00  0.00    -0.273 OA 
BRANCH  18  20
HETATM   20  CA  UNL     1     -10.883   9.217  69.713  1.00  0.00    -0.224 C  
HETATM   21  H2  UNL     1     -10.564  11.162  70.438  1.00  0.00     0.000 HD 
HETATM   22  N   UNL     1     -10.258  10.209  70.634  1.00  0.00    -0.347 NA 
HETATM   23  H1  UNL     1     -10.439   9.939  71.602  1.00  0.00     0.000 HD 
BRANCH  20  24
HETATM   24  C   UNL     1     -10.405   7.805  69.997  1.00  0.00    -0.221 A  
HETATM   25  C   UNL     1      -9.075   7.595  70.395  1.00  0.00    -0.152 A  
HETATM   26  C   UNL     1      -8.590   6.306  70.631  1.00  0.00    -0.139 A  
HETATM   27  C   UNL     1      -9.441   5.216  70.479  1.00  0.00    -0.169 A  
HETATM   28  C   UNL     1     -10.771   5.399  70.125  1.00  0.00    -0.295 A  
HETATM   29  O   UNL     1      -9.002   3.940  70.665  1.00  0.00    -0.080 OA 
HETATM   30  H   UNL     1      -9.583   3.196  70.562  1.00  0.00     0.000 HD 
HETATM   31  C   UNL     1     -11.254   6.688  69.893  1.00  0.00    -0.421 A  
ENDBRANCH  20  24
ENDBRANCH  18  20
ENDBRANCH   6  16
TORSDOF 4
ENDMDL
MODEL       74
REMARK 921   NORMALIZED FREE ENERGY PREDICTED BY IDOCK:   -5.29 KCAL/MOL
REMARK 922        TOTAL FREE ENERGY PREDICTED BY IDOCK:   -7.34 KCAL/MOL
REMARK 923 INTER-LIGAND FREE ENERGY PREDICTED BY IDOCK:   -6.65 KCAL/MOL
REMARK 924 INTRA-LIGAND FREE ENERGY PREDICTED BY IDOCK:   -0.70 KCAL/MOL
REMARK 927      BINDING AFFINITY PREDICTED BY RF-SCORE:    0.00 PKD
ROOT
HETATM    1  C   UNL     1      -8.548   9.529  67.743  1.00  0.00    -0.115 C  
HETATM    2  S   UNL     1      -9.825  10.266  68.790  1.00  0.00    -0.190 SA 
HETATM    3  C   UNL     1      -9.821   8.889  69.952  1.00  0.00    -0.182 C  
HETATM    4  C   UNL     1      -9.871   7.502  69.323  1.00  0.00    -0.170 C  
HETATM    5  CA  UNL     1      -9.492   7.234  68.035  1.00  0.00    -0.136 C  
HETATM    6  CA  UNL     1      -8.542  10.022  66.259  1.00  0.00    -0.129 C  
HETATM    7  C   UNL     1      -9.572   5.820  67.488  1.00  0.00    -0.114 C  
HETATM    8  O   UNL     1      -8.965   7.796  64.976  1.00  0.00     0.144 OA 
HETATM    9  N   UNL     1      -9.021   8.251  67.248  1.00  0.00    -0.136 N  
HETATM   10  OXT UNL     1      -9.550   4.822  68.197  1.00  0.00    -0.135 OA 
HETATM   11  C   UNL     1      -8.810   8.509  65.939  1.00  0.00    -0.182 C  
HETATM   12  O   UNL     1      -9.657   5.678  66.153  1.00  0.00    -0.158 OA 
ENDROOT
BRANCH   4  13
HETATM   13  C   UNL     1     -10.479   6.510  70.226  1.00  0.00    -0.261 C  
HETATM   14  C   UNL     1     -10.288   6.441  71.554  1.00  0.00    -0.239 C  
HETATM   15  C   UNL     1     -10.970   5.454  72.446  1.00  0.00    -0.298 C  
ENDBRANCH   4  13
BRANCH   6  16
HETATM   16  N   UNL     1      -9.643  10.941  65.896  1.00  0.00    -0.206 N  
HETATM   17  H   UNL     1     -10.172  11.368  66.657  1.00  0.00     0.000 HD 
HETATM   18  C   UNL     1     -10.007  11.262  64.610  1.00  0.00    -0.281 C  
HETATM   19  O   UNL     1      -9.393  10.875  63.621  1.00  0.00    -0.224 OA 
BRANCH  18  20
HETATM   20  CA  UNL     1     -11.271  12.158  64.550  1.00  0.00    -0.331 C  
HETATM   21  H2  UNL     1     -11.496  11.900  62.478  1.00  0.00     0.000 HD 
HETATM   22  N   UNL     1     -11.462  12.659  63.159  1.00  0.00    -0.788 NA 
HETATM   23  H1  UNL     1     -12.294  13.248  63.119  1.00  0.00     0.000 HD 
BRANCH  20  24
HETATM   24  C   UNL     1     -11.198  13.294  65.553  1.00  0.00    -0.307 A  
HETATM   25  C   UNL     1     -12.010  13.253  66.699  1.00  0.00    -0.446 A  
HETATM   26  C   UNL     1     -11.995  14.298  67.626  1.00  0.00    -0.400 A  
HETATM   27  C   UNL     1     -11.157  15.389  67.417  1.00  0.00    -0.311 A  
HETATM   28  C   UNL     1     -10.317  15.435  66.313  1.00  0.00    -0.304 A  
HETATM   29  O   UNL     1     -11.136  16.444  68.277  1.00  0.00    -0.347 OA 
HETATM   30  H   UNL     1     -10.564  17.189  68.134  1.00  0.00     0.000 HD 
HETATM   31  C   UNL     1     -10.330  14.389  65.389  1.00  0.00    -0.400 A  
ENDBRANCH  20  24
ENDBRANCH  18  20
ENDBRANCH   6  16
TORSDOF 4
ENDMDL
MODEL       75
REMARK 921   NORMALIZED FREE ENERGY PREDICTED BY IDOCK:   -5.28 KCAL/MOL
REMARK 922        TOTAL FREE ENERGY PREDICTED BY IDOCK:   -7.33 KCAL/MOL
REMARK 923 INTER-LIGAND FREE ENERGY PREDICTED BY IDOCK:   -7.10 KCAL/MOL
REMARK 924 INTRA-LIGAND FREE ENERGY PREDICTED BY IDOCK:   -0.23 KCAL/MOL
REMARK 927      BINDING AFFINITY PREDICTED BY RF-SCORE:    0.00 PKD
ROOT
HETATM    1  C   UNL     1      -8.356   7.911  69.001  1.00  0.00    -0.130 C  
HETATM    2  S   UNL     1      -8.341   7.484  70.759  1.00  0.00    -0.119 SA 
HETATM    3  C   UNL     1      -7.689   5.831  70.465  1.00  0.00    -0.099 C  
HETATM    4  C   UNL     1      -8.381   5.042  69.359  1.00  0.00    -0.085 C  
HETATM    5  CA  UNL     1      -9.104   5.618  68.350  1.00  0.00    -0.117 C  
HETATM    6  CA  UNL     1      -9.363   9.038  68.602  1.00  0.00    -0.136 C  
HETATM    7  C   UNL     1      -9.761   4.756  67.286  1.00  0.00    -0.182 C  
HETATM    8  O   UNL     1     -10.902   7.780  66.919  1.00  0.00    -0.311 OA 
HETATM    9  N   UNL     1      -9.217   6.982  68.296  1.00  0.00    -0.129 N  
HETATM   10  OXT UNL     1      -9.373   3.631  66.998  1.00  0.00    -0.175 OA 
HETATM   11  C   UNL     1      -9.993   7.915  67.705  1.00  0.00    -0.181 C  
HETATM   12  O   UNL     1     -10.811   5.278  66.628  1.00  0.00    -0.258 OA 
ENDROOT
BRANCH   4  13
HETATM   13  C   UNL     1      -8.272   3.589  69.570  1.00  0.00    -0.070 C  
HETATM   14  C   UNL     1      -7.218   2.954  70.109  1.00  0.00    -0.040 C  
HETATM   15  C   UNL     1      -7.169   1.480  70.359  1.00  0.00    -0.033 C  
ENDBRANCH   4  13
BRANCH   6  16
HETATM   16  N   UNL     1     -10.233   9.524  69.696  1.00  0.00    -0.204 N  
HETATM   17  H   UNL     1      -9.950   9.312  70.653  1.00  0.00     0.000 HD 
HETATM   18  C   UNL     1     -11.393  10.238  69.519  1.00  0.00    -0.241 C  
HETATM   19  O   UNL     1     -11.787  10.620  68.422  1.00  0.00    -0.439 OA 
BRANCH  18  20
HETATM   20  CA  UNL     1     -12.143  10.503  70.849  1.00  0.00    -0.383 C  
HETATM   21  H2  UNL     1     -13.110   8.639  70.808  1.00  0.00     0.000 HD 
HETATM   22  N   UNL     1     -13.345   9.624  70.928  1.00  0.00    -0.596 NA 
HETATM   23  H1  UNL     1     -13.839   9.798  71.804  1.00  0.00     0.000 HD 
BRANCH  20  24
HETATM   24  C   UNL     1     -12.505  11.969  71.004  1.00  0.00    -0.376 A  
HETATM   25  C   UNL     1     -13.397  12.353  72.018  1.00  0.00    -0.511 A  
HETATM   26  C   UNL     1     -13.780  13.689  72.169  1.00  0.00    -0.649 A  
HETATM   27  C   UNL     1     -13.263  14.651  71.308  1.00  0.00    -0.369 A  
HETATM   28  C   UNL     1     -12.350  14.303  70.322  1.00  0.00    -0.418 A  
HETATM   29  O   UNL     1     -13.636  15.958  71.398  1.00  0.00    -0.475 OA 
HETATM   30  H   UNL     1     -13.282  16.615  70.810  1.00  0.00     0.000 HD 
HETATM   31  C   UNL     1     -11.966  12.969  70.175  1.00  0.00    -0.374 A  
ENDBRANCH  20  24
ENDBRANCH  18  20
ENDBRANCH   6  16
TORSDOF 4
ENDMDL
MODEL       76
REMARK 921   NORMALIZED FREE ENERGY PREDICTED BY IDOCK:   -5.20 KCAL/MOL
REMARK 922        TOTAL FREE ENERGY PREDICTED BY IDOCK:   -7.23 KCAL/MOL
REMARK 923 INTER-LIGAND FREE ENERGY PREDICTED BY IDOCK:   -6.53 KCAL/MOL
REMARK 924 INTRA-LIGAND FREE ENERGY PREDICTED BY IDOCK:   -0.70 KCAL/MOL
REMARK 927      BINDING AFFINITY PREDICTED BY RF-SCORE:    0.00 PKD
ROOT
HETATM    1  C   UNL     1     -11.505  13.073  67.602  1.00  0.00    -0.324 C  
HETATM    2  S   UNL     1      -9.956  13.768  68.226  1.00  0.00    -0.244 SA 
HETATM    3  C   UNL     1     -10.412  15.457  67.792  1.00  0.00    -0.266 C  
HETATM    4  C   UNL     1     -10.975  15.642  66.388  1.00  0.00    -0.197 C  
HETATM    5  CA  UNL     1     -11.536  14.634  65.652  1.00  0.00    -0.328 C  
HETATM    6  CA  UNL     1     -11.438  11.564  67.198  1.00  0.00    -0.237 C  
HETATM    7  C   UNL     1     -12.074  14.907  64.259  1.00  0.00    -0.353 C  
HETATM    8  O   UNL     1     -12.050  11.681  64.670  1.00  0.00    -0.091 OA 
HETATM    9  N   UNL     1     -11.626  13.378  66.190  1.00  0.00    -0.333 N  
HETATM   10  OXT UNL     1     -12.433  16.015  63.881  1.00  0.00    -0.806 OA 
HETATM   11  C   UNL     1     -11.825  12.107  65.778  1.00  0.00    -0.274 C  
HETATM   12  O   UNL     1     -12.167  13.863  63.415  1.00  0.00    -0.635 OA 
ENDROOT
BRANCH   4  13
HETATM   13  C   UNL     1     -10.740  17.003  65.877  1.00  0.00    -0.140 C  
HETATM   14  C   UNL     1     -10.180  18.011  66.567  1.00  0.00    -0.383 C  
HETATM   15  C   UNL     1      -9.906  19.364  65.993  1.00  0.00    -0.383 C  
ENDBRANCH   4  13
BRANCH   6  16
HETATM   16  N   UNL     1     -10.096  10.947  67.285  1.00  0.00    -0.185 N  
HETATM   17  H   UNL     1      -9.288  11.570  67.273  1.00  0.00     0.000 HD 
HETATM   18  C   UNL     1      -9.857   9.596  67.382  1.00  0.00    -0.171 C  
HETATM   19  O   UNL     1     -10.749   8.762  67.488  1.00  0.00    -0.253 OA 
BRANCH  18  20
HETATM   20  CA  UNL     1      -8.347   9.251  67.339  1.00  0.00    -0.122 C  
HETATM   21  H2  UNL     1      -8.692   7.196  67.608  1.00  0.00     0.000 HD 
HETATM   22  N   UNL     1      -8.115   7.938  68.007  1.00  0.00    -0.124 NA 
HETATM   23  H1  UNL     1      -7.122   7.710  67.978  1.00  0.00     0.000 HD 
BRANCH  20  24
HETATM   24  C   UNL     1      -7.504  10.352  67.954  1.00  0.00    -0.087 A  
HETATM   25  C   UNL     1      -7.284  10.358  69.341  1.00  0.00    -0.109 A  
HETATM   26  C   UNL     1      -6.542  11.376  69.946  1.00  0.00    -0.081 A  
HETATM   27  C   UNL     1      -6.005  12.391  69.162  1.00  0.00    -0.081 A  
HETATM   28  C   UNL     1      -6.174  12.388  67.784  1.00  0.00    -0.111 A  
HETATM   29  O   UNL     1      -5.305  13.421  69.715  1.00  0.00    -0.085 OA 
HETATM   30  H   UNL     1      -4.938  14.114  69.179  1.00  0.00     0.000 HD 
HETATM   31  C   UNL     1      -6.913  11.369  67.180  1.00  0.00    -0.128 A  
ENDBRANCH  20  24
ENDBRANCH  18  20
ENDBRANCH   6  16
TORSDOF 4
ENDMDL
MODEL       77
REMARK 921   NORMALIZED FREE ENERGY PREDICTED BY IDOCK:   -5.16 KCAL/MOL
REMARK 922        TOTAL FREE ENERGY PREDICTED BY IDOCK:   -7.18 KCAL/MOL
REMARK 923 INTER-LIGAND FREE ENERGY PREDICTED BY IDOCK:   -6.39 KCAL/MOL
REMARK 924 INTRA-LIGAND FREE ENERGY PREDICTED BY IDOCK:   -0.79 KCAL/MOL
REMARK 927      BINDING AFFINITY PREDICTED BY RF-SCORE:    0.00 PKD
ROOT
HETATM    1  C   UNL     1      -8.457  10.963  69.041  1.00  0.00    -0.105 C  
HETATM    2  S   UNL     1     -10.234  10.669  69.210  1.00  0.00    -0.188 SA 
HETATM    3  C   UNL     1     -10.039   8.880  69.311  1.00  0.00    -0.203 C  
HETATM    4  C   UNL     1      -9.125   8.262  68.259  1.00  0.00    -0.135 C  
HETATM    5  CA  UNL     1      -8.163   8.958  67.580  1.00  0.00    -0.110 C  
HETATM    6  CA  UNL     1      -8.072  12.310  68.347  1.00  0.00    -0.151 C  
HETATM    7  C   UNL     1      -7.294   8.262  66.548  1.00  0.00    -0.081 C  
HETATM    8  O   UNL     1      -6.752  11.457  66.270  1.00  0.00    -0.069 OA 
HETATM    9  N   UNL     1      -7.976  10.287  67.853  1.00  0.00    -0.101 N  
HETATM   10  OXT UNL     1      -7.082   7.056  66.550  1.00  0.00    -0.073 OA 
HETATM   11  C   UNL     1      -7.393  11.368  67.291  1.00  0.00    -0.130 C  
HETATM   12  O   UNL     1      -6.725   9.028  65.599  1.00  0.00    -0.070 OA 
ENDROOT
BRANCH   4  13
HETATM   13  C   UNL     1      -9.477   6.859  67.982  1.00  0.00    -0.124 C  
HETATM   14  C   UNL     1      -9.321   5.831  68.834  1.00  0.00    -0.141 C  
HETATM   15  C   UNL     1      -9.745   4.428  68.536  1.00  0.00    -0.181 C  
ENDBRANCH   4  13
BRANCH   6  16
HETATM   16  N   UNL     1      -9.210  13.103  67.833  1.00  0.00    -0.199 N  
HETATM   17  H   UNL     1     -10.137  12.677  67.869  1.00  0.00     0.000 HD 
HETATM   18  C   UNL     1      -9.114  14.371  67.312  1.00  0.00    -0.214 C  
HETATM   19  O   UNL     1      -8.068  15.012  67.294  1.00  0.00    -0.181 OA 
BRANCH  18  20
HETATM   20  CA  UNL     1     -10.460  14.893  66.751  1.00  0.00    -0.284 C  
HETATM   21  H2  UNL     1     -11.069  15.659  68.610  1.00  0.00     0.000 HD 
HETATM   22  N   UNL     1     -11.434  15.062  67.867  1.00  0.00    -0.333 NA 
HETATM   23  H1  UNL     1     -12.321  15.406  67.498  1.00  0.00     0.000 HD 
BRANCH  20  24
HETATM   24  C   UNL     1     -11.002  13.985  65.662  1.00  0.00    -0.300 A  
HETATM   25  C   UNL     1     -12.387  13.775  65.568  1.00  0.00    -0.507 A  
HETATM   26  C   UNL     1     -12.919  12.918  64.600  1.00  0.00    -0.204 A  
HETATM   27  C   UNL     1     -12.065  12.273  63.713  1.00  0.00    -0.532 A  
HETATM   28  C   UNL     1     -10.695  12.494  63.759  1.00  0.00    -0.483 A  
HETATM   29  O   UNL     1     -12.537  11.403  62.777  1.00  0.00    -0.952 OA 
HETATM   30  H   UNL     1     -11.953  10.963  62.170  1.00  0.00     0.000 HD 
HETATM   31  C   UNL     1     -10.165  13.352  64.725  1.00  0.00    -0.339 A  
ENDBRANCH  20  24
ENDBRANCH  18  20
ENDBRANCH   6  16
TORSDOF 4
ENDMDL
MODEL       78
REMARK 921   NORMALIZED FREE ENERGY PREDICTED BY IDOCK:   -5.15 KCAL/MOL
REMARK 922        TOTAL FREE ENERGY PREDICTED BY IDOCK:   -7.17 KCAL/MOL
REMARK 923 INTER-LIGAND FREE ENERGY PREDICTED BY IDOCK:   -6.63 KCAL/MOL
REMARK 924 INTRA-LIGAND FREE ENERGY PREDICTED BY IDOCK:   -0.54 KCAL/MOL
REMARK 927      BINDING AFFINITY PREDICTED BY RF-SCORE:    0.00 PKD
ROOT
HETATM    1  C   UNL     1      -9.575  13.356  66.046  1.00  0.00    -0.159 C  
HETATM    2  S   UNL     1      -8.162  13.960  67.000  1.00  0.00     0.052 SA 
HETATM    3  C   UNL     1      -7.690  12.310  67.552  1.00  0.00    -0.158 C  
HETATM    4  C   UNL     1      -8.829  11.449  68.086  1.00  0.00    -0.162 C  
HETATM    5  CA  UNL     1     -10.148  11.654  67.782  1.00  0.00    -0.187 C  
HETATM    6  CA  UNL     1     -10.705  14.408  65.800  1.00  0.00    -0.307 C  
HETATM    7  C   UNL     1     -11.219  10.745  68.358  1.00  0.00    -0.284 C  
HETATM    8  O   UNL     1     -12.734  13.265  66.965  1.00  0.00    -0.023 OA 
HETATM    9  N   UNL     1     -10.492  12.675  66.938  1.00  0.00    -0.232 N  
HETATM   10  OXT UNL     1     -11.000   9.601  68.735  1.00  0.00    -0.200 OA 
HETATM   11  C   UNL     1     -11.590  13.385  66.595  1.00  0.00    -0.362 C  
HETATM   12  O   UNL     1     -12.469  11.236  68.437  1.00  0.00    -0.403 OA 
ENDROOT
BRANCH   4  13
HETATM   13  C   UNL     1      -8.352  10.446  69.053  1.00  0.00    -0.150 C  
HETATM   14  C   UNL     1      -7.175  10.481  69.700  1.00  0.00    -0.148 C  
HETATM   15  C   UNL     1      -6.751   9.472  70.719  1.00  0.00    -0.105 C  
ENDBRANCH   4  13
BRANCH   6  16
HETATM   16  N   UNL     1     -10.508  15.713  66.467  1.00  0.00    -0.297 N  
HETATM   17  H   UNL     1     -10.228  15.704  67.449  1.00  0.00     0.000 HD 
HETATM   18  C   UNL     1     -10.675  16.938  65.865  1.00  0.00    -0.149 C  
HETATM   19  O   UNL     1     -10.930  17.071  64.673  1.00  0.00    -0.968 OA 
BRANCH  18  20
HETATM   20  CA  UNL     1     -10.510  18.120  66.854  1.00  0.00    -0.357 C  
HETATM   21  H2  UNL     1     -11.833  19.350  65.783  1.00  0.00     0.000 HD 
HETATM   22  N   UNL     1     -10.894  19.393  66.179  1.00  0.00    -0.373 NA 
HETATM   23  H1  UNL     1     -10.786  20.171  66.829  1.00  0.00     0.000 HD 
BRANCH  20  24
HETATM   24  C   UNL     1      -9.103  18.183  67.419  1.00  0.00    -0.253 A  
HETATM   25  C   UNL     1      -8.191  19.111  66.892  1.00  0.00    -0.287 A  
HETATM   26  C   UNL     1      -6.877  19.175  67.363  1.00  0.00    -0.217 A  
HETATM   27  C   UNL     1      -6.471  18.312  68.376  1.00  0.00    -0.208 A  
HETATM   28  C   UNL     1      -7.363  17.412  68.942  1.00  0.00    -0.244 A  
HETATM   29  O   UNL     1      -5.191  18.316  68.842  1.00  0.00    -0.172 OA 
HETATM   30  H   UNL     1      -4.913  17.728  69.534  1.00  0.00     0.000 HD 
HETATM   31  C   UNL     1      -8.677  17.352  68.472  1.00  0.00    -0.277 A  
ENDBRANCH  20  24
ENDBRANCH  18  20
ENDBRANCH   6  16
TORSDOF 4
ENDMDL
MODEL       79
REMARK 921   NORMALIZED FREE ENERGY PREDICTED BY IDOCK:   -5.15 KCAL/MOL
REMARK 922        TOTAL FREE ENERGY PREDICTED BY IDOCK:   -7.17 KCAL/MOL
REMARK 923 INTER-LIGAND FREE ENERGY PREDICTED BY IDOCK:   -6.54 KCAL/MOL
REMARK 924 INTRA-LIGAND FREE ENERGY PREDICTED BY IDOCK:   -0.63 KCAL/MOL
REMARK 927      BINDING AFFINITY PREDICTED BY RF-SCORE:    0.00 PKD
ROOT
HETATM    1  C   UNL     1      -9.453  10.590  68.620  1.00  0.00    -0.172 C  
HETATM    2  S   UNL     1      -9.732   9.384  67.301  1.00  0.00    -0.176 SA 
HETATM    3  C   UNL     1      -9.682  10.631  66.001  1.00  0.00    -0.208 C  
HETATM    4  C   UNL     1     -10.514  11.882  66.261  1.00  0.00    -0.274 C  
HETATM    5  CA  UNL     1     -10.904  12.292  67.507  1.00  0.00    -0.234 C  
HETATM    6  CA  UNL     1      -9.963  10.156  70.032  1.00  0.00    -0.161 C  
HETATM    7  C   UNL     1     -11.733  13.553  67.676  1.00  0.00    -0.363 C  
HETATM    8  O   UNL     1     -11.704  12.024  70.546  1.00  0.00    -0.227 OA 
HETATM    9  N   UNL     1     -10.525  11.566  68.604  1.00  0.00    -0.197 N  
HETATM   10  OXT UNL     1     -11.743  14.466  66.860  1.00  0.00    -0.372 OA 
HETATM   11  C   UNL     1     -10.873  11.428  69.902  1.00  0.00     0.158 C  
HETATM   12  O   UNL     1     -12.475  13.661  68.793  1.00  0.00    -0.129 OA 
ENDROOT
BRANCH   4  13
HETATM   13  C   UNL     1     -10.941  12.528  65.008  1.00  0.00    -0.329 C  
HETATM   14  C   UNL     1     -12.080  12.271  64.345  1.00  0.00    -0.481 C  
HETATM   15  C   UNL     1     -12.505  12.991  63.105  1.00  0.00    -0.138 C  
ENDBRANCH   4  13
BRANCH   6  16
HETATM   16  N   UNL     1     -10.693   8.870  70.072  1.00  0.00    -0.226 N  
HETATM   17  H   UNL     1     -10.860   8.394  69.184  1.00  0.00     0.000 HD 
HETATM   18  C   UNL     1     -11.162   8.266  71.214  1.00  0.00    -0.259 C  
HETATM   19  O   UNL     1     -10.948   8.702  72.341  1.00  0.00    -0.353 OA 
BRANCH  18  20
HETATM   20  CA  UNL     1     -11.986   6.987  70.922  1.00  0.00    -0.364 C  
HETATM   21  H2  UNL     1     -13.718   7.757  71.826  1.00  0.00     0.000 HD 
HETATM   22  N   UNL     1     -13.144   6.914  71.858  1.00  0.00    -0.525 NA 
HETATM   23  H1  UNL     1     -13.687   6.072  71.665  1.00  0.00     0.000 HD 
BRANCH  20  24
HETATM   24  C   UNL     1     -11.125   5.739  70.993  1.00  0.00    -0.264 A  
HETATM   25  C   UNL     1     -10.535   5.242  69.820  1.00  0.00    -0.340 A  
HETATM   26  C   UNL     1      -9.765   4.076  69.842  1.00  0.00    -0.263 A  
HETATM   27  C   UNL     1      -9.571   3.405  71.045  1.00  0.00    -0.169 A  
HETATM   28  C   UNL     1     -10.111   3.897  72.225  1.00  0.00    -0.234 A  
HETATM   29  O   UNL     1      -8.857   2.247  71.105  1.00  0.00    -0.062 OA 
HETATM   30  H   UNL     1      -8.725   1.789  71.927  1.00  0.00     0.000 HD 
HETATM   31  C   UNL     1     -10.878   5.064  72.203  1.00  0.00    -0.179 A  
ENDBRANCH  20  24
ENDBRANCH  18  20
ENDBRANCH   6  16
TORSDOF 4
ENDMDL
MODEL       80
REMARK 921   NORMALIZED FREE ENERGY PREDICTED BY IDOCK:   -5.14 KCAL/MOL
REMARK 922        TOTAL FREE ENERGY PREDICTED BY IDOCK:   -7.16 KCAL/MOL
REMARK 923 INTER-LIGAND FREE ENERGY PREDICTED BY IDOCK:   -6.38 KCAL/MOL
REMARK 924 INTRA-LIGAND FREE ENERGY PREDICTED BY IDOCK:   -0.78 KCAL/MOL
REMARK 927      BINDING AFFINITY PREDICTED BY RF-SCORE:    0.00 PKD
ROOT
HETATM    1  C   UNL     1      -8.211   9.951  66.063  1.00  0.00    -0.119 C  
HETATM    2  S   UNL     1      -9.591   9.483  64.991  1.00  0.00    -0.032 SA 
HETATM    3  C   UNL     1      -9.710  11.119  64.245  1.00  0.00    -0.271 C  
HETATM    4  C   UNL     1      -9.693  12.287  65.225  1.00  0.00    -0.131 C  
HETATM    5  CA  UNL     1      -9.181  12.213  66.492  1.00  0.00    -0.216 C  
HETATM    6  CA  UNL     1      -8.049   9.081  67.352  1.00  0.00    -0.108 C  
HETATM    7  C   UNL     1      -9.204  13.427  67.402  1.00  0.00    -0.213 C  
HETATM    8  O   UNL     1      -8.336  10.873  69.220  1.00  0.00    -0.117 OA 
HETATM    9  N   UNL     1      -8.630  11.037  66.927  1.00  0.00    -0.139 N  
HETATM   10  OXT UNL     1      -9.257  14.578  66.988  1.00  0.00    -0.218 OA 
HETATM   11  C   UNL     1      -8.283  10.446  68.090  1.00  0.00    -0.116 C  
HETATM   12  O   UNL     1      -9.148  13.207  68.729  1.00  0.00    -0.017 OA 
ENDROOT
BRANCH   4  13
HETATM   13  C   UNL     1     -10.393  13.465  64.686  1.00  0.00    -0.400 C  
HETATM   14  C   UNL     1     -11.718  13.681  64.743  1.00  0.00    -0.399 C  
HETATM   15  C   UNL     1     -12.385  14.919  64.234  1.00  0.00    -0.300 C  
ENDBRANCH   4  13
BRANCH   6  16
HETATM   16  N   UNL     1      -9.105   8.068  67.566  1.00  0.00    -0.136 N  
HETATM   17  H   UNL     1     -10.043   8.403  67.788  1.00  0.00     0.000 HD 
HETATM   18  C   UNL     1      -8.918   6.708  67.487  1.00  0.00    -0.114 C  
HETATM   19  O   UNL     1      -7.857   6.194  67.148  1.00  0.00    -0.100 OA 
BRANCH  18  20
HETATM   20  CA  UNL     1     -10.185   5.905  67.876  1.00  0.00    -0.184 C  
HETATM   21  H2  UNL     1     -11.173   6.374  66.083  1.00  0.00     0.000 HD 
HETATM   22  N   UNL     1     -11.350   6.398  67.087  1.00  0.00    -0.738 NA 
HETATM   23  H1  UNL     1     -12.184   5.869  67.342  1.00  0.00     0.000 HD 
BRANCH  20  24
HETATM   24  C   UNL     1     -10.449   5.965  69.369  1.00  0.00    -0.343 A  
HETATM   25  C   UNL     1     -11.576   6.658  69.841  1.00  0.00    -0.393 A  
HETATM   26  C   UNL     1     -11.831   6.764  71.211  1.00  0.00    -0.396 A  
HETATM   27  C   UNL     1     -10.963   6.166  72.118  1.00  0.00    -0.262 A  
HETATM   28  C   UNL     1      -9.863   5.443  71.677  1.00  0.00    -0.223 A  
HETATM   29  O   UNL     1     -11.155   6.274  73.463  1.00  0.00    -0.454 OA 
HETATM   30  H   UNL     1     -10.562   5.866  74.082  1.00  0.00     0.000 HD 
HETATM   31  C   UNL     1      -9.611   5.335  70.308  1.00  0.00    -0.241 A  
ENDBRANCH  20  24
ENDBRANCH  18  20
ENDBRANCH   6  16
TORSDOF 4
ENDMDL
MODEL       81
REMARK 921   NORMALIZED FREE ENERGY PREDICTED BY IDOCK:   -5.13 KCAL/MOL
REMARK 922        TOTAL FREE ENERGY PREDICTED BY IDOCK:   -7.14 KCAL/MOL
REMARK 923 INTER-LIGAND FREE ENERGY PREDICTED BY IDOCK:   -6.54 KCAL/MOL
REMARK 924 INTRA-LIGAND FREE ENERGY PREDICTED BY IDOCK:   -0.60 KCAL/MOL
REMARK 927      BINDING AFFINITY PREDICTED BY RF-SCORE:    0.00 PKD
ROOT
HETATM    1  C   UNL     1      -9.607   8.250  69.379  1.00  0.00    -0.171 C  
HETATM    2  S   UNL     1      -7.991   9.063  69.361  1.00  0.00    -0.103 SA 
HETATM    3  C   UNL     1      -7.208   7.771  70.342  1.00  0.00    -0.058 C  
HETATM    4  C   UNL     1      -7.977   7.336  71.585  1.00  0.00    -0.096 C  
HETATM    5  CA  UNL     1      -9.323   7.519  71.751  1.00  0.00    -0.144 C  
HETATM    6  CA  UNL     1     -10.828   9.200  69.156  1.00  0.00    -0.110 C  
HETATM    7  C   UNL     1     -10.010   7.054  73.023  1.00  0.00    -0.196 C  
HETATM    8  O   UNL     1     -12.149   8.869  71.376  1.00  0.00    -0.297 OA 
HETATM    9  N   UNL     1     -10.050   8.110  70.752  1.00  0.00    -0.188 N  
HETATM   10  OXT UNL     1      -9.569   6.166  73.740  1.00  0.00    -0.146 OA 
HETATM   11  C   UNL     1     -11.250   8.708  70.585  1.00  0.00    -0.252 C  
HETATM   12  O   UNL     1     -11.170   7.650  73.353  1.00  0.00    -0.314 OA 
ENDROOT
BRANCH   4  13
HETATM   13  C   UNL     1      -7.082   6.802  72.625  1.00  0.00    -0.079 C  
HETATM   14  C   UNL     1      -6.323   5.699  72.513  1.00  0.00    -0.052 C  
HETATM   15  C   UNL     1      -5.383   5.221  73.573  1.00  0.00    -0.022 C  
ENDBRANCH   4  13
BRANCH   6  16
HETATM   16  N   UNL     1     -10.499  10.640  69.065  1.00  0.00    -0.202 N  
HETATM   17  H   UNL     1      -9.639  10.957  69.513  1.00  0.00     0.000 HD 
HETATM   18  C   UNL     1     -11.266  11.582  68.421  1.00  0.00    -0.255 C  
HETATM   19  O   UNL     1     -12.273  11.305  67.780  1.00  0.00    -0.504 OA 
BRANCH  18  20
HETATM   20  CA  UNL     1     -10.720  13.022  68.599  1.00  0.00    -0.248 C  
HETATM   21  H2  UNL     1      -8.743  12.447  68.180  1.00  0.00     0.000 HD 
HETATM   22  N   UNL     1      -9.258  12.970  68.889  1.00  0.00    -0.370 NA 
HETATM   23  H1  UNL     1      -8.898  13.917  69.006  1.00  0.00     0.000 HD 
BRANCH  20  24
HETATM   24  C   UNL     1     -11.481  13.780  69.671  1.00  0.00    -0.300 A  
HETATM   25  C   UNL     1     -12.235  13.065  70.615  1.00  0.00    -0.390 A  
HETATM   26  C   UNL     1     -12.976  13.730  71.595  1.00  0.00    -0.448 A  
HETATM   27  C   UNL     1     -12.958  15.120  71.642  1.00  0.00    -0.375 A  
HETATM   28  C   UNL     1     -12.189  15.850  70.745  1.00  0.00    -0.373 A  
HETATM   29  O   UNL     1     -13.692  15.810  72.558  1.00  0.00    -0.528 OA 
HETATM   30  H   UNL     1     -13.679  16.760  72.590  1.00  0.00     0.000 HD 
HETATM   31  C   UNL     1     -11.447  15.183  69.768  1.00  0.00    -0.321 A  
ENDBRANCH  20  24
ENDBRANCH  18  20
ENDBRANCH   6  16
TORSDOF 4
ENDMDL
MODEL       82
REMARK 921   NORMALIZED FREE ENERGY PREDICTED BY IDOCK:   -5.11 KCAL/MOL
REMARK 922        TOTAL FREE ENERGY PREDICTED BY IDOCK:   -7.12 KCAL/MOL
REMARK 923 INTER-LIGAND FREE ENERGY PREDICTED BY IDOCK:   -6.59 KCAL/MOL
REMARK 924 INTRA-LIGAND FREE ENERGY PREDICTED BY IDOCK:   -0.53 KCAL/MOL
REMARK 927      BINDING AFFINITY PREDICTED BY RF-SCORE:    0.00 PKD
ROOT
HETATM    1  C   UNL     1      -8.004   8.939  68.745  1.00  0.00    -0.102 C  
HETATM    2  S   UNL     1      -8.261   9.477  70.453  1.00  0.00    -0.157 SA 
HETATM    3  C   UNL     1      -8.243   7.795  71.101  1.00  0.00    -0.099 C  
HETATM    4  C   UNL     1      -9.102   6.792  70.339  1.00  0.00    -0.153 C  
HETATM    5  CA  UNL     1      -9.497   6.957  69.040  1.00  0.00    -0.137 C  
HETATM    6  CA  UNL     1      -8.500   9.943  67.654  1.00  0.00    -0.114 C  
HETATM    7  C   UNL     1     -10.353   5.906  68.357  1.00  0.00    -0.210 C  
HETATM    8  O   UNL     1     -10.280   8.508  66.407  1.00  0.00    -0.273 OA 
HETATM    9  N   UNL     1      -9.098   8.073  68.352  1.00  0.00    -0.136 N  
HETATM   10  OXT UNL     1     -10.387   4.734  68.708  1.00  0.00    -0.070 OA 
HETATM   11  C   UNL     1      -9.438   8.756  67.238  1.00  0.00    -0.158 C  
HETATM   12  O   UNL     1     -11.094   6.299  67.305  1.00  0.00    -0.353 OA 
ENDROOT
BRANCH   4  13
HETATM   13  C   UNL     1      -9.547   5.684  71.202  1.00  0.00    -0.208 C  
HETATM   14  C   UNL     1     -10.177   5.817  72.382  1.00  0.00    -0.224 C  
HETATM   15  C   UNL     1     -10.665   4.665  73.201  1.00  0.00    -0.309 C  
ENDBRANCH   4  13
BRANCH   6  16
HETATM   16  N   UNL     1      -9.200  11.140  68.169  1.00  0.00    -0.159 N  
HETATM   17  H   UNL     1      -9.091  11.361  69.159  1.00  0.00     0.000 HD 
HETATM   18  C   UNL     1      -9.986  11.977  67.413  1.00  0.00    -0.191 C  
HETATM   19  O   UNL     1     -10.123  11.857  66.200  1.00  0.00    -0.217 OA 
BRANCH  18  20
HETATM   20  CA  UNL     1     -10.677  13.076  68.259  1.00  0.00    -0.245 C  
HETATM   21  H2  UNL     1      -9.065  14.406  68.058  1.00  0.00     0.000 HD 
HETATM   22  N   UNL     1      -9.650  14.013  68.796  1.00  0.00    -0.372 NA 
HETATM   23  H1  UNL     1     -10.104  14.737  69.352  1.00  0.00     0.000 HD 
BRANCH  20  24
HETATM   24  C   UNL     1     -11.527  12.478  69.365  1.00  0.00    -0.327 A  
HETATM   25  C   UNL     1     -12.083  13.323  70.339  1.00  0.00    -0.401 A  
HETATM   26  C   UNL     1     -12.842  12.804  71.392  1.00  0.00    -0.371 A  
HETATM   27  C   UNL     1     -13.057  11.432  71.469  1.00  0.00    -0.335 A  
HETATM   28  C   UNL     1     -12.552  10.579  70.498  1.00  0.00    -0.423 A  
HETATM   29  O   UNL     1     -13.761  10.880  72.497  1.00  0.00    -0.428 OA 
HETATM   30  H   UNL     1     -13.909   9.943  72.549  1.00  0.00     0.000 HD 
HETATM   31  C   UNL     1     -11.797  11.099  69.445  1.00  0.00    -0.415 A  
ENDBRANCH  20  24
ENDBRANCH  18  20
ENDBRANCH   6  16
TORSDOF 4
ENDMDL
MODEL       83
REMARK 921   NORMALIZED FREE ENERGY PREDICTED BY IDOCK:   -5.08 KCAL/MOL
REMARK 922        TOTAL FREE ENERGY PREDICTED BY IDOCK:   -7.08 KCAL/MOL
REMARK 923 INTER-LIGAND FREE ENERGY PREDICTED BY IDOCK:   -6.48 KCAL/MOL
REMARK 924 INTRA-LIGAND FREE ENERGY PREDICTED BY IDOCK:   -0.60 KCAL/MOL
REMARK 927      BINDING AFFINITY PREDICTED BY RF-SCORE:    0.00 PKD
ROOT
HETATM    1  C   UNL     1      -7.580  14.331  67.241  1.00  0.00    -0.092 C  
HETATM    2  S   UNL     1      -7.185  14.812  68.940  1.00  0.00    -0.135 SA 
HETATM    3  C   UNL     1      -5.941  13.523  69.131  1.00  0.00    -0.089 C  
HETATM    4  C   UNL     1      -6.363  12.132  68.670  1.00  0.00    -0.063 C  
HETATM    5  CA  UNL     1      -7.372  11.899  67.776  1.00  0.00    -0.109 C  
HETATM    6  CA  UNL     1      -9.005  14.747  66.750  1.00  0.00    -0.266 C  
HETATM    7  C   UNL     1      -7.727  10.480  67.370  1.00  0.00    -0.102 C  
HETATM    8  O   UNL     1     -10.061  12.429  66.214  1.00  0.00    -0.231 OA 
HETATM    9  N   UNL     1      -8.050  12.960  67.235  1.00  0.00    -0.178 N  
HETATM   10  OXT UNL     1      -6.942   9.544  67.439  1.00  0.00    -0.082 OA 
HETATM   11  C   UNL     1      -9.208  13.200  66.583  1.00  0.00    -0.215 C  
HETATM   12  O   UNL     1      -8.969  10.264  66.898  1.00  0.00    -0.136 OA 
ENDROOT
BRANCH   4  13
HETATM   13  C   UNL     1      -5.633  11.071  69.384  1.00  0.00    -0.042 C  
HETATM   14  C   UNL     1      -5.921  10.617  70.615  1.00  0.00    -0.097 C  
HETATM   15  C   UNL     1      -5.191   9.497  71.284  1.00  0.00    -0.054 C  
ENDBRANCH   4  13
BRANCH   6  16
HETATM   16  N   UNL     1      -9.864  15.382  67.774  1.00  0.00    -0.220 N  
HETATM   17  H   UNL     1      -9.402  15.848  68.555  1.00  0.00     0.000 HD 
HETATM   18  C   UNL     1     -11.239  15.392  67.750  1.00  0.00    -0.321 C  
HETATM   19  O   UNL     1     -11.898  14.937  66.822  1.00  0.00    -0.304 OA 
BRANCH  18  20
HETATM   20  CA  UNL     1     -11.856  16.033  69.019  1.00  0.00    -0.252 C  
HETATM   21  H2  UNL     1     -10.513  17.648  68.996  1.00  0.00     0.000 HD 
HETATM   22  N   UNL     1     -10.862  16.947  69.651  1.00  0.00    -0.381 NA 
HETATM   23  H1  UNL     1     -11.268  17.369  70.486  1.00  0.00     0.000 HD 
BRANCH  20  24
HETATM   24  C   UNL     1     -12.351  14.979  69.993  1.00  0.00    -0.353 A  
HETATM   25  C   UNL     1     -11.931  13.648  69.839  1.00  0.00    -0.415 A  
HETATM   26  C   UNL     1     -12.394  12.646  70.696  1.00  0.00    -0.375 A  
HETATM   27  C   UNL     1     -13.276  12.973  71.720  1.00  0.00    -0.392 A  
HETATM   28  C   UNL     1     -13.676  14.288  71.918  1.00  0.00    -0.524 A  
HETATM   29  O   UNL     1     -13.778  12.023  72.556  1.00  0.00    -0.503 OA 
HETATM   30  H   UNL     1     -14.380  12.247  73.256  1.00  0.00     0.000 HD 
HETATM   31  C   UNL     1     -13.210  15.289  71.063  1.00  0.00    -0.546 A  
ENDBRANCH  20  24
ENDBRANCH  18  20
ENDBRANCH   6  16
TORSDOF 4
ENDMDL
MODEL       84
REMARK 921   NORMALIZED FREE ENERGY PREDICTED BY IDOCK:   -5.07 KCAL/MOL
REMARK 922        TOTAL FREE ENERGY PREDICTED BY IDOCK:   -7.06 KCAL/MOL
REMARK 923 INTER-LIGAND FREE ENERGY PREDICTED BY IDOCK:   -6.18 KCAL/MOL
REMARK 924 INTRA-LIGAND FREE ENERGY PREDICTED BY IDOCK:   -0.89 KCAL/MOL
REMARK 927      BINDING AFFINITY PREDICTED BY RF-SCORE:    0.00 PKD
ROOT
HETATM    1  C   UNL     1      -8.612  14.278  68.678  1.00  0.00    -0.149 C  
HETATM    2  S   UNL     1      -9.364  15.781  69.348  1.00  0.00    -0.240 SA 
HETATM    3  C   UNL     1     -10.494  14.871  70.416  1.00  0.00     0.123 C  
HETATM    4  C   UNL     1     -11.238  13.719  69.750  1.00  0.00    -0.122 C  
HETATM    5  CA  UNL     1     -10.809  13.090  68.613  1.00  0.00    -0.259 C  
HETATM    6  CA  UNL     1      -7.944  14.442  67.274  1.00  0.00    -0.180 C  
HETATM    7  C   UNL     1     -11.613  11.948  68.017  1.00  0.00    -0.332 C  
HETATM    8  O   UNL     1      -9.328  12.760  65.848  1.00  0.00    -0.134 OA 
HETATM    9  N   UNL     1      -9.637  13.487  68.026  1.00  0.00    -0.214 N  
HETATM   10  OXT UNL     1     -12.386  11.257  68.668  1.00  0.00    -0.534 OA 
HETATM   11  C   UNL     1      -9.004  13.369  66.839  1.00  0.00    -0.209 C  
HETATM   12  O   UNL     1     -11.441  11.689  66.708  1.00  0.00    -0.427 OA 
ENDROOT
BRANCH   4  13
HETATM   13  C   UNL     1     -12.525  13.441  70.411  1.00  0.00    -0.322 C  
HETATM   14  C   UNL     1     -12.840  13.765  71.676  1.00  0.00    -0.438 C  
HETATM   15  C   UNL     1     -14.180  13.517  72.293  1.00  0.00    -0.463 C  
ENDBRANCH   4  13
BRANCH   6  16
HETATM   16  N   UNL     1      -8.110  15.771  66.648  1.00  0.00    -0.265 N  
HETATM   17  H   UNL     1      -9.053  16.053  66.380  1.00  0.00     0.000 HD 
HETATM   18  C   UNL     1      -7.088  16.656  66.399  1.00  0.00    -0.082 C  
HETATM   19  O   UNL     1      -5.929  16.461  66.752  1.00  0.00    -0.326 OA 
BRANCH  18  20
HETATM   20  CA  UNL     1      -7.559  17.915  65.628  1.00  0.00     0.164 C  
HETATM   21  H2  UNL     1      -5.722  18.135  64.634  1.00  0.00     0.000 HD 
HETATM   22  N   UNL     1      -6.372  18.700  65.180  1.00  0.00    -0.426 NA 
HETATM   23  H1  UNL     1      -6.682  19.528  64.672  1.00  0.00     0.000 HD 
BRANCH  20  24
HETATM   24  C   UNL     1      -8.509  18.757  66.460  1.00  0.00    -0.310 A  
HETATM   25  C   UNL     1      -8.086  19.241  67.709  1.00  0.00    -0.321 A  
HETATM   26  C   UNL     1      -8.946  19.989  68.518  1.00  0.00    -0.106 A  
HETATM   27  C   UNL     1     -10.235  20.267  68.074  1.00  0.00    -0.284 A  
HETATM   28  C   UNL     1     -10.664  19.834  66.827  1.00  0.00    -0.526 A  
HETATM   29  O   UNL     1     -11.117  20.963  68.844  1.00  0.00     0.477 OA 
HETATM   30  H   UNL     1     -11.997  21.153  68.541  1.00  0.00     0.000 HD 
HETATM   31  C   UNL     1      -9.803  19.089  66.019  1.00  0.00    -0.271 A  
ENDBRANCH  20  24
ENDBRANCH  18  20
ENDBRANCH   6  16
TORSDOF 4
ENDMDL
MODEL       85
REMARK 921   NORMALIZED FREE ENERGY PREDICTED BY IDOCK:   -5.05 KCAL/MOL
REMARK 922        TOTAL FREE ENERGY PREDICTED BY IDOCK:   -7.05 KCAL/MOL
REMARK 923 INTER-LIGAND FREE ENERGY PREDICTED BY IDOCK:   -6.36 KCAL/MOL
REMARK 924 INTRA-LIGAND FREE ENERGY PREDICTED BY IDOCK:   -0.68 KCAL/MOL
REMARK 927      BINDING AFFINITY PREDICTED BY RF-SCORE:    0.00 PKD
ROOT
HETATM    1  C   UNL     1     -11.012  13.131  66.996  1.00  0.00    -0.269 C  
HETATM    2  S   UNL     1     -11.949  13.664  68.447  1.00  0.00    -0.297 SA 
HETATM    3  C   UNL     1     -11.487  15.394  68.247  1.00  0.00    -0.353 C  
HETATM    4  C   UNL     1     -10.006  15.650  67.995  1.00  0.00    -0.222 C  
HETATM    5  CA  UNL     1      -9.143  14.711  67.500  1.00  0.00    -0.190 C  
HETATM    6  CA  UNL     1     -10.582  11.628  67.000  1.00  0.00    -0.237 C  
HETATM    7  C   UNL     1      -7.680  15.052  67.278  1.00  0.00    -0.202 C  
HETATM    8  O   UNL     1      -7.988  11.834  66.918  1.00  0.00    -0.160 OA 
HETATM    9  N   UNL     1      -9.614  13.463  67.188  1.00  0.00    -0.233 N  
HETATM   10  OXT UNL     1      -7.274  16.194  67.107  1.00  0.00    -0.179 OA 
HETATM   11  C   UNL     1      -9.131  12.223  66.956  1.00  0.00    -0.201 C  
HETATM   12  O   UNL     1      -6.803  14.032  67.258  1.00  0.00    -0.214 OA 
ENDROOT
BRANCH   4  13
HETATM   13  C   UNL     1      -9.594  16.988  68.453  1.00  0.00    -0.277 C  
HETATM   14  C   UNL     1     -10.283  18.126  68.263  1.00  0.00    -0.402 C  
HETATM   15  C   UNL     1      -9.859  19.457  68.795  1.00  0.00    -0.530 C  
ENDBRANCH   4  13
BRANCH   6  16
HETATM   16  N   UNL     1     -10.913  10.881  68.234  1.00  0.00    -0.219 N  
HETATM   17  H   UNL     1     -11.192  11.422  69.053  1.00  0.00     0.000 HD 
HETATM   18  C   UNL     1     -10.872   9.513  68.359  1.00  0.00    -0.137 C  
HETATM   19  O   UNL     1     -10.632   8.759  67.422  1.00  0.00    -0.279 OA 
BRANCH  18  20
HETATM   20  CA  UNL     1     -11.159   9.035  69.805  1.00  0.00    -0.104 C  
HETATM   21  H2  UNL     1     -12.916  10.175  69.957  1.00  0.00     0.000 HD 
HETATM   22  N   UNL     1     -12.059  10.010  70.485  1.00  0.00    -0.380 NA 
HETATM   23  H1  UNL     1     -12.248   9.695  71.436  1.00  0.00     0.000 HD 
BRANCH  20  24
HETATM   24  C   UNL     1      -9.876   8.813  70.585  1.00  0.00    -0.237 A  
HETATM   25  C   UNL     1      -9.943   8.584  71.969  1.00  0.00    -0.383 A  
HETATM   26  C   UNL     1      -8.780   8.411  72.725  1.00  0.00    -0.256 A  
HETATM   27  C   UNL     1      -7.541   8.456  72.095  1.00  0.00    -0.113 A  
HETATM   28  C   UNL     1      -7.449   8.641  70.723  1.00  0.00    -0.080 A  
HETATM   29  O   UNL     1      -6.381   8.326  72.799  1.00  0.00    -0.074 OA 
HETATM   30  H   UNL     1      -5.535   8.356  72.369  1.00  0.00     0.000 HD 
HETATM   31  C   UNL     1      -8.611   8.811  69.968  1.00  0.00    -0.136 A  
ENDBRANCH  20  24
ENDBRANCH  18  20
ENDBRANCH   6  16
TORSDOF 4
ENDMDL
MODEL       86
REMARK 921   NORMALIZED FREE ENERGY PREDICTED BY IDOCK:   -5.04 KCAL/MOL
REMARK 922        TOTAL FREE ENERGY PREDICTED BY IDOCK:   -7.03 KCAL/MOL
REMARK 923 INTER-LIGAND FREE ENERGY PREDICTED BY IDOCK:   -6.33 KCAL/MOL
REMARK 924 INTRA-LIGAND FREE ENERGY PREDICTED BY IDOCK:   -0.70 KCAL/MOL
REMARK 927      BINDING AFFINITY PREDICTED BY RF-SCORE:    0.00 PKD
ROOT
HETATM    1  C   UNL     1      -9.079   9.616  68.078  1.00  0.00    -0.125 C  
HETATM    2  S   UNL     1      -9.613   8.801  66.554  1.00  0.00    -0.257 SA 
HETATM    3  C   UNL     1     -10.026  10.355  65.739  1.00  0.00    -0.270 C  
HETATM    4  C   UNL     1     -10.851  11.330  66.570  1.00  0.00    -0.319 C  
HETATM    5  CA  UNL     1     -10.914  11.305  67.937  1.00  0.00    -0.248 C  
HETATM    6  CA  UNL     1      -9.141   8.725  69.362  1.00  0.00    -0.145 C  
HETATM    7  C   UNL     1     -11.763  12.317  68.686  1.00  0.00    -0.328 C  
HETATM    8  O   UNL     1     -10.817  10.067  70.836  1.00  0.00    -0.319 OA 
HETATM    9  N   UNL     1     -10.189  10.370  68.626  1.00  0.00    -0.172 N  
HETATM   10  OXT UNL     1     -12.072  13.408  68.226  1.00  0.00    -0.343 OA 
HETATM   11  C   UNL     1     -10.151   9.819  69.859  1.00  0.00    -0.251 C  
HETATM   12  O   UNL     1     -12.173  11.984  69.924  1.00  0.00    -0.254 OA 
ENDROOT
BRANCH   4  13
HETATM   13  C   UNL     1     -11.659  12.225  65.724  1.00  0.00    -0.443 C  
HETATM   14  C   UNL     1     -11.425  12.499  64.430  1.00  0.00    -0.406 C  
HETATM   15  C   UNL     1     -12.303  13.370  63.589  1.00  0.00    -0.422 C  
ENDBRANCH   4  13
BRANCH   6  16
HETATM   16  N   UNL     1      -9.724   7.380  69.168  1.00  0.00    -0.163 N  
HETATM   17  H   UNL     1     -10.685   7.326  68.828  1.00  0.00     0.000 HD 
HETATM   18  C   UNL     1      -9.069   6.196  69.412  1.00  0.00    -0.134 C  
HETATM   19  O   UNL     1      -7.889   6.137  69.743  1.00  0.00    -0.101 OA 
BRANCH  18  20
HETATM   20  CA  UNL     1      -9.980   4.957  69.226  1.00  0.00    -0.199 C  
HETATM   21  H2  UNL     1      -9.846   4.411  71.250  1.00  0.00     0.000 HD 
HETATM   22  N   UNL     1      -9.733   3.985  70.329  1.00  0.00    -0.201 NA 
HETATM   23  H1  UNL     1     -10.333   3.169  70.208  1.00  0.00     0.000 HD 
BRANCH  20  24
HETATM   24  C   UNL     1      -9.787   4.321  67.862  1.00  0.00    -0.120 A  
HETATM   25  C   UNL     1      -9.103   3.099  67.762  1.00  0.00    -0.219 A  
HETATM   26  C   UNL     1      -8.876   2.501  66.520  1.00  0.00    -0.136 A  
HETATM   27  C   UNL     1      -9.345   3.121  65.366  1.00  0.00    -0.127 A  
HETATM   28  C   UNL     1     -10.058   4.309  65.439  1.00  0.00    -0.238 A  
HETATM   29  O   UNL     1      -9.116   2.592  64.132  1.00  0.00    -0.104 OA 
HETATM   30  H   UNL     1      -9.436   3.015  63.344  1.00  0.00     0.000 HD 
HETATM   31  C   UNL     1     -10.287   4.904  66.682  1.00  0.00    -0.285 A  
ENDBRANCH  20  24
ENDBRANCH  18  20
ENDBRANCH   6  16
TORSDOF 4
ENDMDL
MODEL       87
REMARK 921   NORMALIZED FREE ENERGY PREDICTED BY IDOCK:   -5.03 KCAL/MOL
REMARK 922        TOTAL FREE ENERGY PREDICTED BY IDOCK:   -7.02 KCAL/MOL
REMARK 923 INTER-LIGAND FREE ENERGY PREDICTED BY IDOCK:   -6.23 KCAL/MOL
REMARK 924 INTRA-LIGAND FREE ENERGY PREDICTED BY IDOCK:   -0.79 KCAL/MOL
REMARK 927      BINDING AFFINITY PREDICTED BY RF-SCORE:    0.00 PKD
ROOT
HETATM    1  C   UNL     1      -7.681  10.388  67.988  1.00  0.00    -0.092 C  
HETATM    2  S   UNL     1      -7.620   9.728  66.305  1.00  0.00    -0.102 SA 
HETATM    3  C   UNL     1      -8.705  11.008  65.647  1.00  0.00    -0.157 C  
HETATM    4  C   UNL     1      -9.968  11.275  66.459  1.00  0.00    -0.247 C  
HETATM    5  CA  UNL     1     -10.104  10.960  67.783  1.00  0.00    -0.177 C  
HETATM    6  CA  UNL     1      -7.373   9.351  69.117  1.00  0.00    -0.071 C  
HETATM    7  C   UNL     1     -11.399  11.263  68.516  1.00  0.00    -0.276 C  
HETATM    8  O   UNL     1      -9.595   9.392  70.473  1.00  0.00    -0.239 OA 
HETATM    9  N   UNL     1      -9.055  10.383  68.449  1.00  0.00    -0.141 N  
HETATM   10  OXT UNL     1     -12.186  12.130  68.161  1.00  0.00    -0.388 OA 
HETATM   11  C   UNL     1      -8.830   9.694  69.588  1.00  0.00    -0.201 C  
HETATM   12  O   UNL     1     -11.669  10.540  69.619  1.00  0.00    -0.258 OA 
ENDROOT
BRANCH   4  13
HETATM   13  C   UNL     1     -11.056  11.808  65.622  1.00  0.00    -0.340 C  
HETATM   14  C   UNL     1     -11.173  11.643  64.294  1.00  0.00    -0.392 C  
HETATM   15  C   UNL     1     -12.325  12.151  63.488  1.00  0.00    -0.682 C  
ENDBRANCH   4  13
BRANCH   6  16
HETATM   16  N   UNL     1      -7.177   7.958  68.658  1.00  0.00    -0.079 N  
HETATM   17  H   UNL     1      -6.966   7.812  67.670  1.00  0.00     0.000 HD 
HETATM   18  C   UNL     1      -7.259   6.846  69.462  1.00  0.00    -0.081 C  
HETATM   19  O   UNL     1      -7.426   6.906  70.676  1.00  0.00    -0.079 OA 
BRANCH  18  20
HETATM   20  CA  UNL     1      -7.122   5.522  68.670  1.00  0.00    -0.065 C  
HETATM   21  H2  UNL     1      -5.027   5.646  68.600  1.00  0.00     0.000 HD 
HETATM   22  N   UNL     1      -5.810   5.496  67.963  1.00  0.00    -0.016 NA 
HETATM   23  H1  UNL     1      -5.719   4.624  67.442  1.00  0.00     0.000 HD 
BRANCH  20  24
HETATM   24  C   UNL     1      -8.282   5.321  67.712  1.00  0.00    -0.099 A  
HETATM   25  C   UNL     1      -9.560   5.776  68.074  1.00  0.00    -0.131 A  
HETATM   26  C   UNL     1     -10.658   5.578  67.232  1.00  0.00    -0.294 A  
HETATM   27  C   UNL     1     -10.480   4.930  66.014  1.00  0.00    -0.283 A  
HETATM   28  C   UNL     1      -9.220   4.505  65.615  1.00  0.00    -0.149 A  
HETATM   29  O   UNL     1     -11.528   4.685  65.179  1.00  0.00    -1.082 OA 
HETATM   30  H   UNL     1     -11.405   4.243  64.348  1.00  0.00     0.000 HD 
HETATM   31  C   UNL     1      -8.123   4.707  66.456  1.00  0.00    -0.103 A  
ENDBRANCH  20  24
ENDBRANCH  18  20
ENDBRANCH   6  16
TORSDOF 4
ENDMDL
MODEL       88
REMARK 921   NORMALIZED FREE ENERGY PREDICTED BY IDOCK:   -5.01 KCAL/MOL
REMARK 922        TOTAL FREE ENERGY PREDICTED BY IDOCK:   -7.00 KCAL/MOL
REMARK 923 INTER-LIGAND FREE ENERGY PREDICTED BY IDOCK:   -6.50 KCAL/MOL
REMARK 924 INTRA-LIGAND FREE ENERGY PREDICTED BY IDOCK:   -0.50 KCAL/MOL
REMARK 927      BINDING AFFINITY PREDICTED BY RF-SCORE:    0.00 PKD
ROOT
HETATM    1  C   UNL     1      -8.365  13.142  67.194  1.00  0.00    -0.140 C  
HETATM    2  S   UNL     1      -7.856  12.257  68.686  1.00  0.00    -0.007 SA 
HETATM    3  C   UNL     1      -7.005  10.965  67.762  1.00  0.00    -0.077 C  
HETATM    4  C   UNL     1      -7.787  10.374  66.594  1.00  0.00    -0.120 C  
HETATM    5  CA  UNL     1      -8.821  11.014  65.967  1.00  0.00    -0.191 C  
HETATM    6  CA  UNL     1      -9.624  14.054  67.361  1.00  0.00    -0.227 C  
HETATM    7  C   UNL     1      -9.545  10.352  64.808  1.00  0.00    -0.293 C  
HETATM    8  O   UNL     1     -11.267  12.981  65.648  1.00  0.00    -0.278 OA 
HETATM    9  N   UNL     1      -9.187  12.267  66.381  1.00  0.00    -0.224 N  
HETATM   10  OXT UNL     1      -9.041   9.485  64.107  1.00  0.00    -0.232 OA 
HETATM   11  C   UNL     1     -10.237  13.109  66.268  1.00  0.00    -0.293 C  
HETATM   12  O   UNL     1     -10.799  10.764  64.545  1.00  0.00    -0.225 OA 
ENDROOT
BRANCH   4  13
HETATM   13  C   UNL     1      -7.371   8.993  66.297  1.00  0.00    -0.091 C  
HETATM   14  C   UNL     1      -6.922   8.101  67.196  1.00  0.00    -0.075 C  
HETATM   15  C   UNL     1      -6.563   6.688  66.864  1.00  0.00    -0.048 C  
ENDBRANCH   4  13
BRANCH   6  16
HETATM   16  N   UNL     1     -10.281  13.984  68.685  1.00  0.00    -0.239 N  
HETATM   17  H   UNL     1      -9.759  13.555  69.449  1.00  0.00     0.000 HD 
HETATM   18  C   UNL     1     -11.543  14.454  68.962  1.00  0.00    -0.296 C  
HETATM   19  O   UNL     1     -12.229  15.060  68.146  1.00  0.00    -0.142 OA 
BRANCH  18  20
HETATM   20  CA  UNL     1     -11.999  14.132  70.408  1.00  0.00    -0.330 C  
HETATM   21  H2  UNL     1     -10.786  15.628  71.246  1.00  0.00     0.000 HD 
HETATM   22  N   UNL     1     -10.982  14.635  71.376  1.00  0.00    -0.244 NA 
HETATM   23  H1  UNL     1     -11.282  14.424  72.328  1.00  0.00     0.000 HD 
BRANCH  20  24
HETATM   24  C   UNL     1     -12.267  12.650  70.592  1.00  0.00    -0.373 A  
HETATM   25  C   UNL     1     -13.021  12.219  71.696  1.00  0.00    -0.416 A  
HETATM   26  C   UNL     1     -13.258  10.859  71.916  1.00  0.00    -0.508 A  
HETATM   27  C   UNL     1     -12.748   9.921  71.025  1.00  0.00    -0.334 A  
HETATM   28  C   UNL     1     -12.033  10.323  69.906  1.00  0.00    -0.222 A  
HETATM   29  O   UNL     1     -12.926   8.585  71.221  1.00  0.00    -0.450 OA 
HETATM   30  H   UNL     1     -12.578   7.945  70.611  1.00  0.00     0.000 HD 
HETATM   31  C   UNL     1     -11.799  11.682  69.684  1.00  0.00    -0.419 A  
ENDBRANCH  20  24
ENDBRANCH  18  20
ENDBRANCH   6  16
TORSDOF 4
ENDMDL
MODEL       89
REMARK 921   NORMALIZED FREE ENERGY PREDICTED BY IDOCK:   -5.00 KCAL/MOL
REMARK 922        TOTAL FREE ENERGY PREDICTED BY IDOCK:   -6.98 KCAL/MOL
REMARK 923 INTER-LIGAND FREE ENERGY PREDICTED BY IDOCK:   -6.20 KCAL/MOL
REMARK 924 INTRA-LIGAND FREE ENERGY PREDICTED BY IDOCK:   -0.78 KCAL/MOL
REMARK 927      BINDING AFFINITY PREDICTED BY RF-SCORE:    0.00 PKD
ROOT
HETATM    1  C   UNL     1      -8.390  10.161  65.577  1.00  0.00    -0.158 C  
HETATM    2  S   UNL     1     -10.169  10.374  65.324  1.00  0.00    -0.198 SA 
HETATM    3  C   UNL     1     -10.044  12.166  65.175  1.00  0.00    -0.261 C  
HETATM    4  C   UNL     1      -9.202  12.854  66.244  1.00  0.00    -0.087 C  
HETATM    5  CA  UNL     1      -8.243  12.220  66.985  1.00  0.00    -0.155 C  
HETATM    6  CA  UNL     1      -7.981   8.853  66.331  1.00  0.00    -0.103 C  
HETATM    7  C   UNL     1      -7.450  12.983  68.031  1.00  0.00    -0.134 C  
HETATM    8  O   UNL     1      -6.790   9.823  68.433  1.00  0.00    -0.060 OA 
HETATM    9  N   UNL     1      -7.990  10.892  66.764  1.00  0.00    -0.137 N  
HETATM   10  OXT UNL     1      -7.288  14.196  67.999  1.00  0.00    -0.109 OA 
HETATM   11  C   UNL     1      -7.388   9.854  67.384  1.00  0.00    -0.090 C  
HETATM   12  O   UNL     1      -6.893  12.270  69.027  1.00  0.00    -0.097 OA 
ENDROOT
BRANCH   4  13
HETATM   13  C   UNL     1      -9.624  14.249  66.461  1.00  0.00    -0.313 C  
HETATM   14  C   UNL     1     -10.665  14.643  67.213  1.00  0.00    -0.290 C  
HETATM   15  C   UNL     1     -11.025  16.074  67.455  1.00  0.00    -0.261 C  
ENDBRANCH   4  13
BRANCH   6  16
HETATM   16  N   UNL     1      -9.108   8.029  66.820  1.00  0.00    -0.147 N  
HETATM   17  H   UNL     1     -10.041   8.251  66.473  1.00  0.00     0.000 HD 
HETATM   18  C   UNL     1      -8.991   6.984  67.706  1.00  0.00    -0.121 C  
HETATM   19  O   UNL     1      -7.913   6.575  68.124  1.00  0.00    -0.107 OA 
BRANCH  18  20
HETATM   20  CA  UNL     1     -10.362   6.390  68.117  1.00  0.00    -0.192 C  
HETATM   21  H2  UNL     1     -11.036   6.274  66.131  1.00  0.00     0.000 HD 
HETATM   22  N   UNL     1     -11.356   6.631  67.032  1.00  0.00    -0.795 NA 
HETATM   23  H1  UNL     1     -12.258   6.239  67.302  1.00  0.00     0.000 HD 
BRANCH  20  24
HETATM   24  C   UNL     1     -10.835   6.944  69.448  1.00  0.00    -0.283 A  
HETATM   25  C   UNL     1     -11.627   6.142  70.285  1.00  0.00    -0.266 A  
HETATM   26  C   UNL     1     -12.110   6.631  71.502  1.00  0.00    -0.406 A  
HETATM   27  C   UNL     1     -11.792   7.928  71.893  1.00  0.00    -0.301 A  
HETATM   28  C   UNL     1     -10.979   8.728  71.103  1.00  0.00    -0.334 A  
HETATM   29  O   UNL     1     -12.270   8.457  73.054  1.00  0.00    -0.573 OA 
HETATM   30  H   UNL     1     -12.053   9.342  73.321  1.00  0.00     0.000 HD 
HETATM   31  C   UNL     1     -10.495   8.237  69.889  1.00  0.00    -0.223 A  
ENDBRANCH  20  24
ENDBRANCH  18  20
ENDBRANCH   6  16
TORSDOF 4
ENDMDL
MODEL       90
REMARK 921   NORMALIZED FREE ENERGY PREDICTED BY IDOCK:   -4.99 KCAL/MOL
REMARK 922        TOTAL FREE ENERGY PREDICTED BY IDOCK:   -6.96 KCAL/MOL
REMARK 923 INTER-LIGAND FREE ENERGY PREDICTED BY IDOCK:   -6.31 KCAL/MOL
REMARK 924 INTRA-LIGAND FREE ENERGY PREDICTED BY IDOCK:   -0.66 KCAL/MOL
REMARK 927      BINDING AFFINITY PREDICTED BY RF-SCORE:    0.00 PKD
ROOT
HETATM    1  C   UNL     1     -10.476   8.076  68.683  1.00  0.00    -0.167 C  
HETATM    2  S   UNL     1     -10.490   7.367  67.019  1.00  0.00    -0.324 SA 
HETATM    3  C   UNL     1      -9.880   5.766  67.576  1.00  0.00    -0.130 C  
HETATM    4  C   UNL     1      -8.682   5.815  68.518  1.00  0.00    -0.111 C  
HETATM    5  CA  UNL     1      -8.346   6.908  69.268  1.00  0.00    -0.129 C  
HETATM    6  CA  UNL     1     -10.374   9.635  68.738  1.00  0.00    -0.213 C  
HETATM    7  C   UNL     1      -7.134   6.870  70.182  1.00  0.00    -0.071 C  
HETATM    8  O   UNL     1      -8.147   9.958  70.048  1.00  0.00    -0.173 OA 
HETATM    9  N   UNL     1      -9.123   8.034  69.203  1.00  0.00    -0.145 N  
HETATM   10  OXT UNL     1      -6.663   5.834  70.632  1.00  0.00    -0.048 OA 
HETATM   11  C   UNL     1      -9.041   9.346  69.514  1.00  0.00    -0.165 C  
HETATM   12  O   UNL     1      -6.573   8.047  70.515  1.00  0.00    -0.037 OA 
ENDROOT
BRANCH   4  13
HETATM   13  C   UNL     1      -7.869   4.589  68.436  1.00  0.00    -0.079 C  
HETATM   14  C   UNL     1      -7.026   4.275  67.438  1.00  0.00    -0.063 C  
HETATM   15  C   UNL     1      -6.174   3.046  67.421  1.00  0.00    -0.032 C  
ENDBRANCH   4  13
BRANCH   6  16
HETATM   16  N   UNL     1     -10.200  10.302  67.429  1.00  0.00    -0.205 N  
HETATM   17  H   UNL     1      -9.443   9.974  66.828  1.00  0.00     0.000 HD 
HETATM   18  C   UNL     1     -10.983  11.331  66.960  1.00  0.00    -0.294 C  
HETATM   19  O   UNL     1     -11.968  11.750  67.557  1.00  0.00    -0.607 OA 
BRANCH  18  20
HETATM   20  CA  UNL     1     -10.482  11.897  65.608  1.00  0.00    -0.262 C  
HETATM   21  H2  UNL     1      -9.111  10.331  65.328  1.00  0.00     0.000 HD 
HETATM   22  N   UNL     1      -9.127  11.351  65.308  1.00  0.00    -0.378 NA 
HETATM   23  H1  UNL     1      -8.797  11.723  64.418  1.00  0.00     0.000 HD 
BRANCH  20  24
HETATM   24  C   UNL     1     -10.491  13.415  65.600  1.00  0.00    -0.293 A  
HETATM   25  C   UNL     1     -11.290  14.093  64.666  1.00  0.00    -0.374 A  
HETATM   26  C   UNL     1     -11.298  15.489  64.607  1.00  0.00    -0.363 A  
HETATM   27  C   UNL     1     -10.510  16.217  65.493  1.00  0.00    -0.386 A  
HETATM   28  C   UNL     1      -9.741  15.572  66.451  1.00  0.00    -0.306 A  
HETATM   29  O   UNL     1     -10.460  17.577  65.447  1.00  0.00    -0.647 OA 
HETATM   30  H   UNL     1      -9.923  18.074  66.053  1.00  0.00     0.000 HD 
HETATM   31  C   UNL     1      -9.737  14.177  66.512  1.00  0.00    -0.307 A  
ENDBRANCH  20  24
ENDBRANCH  18  20
ENDBRANCH   6  16
TORSDOF 4
ENDMDL
MODEL       91
REMARK 921   NORMALIZED FREE ENERGY PREDICTED BY IDOCK:   -4.98 KCAL/MOL
REMARK 922        TOTAL FREE ENERGY PREDICTED BY IDOCK:   -6.96 KCAL/MOL
REMARK 923 INTER-LIGAND FREE ENERGY PREDICTED BY IDOCK:   -6.09 KCAL/MOL
REMARK 924 INTRA-LIGAND FREE ENERGY PREDICTED BY IDOCK:   -0.86 KCAL/MOL
REMARK 927      BINDING AFFINITY PREDICTED BY RF-SCORE:    0.00 PKD
ROOT
HETATM    1  C   UNL     1     -11.400  12.421  67.379  1.00  0.00    -0.321 C  
HETATM    2  S   UNL     1     -10.983  11.558  68.912  1.00  0.00    -0.242 SA 
HETATM    3  C   UNL     1     -11.952  12.680  69.937  1.00  0.00    -0.295 C  
HETATM    4  C   UNL     1     -11.741  14.164  69.660  1.00  0.00    -0.372 C  
HETATM    5  CA  UNL     1     -11.252  14.658  68.482  1.00  0.00    -0.271 C  
HETATM    6  CA  UNL     1     -10.380  12.227  66.211  1.00  0.00    -0.232 C  
HETATM    7  C   UNL     1     -11.075  16.154  68.290  1.00  0.00    -0.348 C  
HETATM    8  O   UNL     1      -9.610  14.679  65.788  1.00  0.00    -0.303 OA 
HETATM    9  N   UNL     1     -10.939  13.793  67.468  1.00  0.00    -0.268 N  
HETATM   10  OXT UNL     1     -11.706  16.992  68.920  1.00  0.00     0.353 OA 
HETATM   11  C   UNL     1     -10.222  13.784  66.323  1.00  0.00    -0.297 C  
HETATM   12  O   UNL     1     -10.185  16.558  67.365  1.00  0.00    -0.273 OA 
ENDROOT
BRANCH   4  13
HETATM   13  C   UNL     1     -12.021  14.989  70.847  1.00  0.00    -0.374 C  
HETATM   14  C   UNL     1     -13.182  15.021  71.522  1.00  0.00    -0.484 C  
HETATM   15  C   UNL     1     -13.407  15.830  72.759  1.00  0.00    -0.636 C  
ENDBRANCH   4  13
BRANCH   6  16
HETATM   16  N   UNL     1      -9.168  11.452  66.555  1.00  0.00    -0.184 N  
HETATM   17  H   UNL     1      -8.499  11.880  67.196  1.00  0.00     0.000 HD 
HETATM   18  C   UNL     1      -8.874  10.197  66.075  1.00  0.00    -0.143 C  
HETATM   19  O   UNL     1      -9.640   9.553  65.365  1.00  0.00    -0.276 OA 
BRANCH  18  20
HETATM   20  CA  UNL     1      -7.479   9.694  66.524  1.00  0.00    -0.094 C  
HETATM   21  H2  UNL     1      -7.227   8.509  64.809  1.00  0.00     0.000 HD 
HETATM   22  N   UNL     1      -7.158   8.418  65.823  1.00  0.00    -0.071 NA 
HETATM   23  H1  UNL     1      -6.240   8.087  66.118  1.00  0.00     0.000 HD 
BRANCH  20  24
HETATM   24  C   UNL     1      -7.398   9.544  68.032  1.00  0.00    -0.082 A  
HETATM   25  C   UNL     1      -8.051   8.467  68.652  1.00  0.00    -0.122 A  
HETATM   26  C   UNL     1      -8.027   8.316  70.041  1.00  0.00    -0.104 A  
HETATM   27  C   UNL     1      -7.339   9.242  70.819  1.00  0.00    -0.123 A  
HETATM   28  C   UNL     1      -6.653  10.294  70.228  1.00  0.00    -0.142 A  
HETATM   29  O   UNL     1      -7.319   9.153  72.178  1.00  0.00    -0.328 OA 
HETATM   30  H   UNL     1      -6.849   9.785  72.709  1.00  0.00     0.000 HD 
HETATM   31  C   UNL     1      -6.675  10.441  68.840  1.00  0.00    -0.058 A  
ENDBRANCH  20  24
ENDBRANCH  18  20
ENDBRANCH   6  16
TORSDOF 4
ENDMDL
MODEL       92
REMARK 921   NORMALIZED FREE ENERGY PREDICTED BY IDOCK:   -4.94 KCAL/MOL
REMARK 922        TOTAL FREE ENERGY PREDICTED BY IDOCK:   -6.91 KCAL/MOL
REMARK 923 INTER-LIGAND FREE ENERGY PREDICTED BY IDOCK:   -6.20 KCAL/MOL
REMARK 924 INTRA-LIGAND FREE ENERGY PREDICTED BY IDOCK:   -0.71 KCAL/MOL
REMARK 927      BINDING AFFINITY PREDICTED BY RF-SCORE:    0.00 PKD
ROOT
HETATM    1  C   UNL     1     -11.404  12.072  67.751  1.00  0.00    -0.303 C  
HETATM    2  S   UNL     1      -9.838  11.172  67.845  1.00  0.00    -0.178 SA 
HETATM    3  C   UNL     1     -10.547   9.816  68.796  1.00  0.00    -0.219 C  
HETATM    4  C   UNL     1     -11.414  10.231  69.980  1.00  0.00    -0.367 C  
HETATM    5  CA  UNL     1     -12.013  11.455  70.095  1.00  0.00    -0.377 C  
HETATM    6  CA  UNL     1     -11.271  13.612  67.521  1.00  0.00    -0.294 C  
HETATM    7  C   UNL     1     -12.862  11.785  71.310  1.00  0.00    -0.308 C  
HETATM    8  O   UNL     1     -12.418  14.553  69.661  1.00  0.00    -0.279 OA 
HETATM    9  N   UNL     1     -11.855  12.378  69.095  1.00  0.00    -0.310 N  
HETATM   10  OXT UNL     1     -13.405  10.934  72.002  1.00  0.00    -0.448 OA 
HETATM   11  C   UNL     1     -12.006  13.706  68.904  1.00  0.00    -0.356 C  
HETATM   12  O   UNL     1     -13.024  13.085  71.617  1.00  0.00    -0.370 OA 
ENDROOT
BRANCH   4  13
HETATM   13  C   UNL     1     -11.435   9.200  71.032  1.00  0.00    -0.372 C  
HETATM   14  C   UNL     1     -10.432   8.933  71.885  1.00  0.00    -0.415 C  
HETATM   15  C   UNL     1     -10.514   7.916  72.978  1.00  0.00    -0.410 C  
ENDBRANCH   4  13
BRANCH   6  16
HETATM   16  N   UNL     1      -9.885  14.131  67.515  1.00  0.00    -0.232 N  
HETATM   17  H   UNL     1      -9.126  13.450  67.541  1.00  0.00     0.000 HD 
HETATM   18  C   UNL     1      -9.544  15.462  67.479  1.00  0.00    -0.206 C  
HETATM   19  O   UNL     1     -10.368  16.364  67.364  1.00  0.00    -0.283 OA 
BRANCH  18  20
HETATM   20  CA  UNL     1      -8.017  15.694  67.601  1.00  0.00    -0.153 C  
HETATM   21  H2  UNL     1      -7.846  16.376  65.622  1.00  0.00     0.000 HD 
HETATM   22  N   UNL     1      -7.402  15.698  66.243  1.00  0.00     0.101 NA 
HETATM   23  H1  UNL     1      -6.397  15.851  66.323  1.00  0.00     0.000 HD 
BRANCH  20  24
HETATM   24  C   UNL     1      -7.367  14.667  68.510  1.00  0.00    -0.117 A  
HETATM   25  C   UNL     1      -7.202  14.961  69.873  1.00  0.00    -0.069 A  
HETATM   26  C   UNL     1      -6.577  14.054  70.733  1.00  0.00     0.294 A  
HETATM   27  C   UNL     1      -6.121  12.838  70.233  1.00  0.00    -0.067 A  
HETATM   28  C   UNL     1      -6.307  12.507  68.898  1.00  0.00    -0.086 A  
HETATM   29  O   UNL     1      -5.476  11.940  71.027  1.00  0.00    -0.249 OA 
HETATM   30  H   UNL     1      -5.165  11.110  70.686  1.00  0.00     0.000 HD 
HETATM   31  C   UNL     1      -6.935  13.413  68.040  1.00  0.00    -0.127 A  
ENDBRANCH  20  24
ENDBRANCH  18  20
ENDBRANCH   6  16
TORSDOF 4
ENDMDL
MODEL       93
REMARK 921   NORMALIZED FREE ENERGY PREDICTED BY IDOCK:   -4.93 KCAL/MOL
REMARK 922        TOTAL FREE ENERGY PREDICTED BY IDOCK:   -6.89 KCAL/MOL
REMARK 923 INTER-LIGAND FREE ENERGY PREDICTED BY IDOCK:   -6.24 KCAL/MOL
REMARK 924 INTRA-LIGAND FREE ENERGY PREDICTED BY IDOCK:   -0.65 KCAL/MOL
REMARK 927      BINDING AFFINITY PREDICTED BY RF-SCORE:    0.00 PKD
ROOT
HETATM    1  C   UNL     1      -7.967   9.151  66.639  1.00  0.00    -0.104 C  
HETATM    2  S   UNL     1      -9.136   8.345  65.518  1.00  0.00     0.028 SA 
HETATM    3  C   UNL     1      -9.263   9.783  64.440  1.00  0.00    -0.245 C  
HETATM    4  C   UNL     1      -9.477  11.115  65.150  1.00  0.00    -0.257 C  
HETATM    5  CA  UNL     1      -9.154  11.342  66.460  1.00  0.00    -0.186 C  
HETATM    6  CA  UNL     1      -7.934   8.571  68.090  1.00  0.00    -0.111 C  
HETATM    7  C   UNL     1      -9.400  12.702  67.088  1.00  0.00    -0.210 C  
HETATM    8  O   UNL     1      -8.624  10.653  69.492  1.00  0.00    -0.097 OA 
HETATM    9  N   UNL     1      -8.588  10.336  67.197  1.00  0.00    -0.126 N  
HETATM   10  OXT UNL     1      -9.476  13.739  66.441  1.00  0.00    -0.278 OA 
HETATM   11  C   UNL     1      -8.374  10.022  68.493  1.00  0.00    -0.113 C  
HETATM   12  O   UNL     1      -9.524  12.752  68.427  1.00  0.00    -0.214 OA 
ENDROOT
BRANCH   4  13
HETATM   13  C   UNL     1     -10.175  12.089  64.292  1.00  0.00    -0.347 C  
HETATM   14  C   UNL     1     -11.499  12.124  64.066  1.00  0.00    -0.488 C  
HETATM   15  C   UNL     1     -12.176  13.164  63.234  1.00  0.00    -0.438 C  
ENDBRANCH   4  13
BRANCH   6  16
HETATM   16  N   UNL     1      -8.933   7.516  68.370  1.00  0.00    -0.129 N  
HETATM   17  H   UNL     1      -9.468   7.151  67.582  1.00  0.00     0.000 HD 
HETATM   18  C   UNL     1      -9.194   6.991  69.614  1.00  0.00    -0.146 C  
HETATM   19  O   UNL     1      -8.557   7.292  70.618  1.00  0.00    -0.139 OA 
BRANCH  18  20
HETATM   20  CA  UNL     1     -10.374   5.987  69.605  1.00  0.00    -0.232 C  
HETATM   21  H2  UNL     1     -11.611   7.274  68.499  1.00  0.00     0.000 HD 
HETATM   22  N   UNL     1     -11.649   6.716  69.353  1.00  0.00    -0.652 NA 
HETATM   23  H1  UNL     1     -12.426   6.056  69.347  1.00  0.00     0.000 HD 
BRANCH  20  24
HETATM   24  C   UNL     1     -10.431   5.180  70.889  1.00  0.00    -0.258 A  
HETATM   25  C   UNL     1      -9.719   3.972  70.975  1.00  0.00    -0.252 A  
HETATM   26  C   UNL     1      -9.776   3.186  72.129  1.00  0.00    -0.230 A  
HETATM   27  C   UNL     1     -10.540   3.611  73.211  1.00  0.00    -0.188 A  
HETATM   28  C   UNL     1     -11.221   4.819  73.166  1.00  0.00    -0.390 A  
HETATM   29  O   UNL     1     -10.651   2.859  74.341  1.00  0.00    -0.169 OA 
HETATM   30  H   UNL     1     -11.173   3.150  75.080  1.00  0.00     0.000 HD 
HETATM   31  C   UNL     1     -11.161   5.606  72.014  1.00  0.00    -0.271 A  
ENDBRANCH  20  24
ENDBRANCH  18  20
ENDBRANCH   6  16
TORSDOF 4
ENDMDL
MODEL       94
REMARK 921   NORMALIZED FREE ENERGY PREDICTED BY IDOCK:   -4.92 KCAL/MOL
REMARK 922        TOTAL FREE ENERGY PREDICTED BY IDOCK:   -6.89 KCAL/MOL
REMARK 923 INTER-LIGAND FREE ENERGY PREDICTED BY IDOCK:   -6.22 KCAL/MOL
REMARK 924 INTRA-LIGAND FREE ENERGY PREDICTED BY IDOCK:   -0.66 KCAL/MOL
REMARK 927      BINDING AFFINITY PREDICTED BY RF-SCORE:    0.00 PKD
ROOT
HETATM    1  C   UNL     1     -11.963  10.909  68.734  1.00  0.00    -0.160 C  
HETATM    2  S   UNL     1     -10.693  11.726  67.739  1.00  0.00    -0.216 SA 
HETATM    3  C   UNL     1     -10.173  10.194  66.946  1.00  0.00    -0.236 C  
HETATM    4  C   UNL     1      -9.952   9.014  67.886  1.00  0.00    -0.220 C  
HETATM    5  CA  UNL     1     -10.510   8.915  69.131  1.00  0.00    -0.223 C  
HETATM    6  CA  UNL     1     -12.366  11.663  70.043  1.00  0.00    -0.187 C  
HETATM    7  C   UNL     1     -10.237   7.702  70.002  1.00  0.00    -0.213 C  
HETATM    8  O   UNL     1     -11.736   9.910  71.862  1.00  0.00    -0.252 OA 
HETATM    9  N   UNL     1     -11.334   9.913  69.580  1.00  0.00    -0.173 N  
HETATM   10  OXT UNL     1      -9.904   6.613  69.554  1.00  0.00    -0.152 OA 
HETATM   11  C   UNL     1     -11.848  10.360  70.746  1.00  0.00    -0.368 C  
HETATM   12  O   UNL     1     -10.388   7.848  71.331  1.00  0.00    -0.195 OA 
ENDROOT
BRANCH   4  13
HETATM   13  C   UNL     1      -8.979   8.052  67.340  1.00  0.00    -0.141 C  
HETATM   14  C   UNL     1      -9.146   7.318  66.227  1.00  0.00    -0.186 C  
HETATM   15  C   UNL     1      -8.109   6.394  65.673  1.00  0.00    -0.131 C  
ENDBRANCH   4  13
BRANCH   6  16
HETATM   16  N   UNL     1     -11.582  12.883  70.335  1.00  0.00    -0.506 N  
HETATM   17  H   UNL     1     -10.706  12.770  70.846  1.00  0.00     0.000 HD 
HETATM   18  C   UNL     1     -11.944  14.158  69.968  1.00  0.00    -0.340 C  
HETATM   19  O   UNL     1     -12.930  14.405  69.282  1.00  0.00     0.364 OA 
BRANCH  18  20
HETATM   20  CA  UNL     1     -10.978  15.237  70.518  1.00  0.00    -0.288 C  
HETATM   21  H2  UNL     1     -12.329  15.856  72.002  1.00  0.00     0.000 HD 
HETATM   22  N   UNL     1     -11.753  16.267  71.267  1.00  0.00    -0.624 NA 
HETATM   23  H1  UNL     1     -11.118  16.978  71.629  1.00  0.00     0.000 HD 
BRANCH  20  24
HETATM   24  C   UNL     1     -10.143  15.855  69.411  1.00  0.00    -0.267 A  
HETATM   25  C   UNL     1     -10.576  17.046  68.805  1.00  0.00    -0.346 A  
HETATM   26  C   UNL     1      -9.851  17.624  67.760  1.00  0.00    -0.292 A  
HETATM   27  C   UNL     1      -8.679  17.017  67.321  1.00  0.00    -0.199 A  
HETATM   28  C   UNL     1      -8.209  15.861  67.928  1.00  0.00    -0.151 A  
HETATM   29  O   UNL     1      -7.960  17.528  66.282  1.00  0.00    -0.295 OA 
HETATM   30  H   UNL     1      -7.160  17.113  65.983  1.00  0.00     0.000 HD 
HETATM   31  C   UNL     1      -8.932  15.286  68.975  1.00  0.00    -0.225 A  
ENDBRANCH  20  24
ENDBRANCH  18  20
ENDBRANCH   6  16
TORSDOF 4
ENDMDL
MODEL       95
REMARK 921   NORMALIZED FREE ENERGY PREDICTED BY IDOCK:   -4.89 KCAL/MOL
REMARK 922        TOTAL FREE ENERGY PREDICTED BY IDOCK:   -6.84 KCAL/MOL
REMARK 923 INTER-LIGAND FREE ENERGY PREDICTED BY IDOCK:   -6.26 KCAL/MOL
REMARK 924 INTRA-LIGAND FREE ENERGY PREDICTED BY IDOCK:   -0.58 KCAL/MOL
REMARK 927      BINDING AFFINITY PREDICTED BY RF-SCORE:    0.00 PKD
ROOT
HETATM    1  C   UNL     1      -9.693   5.750  69.441  1.00  0.00    -0.155 C  
HETATM    2  S   UNL     1     -11.011   6.335  68.350  1.00  0.00    -0.273 SA 
HETATM    3  C   UNL     1      -9.930   6.429  66.911  1.00  0.00    -0.167 C  
HETATM    4  C   UNL     1      -8.590   7.117  67.145  1.00  0.00    -0.121 C  
HETATM    5  CA  UNL     1      -8.007   7.255  68.375  1.00  0.00    -0.124 C  
HETATM    6  CA  UNL     1      -9.917   6.033  70.962  1.00  0.00    -0.187 C  
HETATM    7  C   UNL     1      -6.667   7.955  68.517  1.00  0.00    -0.062 C  
HETATM    8  O   UNL     1      -7.858   7.528  71.515  1.00  0.00    -0.084 OA 
HETATM    9  N   UNL     1      -8.635   6.740  69.478  1.00  0.00    -0.132 N  
HETATM   10  OXT UNL     1      -5.856   8.046  67.605  1.00  0.00    -0.039 OA 
HETATM   11  C   UNL     1      -8.593   6.864  70.823  1.00  0.00    -0.144 C  
HETATM   12  O   UNL     1      -6.369   8.482  69.719  1.00  0.00    -0.035 OA 
ENDROOT
BRANCH   4  13
HETATM   13  C   UNL     1      -8.055   7.711  65.908  1.00  0.00    -0.122 C  
HETATM   14  C   UNL     1      -8.560   8.782  65.273  1.00  0.00    -0.212 C  
HETATM   15  C   UNL     1      -7.953   9.391  64.050  1.00  0.00    -0.142 C  
ENDBRANCH   4  13
BRANCH   6  16
HETATM   16  N   UNL     1     -11.122   6.829  71.284  1.00  0.00    -0.252 N  
HETATM   17  H   UNL     1     -11.806   6.973  70.540  1.00  0.00     0.000 HD 
HETATM   18  C   UNL     1     -11.389   7.390  72.510  1.00  0.00    -0.313 C  
HETATM   19  O   UNL     1     -10.682   7.216  73.497  1.00  0.00    -0.368 OA 
BRANCH  18  20
HETATM   20  CA  UNL     1     -12.670   8.262  72.504  1.00  0.00    -0.177 C  
HETATM   21  H2  UNL     1     -13.940   6.599  72.330  1.00  0.00     0.000 HD 
HETATM   22  N   UNL     1     -13.789   7.502  71.879  1.00  0.00    -0.520 NA 
HETATM   23  H1  UNL     1     -14.633   8.075  71.875  1.00  0.00     0.000 HD 
BRANCH  20  24
HETATM   24  C   UNL     1     -12.437   9.593  71.813  1.00  0.00    -0.487 A  
HETATM   25  C   UNL     1     -13.211  10.705  72.181  1.00  0.00    -0.379 A  
HETATM   26  C   UNL     1     -13.048  11.937  71.542  1.00  0.00    -0.377 A  
HETATM   27  C   UNL     1     -12.099  12.065  70.534  1.00  0.00    -0.311 A  
HETATM   28  C   UNL     1     -11.293  10.993  70.178  1.00  0.00    -0.335 A  
HETATM   29  O   UNL     1     -11.930  13.238  69.861  1.00  0.00    -0.318 OA 
HETATM   30  H   UNL     1     -11.281  13.325  69.173  1.00  0.00     0.000 HD 
HETATM   31  C   UNL     1     -11.455   9.763  70.819  1.00  0.00    -0.417 A  
ENDBRANCH  20  24
ENDBRANCH  18  20
ENDBRANCH   6  16
TORSDOF 4
ENDMDL
MODEL       96
REMARK 921   NORMALIZED FREE ENERGY PREDICTED BY IDOCK:   -4.89 KCAL/MOL
REMARK 922        TOTAL FREE ENERGY PREDICTED BY IDOCK:   -6.84 KCAL/MOL
REMARK 923 INTER-LIGAND FREE ENERGY PREDICTED BY IDOCK:   -6.99 KCAL/MOL
REMARK 924 INTRA-LIGAND FREE ENERGY PREDICTED BY IDOCK:    0.15 KCAL/MOL
REMARK 927      BINDING AFFINITY PREDICTED BY RF-SCORE:    0.00 PKD
ROOT
HETATM    1  C   UNL     1      -8.804  14.746  66.856  1.00  0.00    -0.248 C  
HETATM    2  S   UNL     1      -8.840  15.441  68.526  1.00  0.00    -0.194 SA 
HETATM    3  C   UNL     1      -9.240  13.861  69.294  1.00  0.00     0.509 C  
HETATM    4  C   UNL     1     -10.364  13.076  68.627  1.00  0.00    -0.203 C  
HETATM    5  CA  UNL     1     -10.754  13.256  67.328  1.00  0.00    -0.255 C  
HETATM    6  CA  UNL     1      -9.061  15.772  65.706  1.00  0.00    -0.152 C  
HETATM    7  C   UNL     1     -11.884  12.428  66.743  1.00  0.00    -0.315 C  
HETATM    8  O   UNL     1     -11.206  14.786  64.607  1.00  0.00    -0.377 OA 
HETATM    9  N   UNL     1     -10.103  14.178  66.552  1.00  0.00    -0.273 N  
HETATM   10  OXT UNL     1     -12.211  11.333  67.180  1.00  0.00     0.008 OA 
HETATM   11  C   UNL     1     -10.296  14.854  65.399  1.00  0.00    -0.388 C  
HETATM   12  O   UNL     1     -12.537  12.936  65.682  1.00  0.00    -0.555 OA 
ENDROOT
BRANCH   4  13
HETATM   13  C   UNL     1     -11.050  12.184  69.578  1.00  0.00    -0.117 C  
HETATM   14  C   UNL     1     -12.031  12.547  70.421  1.00  0.00    -0.335 C  
HETATM   15  C   UNL     1     -12.743  11.599  71.332  1.00  0.00    -0.445 C  
ENDBRANCH   4  13
BRANCH   6  16
HETATM   16  N   UNL     1      -9.399  17.143  66.148  1.00  0.00    -0.230 N  
HETATM   17  H   UNL     1      -8.846  17.545  66.906  1.00  0.00     0.000 HD 
HETATM   18  C   UNL     1     -10.402  17.917  65.613  1.00  0.00    -0.059 C  
HETATM   19  O   UNL     1     -11.075  17.572  64.647  1.00  0.00    -0.978 OA 
BRANCH  18  20
HETATM   20  CA  UNL     1     -10.587  19.260  66.363  1.00  0.00    -0.450 C  
HETATM   21  H2  UNL     1     -11.948  19.998  64.944  1.00  0.00     0.000 HD 
HETATM   22  N   UNL     1     -11.095  20.295  65.418  1.00  0.00     0.069 NA 
HETATM   23  H1  UNL     1     -11.218  21.179  65.911  1.00  0.00     0.000 HD 
BRANCH  20  24
HETATM   24  C   UNL     1      -9.305  19.701  67.046  1.00  0.00    -0.439 A  
HETATM   25  C   UNL     1      -9.104  19.389  68.400  1.00  0.00    -0.410 A  
HETATM   26  C   UNL     1      -7.952  19.809  69.070  1.00  0.00    -0.159 A  
HETATM   27  C   UNL     1      -6.986  20.536  68.382  1.00  0.00    -0.135 A  
HETATM   28  C   UNL     1      -7.142  20.823  67.033  1.00  0.00    -0.383 A  
HETATM   29  O   UNL     1      -5.864  20.994  69.005  1.00  0.00    -0.343 OA 
HETATM   30  H   UNL     1      -5.205  21.490  68.535  1.00  0.00     0.000 HD 
HETATM   31  C   UNL     1      -8.293  20.401  66.364  1.00  0.00    -0.136 A  
ENDBRANCH  20  24
ENDBRANCH  18  20
ENDBRANCH   6  16
TORSDOF 4
ENDMDL
MODEL       97
REMARK 921   NORMALIZED FREE ENERGY PREDICTED BY IDOCK:   -4.87 KCAL/MOL
REMARK 922        TOTAL FREE ENERGY PREDICTED BY IDOCK:   -6.82 KCAL/MOL
REMARK 923 INTER-LIGAND FREE ENERGY PREDICTED BY IDOCK:   -5.88 KCAL/MOL
REMARK 924 INTRA-LIGAND FREE ENERGY PREDICTED BY IDOCK:   -0.94 KCAL/MOL
REMARK 927      BINDING AFFINITY PREDICTED BY RF-SCORE:    0.00 PKD
ROOT
HETATM    1  C   UNL     1      -8.387   8.240  67.084  1.00  0.00    -0.123 C  
HETATM    2  S   UNL     1     -10.172   7.971  66.968  1.00  0.00    -0.323 SA 
HETATM    3  C   UNL     1     -10.481   9.596  66.254  1.00  0.00    -0.079 C  
HETATM    4  C   UNL     1      -9.794  10.761  66.958  1.00  0.00    -0.221 C  
HETATM    5  CA  UNL     1      -8.689  10.628  67.753  1.00  0.00    -0.129 C  
HETATM    6  CA  UNL     1      -7.655   7.373  68.160  1.00  0.00    -0.114 C  
HETATM    7  C   UNL     1      -8.068  11.844  68.417  1.00  0.00    -0.155 C  
HETATM    8  O   UNL     1      -6.664   9.212  69.714  1.00  0.00    -0.047 OA 
HETATM    9  N   UNL     1      -8.135   9.388  67.932  1.00  0.00    -0.103 N  
HETATM   10  OXT UNL     1      -8.200  12.984  67.990  1.00  0.00    -0.140 OA 
HETATM   11  C   UNL     1      -7.285   8.767  68.778  1.00  0.00    -0.075 C  
HETATM   12  O   UNL     1      -7.327  11.636  69.520  1.00  0.00     0.017 OA 
ENDROOT
BRANCH   4  13
HETATM   13  C   UNL     1     -10.528  12.025  66.771  1.00  0.00    -0.243 C  
HETATM   14  C   UNL     1     -11.604  12.195  65.984  1.00  0.00    -0.420 C  
HETATM   15  C   UNL     1     -12.356  13.482  65.866  1.00  0.00    -0.507 C  
ENDBRANCH   4  13
BRANCH   6  16
HETATM   16  N   UNL     1      -8.538   6.534  69.000  1.00  0.00    -0.125 N  
HETATM   17  H   UNL     1      -9.512   6.437  68.712  1.00  0.00     0.000 HD 
HETATM   18  C   UNL     1      -8.143   5.874  70.140  1.00  0.00    -0.110 C  
HETATM   19  O   UNL     1      -6.982   5.850  70.535  1.00  0.00    -0.055 OA 
BRANCH  18  20
HETATM   20  CA  UNL     1      -9.320   5.172  70.864  1.00  0.00    -0.150 C  
HETATM   21  H2  UNL     1      -9.202   3.465  69.647  1.00  0.00     0.000 HD 
HETATM   22  N   UNL     1      -9.905   4.129  69.974  1.00  0.00    -0.216 NA 
HETATM   23  H1  UNL     1     -10.679   3.667  70.450  1.00  0.00     0.000 HD 
BRANCH  20  24
HETATM   24  C   UNL     1     -10.366   6.170  71.326  1.00  0.00    -0.264 A  
HETATM   25  C   UNL     1     -10.096   6.986  72.436  1.00  0.00    -0.193 A  
HETATM   26  C   UNL     1     -11.049   7.892  72.911  1.00  0.00    -0.442 A  
HETATM   27  C   UNL     1     -12.278   7.992  72.268  1.00  0.00    -0.318 A  
HETATM   28  C   UNL     1     -12.556   7.225  71.145  1.00  0.00    -0.362 A  
HETATM   29  O   UNL     1     -13.248   8.836  72.717  1.00  0.00    -0.634 OA 
HETATM   30  H   UNL     1     -14.088   8.905  72.278  1.00  0.00     0.000 HD 
HETATM   31  C   UNL     1     -11.601   6.323  70.670  1.00  0.00    -0.350 A  
ENDBRANCH  20  24
ENDBRANCH  18  20
ENDBRANCH   6  16
TORSDOF 4
ENDMDL
MODEL       98
REMARK 921   NORMALIZED FREE ENERGY PREDICTED BY IDOCK:   -4.85 KCAL/MOL
REMARK 922        TOTAL FREE ENERGY PREDICTED BY IDOCK:   -6.79 KCAL/MOL
REMARK 923 INTER-LIGAND FREE ENERGY PREDICTED BY IDOCK:   -6.15 KCAL/MOL
REMARK 924 INTRA-LIGAND FREE ENERGY PREDICTED BY IDOCK:   -0.64 KCAL/MOL
REMARK 927      BINDING AFFINITY PREDICTED BY RF-SCORE:    0.00 PKD
ROOT
HETATM    1  C   UNL     1      -9.667   7.331  68.766  1.00  0.00    -0.151 C  
HETATM    2  S   UNL     1     -10.669   7.781  67.329  1.00  0.00    -0.171 SA 
HETATM    3  C   UNL     1     -10.682   6.103  66.673  1.00  0.00    -0.231 C  
HETATM    4  C   UNL     1      -9.327   5.405  66.637  1.00  0.00    -0.143 C  
HETATM    5  CA  UNL     1      -8.263   5.763  67.419  1.00  0.00    -0.102 C  
HETATM    6  CA  UNL     1      -8.860   8.507  69.405  1.00  0.00    -0.141 C  
HETATM    7  C   UNL     1      -6.947   5.012  67.318  1.00  0.00    -0.065 C  
HETATM    8  O   UNL     1      -6.413   7.659  69.133  1.00  0.00    -0.038 OA 
HETATM    9  N   UNL     1      -8.400   6.795  68.309  1.00  0.00    -0.118 N  
HETATM   10  OXT UNL     1      -6.859   3.861  66.911  1.00  0.00    -0.049 OA 
HETATM   11  C   UNL     1      -7.617   7.625  69.032  1.00  0.00    -0.104 C  
HETATM   12  O   UNL     1      -5.835   5.656  67.716  1.00  0.00    -0.012 OA 
ENDROOT
BRANCH   4  13
HETATM   13  C   UNL     1      -9.266   4.379  65.582  1.00  0.00    -0.148 C  
HETATM   14  C   UNL     1     -10.254   4.084  64.720  1.00  0.00    -0.223 C  
HETATM   15  C   UNL     1     -10.132   3.073  63.625  1.00  0.00    -0.170 C  
ENDBRANCH   4  13
BRANCH   6  16
HETATM   16  N   UNL     1      -8.948   9.797  68.685  1.00  0.00    -0.127 N  
HETATM   17  H   UNL     1      -8.259   9.977  67.954  1.00  0.00     0.000 HD 
HETATM   18  C   UNL     1      -9.887  10.770  68.927  1.00  0.00    -0.199 C  
HETATM   19  O   UNL     1     -10.810  10.630  69.723  1.00  0.00    -0.259 OA 
BRANCH  18  20
HETATM   20  CA  UNL     1      -9.650  12.054  68.093  1.00  0.00    -0.200 C  
HETATM   21  H2  UNL     1      -9.778  13.308  69.773  1.00  0.00     0.000 HD 
HETATM   22  N   UNL     1     -10.174  13.236  68.835  1.00  0.00    -0.429 NA 
HETATM   23  H1  UNL     1     -10.017  14.082  68.287  1.00  0.00     0.000 HD 
BRANCH  20  24
HETATM   24  C   UNL     1     -10.260  11.942  66.709  1.00  0.00    -0.232 A  
HETATM   25  C   UNL     1     -11.478  12.588  66.439  1.00  0.00    -0.418 A  
HETATM   26  C   UNL     1     -12.087  12.478  65.186  1.00  0.00    -0.503 A  
HETATM   27  C   UNL     1     -11.473  11.727  64.190  1.00  0.00    -0.327 A  
HETATM   28  C   UNL     1     -10.251  11.111  64.418  1.00  0.00    -0.390 A  
HETATM   29  O   UNL     1     -12.049  11.564  62.966  1.00  0.00    -0.939 OA 
HETATM   30  H   UNL     1     -11.629  11.052  62.285  1.00  0.00     0.000 HD 
HETATM   31  C   UNL     1      -9.641  11.224  65.669  1.00  0.00    -0.260 A  
ENDBRANCH  20  24
ENDBRANCH  18  20
ENDBRANCH   6  16
TORSDOF 4
ENDMDL
MODEL       99
REMARK 921   NORMALIZED FREE ENERGY PREDICTED BY IDOCK:   -4.82 KCAL/MOL
REMARK 922        TOTAL FREE ENERGY PREDICTED BY IDOCK:   -6.76 KCAL/MOL
REMARK 923 INTER-LIGAND FREE ENERGY PREDICTED BY IDOCK:   -6.07 KCAL/MOL
REMARK 924 INTRA-LIGAND FREE ENERGY PREDICTED BY IDOCK:   -0.69 KCAL/MOL
REMARK 927      BINDING AFFINITY PREDICTED BY RF-SCORE:    0.00 PKD
ROOT
HETATM    1  C   UNL     1     -11.110   6.775  70.695  1.00  0.00    -0.291 C  
HETATM    2  S   UNL     1     -10.764   6.046  69.076  1.00  0.00    -0.339 SA 
HETATM    3  C   UNL     1      -9.963   4.593  69.779  1.00  0.00    -0.225 C  
HETATM    4  C   UNL     1      -8.937   4.876  70.871  1.00  0.00    -0.167 C  
HETATM    5  CA  UNL     1      -8.910   6.026  71.613  1.00  0.00    -0.139 C  
HETATM    6  CA  UNL     1     -11.296   8.327  70.696  1.00  0.00    -0.244 C  
HETATM    7  C   UNL     1      -7.852   6.226  72.683  1.00  0.00    -0.105 C  
HETATM    8  O   UNL     1      -9.370   9.074  72.281  1.00  0.00    -0.333 OA 
HETATM    9  N   UNL     1      -9.859   6.990  71.394  1.00  0.00    -0.177 N  
HETATM   10  OXT UNL     1      -7.272   5.301  73.237  1.00  0.00    -0.086 OA 
HETATM   11  C   UNL     1     -10.057   8.300  71.658  1.00  0.00    -0.215 C  
HETATM   12  O   UNL     1      -7.562   7.491  73.038  1.00  0.00    -0.084 OA 
ENDROOT
BRANCH   4  13
HETATM   13  C   UNL     1      -7.916   3.818  70.953  1.00  0.00    -0.065 C  
HETATM   14  C   UNL     1      -6.912   3.632  70.080  1.00  0.00    -0.038 C  
HETATM   15  C   UNL     1      -5.860   2.580  70.230  1.00  0.00    -0.018 C  
ENDBRANCH   4  13
BRANCH   6  16
HETATM   16  N   UNL     1     -11.062   8.991  69.395  1.00  0.00    -0.434 N  
HETATM   17  H   UNL     1     -10.486   8.499  68.711  1.00  0.00     0.000 HD 
HETATM   18  C   UNL     1     -11.561  10.221  69.039  1.00  0.00    -0.081 C  
HETATM   19  O   UNL     1     -12.330  10.865  69.746  1.00  0.00    -0.330 OA 
BRANCH  18  20
HETATM   20  CA  UNL     1     -11.047  10.701  67.658  1.00  0.00    -0.319 C  
HETATM   21  H2  UNL     1      -9.794   9.032  67.417  1.00  0.00     0.000 HD 
HETATM   22  N   UNL     1      -9.740  10.050  67.359  1.00  0.00    -0.157 NA 
HETATM   23  H1  UNL     1      -9.401  10.364  66.450  1.00  0.00     0.000 HD 
BRANCH  20  24
HETATM   24  C   UNL     1     -10.951  12.214  67.592  1.00  0.00    -0.289 A  
HETATM   25  C   UNL     1      -9.905  12.867  68.265  1.00  0.00    -0.228 A  
HETATM   26  C   UNL     1      -9.805  14.261  68.255  1.00  0.00    -0.235 A  
HETATM   27  C   UNL     1     -10.749  15.011  67.561  1.00  0.00    -0.284 A  
HETATM   28  C   UNL     1     -11.769  14.388  66.855  1.00  0.00    -0.422 A  
HETATM   29  O   UNL     1     -10.709  16.372  67.554  1.00  0.00    -0.325 OA 
HETATM   30  H   UNL     1     -11.354  16.884  67.079  1.00  0.00     0.000 HD 
HETATM   31  C   UNL     1     -11.866  12.995  66.863  1.00  0.00    -0.442 A  
ENDBRANCH  20  24
ENDBRANCH  18  20
ENDBRANCH   6  16
TORSDOF 4
ENDMDL
MODEL      100
REMARK 921   NORMALIZED FREE ENERGY PREDICTED BY IDOCK:   -4.82 KCAL/MOL
REMARK 922        TOTAL FREE ENERGY PREDICTED BY IDOCK:   -6.76 KCAL/MOL
REMARK 923 INTER-LIGAND FREE ENERGY PREDICTED BY IDOCK:   -7.37 KCAL/MOL
REMARK 924 INTRA-LIGAND FREE ENERGY PREDICTED BY IDOCK:    0.62 KCAL/MOL
REMARK 927      BINDING AFFINITY PREDICTED BY RF-SCORE:    0.00 PKD
ROOT
HETATM    1  C   UNL     1     -10.746   5.538  71.157  1.00  0.00    -0.210 C  
HETATM    2  S   UNL     1     -11.277   6.390  69.652  1.00  0.00    -0.413 SA 
HETATM    3  C   UNL     1      -9.721   6.083  68.797  1.00  0.00    -0.131 C  
HETATM    4  C   UNL     1      -8.462   6.388  69.602  1.00  0.00    -0.130 C  
HETATM    5  CA  UNL     1      -8.424   6.443  70.968  1.00  0.00    -0.127 C  
HETATM    6  CA  UNL     1     -11.487   5.975  72.462  1.00  0.00    -0.290 C  
HETATM    7  C   UNL     1      -7.125   6.752  71.690  1.00  0.00    -0.076 C  
HETATM    8  O   UNL     1      -9.510   6.876  73.898  1.00  0.00    -0.182 OA 
HETATM    9  N   UNL     1      -9.567   6.198  71.683  1.00  0.00    -0.152 N  
HETATM   10  OXT UNL     1      -6.020   6.553  71.201  1.00  0.00    -0.027 OA 
HETATM   11  C   UNL     1     -10.049   6.396  72.929  1.00  0.00    -0.183 C  
HETATM   12  O   UNL     1      -7.213   7.256  72.934  1.00  0.00    -0.071 OA 
ENDROOT
BRANCH   4  13
HETATM   13  C   UNL     1      -7.323   6.726  68.731  1.00  0.00    -0.094 C  
HETATM   14  C   UNL     1      -7.374   7.522  67.650  1.00  0.00    -0.103 C  
HETATM   15  C   UNL     1      -6.182   7.887  66.825  1.00  0.00    -0.053 C  
ENDBRANCH   4  13
BRANCH   6  16
HETATM   16  N   UNL     1     -12.442   7.093  72.300  1.00  0.00    -0.517 N  
HETATM   17  H   UNL     1     -13.433   6.861  72.228  1.00  0.00     0.000 HD 
HETATM   18  C   UNL     1     -12.094   8.422  72.240  1.00  0.00    -0.392 C  
HETATM   19  O   UNL     1     -10.946   8.824  72.398  1.00  0.00    -0.321 OA 
BRANCH  18  20
HETATM   20  CA  UNL     1     -13.304   9.346  71.951  1.00  0.00    -0.434 C  
HETATM   21  H2  UNL     1     -14.560   7.738  71.451  1.00  0.00     0.000 HD 
HETATM   22  N   UNL     1     -14.273   8.638  71.066  1.00  0.00    -0.608 NA 
HETATM   23  H1  UNL     1     -15.070   9.246  70.875  1.00  0.00     0.000 HD 
BRANCH  20  24
HETATM   24  C   UNL     1     -12.865  10.673  71.359  1.00  0.00    -0.556 A  
HETATM   25  C   UNL     1     -13.161  11.863  72.042  1.00  0.00    -0.461 A  
HETATM   26  C   UNL     1     -12.803  13.105  71.510  1.00  0.00    -0.401 A  
HETATM   27  C   UNL     1     -12.135  13.161  70.291  1.00  0.00    -0.328 A  
HETATM   28  C   UNL     1     -11.796  11.997  69.614  1.00  0.00    -0.401 A  
HETATM   29  O   UNL     1     -11.798  14.350  69.719  1.00  0.00    -0.281 OA 
HETATM   30  H   UNL     1     -11.341  14.388  68.887  1.00  0.00     0.000 HD 
HETATM   31  C   UNL     1     -12.151  10.757  70.149  1.00  0.00    -0.427 A  
ENDBRANCH  20  24
ENDBRANCH  18  20
ENDBRANCH   6  16
TORSDOF 4
ENDMDL
MODEL      101
REMARK 921   NORMALIZED FREE ENERGY PREDICTED BY IDOCK:   -4.80 KCAL/MOL
REMARK 922        TOTAL FREE ENERGY PREDICTED BY IDOCK:   -6.74 KCAL/MOL
REMARK 923 INTER-LIGAND FREE ENERGY PREDICTED BY IDOCK:   -6.28 KCAL/MOL
REMARK 924 INTRA-LIGAND FREE ENERGY PREDICTED BY IDOCK:   -0.46 KCAL/MOL
REMARK 927      BINDING AFFINITY PREDICTED BY RF-SCORE:    0.00 PKD
ROOT
HETATM    1  C   UNL     1      -7.855   9.906  67.820  1.00  0.00    -0.094 C  
HETATM    2  S   UNL     1      -7.376   9.646  69.544  1.00  0.00    -0.096 SA 
HETATM    3  C   UNL     1      -6.154   8.388  69.130  1.00  0.00    -0.042 C  
HETATM    4  C   UNL     1      -6.628   7.311  68.160  1.00  0.00    -0.050 C  
HETATM    5  CA  UNL     1      -7.680   7.468  67.300  1.00  0.00    -0.116 C  
HETATM    6  CA  UNL     1      -9.290  10.491  67.613  1.00  0.00    -0.149 C  
HETATM    7  C   UNL     1      -8.085   6.341  66.366  1.00  0.00    -0.112 C  
HETATM    8  O   UNL     1     -10.421   8.600  66.225  1.00  0.00    -0.122 OA 
HETATM    9  N   UNL     1      -8.356   8.659  67.275  1.00  0.00    -0.108 N  
HETATM   10  OXT UNL     1      -7.318   5.457  66.008  1.00  0.00    -0.075 OA 
HETATM   11  C   UNL     1      -9.536   9.150  66.837  1.00  0.00    -0.171 C  
HETATM   12  O   UNL     1      -9.350   6.341  65.909  1.00  0.00    -0.100 OA 
ENDROOT
BRANCH   4  13
HETATM   13  C   UNL     1      -5.892   6.047  68.341  1.00  0.00    -0.012 C  
HETATM   14  C   UNL     1      -5.859   5.316  69.468  1.00  0.00    -0.016 C  
HETATM   15  C   UNL     1      -5.146   4.008  69.593  1.00  0.00     0.000 C  
ENDBRANCH   4  13
BRANCH   6  16
HETATM   16  N   UNL     1     -10.089  10.653  68.847  1.00  0.00    -0.193 N  
HETATM   17  H   UNL     1      -9.618  10.496  69.738  1.00  0.00     0.000 HD 
HETATM   18  C   UNL     1     -11.419  10.999  68.882  1.00  0.00    -0.296 C  
HETATM   19  O   UNL     1     -12.065  11.291  67.881  1.00  0.00    -0.634 OA 
BRANCH  18  20
HETATM   20  CA  UNL     1     -12.007  10.976  70.316  1.00  0.00    -0.365 C  
HETATM   21  H2  UNL     1     -12.793   9.042  70.086  1.00  0.00     0.000 HD 
HETATM   22  N   UNL     1     -13.101   9.966  70.391  1.00  0.00    -0.576 NA 
HETATM   23  H1  UNL     1     -13.487   9.949  71.335  1.00  0.00     0.000 HD 
BRANCH  20  24
HETATM   24  C   UNL     1     -12.480  12.351  70.749  1.00  0.00    -0.356 A  
HETATM   25  C   UNL     1     -13.229  12.482  71.929  1.00  0.00    -0.495 A  
HETATM   26  C   UNL     1     -13.710  13.728  72.340  1.00  0.00    -0.692 A  
HETATM   27  C   UNL     1     -13.434  14.855  71.574  1.00  0.00    -0.410 A  
HETATM   28  C   UNL     1     -12.663  14.760  70.424  1.00  0.00    -0.368 A  
HETATM   29  O   UNL     1     -13.913  16.083  71.919  1.00  0.00    -0.248 OA 
HETATM   30  H   UNL     1     -13.724  16.853  71.396  1.00  0.00     0.000 HD 
HETATM   31  C   UNL     1     -12.180  13.515  70.016  1.00  0.00    -0.381 A  
ENDBRANCH  20  24
ENDBRANCH  18  20
ENDBRANCH   6  16
TORSDOF 4
ENDMDL
MODEL      102
REMARK 921   NORMALIZED FREE ENERGY PREDICTED BY IDOCK:   -4.78 KCAL/MOL
REMARK 922        TOTAL FREE ENERGY PREDICTED BY IDOCK:   -6.71 KCAL/MOL
REMARK 923 INTER-LIGAND FREE ENERGY PREDICTED BY IDOCK:   -6.41 KCAL/MOL
REMARK 924 INTRA-LIGAND FREE ENERGY PREDICTED BY IDOCK:   -0.30 KCAL/MOL
REMARK 927      BINDING AFFINITY PREDICTED BY RF-SCORE:    0.00 PKD
ROOT
HETATM    1  C   UNL     1      -8.663  13.999  66.471  1.00  0.00     0.079 C  
HETATM    2  S   UNL     1      -8.927  13.310  68.122  1.00  0.00    -0.187 SA 
HETATM    3  C   UNL     1      -9.023  11.615  67.519  1.00  0.00    -0.165 C  
HETATM    4  C   UNL     1      -9.922  11.402  66.306  1.00  0.00    -0.259 C  
HETATM    5  CA  UNL     1     -10.277  12.397  65.436  1.00  0.00    -0.278 C  
HETATM    6  CA  UNL     1      -9.073  15.499  66.306  1.00  0.00    -0.334 C  
HETATM    7  C   UNL     1     -11.177  12.096  64.251  1.00  0.00    -0.347 C  
HETATM    8  O   UNL     1     -10.906  15.331  64.463  1.00  0.00    -0.315 OA 
HETATM    9  N   UNL     1      -9.797  13.664  65.632  1.00  0.00    -0.223 N  
HETATM   10  OXT UNL     1     -11.288  10.983  63.755  1.00  0.00    -0.053 OA 
HETATM   11  C   UNL     1     -10.070  14.927  65.237  1.00  0.00    -0.345 C  
HETATM   12  O   UNL     1     -11.869  13.123  63.724  1.00  0.00    -0.444 OA 
ENDROOT
BRANCH   4  13
HETATM   13  C   UNL     1     -10.451  10.029  66.249  1.00  0.00    -0.172 C  
HETATM   14  C   UNL     1      -9.960   8.973  66.919  1.00  0.00    -0.313 C  
HETATM   15  C   UNL     1     -10.562   7.605  66.879  1.00  0.00    -0.359 C  
ENDBRANCH   4  13
BRANCH   6  16
HETATM   16  N   UNL     1      -9.713  16.111  67.491  1.00  0.00    -0.231 N  
HETATM   17  H   UNL     1      -9.601  15.636  68.387  1.00  0.00     0.000 HD 
HETATM   18  C   UNL     1     -10.448  17.274  67.475  1.00  0.00    -0.356 C  
HETATM   19  O   UNL     1     -10.579  17.972  66.475  1.00  0.00    -0.337 OA 
BRANCH  18  20
HETATM   20  CA  UNL     1     -11.087  17.597  68.849  1.00  0.00     0.581 C  
HETATM   21  H2  UNL     1      -9.828  19.247  69.175  1.00  0.00     0.000 HD 
HETATM   22  N   UNL     1     -10.136  18.406  69.665  1.00  0.00    -0.062 NA 
HETATM   23  H1  UNL     1     -10.556  18.619  70.569  1.00  0.00     0.000 HD 
BRANCH  20  24
HETATM   24  C   UNL     1     -11.521  16.337  69.574  1.00  0.00    -0.231 A  
HETATM   25  C   UNL     1     -11.960  15.231  68.829  1.00  0.00    -0.279 A  
HETATM   26  C   UNL     1     -12.400  14.066  69.464  1.00  0.00    -0.275 A  
HETATM   27  C   UNL     1     -12.393  13.999  70.853  1.00  0.00    -0.372 A  
HETATM   28  C   UNL     1     -11.927  15.063  71.612  1.00  0.00    -0.429 A  
HETATM   29  O   UNL     1     -12.846  12.897  71.514  1.00  0.00    -0.358 OA 
HETATM   30  H   UNL     1     -12.840  12.851  72.462  1.00  0.00     0.000 HD 
HETATM   31  C   UNL     1     -11.485  16.225  70.977  1.00  0.00    -0.343 A  
ENDBRANCH  20  24
ENDBRANCH  18  20
ENDBRANCH   6  16
TORSDOF 4
ENDMDL
MODEL      103
REMARK 921   NORMALIZED FREE ENERGY PREDICTED BY IDOCK:   -4.75 KCAL/MOL
REMARK 922        TOTAL FREE ENERGY PREDICTED BY IDOCK:   -6.67 KCAL/MOL
REMARK 923 INTER-LIGAND FREE ENERGY PREDICTED BY IDOCK:   -5.87 KCAL/MOL
REMARK 924 INTRA-LIGAND FREE ENERGY PREDICTED BY IDOCK:   -0.80 KCAL/MOL
REMARK 927      BINDING AFFINITY PREDICTED BY RF-SCORE:    0.00 PKD
ROOT
HETATM    1  C   UNL     1     -10.292   8.884  68.039  1.00  0.00    -0.219 C  
HETATM    2  S   UNL     1      -8.486   8.969  67.981  1.00  0.00    -0.125 SA 
HETATM    3  C   UNL     1      -8.275   7.590  69.122  1.00  0.00    -0.131 C  
HETATM    4  C   UNL     1      -9.134   7.644  70.380  1.00  0.00    -0.152 C  
HETATM    5  CA  UNL     1     -10.289   8.371  70.484  1.00  0.00    -0.199 C  
HETATM    6  CA  UNL     1     -11.029  10.214  67.676  1.00  0.00    -0.268 C  
HETATM    7  C   UNL     1     -11.085   8.368  71.777  1.00  0.00    -0.290 C  
HETATM    8  O   UNL     1     -12.335  10.694  69.877  1.00  0.00    -0.309 OA 
HETATM    9  N   UNL     1     -10.732   9.089  69.405  1.00  0.00    -0.219 N  
HETATM   10  OXT UNL     1     -11.028   7.464  72.600  1.00  0.00    -0.266 OA 
HETATM   11  C   UNL     1     -11.590  10.096  69.137  1.00  0.00    -0.030 C  
HETATM   12  O   UNL     1     -11.900   9.414  72.004  1.00  0.00    -0.355 OA 
ENDROOT
BRANCH   4  13
HETATM   13  C   UNL     1      -8.515   6.915  71.500  1.00  0.00    -0.114 C  
HETATM   14  C   UNL     1      -7.776   5.799  71.392  1.00  0.00    -0.107 C  
HETATM   15  C   UNL     1      -7.115   5.120  72.549  1.00  0.00    -0.086 C  
ENDBRANCH   4  13
BRANCH   6  16
HETATM   16  N   UNL     1     -10.148  11.379  67.438  1.00  0.00    -0.182 N  
HETATM   17  H   UNL     1      -9.484  11.626  68.173  1.00  0.00     0.000 HD 
HETATM   18  C   UNL     1     -10.158  12.154  66.303  1.00  0.00    -0.224 C  
HETATM   19  O   UNL     1     -10.854  11.903  65.325  1.00  0.00    -0.282 OA 
BRANCH  18  20
HETATM   20  CA  UNL     1      -9.203  13.370  66.398  1.00  0.00    -0.116 C  
HETATM   21  H2  UNL     1      -7.504  12.216  65.957  1.00  0.00     0.000 HD 
HETATM   22  N   UNL     1      -7.813  12.894  66.654  1.00  0.00    -0.299 NA 
HETATM   23  H1  UNL     1      -7.184  13.695  66.717  1.00  0.00     0.000 HD 
BRANCH  20  24
HETATM   24  C   UNL     1      -9.663  14.360  67.452  1.00  0.00    -0.220 A  
HETATM   25  C   UNL     1     -10.888  15.025  67.284  1.00  0.00    -0.310 A  
HETATM   26  C   UNL     1     -11.327  15.969  68.217  1.00  0.00    -0.326 A  
HETATM   27  C   UNL     1     -10.544  16.246  69.332  1.00  0.00    -0.301 A  
HETATM   28  C   UNL     1      -9.347  15.575  69.542  1.00  0.00    -0.276 A  
HETATM   29  O   UNL     1     -10.916  17.183  70.247  1.00  0.00    -0.281 OA 
HETATM   30  H   UNL     1     -10.381  17.372  71.009  1.00  0.00     0.000 HD 
HETATM   31  C   UNL     1      -8.911  14.629  68.611  1.00  0.00    -0.184 A  
ENDBRANCH  20  24
ENDBRANCH  18  20
ENDBRANCH   6  16
TORSDOF 4
ENDMDL
MODEL      104
REMARK 921   NORMALIZED FREE ENERGY PREDICTED BY IDOCK:   -4.74 KCAL/MOL
REMARK 922        TOTAL FREE ENERGY PREDICTED BY IDOCK:   -6.67 KCAL/MOL
REMARK 923 INTER-LIGAND FREE ENERGY PREDICTED BY IDOCK:   -5.92 KCAL/MOL
REMARK 924 INTRA-LIGAND FREE ENERGY PREDICTED BY IDOCK:   -0.75 KCAL/MOL
REMARK 927      BINDING AFFINITY PREDICTED BY RF-SCORE:    0.00 PKD
ROOT
HETATM    1  C   UNL     1      -7.629   7.246  67.756  1.00  0.00    -0.110 C  
HETATM    2  S   UNL     1      -6.754   8.425  68.812  1.00  0.00    -0.059 SA 
HETATM    3  C   UNL     1      -6.882   7.379  70.274  1.00  0.00    -0.052 C  
HETATM    4  C   UNL     1      -8.264   6.794  70.539  1.00  0.00    -0.117 C  
HETATM    5  CA  UNL     1      -9.229   6.648  69.580  1.00  0.00    -0.143 C  
HETATM    6  CA  UNL     1      -8.315   7.868  66.497  1.00  0.00    -0.127 C  
HETATM    7  C   UNL     1     -10.581   6.054  69.933  1.00  0.00    -0.279 C  
HETATM    8  O   UNL     1     -10.813   7.268  66.923  1.00  0.00    -0.355 OA 
HETATM    9  N   UNL     1      -8.958   7.027  68.292  1.00  0.00    -0.128 N  
HETATM   10  OXT UNL     1     -10.761   5.312  70.889  1.00  0.00    -0.212 OA 
HETATM   11  C   UNL     1      -9.628   7.314  67.154  1.00  0.00    -0.160 C  
HETATM   12  O   UNL     1     -11.618   6.358  69.131  1.00  0.00    -0.318 OA 
ENDROOT
BRANCH   4  13
HETATM   13  C   UNL     1      -8.475   6.511  71.970  1.00  0.00    -0.114 C  
HETATM   14  C   UNL     1      -7.779   7.051  72.984  1.00  0.00    -0.097 C  
HETATM   15  C   UNL     1      -8.062   6.781  74.427  1.00  0.00    -0.141 C  
ENDBRANCH   4  13
BRANCH   6  16
HETATM   16  N   UNL     1      -8.240   9.342  66.401  1.00  0.00    -0.110 N  
HETATM   17  H   UNL     1      -7.629   9.828  67.059  1.00  0.00     0.000 HD 
HETATM   18  C   UNL     1      -8.932  10.108  65.493  1.00  0.00    -0.172 C  
HETATM   19  O   UNL     1      -9.630   9.630  64.605  1.00  0.00    -0.247 OA 
BRANCH  18  20
HETATM   20  CA  UNL     1      -8.736  11.628  65.717  1.00  0.00     0.060 C  
HETATM   21  H2  UNL     1      -7.167  11.341  67.084  1.00  0.00     0.000 HD 
HETATM   22  N   UNL     1      -8.046  11.856  67.018  1.00  0.00    -0.167 NA 
HETATM   23  H1  UNL     1      -7.916  12.857  67.166  1.00  0.00     0.000 HD 
BRANCH  20  24
HETATM   24  C   UNL     1     -10.052  12.379  65.638  1.00  0.00    -0.277 A  
HETATM   25  C   UNL     1     -10.809  12.567  66.806  1.00  0.00    -0.281 A  
HETATM   26  C   UNL     1     -12.042  13.223  66.765  1.00  0.00    -0.403 A  
HETATM   27  C   UNL     1     -12.521  13.706  65.552  1.00  0.00    -0.503 A  
HETATM   28  C   UNL     1     -11.776  13.568  64.389  1.00  0.00    -0.443 A  
HETATM   29  O   UNL     1     -13.734  14.320  65.460  1.00  0.00    -0.543 OA 
HETATM   30  H   UNL     1     -14.061  14.650  64.632  1.00  0.00     0.000 HD 
HETATM   31  C   UNL     1     -10.542  12.915  64.432  1.00  0.00    -0.418 A  
ENDBRANCH  20  24
ENDBRANCH  18  20
ENDBRANCH   6  16
TORSDOF 4
ENDMDL
MODEL      105
REMARK 921   NORMALIZED FREE ENERGY PREDICTED BY IDOCK:   -4.65 KCAL/MOL
REMARK 922        TOTAL FREE ENERGY PREDICTED BY IDOCK:   -6.54 KCAL/MOL
REMARK 923 INTER-LIGAND FREE ENERGY PREDICTED BY IDOCK:   -5.76 KCAL/MOL
REMARK 924 INTRA-LIGAND FREE ENERGY PREDICTED BY IDOCK:   -0.79 KCAL/MOL
REMARK 927      BINDING AFFINITY PREDICTED BY RF-SCORE:    0.00 PKD
ROOT
HETATM    1  C   UNL     1     -11.612   6.024  70.816  1.00  0.00    -0.069 C  
HETATM    2  S   UNL     1     -10.774   6.031  69.213  1.00  0.00    -0.356 SA 
HETATM    3  C   UNL     1      -9.857   4.520  69.562  1.00  0.00    -0.207 C  
HETATM    4  C   UNL     1      -9.179   4.467  70.926  1.00  0.00    -0.201 C  
HETATM    5  CA  UNL     1      -9.559   5.229  71.997  1.00  0.00    -0.153 C  
HETATM    6  CA  UNL     1     -12.118   7.420  71.305  1.00  0.00    -0.328 C  
HETATM    7  C   UNL     1      -8.827   5.112  73.322  1.00  0.00    -0.118 C  
HETATM    8  O   UNL     1     -10.788   7.700  73.526  1.00  0.00    -0.340 OA 
HETATM    9  N   UNL     1     -10.618   6.088  71.870  1.00  0.00    -0.218 N  
HETATM   10  OXT UNL     1      -8.200   4.116  73.659  1.00  0.00    -0.088 OA 
HETATM   11  C   UNL     1     -11.141   7.159  72.505  1.00  0.00    -0.280 C  
HETATM   12  O   UNL     1      -8.896   6.162  74.162  1.00  0.00    -0.122 OA 
ENDROOT
BRANCH   4  13
HETATM   13  C   UNL     1      -8.000   3.584  70.919  1.00  0.00    -0.058 C  
HETATM   14  C   UNL     1      -7.533   2.912  69.854  1.00  0.00    -0.044 C  
HETATM   15  C   UNL     1      -6.297   2.070  69.874  1.00  0.00    -0.025 C  
ENDBRANCH   4  13
BRANCH   6  16
HETATM   16  N   UNL     1     -11.751   8.563  70.440  1.00  0.00    -0.476 N  
HETATM   17  H   UNL     1     -11.319   8.353  69.540  1.00  0.00     0.000 HD 
HETATM   18  C   UNL     1     -11.948   9.885  70.758  1.00  0.00    -0.323 C  
HETATM   19  O   UNL     1     -12.531  10.253  71.773  1.00  0.00    -0.397 OA 
BRANCH  18  20
HETATM   20  CA  UNL     1     -11.354  10.851  69.702  1.00  0.00    -0.292 C  
HETATM   21  H2  UNL     1     -13.245  11.400  68.972  1.00  0.00     0.000 HD 
HETATM   22  N   UNL     1     -12.348  11.073  68.613  1.00  0.00    -0.737 NA 
HETATM   23  H1  UNL     1     -11.957  11.710  67.918  1.00  0.00     0.000 HD 
BRANCH  20  24
HETATM   24  C   UNL     1     -10.030  10.343  69.162  1.00  0.00    -0.237 A  
HETATM   25  C   UNL     1      -9.863  10.197  67.776  1.00  0.00    -0.190 A  
HETATM   26  C   UNL     1      -8.670   9.699  67.245  1.00  0.00    -0.136 A  
HETATM   27  C   UNL     1      -7.631   9.352  68.102  1.00  0.00    -0.083 A  
HETATM   28  C   UNL     1      -7.756   9.523  69.473  1.00  0.00    -0.100 A  
HETATM   29  O   UNL     1      -6.464   8.830  67.630  1.00  0.00    -0.059 OA 
HETATM   30  H   UNL     1      -5.755   8.594  68.215  1.00  0.00     0.000 HD 
HETATM   31  C   UNL     1      -8.947  10.024  70.002  1.00  0.00    -0.121 A  
ENDBRANCH  20  24
ENDBRANCH  18  20
ENDBRANCH   6  16
TORSDOF 4
ENDMDL
MODEL      106
REMARK 921   NORMALIZED FREE ENERGY PREDICTED BY IDOCK:   -4.60 KCAL/MOL
REMARK 922        TOTAL FREE ENERGY PREDICTED BY IDOCK:   -6.48 KCAL/MOL
REMARK 923 INTER-LIGAND FREE ENERGY PREDICTED BY IDOCK:   -5.86 KCAL/MOL
REMARK 924 INTRA-LIGAND FREE ENERGY PREDICTED BY IDOCK:   -0.63 KCAL/MOL
REMARK 927      BINDING AFFINITY PREDICTED BY RF-SCORE:    0.00 PKD
ROOT
HETATM    1  C   UNL     1      -7.351   9.324  66.561  1.00  0.00    -0.092 C  
HETATM    2  S   UNL     1      -8.526   8.323  65.618  1.00  0.00    -0.162 SA 
HETATM    3  C   UNL     1      -8.926   9.664  64.483  1.00  0.00    -0.235 C  
HETATM    4  C   UNL     1      -9.220  11.009  65.139  1.00  0.00    -0.227 C  
HETATM    5  CA  UNL     1      -8.795  11.356  66.392  1.00  0.00    -0.192 C  
HETATM    6  CA  UNL     1      -7.106   8.847  68.030  1.00  0.00    -0.079 C  
HETATM    7  C   UNL     1      -9.133  12.719  66.969  1.00  0.00    -0.220 C  
HETATM    8  O   UNL     1      -7.887  10.930  69.383  1.00  0.00    -0.126 OA 
HETATM    9  N   UNL     1      -8.046  10.468  67.118  1.00  0.00    -0.118 N  
HETATM   10  OXT UNL     1      -9.392  13.696  66.278  1.00  0.00    -0.231 OA 
HETATM   11  C   UNL     1      -7.667  10.265  68.398  1.00  0.00    -0.093 C  
HETATM   12  O   UNL     1      -9.126  12.843  68.308  1.00  0.00    -0.199 OA 
ENDROOT
BRANCH   4  13
HETATM   13  C   UNL     1     -10.108  11.842  64.309  1.00  0.00    -0.326 C  
HETATM   14  C   UNL     1     -11.430  11.660  64.154  1.00  0.00    -0.364 C  
HETATM   15  C   UNL     1     -12.308  12.563  63.348  1.00  0.00    -0.577 C  
ENDBRANCH   4  13
BRANCH   6  16
HETATM   16  N   UNL     1      -7.943   7.711  68.473  1.00  0.00    -0.121 N  
HETATM   17  H   UNL     1      -8.471   7.207  67.759  1.00  0.00     0.000 HD 
HETATM   18  C   UNL     1      -8.064   7.283  69.774  1.00  0.00    -0.128 C  
HETATM   19  O   UNL     1      -7.415   7.758  70.700  1.00  0.00    -0.068 OA 
BRANCH  18  20
HETATM   20  CA  UNL     1      -9.103   6.145  69.937  1.00  0.00    -0.143 C  
HETATM   21  H2  UNL     1      -8.063   5.268  71.537  1.00  0.00     0.000 HD 
HETATM   22  N   UNL     1      -8.476   4.993  70.645  1.00  0.00    -0.105 NA 
HETATM   23  H1  UNL     1      -9.160   4.244  70.753  1.00  0.00     0.000 HD 
BRANCH  20  24
HETATM   24  C   UNL     1      -9.693   5.732  68.601  1.00  0.00    -0.165 A  
HETATM   25  C   UNL     1     -10.741   6.485  68.049  1.00  0.00    -0.351 A  
HETATM   26  C   UNL     1     -11.332   6.114  66.838  1.00  0.00     0.053 A  
HETATM   27  C   UNL     1     -10.868   4.989  66.166  1.00  0.00    -0.095 A  
HETATM   28  C   UNL     1      -9.808   4.249  66.670  1.00  0.00    -0.236 A  
HETATM   29  O   UNL     1     -11.438   4.571  65.001  1.00  0.00    -1.101 OA 
HETATM   30  H   UNL     1     -11.120   3.803  64.542  1.00  0.00     0.000 HD 
HETATM   31  C   UNL     1      -9.216   4.622  67.879  1.00  0.00    -0.154 A  
ENDBRANCH  20  24
ENDBRANCH  18  20
ENDBRANCH   6  16
TORSDOF 4
ENDMDL
MODEL      107
REMARK 921   NORMALIZED FREE ENERGY PREDICTED BY IDOCK:   -4.56 KCAL/MOL
REMARK 922        TOTAL FREE ENERGY PREDICTED BY IDOCK:   -6.44 KCAL/MOL
REMARK 923 INTER-LIGAND FREE ENERGY PREDICTED BY IDOCK:   -5.68 KCAL/MOL
REMARK 924 INTRA-LIGAND FREE ENERGY PREDICTED BY IDOCK:   -0.76 KCAL/MOL
REMARK 927      BINDING AFFINITY PREDICTED BY RF-SCORE:    0.00 PKD
ROOT
HETATM    1  C   UNL     1     -10.426  17.851  67.261  1.00  0.00    -0.366 C  
HETATM    2  S   UNL     1     -10.394  18.012  69.062  1.00  0.00     0.017 SA 
HETATM    3  C   UNL     1      -9.252  19.406  69.027  1.00  0.00    -0.271 C  
HETATM    4  C   UNL     1      -8.038  19.234  68.121  1.00  0.00    -0.349 C  
HETATM    5  CA  UNL     1      -7.986  18.357  67.072  1.00  0.00    -0.229 C  
HETATM    6  CA  UNL     1     -10.817  16.433  66.730  1.00  0.00    -0.098 C  
HETATM    7  C   UNL     1      -6.734  18.251  66.220  1.00  0.00    -0.234 C  
HETATM    8  O   UNL     1      -8.680  15.778  65.393  1.00  0.00     0.359 OA 
HETATM    9  N   UNL     1      -9.082  17.587  66.785  1.00  0.00    -0.254 N  
HETATM   10  OXT UNL     1      -5.915  19.153  66.113  1.00  0.00    -0.160 OA 
HETATM   11  C   UNL     1      -9.386  16.472  66.086  1.00  0.00    -0.304 C  
HETATM   12  O   UNL     1      -6.542  17.103  65.545  1.00  0.00     0.278 OA 
ENDROOT
BRANCH   4  13
HETATM   13  C   UNL     1      -6.893  20.040  68.580  1.00  0.00    -0.336 C  
HETATM   14  C   UNL     1      -6.353  20.002  69.809  1.00  0.00    -0.389 C  
HETATM   15  C   UNL     1      -5.153  20.794  70.218  1.00  0.00    -0.353 C  
ENDBRANCH   4  13
BRANCH   6  16
HETATM   16  N   UNL     1     -11.004  15.399  67.771  1.00  0.00    -0.303 N  
HETATM   17  H   UNL     1     -10.822  15.666  68.739  1.00  0.00     0.000 HD 
HETATM   18  C   UNL     1     -11.403  14.106  67.532  1.00  0.00    -0.322 C  
HETATM   19  O   UNL     1     -11.727  13.697  66.422  1.00  0.00    -0.338 OA 
BRANCH  18  20
HETATM   20  CA  UNL     1     -11.395  13.230  68.810  1.00  0.00    -0.290 C  
HETATM   21  H2  UNL     1     -11.238  14.890  70.086  1.00  0.00     0.000 HD 
HETATM   22  N   UNL     1     -10.780  13.991  69.934  1.00  0.00    -0.406 NA 
HETATM   23  H1  UNL     1     -10.774  13.415  70.776  1.00  0.00     0.000 HD 
BRANCH  20  24
HETATM   24  C   UNL     1     -10.693  11.905  68.575  1.00  0.00    -0.254 A  
HETATM   25  C   UNL     1     -11.450  10.779  68.213  1.00  0.00    -0.353 A  
HETATM   26  C   UNL     1     -10.842   9.536  68.023  1.00  0.00    -0.225 A  
HETATM   27  C   UNL     1      -9.466   9.414  68.185  1.00  0.00    -0.133 A  
HETATM   28  C   UNL     1      -8.689  10.520  68.504  1.00  0.00    -0.140 A  
HETATM   29  O   UNL     1      -8.836   8.215  68.043  1.00  0.00    -0.131 OA 
HETATM   30  H   UNL     1      -7.896   8.132  68.153  1.00  0.00     0.000 HD 
HETATM   31  C   UNL     1      -9.298  11.762  68.691  1.00  0.00    -0.096 A  
ENDBRANCH  20  24
ENDBRANCH  18  20
ENDBRANCH   6  16
TORSDOF 4
ENDMDL
MODEL      108
REMARK 921   NORMALIZED FREE ENERGY PREDICTED BY IDOCK:   -4.53 KCAL/MOL
REMARK 922        TOTAL FREE ENERGY PREDICTED BY IDOCK:   -6.41 KCAL/MOL
REMARK 923 INTER-LIGAND FREE ENERGY PREDICTED BY IDOCK:   -5.63 KCAL/MOL
REMARK 924 INTRA-LIGAND FREE ENERGY PREDICTED BY IDOCK:   -0.78 KCAL/MOL
REMARK 927      BINDING AFFINITY PREDICTED BY RF-SCORE:    0.00 PKD
ROOT
HETATM    1  C   UNL     1     -10.863   8.587  70.075  1.00  0.00    -0.223 C  
HETATM    2  S   UNL     1     -11.285   6.897  69.588  1.00  0.00    -0.209 SA 
HETATM    3  C   UNL     1     -11.580   6.364  71.284  1.00  0.00    -0.311 C  
HETATM    4  C   UNL     1     -10.508   6.765  72.291  1.00  0.00    -0.233 C  
HETATM    5  CA  UNL     1      -9.634   7.801  72.104  1.00  0.00    -0.176 C  
HETATM    6  CA  UNL     1      -9.966   9.365  69.059  1.00  0.00    -0.177 C  
HETATM    7  C   UNL     1      -8.596   8.132  73.161  1.00  0.00    -0.233 C  
HETATM    8  O   UNL     1      -7.863   9.868  70.510  1.00  0.00    -0.246 OA 
HETATM    9  N   UNL     1      -9.716   8.552  70.961  1.00  0.00    -0.180 N  
HETATM   10  OXT UNL     1      -8.720   7.835  74.342  1.00  0.00    -0.217 OA 
HETATM   11  C   UNL     1      -8.958   9.422  70.260  1.00  0.00    -0.240 C  
HETATM   12  O   UNL     1      -7.498   8.798  72.762  1.00  0.00    -0.353 OA 
ENDROOT
BRANCH   4  13
HETATM   13  C   UNL     1     -10.451   5.834  73.431  1.00  0.00    -0.264 C  
HETATM   14  C   UNL     1     -10.441   4.493  73.347  1.00  0.00    -0.264 C  
HETATM   15  C   UNL     1     -10.324   3.583  74.527  1.00  0.00    -0.248 C  
ENDBRANCH   4  13
BRANCH   6  16
HETATM   16  N   UNL     1      -9.504   8.578  67.894  1.00  0.00    -0.138 N  
HETATM   17  H   UNL     1     -10.032   7.739  67.652  1.00  0.00     0.000 HD 
HETATM   18  C   UNL     1      -8.417   8.893  67.114  1.00  0.00    -0.106 C  
HETATM   19  O   UNL     1      -7.759   9.918  67.259  1.00  0.00    -0.095 OA 
BRANCH  18  20
HETATM   20  CA  UNL     1      -8.116   7.815  66.042  1.00  0.00    -0.117 C  
HETATM   21  H2  UNL     1      -8.466   9.138  64.448  1.00  0.00     0.000 HD 
HETATM   22  N   UNL     1      -8.750   8.205  64.750  1.00  0.00    -0.396 NA 
HETATM   23  H1  UNL     1      -8.552   7.496  64.044  1.00  0.00     0.000 HD 
BRANCH  20  24
HETATM   24  C   UNL     1      -8.562   6.437  66.495  1.00  0.00    -0.125 A  
HETATM   25  C   UNL     1      -7.828   5.768  67.488  1.00  0.00    -0.101 A  
HETATM   26  C   UNL     1      -8.189   4.484  67.905  1.00  0.00    -0.095 A  
HETATM   27  C   UNL     1      -9.296   3.864  67.335  1.00  0.00    -0.191 A  
HETATM   28  C   UNL     1     -10.061   4.519  66.380  1.00  0.00    -0.271 A  
HETATM   29  O   UNL     1      -9.662   2.600  67.687  1.00  0.00    -0.365 OA 
HETATM   30  H   UNL     1     -10.419   2.177  67.298  1.00  0.00     0.000 HD 
HETATM   31  C   UNL     1      -9.702   5.803  65.966  1.00  0.00    -0.051 A  
ENDBRANCH  20  24
ENDBRANCH  18  20
ENDBRANCH   6  16
TORSDOF 4
ENDMDL
MODEL      109
REMARK 921   NORMALIZED FREE ENERGY PREDICTED BY IDOCK:   -4.53 KCAL/MOL
REMARK 922        TOTAL FREE ENERGY PREDICTED BY IDOCK:   -6.40 KCAL/MOL
REMARK 923 INTER-LIGAND FREE ENERGY PREDICTED BY IDOCK:   -5.68 KCAL/MOL
REMARK 924 INTRA-LIGAND FREE ENERGY PREDICTED BY IDOCK:   -0.72 KCAL/MOL
REMARK 927      BINDING AFFINITY PREDICTED BY RF-SCORE:    0.00 PKD
ROOT
HETATM    1  C   UNL     1      -8.216   6.671  68.682  1.00  0.00    -0.119 C  
HETATM    2  S   UNL     1      -9.980   6.546  68.302  1.00  0.00    -0.152 SA 
HETATM    3  C   UNL     1      -9.864   7.644  66.878  1.00  0.00    -0.234 C  
HETATM    4  C   UNL     1      -9.088   8.935  67.110  1.00  0.00    -0.160 C  
HETATM    5  CA  UNL     1      -8.164   9.102  68.105  1.00  0.00    -0.116 C  
HETATM    6  CA  UNL     1      -7.836   6.369  70.168  1.00  0.00    -0.107 C  
HETATM    7  C   UNL     1      -7.435  10.424  68.264  1.00  0.00    -0.090 C  
HETATM    8  O   UNL     1      -6.768   8.630  70.895  1.00  0.00    -0.041 OA 
HETATM    9  N   UNL     1      -7.887   8.058  68.948  1.00  0.00    -0.111 N  
HETATM   10  OXT UNL     1      -7.282  11.222  67.349  1.00  0.00    -0.097 OA 
HETATM   11  C   UNL     1      -7.310   7.847  70.151  1.00  0.00    -0.070 C  
HETATM   12  O   UNL     1      -6.925  10.707  69.477  1.00  0.00    -0.091 OA 
ENDROOT
BRANCH   4  13
HETATM   13  C   UNL     1      -9.533  10.013  66.210  1.00  0.00    -0.241 C  
HETATM   14  C   UNL     1      -9.901   9.857  64.927  1.00  0.00    -0.282 C  
HETATM   15  C   UNL     1     -10.403  10.969  64.062  1.00  0.00    -0.436 C  
ENDBRANCH   4  13
BRANCH   6  16
HETATM   16  N   UNL     1      -8.980   6.126  71.075  1.00  0.00    -0.143 N  
HETATM   17  H   UNL     1      -9.915   6.130  70.667  1.00  0.00     0.000 HD 
HETATM   18  C   UNL     1      -8.876   5.893  72.426  1.00  0.00    -0.134 C  
HETATM   19  O   UNL     1      -7.803   5.783  73.008  1.00  0.00    -0.102 OA 
BRANCH  18  20
HETATM   20  CA  UNL     1     -10.256   5.789  73.123  1.00  0.00    -0.193 C  
HETATM   21  H2  UNL     1     -10.077   3.719  73.426  1.00  0.00     0.000 HD 
HETATM   22  N   UNL     1     -10.751   4.385  73.047  1.00  0.00    -0.200 NA 
HETATM   23  H1  UNL     1     -11.659   4.316  73.507  1.00  0.00     0.000 HD 
BRANCH  20  24
HETATM   24  C   UNL     1     -11.254   6.771  72.537  1.00  0.00    -0.305 A  
HETATM   25  C   UNL     1     -10.918   8.132  72.462  1.00  0.00    -0.439 A  
HETATM   26  C   UNL     1     -11.824   9.069  71.960  1.00  0.00    -0.426 A  
HETATM   27  C   UNL     1     -13.074   8.646  71.519  1.00  0.00    -0.305 A  
HETATM   28  C   UNL     1     -13.416   7.301  71.545  1.00  0.00    -0.439 A  
HETATM   29  O   UNL     1     -14.000   9.529  71.054  1.00  0.00    -0.439 OA 
HETATM   30  H   UNL     1     -14.853   9.240  70.753  1.00  0.00     0.000 HD 
HETATM   31  C   UNL     1     -12.508   6.365  72.044  1.00  0.00    -0.212 A  
ENDBRANCH  20  24
ENDBRANCH  18  20
ENDBRANCH   6  16
TORSDOF 4
ENDMDL
MODEL      110
REMARK 921   NORMALIZED FREE ENERGY PREDICTED BY IDOCK:   -4.52 KCAL/MOL
REMARK 922        TOTAL FREE ENERGY PREDICTED BY IDOCK:   -6.39 KCAL/MOL
REMARK 923 INTER-LIGAND FREE ENERGY PREDICTED BY IDOCK:   -5.86 KCAL/MOL
REMARK 924 INTRA-LIGAND FREE ENERGY PREDICTED BY IDOCK:   -0.52 KCAL/MOL
REMARK 927      BINDING AFFINITY PREDICTED BY RF-SCORE:    0.00 PKD
ROOT
HETATM    1  C   UNL     1     -11.450  11.696  66.735  1.00  0.00    -0.225 C  
HETATM    2  S   UNL     1      -9.951  11.985  65.766  1.00  0.00    -0.243 SA 
HETATM    3  C   UNL     1      -9.414  10.269  65.879  1.00  0.00    -0.190 C  
HETATM    4  C   UNL     1      -9.474   9.656  67.274  1.00  0.00    -0.175 C  
HETATM    5  CA  UNL     1     -10.266  10.131  68.282  1.00  0.00    -0.166 C  
HETATM    6  CA  UNL     1     -12.034  12.960  67.445  1.00  0.00    -0.300 C  
HETATM    7  C   UNL     1     -10.265   9.458  69.643  1.00  0.00    -0.212 C  
HETATM    8  O   UNL     1     -11.908  12.249  69.947  1.00  0.00    -0.321 OA 
HETATM    9  N   UNL     1     -11.077  11.210  68.049  1.00  0.00    -0.252 N  
HETATM   10  OXT UNL     1      -9.942   8.290  69.816  1.00  0.00    -0.185 OA 
HETATM   11  C   UNL     1     -11.768  12.134  68.752  1.00  0.00    -0.321 C  
HETATM   12  O   UNL     1     -10.656  10.195  70.699  1.00  0.00    -0.272 OA 
ENDROOT
BRANCH   4  13
HETATM   13  C   UNL     1      -8.496   8.567  67.437  1.00  0.00    -0.127 C  
HETATM   14  C   UNL     1      -8.372   7.499  66.630  1.00  0.00    -0.127 C  
HETATM   15  C   UNL     1      -7.327   6.443  66.797  1.00  0.00    -0.079 C  
ENDBRANCH   4  13
BRANCH   6  16
HETATM   16  N   UNL     1     -11.224  14.190  67.310  1.00  0.00    -0.305 N  
HETATM   17  H   UNL     1     -10.610  14.264  66.497  1.00  0.00     0.000 HD 
HETATM   18  C   UNL     1     -11.235  15.242  68.195  1.00  0.00    -0.324 C  
HETATM   19  O   UNL     1     -11.991  15.299  69.160  1.00  0.00    -0.315 OA 
BRANCH  18  20
HETATM   20  CA  UNL     1     -10.194  16.334  67.844  1.00  0.00    -0.261 C  
HETATM   21  H2  UNL     1     -11.012  16.663  65.938  1.00  0.00     0.000 HD 
HETATM   22  N   UNL     1     -10.102  16.479  66.363  1.00  0.00    -0.298 NA 
HETATM   23  H1  UNL     1      -9.417  17.198  66.131  1.00  0.00     0.000 HD 
BRANCH  20  24
HETATM   24  C   UNL     1      -8.841  16.036  68.465  1.00  0.00    -0.199 A  
HETATM   25  C   UNL     1      -8.529  14.719  68.837  1.00  0.00    -0.159 A  
HETATM   26  C   UNL     1      -7.308  14.413  69.443  1.00  0.00    -0.060 A  
HETATM   27  C   UNL     1      -6.384  15.428  69.672  1.00  0.00    -0.160 A  
HETATM   28  C   UNL     1      -6.652  16.732  69.279  1.00  0.00    -0.223 A  
HETATM   29  O   UNL     1      -5.196  15.181  70.292  1.00  0.00    -0.108 OA 
HETATM   30  H   UNL     1      -4.566  15.874  70.447  1.00  0.00     0.000 HD 
HETATM   31  C   UNL     1      -7.871  17.035  68.670  1.00  0.00    -0.257 A  
ENDBRANCH  20  24
ENDBRANCH  18  20
ENDBRANCH   6  16
TORSDOF 4
ENDMDL
MODEL      111
REMARK 921   NORMALIZED FREE ENERGY PREDICTED BY IDOCK:   -4.50 KCAL/MOL
REMARK 922        TOTAL FREE ENERGY PREDICTED BY IDOCK:   -6.37 KCAL/MOL
REMARK 923 INTER-LIGAND FREE ENERGY PREDICTED BY IDOCK:   -5.85 KCAL/MOL
REMARK 924 INTRA-LIGAND FREE ENERGY PREDICTED BY IDOCK:   -0.52 KCAL/MOL
REMARK 927      BINDING AFFINITY PREDICTED BY RF-SCORE:    0.00 PKD
ROOT
HETATM    1  C   UNL     1      -9.106   9.177  70.151  1.00  0.00    -0.206 C  
HETATM    2  S   UNL     1      -8.777   7.840  68.978  1.00  0.00    -0.135 SA 
HETATM    3  C   UNL     1      -8.789   8.941  67.552  1.00  0.00    -0.130 C  
HETATM    4  C   UNL     1      -9.956   9.919  67.490  1.00  0.00    -0.229 C  
HETATM    5  CA  UNL     1     -10.691  10.300  68.580  1.00  0.00    -0.227 C  
HETATM    6  CA  UNL     1      -9.765   8.731  71.497  1.00  0.00    -0.291 C  
HETATM    7  C   UNL     1     -11.839  11.282  68.428  1.00  0.00    -0.261 C  
HETATM    8  O   UNL     1     -12.003  10.060  71.438  1.00  0.00    -0.365 OA 
HETATM    9  N   UNL     1     -10.370   9.802  69.814  1.00  0.00    -0.227 N  
HETATM   10  OXT UNL     1     -11.920  12.085  67.507  1.00  0.00    -0.572 OA 
HETATM   11  C   UNL     1     -10.930   9.676  71.037  1.00  0.00    -0.361 C  
HETATM   12  O   UNL     1     -12.798  11.263  69.371  1.00  0.00    -0.083 OA 
ENDROOT
BRANCH   4  13
HETATM   13  C   UNL     1     -10.269  10.314  66.106  1.00  0.00    -0.285 C  
HETATM   14  C   UNL     1      -9.439  10.203  65.055  1.00  0.00    -0.330 C  
HETATM   15  C   UNL     1      -9.815  10.562  63.653  1.00  0.00    -0.354 C  
ENDBRANCH   4  13
BRANCH   6  16
HETATM   16  N   UNL     1     -10.121   7.298  71.580  1.00  0.00    -0.186 N  
HETATM   17  H   UNL     1     -10.560   6.872  70.763  1.00  0.00     0.000 HD 
HETATM   18  C   UNL     1      -9.904   6.496  72.675  1.00  0.00    -0.169 C  
HETATM   19  O   UNL     1      -9.311   6.876  73.679  1.00  0.00    -0.150 OA 
BRANCH  18  20
HETATM   20  CA  UNL     1     -10.490   5.072  72.501  1.00  0.00    -0.215 C  
HETATM   21  H2  UNL     1     -11.442   5.110  74.373  1.00  0.00     0.000 HD 
HETATM   22  N   UNL     1     -10.822   4.501  73.838  1.00  0.00    -0.277 NA 
HETATM   23  H1  UNL     1     -11.208   3.564  73.724  1.00  0.00     0.000 HD 
BRANCH  20  24
HETATM   24  C   UNL     1      -9.549   4.171  71.722  1.00  0.00    -0.223 A  
HETATM   25  C   UNL     1      -9.905   2.831  71.501  1.00  0.00    -0.195 A  
HETATM   26  C   UNL     1      -9.048   1.964  70.818  1.00  0.00    -0.156 A  
HETATM   27  C   UNL     1      -7.830   2.438  70.342  1.00  0.00    -0.042 A  
HETATM   28  C   UNL     1      -7.472   3.768  70.512  1.00  0.00    -0.041 A  
HETATM   29  O   UNL     1      -6.950   1.620  69.701  1.00  0.00    -0.033 OA 
HETATM   30  H   UNL     1      -6.119   1.944  69.376  1.00  0.00     0.000 HD 
HETATM   31  C   UNL     1      -8.331   4.635  71.192  1.00  0.00    -0.106 A  
ENDBRANCH  20  24
ENDBRANCH  18  20
ENDBRANCH   6  16
TORSDOF 4
ENDMDL
MODEL      112
REMARK 921   NORMALIZED FREE ENERGY PREDICTED BY IDOCK:   -4.47 KCAL/MOL
REMARK 922        TOTAL FREE ENERGY PREDICTED BY IDOCK:   -6.33 KCAL/MOL
REMARK 923 INTER-LIGAND FREE ENERGY PREDICTED BY IDOCK:   -5.61 KCAL/MOL
REMARK 924 INTRA-LIGAND FREE ENERGY PREDICTED BY IDOCK:   -0.72 KCAL/MOL
REMARK 927      BINDING AFFINITY PREDICTED BY RF-SCORE:    0.00 PKD
ROOT
HETATM    1  C   UNL     1     -10.899   8.088  67.952  1.00  0.00     0.026 C  
HETATM    2  S   UNL     1     -10.933   6.282  67.867  1.00  0.00    -0.258 SA 
HETATM    3  C   UNL     1     -11.243   6.096  69.632  1.00  0.00    -0.418 C  
HETATM    4  C   UNL     1     -10.353   6.933  70.544  1.00  0.00    -0.224 C  
HETATM    5  CA  UNL     1      -9.695   8.062  70.141  1.00  0.00    -0.176 C  
HETATM    6  CA  UNL     1     -10.102   8.790  66.804  1.00  0.00    -0.288 C  
HETATM    7  C   UNL     1      -8.828   8.837  71.117  1.00  0.00    -0.219 C  
HETATM    8  O   UNL     1      -8.260  10.044  68.150  1.00  0.00    -0.107 OA 
HETATM    9  N   UNL     1      -9.839   8.500  68.851  1.00  0.00    -0.172 N  
HETATM   10  OXT UNL     1      -8.979   8.795  72.331  1.00  0.00    -0.379 OA 
HETATM   11  C   UNL     1      -9.221   9.331  67.984  1.00  0.00    -0.130 C  
HETATM   12  O   UNL     1      -7.859   9.615  70.601  1.00  0.00    -0.231 OA 
ENDROOT
BRANCH   4  13
HETATM   13  C   UNL     1     -10.197   6.318  71.874  1.00  0.00    -0.227 C  
HETATM   14  C   UNL     1     -11.092   5.515  72.474  1.00  0.00    -0.324 C  
HETATM   15  C   UNL     1     -10.871   4.864  73.801  1.00  0.00    -0.376 C  
ENDBRANCH   4  13
BRANCH   6  16
HETATM   16  N   UNL     1      -9.404   7.877  65.872  1.00  0.00    -0.405 N  
HETATM   17  H   UNL     1      -9.693   6.898  65.864  1.00  0.00     0.000 HD 
HETATM   18  C   UNL     1      -8.395   8.249  65.016  1.00  0.00    -0.148 C  
HETATM   19  O   UNL     1      -8.022   9.410  64.880  1.00  0.00    -0.111 OA 
BRANCH  18  20
HETATM   20  CA  UNL     1      -7.784   7.048  64.251  1.00  0.00    -0.117 C  
HETATM   21  H2  UNL     1      -7.934   8.009  62.389  1.00  0.00     0.000 HD 
HETATM   22  N   UNL     1      -8.181   7.115  62.815  1.00  0.00    -0.323 NA 
HETATM   23  H1  UNL     1      -7.779   6.325  62.311  1.00  0.00     0.000 HD 
BRANCH  20  24
HETATM   24  C   UNL     1      -8.178   5.725  64.882  1.00  0.00    -0.137 A  
HETATM   25  C   UNL     1      -9.157   4.931  64.264  1.00  0.00    -0.021 A  
HETATM   26  C   UNL     1      -9.569   3.724  64.835  1.00  0.00    -0.177 A  
HETATM   27  C   UNL     1      -8.993   3.299  66.028  1.00  0.00    -0.145 A  
HETATM   28  C   UNL     1      -7.996   4.045  66.639  1.00  0.00    -0.097 A  
HETATM   29  O   UNL     1      -9.390   2.147  66.637  1.00  0.00    -0.339 OA 
HETATM   30  H   UNL     1      -8.996   1.856  67.451  1.00  0.00     0.000 HD 
HETATM   31  C   UNL     1      -7.582   5.250  66.066  1.00  0.00    -0.087 A  
ENDBRANCH  20  24
ENDBRANCH  18  20
ENDBRANCH   6  16
TORSDOF 4
ENDMDL
MODEL      113
REMARK 921   NORMALIZED FREE ENERGY PREDICTED BY IDOCK:   -4.45 KCAL/MOL
REMARK 922        TOTAL FREE ENERGY PREDICTED BY IDOCK:   -6.31 KCAL/MOL
REMARK 923 INTER-LIGAND FREE ENERGY PREDICTED BY IDOCK:   -5.79 KCAL/MOL
REMARK 924 INTRA-LIGAND FREE ENERGY PREDICTED BY IDOCK:   -0.52 KCAL/MOL
REMARK 927      BINDING AFFINITY PREDICTED BY RF-SCORE:    0.00 PKD
ROOT
HETATM    1  C   UNL     1      -8.912  13.371  67.664  1.00  0.00    -0.202 C  
HETATM    2  S   UNL     1      -7.123  13.638  67.698  1.00  0.00    -0.156 SA 
HETATM    3  C   UNL     1      -7.282  15.411  67.978  1.00  0.00    -0.124 C  
HETATM    4  C   UNL     1      -8.277  16.129  67.073  1.00  0.00    -0.250 C  
HETATM    5  CA  UNL     1      -9.306  15.504  66.423  1.00  0.00    -0.298 C  
HETATM    6  CA  UNL     1      -9.376  12.097  66.888  1.00  0.00    -0.203 C  
HETATM    7  C   UNL     1     -10.253  16.297  65.540  1.00  0.00    -0.298 C  
HETATM    8  O   UNL     1     -10.863  13.144  65.024  1.00  0.00    -0.292 OA 
HETATM    9  N   UNL     1      -9.487  14.156  66.590  1.00  0.00    -0.280 N  
HETATM   10  OXT UNL     1     -10.446  17.499  65.671  1.00  0.00    -0.588 OA 
HETATM   11  C   UNL     1     -10.133  13.135  65.987  1.00  0.00    -0.286 C  
HETATM   12  O   UNL     1     -10.914  15.624  64.581  1.00  0.00    -0.424 OA 
ENDROOT
BRANCH   4  13
HETATM   13  C   UNL     1      -7.931  17.549  66.894  1.00  0.00    -0.254 C  
HETATM   14  C   UNL     1      -7.036  18.031  66.015  1.00  0.00    -0.330 C  
HETATM   15  C   UNL     1      -6.755  19.487  65.823  1.00  0.00    -0.278 C  
ENDBRANCH   4  13
BRANCH   6  16
HETATM   16  N   UNL     1      -8.300  11.347  66.205  1.00  0.00    -0.325 N  
HETATM   17  H   UNL     1      -8.003  11.678  65.286  1.00  0.00     0.000 HD 
HETATM   18  C   UNL     1      -7.668  10.237  66.715  1.00  0.00    -0.111 C  
HETATM   19  O   UNL     1      -7.883   9.800  67.841  1.00  0.00    -0.090 OA 
BRANCH  18  20
HETATM   20  CA  UNL     1      -6.666   9.605  65.716  1.00  0.00    -0.089 C  
HETATM   21  H2  UNL     1      -6.167  11.460  64.865  1.00  0.00     0.000 HD 
HETATM   22  N   UNL     1      -6.459  10.529  64.565  1.00  0.00    -0.350 NA 
HETATM   23  H1  UNL     1      -5.799  10.113  63.907  1.00  0.00     0.000 HD 
BRANCH  20  24
HETATM   24  C   UNL     1      -7.122   8.231  65.261  1.00  0.00    -0.074 A  
HETATM   25  C   UNL     1      -6.949   7.131  66.116  1.00  0.00    -0.065 A  
HETATM   26  C   UNL     1      -7.325   5.845  65.717  1.00  0.00    -0.076 A  
HETATM   27  C   UNL     1      -7.888   5.655  64.460  1.00  0.00    -0.114 A  
HETATM   28  C   UNL     1      -8.106   6.732  63.611  1.00  0.00     0.002 A  
HETATM   29  O   UNL     1      -8.237   4.415  64.017  1.00  0.00    -0.094 OA 
HETATM   30  H   UNL     1      -8.622   4.286  63.158  1.00  0.00     0.000 HD 
HETATM   31  C   UNL     1      -7.733   8.016  64.012  1.00  0.00    -0.137 A  
ENDBRANCH  20  24
ENDBRANCH  18  20
ENDBRANCH   6  16
TORSDOF 4
ENDMDL
MODEL      114
REMARK 921   NORMALIZED FREE ENERGY PREDICTED BY IDOCK:   -4.42 KCAL/MOL
REMARK 922        TOTAL FREE ENERGY PREDICTED BY IDOCK:   -6.26 KCAL/MOL
REMARK 923 INTER-LIGAND FREE ENERGY PREDICTED BY IDOCK:   -5.69 KCAL/MOL
REMARK 924 INTRA-LIGAND FREE ENERGY PREDICTED BY IDOCK:   -0.57 KCAL/MOL
REMARK 927      BINDING AFFINITY PREDICTED BY RF-SCORE:    0.00 PKD
ROOT
HETATM    1  C   UNL     1      -8.992  11.253  66.596  1.00  0.00    -0.176 C  
HETATM    2  S   UNL     1     -10.758  11.644  66.576  1.00  0.00    -0.282 SA 
HETATM    3  C   UNL     1     -10.494  13.313  65.949  1.00  0.00    -0.285 C  
HETATM    4  C   UNL     1      -9.407  14.113  66.658  1.00  0.00    -0.299 C  
HETATM    5  CA  UNL     1      -8.391  13.548  67.379  1.00  0.00    -0.194 C  
HETATM    6  CA  UNL     1      -8.576  10.120  67.589  1.00  0.00    -0.118 C  
HETATM    7  C   UNL     1      -7.349  14.422  68.054  1.00  0.00    -0.143 C  
HETATM    8  O   UNL     1      -6.928  11.390  69.155  1.00  0.00    -0.101 OA 
HETATM    9  N   UNL     1      -8.311  12.184  67.474  1.00  0.00    -0.156 N  
HETATM   10  OXT UNL     1      -7.081  15.558  67.683  1.00  0.00    -0.140 OA 
HETATM   11  C   UNL     1      -7.705  11.252  68.240  1.00  0.00    -0.122 C  
HETATM   12  O   UNL     1      -6.686  13.898  69.101  1.00  0.00    -0.106 OA 
ENDROOT
BRANCH   4  13
HETATM   13  C   UNL     1      -9.647  15.564  66.568  1.00  0.00    -0.295 C  
HETATM   14  C   UNL     1     -10.510  16.262  67.324  1.00  0.00    -0.300 C  
HETATM   15  C   UNL     1     -10.683  17.745  67.241  1.00  0.00    -0.249 C  
ENDBRANCH   4  13
BRANCH   6  16
HETATM   16  N   UNL     1      -9.665   9.601  68.446  1.00  0.00    -0.148 N  
HETATM   17  H   UNL     1     -10.622   9.849  68.195  1.00  0.00     0.000 HD 
HETATM   18  C   UNL     1      -9.483   8.808  69.554  1.00  0.00    -0.165 C  
HETATM   19  O   UNL     1      -8.388   8.381  69.902  1.00  0.00    -0.119 OA 
BRANCH  18  20
HETATM   20  CA  UNL     1     -10.806   8.522  70.310  1.00  0.00    -0.238 C  
HETATM   21  H2  UNL     1     -11.168  10.557  70.681  1.00  0.00     0.000 HD 
HETATM   22  N   UNL     1     -11.135   9.676  71.194  1.00  0.00    -0.359 NA 
HETATM   23  H1  UNL     1     -12.006   9.488  71.692  1.00  0.00     0.000 HD 
BRANCH  20  24
HETATM   24  C   UNL     1     -10.735   7.220  71.085  1.00  0.00    -0.244 A  
HETATM   25  C   UNL     1     -10.932   7.235  72.475  1.00  0.00    -0.322 A  
HETATM   26  C   UNL     1     -10.840   6.060  73.227  1.00  0.00    -0.277 A  
HETATM   27  C   UNL     1     -10.560   4.858  72.586  1.00  0.00    -0.215 A  
HETATM   28  C   UNL     1     -10.400   4.809  71.208  1.00  0.00    -0.184 A  
HETATM   29  O   UNL     1     -10.427   3.695  73.284  1.00  0.00    -0.155 OA 
HETATM   30  H   UNL     1     -10.236   2.874  72.846  1.00  0.00     0.000 HD 
HETATM   31  C   UNL     1     -10.495   5.983  70.458  1.00  0.00    -0.303 A  
ENDBRANCH  20  24
ENDBRANCH  18  20
ENDBRANCH   6  16
TORSDOF 4
ENDMDL
MODEL      115
REMARK 921   NORMALIZED FREE ENERGY PREDICTED BY IDOCK:   -4.41 KCAL/MOL
REMARK 922        TOTAL FREE ENERGY PREDICTED BY IDOCK:   -6.25 KCAL/MOL
REMARK 923 INTER-LIGAND FREE ENERGY PREDICTED BY IDOCK:   -5.44 KCAL/MOL
REMARK 924 INTRA-LIGAND FREE ENERGY PREDICTED BY IDOCK:   -0.81 KCAL/MOL
REMARK 927      BINDING AFFINITY PREDICTED BY RF-SCORE:    0.00 PKD
ROOT
HETATM    1  C   UNL     1     -10.282   9.905  66.989  1.00  0.00    -0.233 C  
HETATM    2  S   UNL     1      -8.565  10.281  66.563  1.00  0.00    -0.133 SA 
HETATM    3  C   UNL     1      -7.907   8.939  67.570  1.00  0.00    -0.101 C  
HETATM    4  C   UNL     1      -8.478   8.838  68.979  1.00  0.00    -0.130 C  
HETATM    5  CA  UNL     1      -9.682   9.368  69.354  1.00  0.00    -0.177 C  
HETATM    6  CA  UNL     1     -11.276  11.104  66.850  1.00  0.00    -0.186 C  
HETATM    7  C   UNL     1     -10.176   9.220  70.782  1.00  0.00    -0.286 C  
HETATM    8  O   UNL     1     -12.145  11.339  69.294  1.00  0.00    -0.334 OA 
HETATM    9  N   UNL     1     -10.449  10.019  68.425  1.00  0.00    -0.194 N  
HETATM   10  OXT UNL     1      -9.807   8.326  71.533  1.00  0.00    -0.165 OA 
HETATM   11  C   UNL     1     -11.490  10.878  68.388  1.00  0.00    -0.304 C  
HETATM   12  O   UNL     1     -11.076  10.118  71.222  1.00  0.00    -0.240 OA 
ENDROOT
BRANCH   4  13
HETATM   13  C   UNL     1      -7.530   8.203  69.912  1.00  0.00    -0.069 C  
HETATM   14  C   UNL     1      -7.044   6.955  69.803  1.00  0.00    -0.068 C  
HETATM   15  C   UNL     1      -6.038   6.367  70.740  1.00  0.00    -0.031 C  
ENDBRANCH   4  13
BRANCH   6  16
HETATM   16  N   UNL     1     -10.657  12.398  66.490  1.00  0.00    -0.232 N  
HETATM   17  H   UNL     1      -9.718  12.378  66.091  1.00  0.00     0.000 HD 
HETATM   18  C   UNL     1     -11.252  13.627  66.652  1.00  0.00    -0.313 C  
HETATM   19  O   UNL     1     -12.406  13.768  67.043  1.00  0.00    -0.378 OA 
BRANCH  18  20
HETATM   20  CA  UNL     1     -10.309  14.802  66.292  1.00  0.00    -0.297 C  
HETATM   21  H2  UNL     1     -10.580  14.538  64.226  1.00  0.00     0.000 HD 
HETATM   22  N   UNL     1      -9.815  14.637  64.895  1.00  0.00    -0.418 NA 
HETATM   23  H1  UNL     1      -9.195  15.411  64.657  1.00  0.00     0.000 HD 
BRANCH  20  24
HETATM   24  C   UNL     1      -9.165  14.925  67.282  1.00  0.00    -0.212 A  
HETATM   25  C   UNL     1      -9.323  15.734  68.419  1.00  0.00    -0.196 A  
HETATM   26  C   UNL     1      -8.279  15.898  69.334  1.00  0.00    -0.174 A  
HETATM   27  C   UNL     1      -7.072  15.242  69.121  1.00  0.00    -0.155 A  
HETATM   28  C   UNL     1      -6.903  14.405  68.026  1.00  0.00    -0.150 A  
HETATM   29  O   UNL     1      -6.017  15.401  69.968  1.00  0.00    -0.136 OA 
HETATM   30  H   UNL     1      -5.193  14.952  69.823  1.00  0.00     0.000 HD 
HETATM   31  C   UNL     1      -7.948  14.240  67.114  1.00  0.00    -0.128 A  
ENDBRANCH  20  24
ENDBRANCH  18  20
ENDBRANCH   6  16
TORSDOF 4
ENDMDL
MODEL      116
REMARK 921   NORMALIZED FREE ENERGY PREDICTED BY IDOCK:   -4.41 KCAL/MOL
REMARK 922        TOTAL FREE ENERGY PREDICTED BY IDOCK:   -6.25 KCAL/MOL
REMARK 923 INTER-LIGAND FREE ENERGY PREDICTED BY IDOCK:   -5.50 KCAL/MOL
REMARK 924 INTRA-LIGAND FREE ENERGY PREDICTED BY IDOCK:   -0.75 KCAL/MOL
REMARK 927      BINDING AFFINITY PREDICTED BY RF-SCORE:    0.00 PKD
ROOT
HETATM    1  C   UNL     1     -11.008   8.345  71.939  1.00  0.00    -0.305 C  
HETATM    2  S   UNL     1     -11.993   7.200  70.943  1.00  0.00    -0.314 SA 
HETATM    3  C   UNL     1     -11.892   5.878  72.163  1.00  0.00    -0.186 C  
HETATM    4  C   UNL     1     -10.498   5.608  72.720  1.00  0.00    -0.247 C  
HETATM    5  CA  UNL     1      -9.479   6.521  72.701  1.00  0.00    -0.147 C  
HETATM    6  CA  UNL     1     -10.287   9.473  71.132  1.00  0.00    -0.260 C  
HETATM    7  C   UNL     1      -8.120   6.168  73.280  1.00  0.00    -0.113 C  
HETATM    8  O   UNL     1      -7.789   8.981  71.679  1.00  0.00    -0.316 OA 
HETATM    9  N   UNL     1      -9.699   7.764  72.170  1.00  0.00    -0.175 N  
HETATM   10  OXT UNL     1      -7.956   5.304  74.131  1.00  0.00    -0.102 OA 
HETATM   11  C   UNL     1      -8.985   8.815  71.712  1.00  0.00    -0.212 C  
HETATM   12  O   UNL     1      -7.058   6.862  72.832  1.00  0.00    -0.074 OA 
ENDROOT
BRANCH   4  13
HETATM   13  C   UNL     1     -10.350   4.216  73.177  1.00  0.00    -0.237 C  
HETATM   14  C   UNL     1     -10.249   3.138  72.380  1.00  0.00    -0.197 C  
HETATM   15  C   UNL     1     -10.041   1.746  72.882  1.00  0.00    -0.183 C  
ENDBRANCH   4  13
BRANCH   6  16
HETATM   16  N   UNL     1     -10.428   9.385  69.662  1.00  0.00    -0.213 N  
HETATM   17  H   UNL     1     -11.234   8.879  69.294  1.00  0.00     0.000 HD 
HETATM   18  C   UNL     1      -9.554   9.935  68.754  1.00  0.00    -0.160 C  
HETATM   19  O   UNL     1      -8.599  10.632  69.078  1.00  0.00    -0.148 OA 
BRANCH  18  20
HETATM   20  CA  UNL     1      -9.906   9.575  67.288  1.00  0.00    -0.177 C  
HETATM   21  H2  UNL     1     -11.414  11.033  67.171  1.00  0.00     0.000 HD 
HETATM   22  N   UNL     1     -11.289  10.038  66.979  1.00  0.00    -0.144 NA 
HETATM   23  H1  UNL     1     -11.521   9.802  66.014  1.00  0.00     0.000 HD 
BRANCH  20  24
HETATM   24  C   UNL     1      -9.737   8.090  67.022  1.00  0.00    -0.275 A  
HETATM   25  C   UNL     1      -8.519   7.619  66.505  1.00  0.00    -0.133 A  
HETATM   26  C   UNL     1      -8.339   6.264  66.215  1.00  0.00    -0.122 A  
HETATM   27  C   UNL     1      -9.377   5.369  66.450  1.00  0.00    -0.150 A  
HETATM   28  C   UNL     1     -10.577   5.803  66.997  1.00  0.00    -0.373 A  
HETATM   29  O   UNL     1      -9.257   4.046  66.149  1.00  0.00    -0.137 OA 
HETATM   30  H   UNL     1      -9.966   3.434  66.311  1.00  0.00     0.000 HD 
HETATM   31  C   UNL     1     -10.754   7.156  67.290  1.00  0.00    -0.399 A  
ENDBRANCH  20  24
ENDBRANCH  18  20
ENDBRANCH   6  16
TORSDOF 4
ENDMDL
MODEL      117
REMARK 921   NORMALIZED FREE ENERGY PREDICTED BY IDOCK:   -4.39 KCAL/MOL
REMARK 922        TOTAL FREE ENERGY PREDICTED BY IDOCK:   -6.23 KCAL/MOL
REMARK 923 INTER-LIGAND FREE ENERGY PREDICTED BY IDOCK:   -5.58 KCAL/MOL
REMARK 924 INTRA-LIGAND FREE ENERGY PREDICTED BY IDOCK:   -0.65 KCAL/MOL
REMARK 927      BINDING AFFINITY PREDICTED BY RF-SCORE:    0.00 PKD
ROOT
HETATM    1  C   UNL     1      -7.294  10.441  67.886  1.00  0.00    -0.086 C  
HETATM    2  S   UNL     1      -7.042  10.611  69.669  1.00  0.00    -0.131 SA 
HETATM    3  C   UNL     1      -7.008   8.831  69.945  1.00  0.00    -0.046 C  
HETATM    4  C   UNL     1      -8.125   8.043  69.270  1.00  0.00    -0.118 C  
HETATM    5  CA  UNL     1      -8.831   8.494  68.189  1.00  0.00    -0.142 C  
HETATM    6  CA  UNL     1      -7.966  11.670  67.192  1.00  0.00    -0.163 C  
HETATM    7  C   UNL     1      -9.929   7.642  67.578  1.00  0.00    -0.178 C  
HETATM    8  O   UNL     1     -10.134  10.596  66.230  1.00  0.00    -0.220 OA 
HETATM    9  N   UNL     1      -8.527   9.716  67.650  1.00  0.00    -0.125 N  
HETATM   10  OXT UNL     1      -9.976   6.424  67.689  1.00  0.00    -0.116 OA 
HETATM   11  C   UNL     1      -9.085  10.632  66.828  1.00  0.00    -0.152 C  
HETATM   12  O   UNL     1     -10.882   8.276  66.869  1.00  0.00    -0.228 OA 
ENDROOT
BRANCH   4  13
HETATM   13  C   UNL     1      -8.427   6.793  69.989  1.00  0.00    -0.140 C  
HETATM   14  C   UNL     1      -8.149   6.547  71.280  1.00  0.00    -0.113 C  
HETATM   15  C   UNL     1      -8.524   5.285  71.989  1.00  0.00    -0.126 C  
ENDBRANCH   4  13
BRANCH   6  16
HETATM   16  N   UNL     1      -8.393  12.754  68.104  1.00  0.00    -0.166 N  
HETATM   17  H   UNL     1      -8.090  12.699  69.077  1.00  0.00     0.000 HD 
HETATM   18  C   UNL     1      -9.168  13.829  67.739  1.00  0.00    -0.206 C  
HETATM   19  O   UNL     1      -9.520  14.042  66.583  1.00  0.00    -0.270 OA 
BRANCH  18  20
HETATM   20  CA  UNL     1      -9.545  14.732  68.940  1.00  0.00    -0.210 C  
HETATM   21  H2  UNL     1     -10.884  13.319  69.729  1.00  0.00     0.000 HD 
HETATM   22  N   UNL     1     -10.866  14.310  69.486  1.00  0.00    -0.408 NA 
HETATM   23  H1  UNL     1     -11.115  14.904  70.278  1.00  0.00     0.000 HD 
BRANCH  20  24
HETATM   24  C   UNL     1      -9.536  16.201  68.560  1.00  0.00    -0.216 A  
HETATM   25  C   UNL     1      -8.325  16.912  68.589  1.00  0.00    -0.261 A  
HETATM   26  C   UNL     1      -8.284  18.273  68.279  1.00  0.00    -0.312 A  
HETATM   27  C   UNL     1      -9.458  18.931  67.926  1.00  0.00    -0.305 A  
HETATM   28  C   UNL     1     -10.661  18.244  67.852  1.00  0.00    -0.392 A  
HETATM   29  O   UNL     1      -9.469  20.265  67.650  1.00  0.00    -0.370 OA 
HETATM   30  H   UNL     1     -10.271  20.714  67.409  1.00  0.00     0.000 HD 
HETATM   31  C   UNL     1     -10.700  16.882  68.159  1.00  0.00    -0.375 A  
ENDBRANCH  20  24
ENDBRANCH  18  20
ENDBRANCH   6  16
TORSDOF 4
ENDMDL
MODEL      118
REMARK 921   NORMALIZED FREE ENERGY PREDICTED BY IDOCK:   -4.39 KCAL/MOL
REMARK 922        TOTAL FREE ENERGY PREDICTED BY IDOCK:   -6.23 KCAL/MOL
REMARK 923 INTER-LIGAND FREE ENERGY PREDICTED BY IDOCK:   -5.42 KCAL/MOL
REMARK 924 INTRA-LIGAND FREE ENERGY PREDICTED BY IDOCK:   -0.81 KCAL/MOL
REMARK 927      BINDING AFFINITY PREDICTED BY RF-SCORE:    0.00 PKD
ROOT
HETATM    1  C   UNL     1      -7.596   9.887  67.537  1.00  0.00    -0.091 C  
HETATM    2  S   UNL     1      -6.742  10.931  68.743  1.00  0.00    -0.068 SA 
HETATM    3  C   UNL     1      -6.173   9.527  69.719  1.00  0.00    -0.040 C  
HETATM    4  C   UNL     1      -7.233   8.478  70.035  1.00  0.00    -0.051 C  
HETATM    5  CA  UNL     1      -8.381   8.311  69.310  1.00  0.00    -0.122 C  
HETATM    6  CA  UNL     1      -8.757  10.588  66.760  1.00  0.00    -0.132 C  
HETATM    7  C   UNL     1      -9.384   7.238  69.695  1.00  0.00    -0.153 C  
HETATM    8  O   UNL     1     -10.795   9.120  67.447  1.00  0.00    -0.243 OA 
HETATM    9  N   UNL     1      -8.610   9.109  68.220  1.00  0.00    -0.128 N  
HETATM   10  OXT UNL     1      -9.087   6.237  70.334  1.00  0.00    -0.152 OA 
HETATM   11  C   UNL     1      -9.641   9.477  67.429  1.00  0.00    -0.141 C  
HETATM   12  O   UNL     1     -10.657   7.408  69.292  1.00  0.00    -0.218 OA 
ENDROOT
BRANCH   4  13
HETATM   13  C   UNL     1      -6.927   7.746  71.276  1.00  0.00    -0.050 C  
HETATM   14  C   UNL     1      -7.063   8.229  72.522  1.00  0.00    -0.122 C  
HETATM   15  C   UNL     1      -6.797   7.433  73.760  1.00  0.00    -0.087 C  
ENDBRANCH   4  13
BRANCH   6  16
HETATM   16  N   UNL     1      -9.061  11.970  67.191  1.00  0.00    -0.180 N  
HETATM   17  H   UNL     1      -8.422  12.409  67.855  1.00  0.00     0.000 HD 
HETATM   18  C   UNL     1     -10.140  12.708  66.764  1.00  0.00    -0.237 C  
HETATM   19  O   UNL     1     -10.926  12.316  65.909  1.00  0.00    -0.280 OA 
BRANCH  18  20
HETATM   20  CA  UNL     1     -10.252  14.076  67.482  1.00  0.00    -0.244 C  
HETATM   21  H2  UNL     1      -8.329  14.676  66.887  1.00  0.00     0.000 HD 
HETATM   22  N   UNL     1      -8.887  14.619  67.740  1.00  0.00    -0.171 NA 
HETATM   23  H1  UNL     1      -8.961  15.520  68.212  1.00  0.00     0.000 HD 
BRANCH  20  24
HETATM   24  C   UNL     1     -11.067  13.973  68.758  1.00  0.00    -0.287 A  
HETATM   25  C   UNL     1     -11.371  15.140  69.477  1.00  0.00    -0.301 A  
HETATM   26  C   UNL     1     -12.090  15.080  70.674  1.00  0.00    -0.375 A  
HETATM   27  C   UNL     1     -12.518  13.847  71.155  1.00  0.00    -0.372 A  
HETATM   28  C   UNL     1     -12.265  12.682  70.443  1.00  0.00    -0.368 A  
HETATM   29  O   UNL     1     -13.191  13.738  72.334  1.00  0.00    -0.436 OA 
HETATM   30  H   UNL     1     -13.484  12.896  72.661  1.00  0.00     0.000 HD 
HETATM   31  C   UNL     1     -11.549  12.744  69.246  1.00  0.00    -0.372 A  
ENDBRANCH  20  24
ENDBRANCH  18  20
ENDBRANCH   6  16
TORSDOF 4
ENDMDL
MODEL      119
REMARK 921   NORMALIZED FREE ENERGY PREDICTED BY IDOCK:   -4.36 KCAL/MOL
REMARK 922        TOTAL FREE ENERGY PREDICTED BY IDOCK:   -6.20 KCAL/MOL
REMARK 923 INTER-LIGAND FREE ENERGY PREDICTED BY IDOCK:   -5.41 KCAL/MOL
REMARK 924 INTRA-LIGAND FREE ENERGY PREDICTED BY IDOCK:   -0.79 KCAL/MOL
REMARK 927      BINDING AFFINITY PREDICTED BY RF-SCORE:    0.00 PKD
ROOT
HETATM    1  C   UNL     1     -11.417  10.478  69.218  1.00  0.00    -0.256 C  
HETATM    2  S   UNL     1      -9.626  10.691  69.090  1.00  0.00    -0.136 SA 
HETATM    3  C   UNL     1      -9.283   8.960  69.455  1.00  0.00    -0.150 C  
HETATM    4  C   UNL     1     -10.033   8.384  70.651  1.00  0.00    -0.212 C  
HETATM    5  CA  UNL     1     -11.192   8.910  71.151  1.00  0.00    -0.284 C  
HETATM    6  CA  UNL     1     -12.217  11.778  69.553  1.00  0.00    -0.169 C  
HETATM    7  C   UNL     1     -11.874   8.270  72.347  1.00  0.00    -0.396 C  
HETATM    8  O   UNL     1     -13.342  11.123  71.809  1.00  0.00    -0.384 OA 
HETATM    9  N   UNL     1     -11.744  10.011  70.551  1.00  0.00    -0.299 N  
HETATM   10  OXT UNL     1     -11.724   7.096  72.658  1.00  0.00    -0.234 OA 
HETATM   11  C   UNL     1     -12.648  10.975  70.830  1.00  0.00    -0.391 C  
HETATM   12  O   UNL     1     -12.694   9.046  73.080  1.00  0.00    -0.209 OA 
ENDROOT
BRANCH   4  13
HETATM   13  C   UNL     1      -9.301   7.265  71.270  1.00  0.00    -0.155 C  
HETATM   14  C   UNL     1      -8.218   7.379  72.057  1.00  0.00    -0.111 C  
HETATM   15  C   UNL     1      -7.538   6.221  72.714  1.00  0.00    -0.103 C  
ENDBRANCH   4  13
BRANCH   6  16
HETATM   16  N   UNL     1     -11.390  12.976  69.820  1.00  0.00    -0.497 N  
HETATM   17  H   UNL     1     -10.468  12.831  70.231  1.00  0.00     0.000 HD 
HETATM   18  C   UNL     1     -11.772  14.270  69.555  1.00  0.00    -0.316 C  
HETATM   19  O   UNL     1     -12.821  14.558  68.988  1.00  0.00     0.286 OA 
BRANCH  18  20
HETATM   20  CA  UNL     1     -10.739  15.313  70.052  1.00  0.00    -0.279 C  
HETATM   21  H2  UNL     1     -12.220  16.733  70.504  1.00  0.00     0.000 HD 
HETATM   22  N   UNL     1     -11.339  16.677  69.992  1.00  0.00    -0.371 NA 
HETATM   23  H1  UNL     1     -10.660  17.364  70.319  1.00  0.00     0.000 HD 
BRANCH  20  24
HETATM   24  C   UNL     1      -9.442  15.232  69.268  1.00  0.00    -0.242 A  
HETATM   25  C   UNL     1      -9.398  15.732  67.957  1.00  0.00    -0.197 A  
HETATM   26  C   UNL     1      -8.231  15.644  67.193  1.00  0.00    -0.244 A  
HETATM   27  C   UNL     1      -7.095  15.061  67.744  1.00  0.00    -0.170 A  
HETATM   28  C   UNL     1      -7.100  14.594  69.051  1.00  0.00    -0.128 A  
HETATM   29  O   UNL     1      -5.947  14.922  67.024  1.00  0.00    -0.090 OA 
HETATM   30  H   UNL     1      -5.171  14.525  67.401  1.00  0.00     0.000 HD 
HETATM   31  C   UNL     1      -8.266  14.686  69.814  1.00  0.00     0.329 A  
ENDBRANCH  20  24
ENDBRANCH  18  20
ENDBRANCH   6  16
TORSDOF 4
ENDMDL
MODEL      120
REMARK 921   NORMALIZED FREE ENERGY PREDICTED BY IDOCK:   -4.35 KCAL/MOL
REMARK 922        TOTAL FREE ENERGY PREDICTED BY IDOCK:   -6.18 KCAL/MOL
REMARK 923 INTER-LIGAND FREE ENERGY PREDICTED BY IDOCK:   -5.57 KCAL/MOL
REMARK 924 INTRA-LIGAND FREE ENERGY PREDICTED BY IDOCK:   -0.61 KCAL/MOL
REMARK 927      BINDING AFFINITY PREDICTED BY RF-SCORE:    0.00 PKD
ROOT
HETATM    1  C   UNL     1     -10.768   7.351  70.465  1.00  0.00    -0.233 C  
HETATM    2  S   UNL     1     -10.784   7.285  68.658  1.00  0.00    -0.085 SA 
HETATM    3  C   UNL     1     -10.786   5.484  68.613  1.00  0.00    -0.018 C  
HETATM    4  C   UNL     1      -9.768   4.807  69.524  1.00  0.00    -0.271 C  
HETATM    5  CA  UNL     1      -9.208   5.405  70.620  1.00  0.00    -0.148 C  
HETATM    6  CA  UNL     1     -10.190   8.669  71.075  1.00  0.00    -0.220 C  
HETATM    7  C   UNL     1      -8.201   4.655  71.474  1.00  0.00    -0.103 C  
HETATM    8  O   UNL     1      -8.168   7.761  72.441  1.00  0.00    -0.105 OA 
HETATM    9  N   UNL     1      -9.577   6.681  70.952  1.00  0.00    -0.175 N  
HETATM   10  OXT UNL     1      -8.143   3.434  71.529  1.00  0.00    -0.059 OA 
HETATM   11  C   UNL     1      -9.130   7.703  71.713  1.00  0.00    -0.133 C  
HETATM   12  O   UNL     1      -7.348   5.389  72.212  1.00  0.00    -0.089 OA 
ENDROOT
BRANCH   4  13
HETATM   13  C   UNL     1      -9.378   3.479  69.019  1.00  0.00    -0.240 C  
HETATM   14  C   UNL     1      -9.086   3.183  67.741  1.00  0.00    -0.219 C  
HETATM   15  C   UNL     1      -8.637   1.834  67.278  1.00  0.00    -0.110 C  
ENDBRANCH   4  13
BRANCH   6  16
HETATM   16  N   UNL     1      -9.645   9.632  70.093  1.00  0.00    -0.243 N  
HETATM   17  H   UNL     1      -8.650   9.571  69.874  1.00  0.00     0.000 HD 
HETATM   18  C   UNL     1     -10.379  10.603  69.453  1.00  0.00    -0.208 C  
HETATM   19  O   UNL     1     -11.594  10.716  69.574  1.00  0.00    -0.256 OA 
BRANCH  18  20
HETATM   20  CA  UNL     1      -9.505  11.531  68.571  1.00  0.00    -0.174 C  
HETATM   21  H2  UNL     1      -9.878  13.213  69.772  1.00  0.00     0.000 HD 
HETATM   22  N   UNL     1      -9.909  12.949  68.787  1.00  0.00    -0.418 NA 
HETATM   23  H1  UNL     1      -9.334  13.561  68.207  1.00  0.00     0.000 HD 
BRANCH  20  24
HETATM   24  C   UNL     1      -9.578  11.140  67.106  1.00  0.00    -0.192 A  
HETATM   25  C   UNL     1     -10.131  12.040  66.181  1.00  0.00    -0.252 A  
HETATM   26  C   UNL     1     -10.246  11.701  64.830  1.00  0.00    -0.315 A  
HETATM   27  C   UNL     1      -9.796  10.459  64.395  1.00  0.00    -0.328 A  
HETATM   28  C   UNL     1      -9.209   9.567  65.282  1.00  0.00    -0.307 A  
HETATM   29  O   UNL     1      -9.920  10.073  63.095  1.00  0.00    -0.496 OA 
HETATM   30  H   UNL     1      -9.612   9.225  62.798  1.00  0.00     0.000 HD 
HETATM   31  C   UNL     1      -9.092   9.908  66.631  1.00  0.00    -0.171 A  
ENDBRANCH  20  24
ENDBRANCH  18  20
ENDBRANCH   6  16
TORSDOF 4
ENDMDL
MODEL      121
REMARK 921   NORMALIZED FREE ENERGY PREDICTED BY IDOCK:   -4.34 KCAL/MOL
REMARK 922        TOTAL FREE ENERGY PREDICTED BY IDOCK:   -6.17 KCAL/MOL
REMARK 923 INTER-LIGAND FREE ENERGY PREDICTED BY IDOCK:   -6.59 KCAL/MOL
REMARK 924 INTRA-LIGAND FREE ENERGY PREDICTED BY IDOCK:    0.42 KCAL/MOL
REMARK 927      BINDING AFFINITY PREDICTED BY RF-SCORE:    0.00 PKD
ROOT
HETATM    1  C   UNL     1      -7.440  10.079  67.370  1.00  0.00    -0.091 C  
HETATM    2  S   UNL     1      -8.602  11.268  68.082  1.00  0.00    -0.156 SA 
HETATM    3  C   UNL     1      -8.808  10.323  69.602  1.00  0.00    -0.103 C  
HETATM    4  C   UNL     1      -9.056   8.831  69.416  1.00  0.00    -0.145 C  
HETATM    5  CA  UNL     1      -8.712   8.135  68.290  1.00  0.00    -0.133 C  
HETATM    6  CA  UNL     1      -7.353  10.091  65.809  1.00  0.00    -0.117 C  
HETATM    7  C   UNL     1      -8.996   6.647  68.189  1.00  0.00    -0.121 C  
HETATM    8  O   UNL     1      -8.089   7.661  65.234  1.00  0.00    -0.122 OA 
HETATM    9  N   UNL     1      -8.092   8.789  67.258  1.00  0.00    -0.101 N  
HETATM   10  OXT UNL     1      -9.125   5.919  69.164  1.00  0.00    -0.121 OA 
HETATM   11  C   UNL     1      -7.837   8.605  65.944  1.00  0.00    -0.102 C  
HETATM   12  O   UNL     1      -9.092   6.117  66.955  1.00  0.00    -0.116 OA 
ENDROOT
BRANCH   4  13
HETATM   13  C   UNL     1      -9.809   8.255  70.544  1.00  0.00    -0.197 C  
HETATM   14  C   UNL     1     -10.703   8.910  71.303  1.00  0.00    -0.357 C  
HETATM   15  C   UNL     1     -11.490   8.273  72.403  1.00  0.00    -0.463 C  
ENDBRANCH   4  13
BRANCH   6  16
HETATM   16  N   UNL     1      -8.305  10.998  65.131  1.00  0.00    -0.378 N  
HETATM   17  H   UNL     1      -7.958  11.912  64.836  1.00  0.00     0.000 HD 
HETATM   18  C   UNL     1      -9.621  10.703  64.869  1.00  0.00    -0.269 C  
HETATM   19  O   UNL     1     -10.124   9.609  65.103  1.00  0.00    -0.193 OA 
BRANCH  18  20
HETATM   20  CA  UNL     1     -10.393  11.897  64.253  1.00  0.00    -0.321 C  
HETATM   21  H2  UNL     1      -9.391  11.744  62.413  1.00  0.00     0.000 HD 
HETATM   22  N   UNL     1      -9.618  12.456  63.109  1.00  0.00    -0.450 NA 
HETATM   23  H1  UNL     1     -10.125  13.242  62.703  1.00  0.00     0.000 HD 
BRANCH  20  24
HETATM   24  C   UNL     1     -10.704  12.957  65.294  1.00  0.00    -0.318 A  
HETATM   25  C   UNL     1     -10.155  14.242  65.154  1.00  0.00    -0.353 A  
HETATM   26  C   UNL     1     -10.392  15.233  66.110  1.00  0.00    -0.314 A  
HETATM   27  C   UNL     1     -11.191  14.945  67.211  1.00  0.00    -0.345 A  
HETATM   28  C   UNL     1     -11.778  13.695  67.354  1.00  0.00    -0.416 A  
HETATM   29  O   UNL     1     -11.420  15.870  68.185  1.00  0.00    -0.350 OA 
HETATM   30  H   UNL     1     -11.966  15.673  68.936  1.00  0.00     0.000 HD 
HETATM   31  C   UNL     1     -11.543  12.707  66.395  1.00  0.00    -0.441 A  
ENDBRANCH  20  24
ENDBRANCH  18  20
ENDBRANCH   6  16
TORSDOF 4
ENDMDL
MODEL      122
REMARK 921   NORMALIZED FREE ENERGY PREDICTED BY IDOCK:   -4.34 KCAL/MOL
REMARK 922        TOTAL FREE ENERGY PREDICTED BY IDOCK:   -6.17 KCAL/MOL
REMARK 923 INTER-LIGAND FREE ENERGY PREDICTED BY IDOCK:   -5.51 KCAL/MOL
REMARK 924 INTRA-LIGAND FREE ENERGY PREDICTED BY IDOCK:   -0.66 KCAL/MOL
REMARK 927      BINDING AFFINITY PREDICTED BY RF-SCORE:    0.00 PKD
ROOT
HETATM    1  C   UNL     1     -11.377  10.438  67.959  1.00  0.00    -0.204 C  
HETATM    2  S   UNL     1     -11.013  11.771  69.126  1.00  0.00    -0.175 SA 
HETATM    3  C   UNL     1     -11.637  13.053  68.026  1.00  0.00    -0.343 C  
HETATM    4  C   UNL     1     -11.152  12.970  66.583  1.00  0.00    -0.318 C  
HETATM    5  CA  UNL     1     -10.676  11.825  66.003  1.00  0.00    -0.279 C  
HETATM    6  CA  UNL     1     -10.524   9.141  68.148  1.00  0.00    -0.211 C  
HETATM    7  C   UNL     1     -10.213  11.831  64.557  1.00  0.00    -0.284 C  
HETATM    8  O   UNL     1      -9.306   8.987  65.852  1.00  0.00    -0.212 OA 
HETATM    9  N   UNL     1     -10.637  10.667  66.734  1.00  0.00    -0.250 N  
HETATM   10  OXT UNL     1     -10.601  12.645  63.730  1.00  0.00    -0.417 OA 
HETATM   11  C   UNL     1     -10.040   9.456  66.689  1.00  0.00    -0.262 C  
HETATM   12  O   UNL     1      -9.343  10.875  64.182  1.00  0.00    -0.217 OA 
ENDROOT
BRANCH   4  13
HETATM   13  C   UNL     1     -11.151  14.288  65.926  1.00  0.00    -0.310 C  
HETATM   14  C   UNL     1     -10.540  15.392  66.390  1.00  0.00    -0.307 C  
HETATM   15  C   UNL     1     -10.514  16.699  65.664  1.00  0.00    -0.313 C  
ENDBRANCH   4  13
BRANCH   6  16
HETATM   16  N   UNL     1      -9.472   9.224  69.185  1.00  0.00    -0.154 N  
HETATM   17  H   UNL     1      -8.592   9.675  68.930  1.00  0.00     0.000 HD 
HETATM   18  C   UNL     1      -9.590   8.740  70.466  1.00  0.00    -0.191 C  
HETATM   19  O   UNL     1     -10.626   8.255  70.908  1.00  0.00    -0.202 OA 
BRANCH  18  20
HETATM   20  CA  UNL     1      -8.278   8.872  71.281  1.00  0.00    -0.157 C  
HETATM   21  H2  UNL     1      -7.849  10.773  70.499  1.00  0.00     0.000 HD 
HETATM   22  N   UNL     1      -7.386   9.873  70.632  1.00  0.00    -0.313 NA 
HETATM   23  H1  UNL     1      -6.522   9.961  71.168  1.00  0.00     0.000 HD 
BRANCH  20  24
HETATM   24  C   UNL     1      -7.590   7.530  71.452  1.00  0.00    -0.081 A  
HETATM   25  C   UNL     1      -7.849   6.764  72.600  1.00  0.00    -0.100 A  
HETATM   26  C   UNL     1      -7.207   5.541  72.807  1.00  0.00    -0.090 A  
HETATM   27  C   UNL     1      -6.306   5.070  71.858  1.00  0.00    -0.031 A  
HETATM   28  C   UNL     1      -6.061   5.789  70.696  1.00  0.00    -0.030 A  
HETATM   29  O   UNL     1      -5.632   3.900  72.037  1.00  0.00    -0.007 OA 
HETATM   30  H   UNL     1      -5.017   3.579  71.388  1.00  0.00     0.000 HD 
HETATM   31  C   UNL     1      -6.706   7.010  70.488  1.00  0.00    -0.053 A  
ENDBRANCH  20  24
ENDBRANCH  18  20
ENDBRANCH   6  16
TORSDOF 4
ENDMDL
MODEL      123
REMARK 921   NORMALIZED FREE ENERGY PREDICTED BY IDOCK:   -4.34 KCAL/MOL
REMARK 922        TOTAL FREE ENERGY PREDICTED BY IDOCK:   -6.16 KCAL/MOL
REMARK 923 INTER-LIGAND FREE ENERGY PREDICTED BY IDOCK:   -5.43 KCAL/MOL
REMARK 924 INTRA-LIGAND FREE ENERGY PREDICTED BY IDOCK:   -0.74 KCAL/MOL
REMARK 927      BINDING AFFINITY PREDICTED BY RF-SCORE:    0.00 PKD
ROOT
HETATM    1  C   UNL     1      -7.887   5.813  68.013  1.00  0.00    -0.100 C  
HETATM    2  S   UNL     1      -6.634   6.933  68.683  1.00  0.00    -0.056 SA 
HETATM    3  C   UNL     1      -6.810   6.302  70.362  1.00  0.00    -0.055 C  
HETATM    4  C   UNL     1      -8.243   6.161  70.861  1.00  0.00    -0.126 C  
HETATM    5  CA  UNL     1      -9.331   6.058  70.037  1.00  0.00    -0.153 C  
HETATM    6  CA  UNL     1      -8.569   6.297  66.692  1.00  0.00    -0.119 C  
HETATM    7  C   UNL     1     -10.726   5.920  70.620  1.00  0.00    -0.285 C  
HETATM    8  O   UNL     1     -11.061   6.461  67.430  1.00  0.00    -0.363 OA 
HETATM    9  N   UNL     1      -9.150   6.063  68.680  1.00  0.00    -0.117 N  
HETATM   10  OXT UNL     1     -10.947   5.478  71.740  1.00  0.00    -0.240 OA 
HETATM   11  C   UNL     1      -9.877   6.254  67.557  1.00  0.00    -0.120 C  
HETATM   12  O   UNL     1     -11.761   6.294  69.845  1.00  0.00    -0.408 OA 
ENDROOT
BRANCH   4  13
HETATM   13  C   UNL     1      -8.326   6.262  72.328  1.00  0.00    -0.108 C  
HETATM   14  C   UNL     1      -7.902   7.302  73.065  1.00  0.00    -0.113 C  
HETATM   15  C   UNL     1      -8.057   7.392  74.549  1.00  0.00    -0.224 C  
ENDBRANCH   4  13
BRANCH   6  16
HETATM   16  N   UNL     1      -8.169   7.645  66.233  1.00  0.00    -0.114 N  
HETATM   17  H   UNL     1      -7.896   8.324  66.944  1.00  0.00     0.000 HD 
HETATM   18  C   UNL     1      -8.139   8.052  64.920  1.00  0.00    -0.147 C  
HETATM   19  O   UNL     1      -8.367   7.300  63.979  1.00  0.00     0.004 OA 
BRANCH  18  20
HETATM   20  CA  UNL     1      -7.791   9.554  64.766  1.00  0.00    -0.120 C  
HETATM   21  H2  UNL     1      -6.141   9.423  66.059  1.00  0.00     0.000 HD 
HETATM   22  N   UNL     1      -6.973  10.000  65.930  1.00  0.00    -0.106 NA 
HETATM   23  H1  UNL     1      -6.743  10.988  65.829  1.00  0.00     0.000 HD 
BRANCH  20  24
HETATM   24  C   UNL     1      -9.038  10.402  64.596  1.00  0.00    -0.255 A  
HETATM   25  C   UNL     1      -9.391  10.859  63.316  1.00  0.00    -0.324 A  
HETATM   26  C   UNL     1     -10.512  11.671  63.127  1.00  0.00    -0.368 A  
HETATM   27  C   UNL     1     -11.296  12.022  64.221  1.00  0.00    -0.364 A  
HETATM   28  C   UNL     1     -10.992  11.552  65.491  1.00  0.00    -0.290 A  
HETATM   29  O   UNL     1     -12.378  12.839  64.088  1.00  0.00    -0.454 OA 
HETATM   30  H   UNL     1     -12.913  13.078  64.835  1.00  0.00     0.000 HD 
HETATM   31  C   UNL     1      -9.872  10.738  65.678  1.00  0.00    -0.299 A  
ENDBRANCH  20  24
ENDBRANCH  18  20
ENDBRANCH   6  16
TORSDOF 4
ENDMDL
MODEL      124
REMARK 921   NORMALIZED FREE ENERGY PREDICTED BY IDOCK:   -4.33 KCAL/MOL
REMARK 922        TOTAL FREE ENERGY PREDICTED BY IDOCK:   -6.16 KCAL/MOL
REMARK 923 INTER-LIGAND FREE ENERGY PREDICTED BY IDOCK:   -5.15 KCAL/MOL
REMARK 924 INTRA-LIGAND FREE ENERGY PREDICTED BY IDOCK:   -1.02 KCAL/MOL
REMARK 927      BINDING AFFINITY PREDICTED BY RF-SCORE:    0.00 PKD
ROOT
HETATM    1  C   UNL     1      -6.544   6.312  69.297  1.00  0.00    -0.044 C  
HETATM    2  S   UNL     1      -7.634   4.913  69.650  1.00  0.00    -0.056 SA 
HETATM    3  C   UNL     1      -7.809   4.469  67.913  1.00  0.00    -0.081 C  
HETATM    4  C   UNL     1      -8.116   5.627  66.970  1.00  0.00    -0.102 C  
HETATM    5  CA  UNL     1      -7.843   6.936  67.256  1.00  0.00    -0.110 C  
HETATM    6  CA  UNL     1      -6.520   7.426  70.393  1.00  0.00    -0.039 C  
HETATM    7  C   UNL     1      -8.182   8.029  66.257  1.00  0.00    -0.116 C  
HETATM    8  O   UNL     1      -7.363   9.489  69.046  1.00  0.00    -0.070 OA 
HETATM    9  N   UNL     1      -7.244   7.254  68.446  1.00  0.00    -0.088 N  
HETATM   10  OXT UNL     1      -8.295   7.829  65.055  1.00  0.00    -0.142 OA 
HETATM   11  C   UNL     1      -7.050   8.337  69.230  1.00  0.00    -0.060 C  
HETATM   12  O   UNL     1      -8.346   9.275  66.736  1.00  0.00    -0.120 OA 
ENDROOT
BRANCH   4  13
HETATM   13  C   UNL     1      -8.841   5.179  65.768  1.00  0.00    -0.143 C  
HETATM   14  C   UNL     1      -9.927   4.387  65.760  1.00  0.00    -0.251 C  
HETATM   15  C   UNL     1     -10.669   4.002  64.521  1.00  0.00    -0.181 C  
ENDBRANCH   4  13
BRANCH   6  16
HETATM   16  N   UNL     1      -7.468   7.230  71.512  1.00  0.00    -0.081 N  
HETATM   17  H   UNL     1      -7.983   6.350  71.546  1.00  0.00     0.000 HD 
HETATM   18  C   UNL     1      -7.705   8.145  72.510  1.00  0.00    -0.128 C  
HETATM   19  O   UNL     1      -7.086   9.198  72.618  1.00  0.00    -0.299 OA 
BRANCH  18  20
HETATM   20  CA  UNL     1      -8.835   7.701  73.473  1.00  0.00    -0.230 C  
HETATM   21  H2  UNL     1      -7.555   6.466  74.591  1.00  0.00     0.000 HD 
HETATM   22  N   UNL     1      -8.461   6.413  74.123  1.00  0.00    -0.119 NA 
HETATM   23  H1  UNL     1      -9.204   6.120  74.758  1.00  0.00     0.000 HD 
BRANCH  20  24
HETATM   24  C   UNL     1     -10.172   7.605  72.760  1.00  0.00    -0.336 A  
HETATM   25  C   UNL     1     -10.695   8.742  72.122  1.00  0.00    -0.383 A  
HETATM   26  C   UNL     1     -11.938   8.700  71.486  1.00  0.00    -0.362 A  
HETATM   27  C   UNL     1     -12.662   7.513  71.476  1.00  0.00    -0.359 A  
HETATM   28  C   UNL     1     -12.151   6.365  72.065  1.00  0.00    -0.353 A  
HETATM   29  O   UNL     1     -13.893   7.436  70.897  1.00  0.00    -0.623 OA 
HETATM   30  H   UNL     1     -14.388   6.625  70.890  1.00  0.00     0.000 HD 
HETATM   31  C   UNL     1     -10.907   6.407  72.698  1.00  0.00    -0.270 A  
ENDBRANCH  20  24
ENDBRANCH  18  20
ENDBRANCH   6  16
TORSDOF 4
ENDMDL
MODEL      125
REMARK 921   NORMALIZED FREE ENERGY PREDICTED BY IDOCK:   -4.33 KCAL/MOL
REMARK 922        TOTAL FREE ENERGY PREDICTED BY IDOCK:   -6.15 KCAL/MOL
REMARK 923 INTER-LIGAND FREE ENERGY PREDICTED BY IDOCK:   -5.35 KCAL/MOL
REMARK 924 INTRA-LIGAND FREE ENERGY PREDICTED BY IDOCK:   -0.80 KCAL/MOL
REMARK 927      BINDING AFFINITY PREDICTED BY RF-SCORE:    0.00 PKD
ROOT
HETATM    1  C   UNL     1      -9.138   7.349  68.409  1.00  0.00    -0.132 C  
HETATM    2  S   UNL     1      -7.400   7.822  68.250  1.00  0.00    -0.104 SA 
HETATM    3  C   UNL     1      -6.849   6.634  69.488  1.00  0.00    -0.065 C  
HETATM    4  C   UNL     1      -7.658   6.615  70.781  1.00  0.00    -0.092 C  
HETATM    5  CA  UNL     1      -8.941   7.078  70.885  1.00  0.00    -0.152 C  
HETATM    6  CA  UNL     1     -10.165   8.446  67.977  1.00  0.00    -0.212 C  
HETATM    7  C   UNL     1      -9.673   7.020  72.214  1.00  0.00    -0.153 C  
HETATM    8  O   UNL     1     -11.472   8.830  70.196  1.00  0.00    -0.168 OA 
HETATM    9  N   UNL     1      -9.568   7.578  69.775  1.00  0.00    -0.163 N  
HETATM   10  OXT UNL     1      -9.389   6.231  73.105  1.00  0.00    -0.136 OA 
HETATM   11  C   UNL     1     -10.638   8.344  69.470  1.00  0.00    -0.213 C  
HETATM   12  O   UNL     1     -10.693   7.879  72.396  1.00  0.00    -0.255 OA 
ENDROOT
BRANCH   4  13
HETATM   13  C   UNL     1      -6.855   6.146  71.923  1.00  0.00    -0.065 C  
HETATM   14  C   UNL     1      -5.904   6.856  72.554  1.00  0.00    -0.038 C  
HETATM   15  C   UNL     1      -5.150   6.364  73.748  1.00  0.00    -0.040 C  
ENDBRANCH   4  13
BRANCH   6  16
HETATM   16  N   UNL     1      -9.574   9.748  67.598  1.00  0.00    -0.143 N  
HETATM   17  H   UNL     1      -8.996  10.224  68.291  1.00  0.00     0.000 HD 
HETATM   18  C   UNL     1      -9.747  10.366  66.381  1.00  0.00    -0.201 C  
HETATM   19  O   UNL     1     -10.351   9.851  65.447  1.00  0.00    -0.207 OA 
BRANCH  18  20
HETATM   20  CA  UNL     1      -9.100  11.773  66.326  1.00  0.00    -0.206 C  
HETATM   21  H2  UNL     1      -7.150  11.009  66.482  1.00  0.00     0.000 HD 
HETATM   22  N   UNL     1      -7.735  11.719  66.923  1.00  0.00    -0.239 NA 
HETATM   23  H1  UNL     1      -7.309  12.645  66.886  1.00  0.00     0.000 HD 
BRANCH  20  24
HETATM   24  C   UNL     1      -9.971  12.815  67.004  1.00  0.00    -0.231 A  
HETATM   25  C   UNL     1     -11.207  13.156  66.433  1.00  0.00    -0.328 A  
HETATM   26  C   UNL     1     -12.019  14.135  67.010  1.00  0.00    -0.471 A  
HETATM   27  C   UNL     1     -11.601  14.774  68.172  1.00  0.00    -0.332 A  
HETATM   28  C   UNL     1     -10.401  14.429  68.779  1.00  0.00    -0.241 A  
HETATM   29  O   UNL     1     -12.345  15.759  68.749  1.00  0.00    -0.537 OA 
HETATM   30  H   UNL     1     -12.059  16.195  69.543  1.00  0.00     0.000 HD 
HETATM   31  C   UNL     1      -9.592  13.447  68.203  1.00  0.00    -0.222 A  
ENDBRANCH  20  24
ENDBRANCH  18  20
ENDBRANCH   6  16
TORSDOF 4
ENDMDL
MODEL      126
REMARK 921   NORMALIZED FREE ENERGY PREDICTED BY IDOCK:   -4.31 KCAL/MOL
REMARK 922        TOTAL FREE ENERGY PREDICTED BY IDOCK:   -6.13 KCAL/MOL
REMARK 923 INTER-LIGAND FREE ENERGY PREDICTED BY IDOCK:   -7.06 KCAL/MOL
REMARK 924 INTRA-LIGAND FREE ENERGY PREDICTED BY IDOCK:    0.93 KCAL/MOL
REMARK 927      BINDING AFFINITY PREDICTED BY RF-SCORE:    0.00 PKD
ROOT
HETATM    1  C   UNL     1      -6.969   9.448  68.057  1.00  0.00    -0.079 C  
HETATM    2  S   UNL     1      -6.970  10.441  69.568  1.00  0.00    -0.117 SA 
HETATM    3  C   UNL     1      -7.452   9.053  70.611  1.00  0.00    -0.110 C  
HETATM    4  C   UNL     1      -8.614   8.216  70.088  1.00  0.00    -0.129 C  
HETATM    5  CA  UNL     1      -8.993   8.173  68.775  1.00  0.00    -0.144 C  
HETATM    6  CA  UNL     1      -7.171  10.256  66.734  1.00  0.00    -0.105 C  
HETATM    7  C   UNL     1     -10.165   7.310  68.340  1.00  0.00    -0.180 C  
HETATM    8  O   UNL     1      -9.363   9.195  65.813  1.00  0.00    -0.216 OA 
HETATM    9  N   UNL     1      -8.295   8.901  67.849  1.00  0.00    -0.117 N  
HETATM   10  OXT UNL     1     -10.549   6.332  68.968  1.00  0.00    -0.209 OA 
HETATM   11  C   UNL     1      -8.451   9.361  66.588  1.00  0.00    -0.126 C  
HETATM   12  O   UNL     1     -10.790   7.645  67.197  1.00  0.00    -0.317 OA 
ENDROOT
BRANCH   4  13
HETATM   13  C   UNL     1      -9.347   7.552  71.180  1.00  0.00    -0.155 C  
HETATM   14  C   UNL     1      -9.789   8.147  72.301  1.00  0.00    -0.329 C  
HETATM   15  C   UNL     1     -10.580   7.450  73.361  1.00  0.00    -0.427 C  
ENDBRANCH   4  13
BRANCH   6  16
HETATM   16  N   UNL     1      -7.437  11.701  66.911  1.00  0.00    -0.212 N  
HETATM   17  H   UNL     1      -6.696  12.353  66.653  1.00  0.00     0.000 HD 
HETATM   18  C   UNL     1      -8.609  12.230  67.398  1.00  0.00    -0.178 C  
HETATM   19  O   UNL     1      -9.595  11.550  67.662  1.00  0.00    -0.167 OA 
BRANCH  18  20
HETATM   20  CA  UNL     1      -8.543  13.768  67.577  1.00  0.00    -0.193 C  
HETATM   21  H2  UNL     1      -8.465  13.636  69.672  1.00  0.00     0.000 HD 
HETATM   22  N   UNL     1      -8.993  14.130  68.952  1.00  0.00    -0.372 NA 
HETATM   23  H1  UNL     1      -8.949  15.143  69.070  1.00  0.00     0.000 HD 
BRANCH  20  24
HETATM   24  C   UNL     1      -9.348  14.490  66.512  1.00  0.00    -0.307 A  
HETATM   25  C   UNL     1      -9.290  15.891  66.437  1.00  0.00    -0.329 A  
HETATM   26  C   UNL     1     -10.045  16.591  65.492  1.00  0.00    -0.203 A  
HETATM   27  C   UNL     1     -10.857  15.889  64.607  1.00  0.00    -0.211 A  
HETATM   28  C   UNL     1     -10.902  14.502  64.635  1.00  0.00    -0.351 A  
HETATM   29  O   UNL     1     -11.635  16.533  63.693  1.00  0.00    -1.468 OA 
HETATM   30  H   UNL     1     -12.189  16.053  63.089  1.00  0.00     0.000 HD 
HETATM   31  C   UNL     1     -10.145  13.803  65.577  1.00  0.00    -0.303 A  
ENDBRANCH  20  24
ENDBRANCH  18  20
ENDBRANCH   6  16
TORSDOF 4
ENDMDL
MODEL      127
REMARK 921   NORMALIZED FREE ENERGY PREDICTED BY IDOCK:   -4.30 KCAL/MOL
REMARK 922        TOTAL FREE ENERGY PREDICTED BY IDOCK:   -6.12 KCAL/MOL
REMARK 923 INTER-LIGAND FREE ENERGY PREDICTED BY IDOCK:   -6.89 KCAL/MOL
REMARK 924 INTRA-LIGAND FREE ENERGY PREDICTED BY IDOCK:    0.78 KCAL/MOL
REMARK 927      BINDING AFFINITY PREDICTED BY RF-SCORE:    0.00 PKD
ROOT
HETATM    1  C   UNL     1      -9.335  13.528  67.246  1.00  0.00    -0.233 C  
HETATM    2  S   UNL     1      -8.627  12.288  68.357  1.00  0.00    -0.090 SA 
HETATM    3  C   UNL     1      -7.774  11.423  67.027  1.00  0.00    -0.154 C  
HETATM    4  C   UNL     1      -8.614  11.138  65.788  1.00  0.00    -0.113 C  
HETATM    5  CA  UNL     1      -9.746  11.832  65.457  1.00  0.00    -0.224 C  
HETATM    6  CA  UNL     1     -10.636  14.219  67.767  1.00  0.00    -0.253 C  
HETATM    7  C   UNL     1     -10.523  11.482  64.201  1.00  0.00    -0.353 C  
HETATM    8  O   UNL     1     -12.347  13.557  65.919  1.00  0.00    -0.438 OA 
HETATM    9  N   UNL     1     -10.162  12.861  66.259  1.00  0.00    -0.272 N  
HETATM   10  OXT UNL     1     -10.024  10.918  63.236  1.00  0.00    -0.322 OA 
HETATM   11  C   UNL     1     -11.277  13.592  66.479  1.00  0.00    -0.306 C  
HETATM   12  O   UNL     1     -11.822  11.830  64.160  1.00  0.00    -0.327 OA 
ENDROOT
BRANCH   4  13
HETATM   13  C   UNL     1      -8.128   9.956  65.054  1.00  0.00    -0.140 C  
HETATM   14  C   UNL     1      -6.892   9.804  64.549  1.00  0.00    -0.118 C  
HETATM   15  C   UNL     1      -6.419   8.564  63.860  1.00  0.00    -0.072 C  
ENDBRANCH   4  13
BRANCH   6  16
HETATM   16  N   UNL     1     -11.162  13.691  69.045  1.00  0.00    -0.263 N  
HETATM   17  H   UNL     1     -10.984  14.236  69.890  1.00  0.00     0.000 HD 
HETATM   18  C   UNL     1     -11.873  12.522  69.180  1.00  0.00    -0.296 C  
HETATM   19  O   UNL     1     -12.216  11.831  68.228  1.00  0.00    -0.486 OA 
BRANCH  18  20
HETATM   20  CA  UNL     1     -12.185  12.178  70.659  1.00  0.00    -0.300 C  
HETATM   21  H2  UNL     1     -12.753  10.209  70.200  1.00  0.00     0.000 HD 
HETATM   22  N   UNL     1     -13.114  11.013  70.715  1.00  0.00    -0.159 NA 
HETATM   23  H1  UNL     1     -13.320  10.786  71.688  1.00  0.00     0.000 HD 
BRANCH  20  24
HETATM   24  C   UNL     1     -12.740  13.377  71.406  1.00  0.00    -0.411 A  
HETATM   25  C   UNL     1     -12.167  13.749  72.633  1.00  0.00     0.460 A  
HETATM   26  C   UNL     1     -12.674  14.826  73.365  1.00  0.00    -0.588 A  
HETATM   27  C   UNL     1     -13.755  15.545  72.867  1.00  0.00    -0.512 A  
HETATM   28  C   UNL     1     -14.315  15.223  71.639  1.00  0.00    -0.666 A  
HETATM   29  O   UNL     1     -14.302  16.579  73.564  1.00  0.00    -0.384 OA 
HETATM   30  H   UNL     1     -15.041  17.070  73.223  1.00  0.00     0.000 HD 
HETATM   31  C   UNL     1     -13.806  14.148  70.906  1.00  0.00     0.128 A  
ENDBRANCH  20  24
ENDBRANCH  18  20
ENDBRANCH   6  16
TORSDOF 4
ENDMDL
MODEL      128
REMARK 921   NORMALIZED FREE ENERGY PREDICTED BY IDOCK:   -4.24 KCAL/MOL
REMARK 922        TOTAL FREE ENERGY PREDICTED BY IDOCK:   -6.05 KCAL/MOL
REMARK 923 INTER-LIGAND FREE ENERGY PREDICTED BY IDOCK:   -5.49 KCAL/MOL
REMARK 924 INTRA-LIGAND FREE ENERGY PREDICTED BY IDOCK:   -0.56 KCAL/MOL
REMARK 927      BINDING AFFINITY PREDICTED BY RF-SCORE:    0.00 PKD
ROOT
HETATM    1  C   UNL     1     -10.299   7.847  71.322  1.00  0.00    -0.191 C  
HETATM    2  S   UNL     1     -11.335   7.096  70.043  1.00  0.00    -0.161 SA 
HETATM    3  C   UNL     1     -10.585   5.469  70.236  1.00  0.00    -0.287 C  
HETATM    4  C   UNL     1      -9.061   5.453  70.277  1.00  0.00    -0.166 C  
HETATM    5  CA  UNL     1      -8.295   6.538  70.606  1.00  0.00    -0.133 C  
HETATM    6  CA  UNL     1     -10.115   9.395  71.200  1.00  0.00    -0.265 C  
HETATM    7  C   UNL     1      -6.780   6.433  70.623  1.00  0.00    -0.057 C  
HETATM    8  O   UNL     1      -7.535   9.585  70.909  1.00  0.00    -0.259 OA 
HETATM    9  N   UNL     1      -8.907   7.717  70.939  1.00  0.00    -0.141 N  
HETATM   10  OXT UNL     1      -6.181   5.377  70.774  1.00  0.00    -0.024 OA 
HETATM   11  C   UNL     1      -8.597   9.027  71.052  1.00  0.00    -0.210 C  
HETATM   12  O   UNL     1      -6.080   7.573  70.477  1.00  0.00    -0.030 OA 
ENDROOT
BRANCH   4  13
HETATM   13  C   UNL     1      -8.512   4.168  69.811  1.00  0.00    -0.087 C  
HETATM   14  C   UNL     1      -8.902   3.504  68.710  1.00  0.00    -0.161 C  
HETATM   15  C   UNL     1      -8.280   2.229  68.239  1.00  0.00    -0.072 C  
ENDBRANCH   4  13
BRANCH   6  16
HETATM   16  N   UNL     1     -10.727  10.011  70.003  1.00  0.00    -0.278 N  
HETATM   17  H   UNL     1     -10.615   9.524  69.112  1.00  0.00     0.000 HD 
HETATM   18  C   UNL     1     -11.436  11.189  69.999  1.00  0.00    -0.292 C  
HETATM   19  O   UNL     1     -11.703  11.815  71.019  1.00  0.00     0.139 OA 
BRANCH  18  20
HETATM   20  CA  UNL     1     -11.851  11.634  68.574  1.00  0.00    -0.292 C  
HETATM   21  H2  UNL     1     -11.633   9.702  67.782  1.00  0.00     0.000 HD 
HETATM   22  N   UNL     1     -11.336  10.656  67.575  1.00  0.00    -0.447 NA 
HETATM   23  H1  UNL     1     -11.610  10.948  66.637  1.00  0.00     0.000 HD 
BRANCH  20  24
HETATM   24  C   UNL     1     -11.385  13.047  68.272  1.00  0.00    -0.323 A  
HETATM   25  C   UNL     1     -10.294  13.242  67.410  1.00  0.00    -0.243 A  
HETATM   26  C   UNL     1      -9.816  14.526  67.136  1.00  0.00    -0.245 A  
HETATM   27  C   UNL     1     -10.435  15.626  67.719  1.00  0.00    -0.273 A  
HETATM   28  C   UNL     1     -11.540  15.464  68.544  1.00  0.00    -0.373 A  
HETATM   29  O   UNL     1      -9.980  16.893  67.508  1.00  0.00    -0.256 OA 
HETATM   30  H   UNL     1     -10.404  17.644  67.905  1.00  0.00     0.000 HD 
HETATM   31  C   UNL     1     -12.019  14.180  68.814  1.00  0.00    -0.367 A  
ENDBRANCH  20  24
ENDBRANCH  18  20
ENDBRANCH   6  16
TORSDOF 4
ENDMDL
MODEL      129
REMARK 921   NORMALIZED FREE ENERGY PREDICTED BY IDOCK:   -4.20 KCAL/MOL
REMARK 922        TOTAL FREE ENERGY PREDICTED BY IDOCK:   -6.00 KCAL/MOL
REMARK 923 INTER-LIGAND FREE ENERGY PREDICTED BY IDOCK:   -6.17 KCAL/MOL
REMARK 924 INTRA-LIGAND FREE ENERGY PREDICTED BY IDOCK:    0.17 KCAL/MOL
REMARK 927      BINDING AFFINITY PREDICTED BY RF-SCORE:    0.00 PKD
ROOT
HETATM    1  C   UNL     1      -7.660   9.342  69.461  1.00  0.00    -0.081 C  
HETATM    2  S   UNL     1      -9.335   9.203  70.128  1.00  0.00    -0.227 SA 
HETATM    3  C   UNL     1      -8.913   7.815  71.197  1.00  0.00    -0.138 C  
HETATM    4  C   UNL     1      -8.118   6.696  70.532  1.00  0.00    -0.117 C  
HETATM    5  CA  UNL     1      -7.373   6.860  69.397  1.00  0.00    -0.091 C  
HETATM    6  CA  UNL     1      -7.560  10.022  68.057  1.00  0.00    -0.088 C  
HETATM    7  C   UNL     1      -6.611   5.690  68.802  1.00  0.00    -0.048 C  
HETATM    8  O   UNL     1      -6.511   8.112  66.632  1.00  0.00    -0.053 OA 
HETATM    9  N   UNL     1      -7.305   8.096  68.809  1.00  0.00    -0.086 N  
HETATM   10  OXT UNL     1      -6.258   4.716  69.453  1.00  0.00    -0.025 OA 
HETATM   11  C   UNL     1      -6.958   8.640  67.623  1.00  0.00    -0.075 C  
HETATM   12  O   UNL     1      -6.304   5.752  67.493  1.00  0.00    -0.038 OA 
ENDROOT
BRANCH   4  13
HETATM   13  C   UNL     1      -8.340   5.398  71.193  1.00  0.00    -0.124 C  
HETATM   14  C   UNL     1      -9.318   5.126  72.073  1.00  0.00    -0.164 C  
HETATM   15  C   UNL     1      -9.545   3.778  72.678  1.00  0.00    -0.187 C  
ENDBRANCH   4  13
BRANCH   6  16
HETATM   16  N   UNL     1      -8.855  10.363  67.428  1.00  0.00    -0.132 N  
HETATM   17  H   UNL     1      -9.373   9.609  66.974  1.00  0.00     0.000 HD 
HETATM   18  C   UNL     1      -9.414  11.619  67.409  1.00  0.00    -0.167 C  
HETATM   19  O   UNL     1      -8.925  12.581  67.992  1.00  0.00    -0.179 OA 
BRANCH  18  20
HETATM   20  CA  UNL     1     -10.719  11.682  66.575  1.00  0.00    -0.272 C  
HETATM   21  H2  UNL     1     -10.585   9.667  66.000  1.00  0.00     0.000 HD 
HETATM   22  N   UNL     1     -10.722  10.582  65.570  1.00  0.00    -0.064 NA 
HETATM   23  H1  UNL     1     -11.581  10.623  65.020  1.00  0.00     0.000 HD 
BRANCH  20  24
HETATM   24  C   UNL     1     -10.900  13.041  65.924  1.00  0.00    -0.291 A  
HETATM   25  C   UNL     1     -12.081  13.312  65.214  1.00  0.00    -0.456 A  
HETATM   26  C   UNL     1     -12.267  14.540  64.573  1.00  0.00    -0.483 A  
HETATM   27  C   UNL     1     -11.273  15.509  64.647  1.00  0.00    -0.371 A  
HETATM   28  C   UNL     1     -10.113  15.282  65.374  1.00  0.00    -0.397 A  
HETATM   29  O   UNL     1     -11.398  16.706  64.008  1.00  0.00    -1.486 OA 
HETATM   30  H   UNL     1     -10.719  17.368  64.059  1.00  0.00     0.000 HD 
HETATM   31  C   UNL     1      -9.929  14.056  66.018  1.00  0.00    -0.331 A  
ENDBRANCH  20  24
ENDBRANCH  18  20
ENDBRANCH   6  16
TORSDOF 4
ENDMDL
MODEL      130
REMARK 921   NORMALIZED FREE ENERGY PREDICTED BY IDOCK:   -4.19 KCAL/MOL
REMARK 922        TOTAL FREE ENERGY PREDICTED BY IDOCK:   -5.99 KCAL/MOL
REMARK 923 INTER-LIGAND FREE ENERGY PREDICTED BY IDOCK:   -5.38 KCAL/MOL
REMARK 924 INTRA-LIGAND FREE ENERGY PREDICTED BY IDOCK:   -0.61 KCAL/MOL
REMARK 927      BINDING AFFINITY PREDICTED BY RF-SCORE:    0.00 PKD
ROOT
HETATM    1  C   UNL     1      -8.123  10.314  68.447  1.00  0.00    -0.109 C  
HETATM    2  S   UNL     1      -7.927   9.556  66.817  1.00  0.00    -0.109 SA 
HETATM    3  C   UNL     1      -8.610  10.981  65.951  1.00  0.00    -0.165 C  
HETATM    4  C   UNL     1      -9.905  11.538  66.529  1.00  0.00    -0.228 C  
HETATM    5  CA  UNL     1     -10.315  11.335  67.819  1.00  0.00    -0.182 C  
HETATM    6  CA  UNL     1      -8.217   9.306  69.639  1.00  0.00    -0.126 C  
HETATM    7  C   UNL     1     -11.622  11.929  68.313  1.00  0.00    -0.327 C  
HETATM    8  O   UNL     1     -10.574   9.862  70.596  1.00  0.00    -0.296 OA 
HETATM    9  N   UNL     1      -9.526  10.606  68.668  1.00  0.00    -0.169 N  
HETATM   10  OXT UNL     1     -12.149  12.911  67.806  1.00  0.00    -0.312 OA 
HETATM   11  C   UNL     1      -9.631   9.955  69.847  1.00  0.00    -0.227 C  
HETATM   12  O   UNL     1     -12.207  11.341  69.372  1.00  0.00    -0.317 OA 
ENDROOT
BRANCH   4  13
HETATM   13  C   UNL     1     -10.714  12.222  65.505  1.00  0.00    -0.314 C  
HETATM   14  C   UNL     1     -11.289  11.635  64.442  1.00  0.00    -0.334 C  
HETATM   15  C   UNL     1     -12.152  12.355  63.456  1.00  0.00    -0.651 C  
ENDBRANCH   4  13
BRANCH   6  16
HETATM   16  N   UNL     1      -8.237   7.877  69.257  1.00  0.00    -0.126 N  
HETATM   17  H   UNL     1      -8.998   7.560  68.655  1.00  0.00     0.000 HD 
HETATM   18  C   UNL     1      -7.307   6.945  69.652  1.00  0.00    -0.086 C  
HETATM   19  O   UNL     1      -6.309   7.227  70.305  1.00  0.00    -0.033 OA 
BRANCH  18  20
HETATM   20  CA  UNL     1      -7.662   5.510  69.186  1.00  0.00    -0.087 C  
HETATM   21  H2  UNL     1      -7.900   6.096  67.183  1.00  0.00     0.000 HD 
HETATM   22  N   UNL     1      -8.408   5.574  67.897  1.00  0.00    -0.100 NA 
HETATM   23  H1  UNL     1      -8.642   4.630  67.589  1.00  0.00     0.000 HD 
BRANCH  20  24
HETATM   24  C   UNL     1      -8.436   4.753  70.249  1.00  0.00    -0.095 A  
HETATM   25  C   UNL     1      -8.902   3.458  69.969  1.00  0.00    -0.151 A  
HETATM   26  C   UNL     1      -9.648   2.744  70.911  1.00  0.00    -0.202 A  
HETATM   27  C   UNL     1      -9.924   3.321  72.146  1.00  0.00    -0.161 A  
HETATM   28  C   UNL     1      -9.443   4.584  72.462  1.00  0.00    -0.173 A  
HETATM   29  O   UNL     1     -10.677   2.675  73.080  1.00  0.00    -0.159 OA 
HETATM   30  H   UNL     1     -10.865   3.070  73.923  1.00  0.00     0.000 HD 
HETATM   31  C   UNL     1      -8.695   5.295  71.521  1.00  0.00    -0.140 A  
ENDBRANCH  20  24
ENDBRANCH  18  20
ENDBRANCH   6  16
TORSDOF 4
ENDMDL
MODEL      131
REMARK 921   NORMALIZED FREE ENERGY PREDICTED BY IDOCK:   -4.16 KCAL/MOL
REMARK 922        TOTAL FREE ENERGY PREDICTED BY IDOCK:   -5.94 KCAL/MOL
REMARK 923 INTER-LIGAND FREE ENERGY PREDICTED BY IDOCK:   -5.58 KCAL/MOL
REMARK 924 INTRA-LIGAND FREE ENERGY PREDICTED BY IDOCK:   -0.37 KCAL/MOL
REMARK 927      BINDING AFFINITY PREDICTED BY RF-SCORE:    0.00 PKD
ROOT
HETATM    1  C   UNL     1      -6.382   7.662  67.874  1.00  0.00    -0.050 C  
HETATM    2  S   UNL     1      -6.236   8.893  69.191  1.00  0.00    -0.043 SA 
HETATM    3  C   UNL     1      -5.486   7.730  70.345  1.00  0.00    -0.023 C  
HETATM    4  C   UNL     1      -6.183   6.379  70.457  1.00  0.00    -0.039 C  
HETATM    5  CA  UNL     1      -7.002   5.861  69.491  1.00  0.00    -0.063 C  
HETATM    6  CA  UNL     1      -7.488   7.959  66.810  1.00  0.00    -0.090 C  
HETATM    7  C   UNL     1      -7.656   4.504  69.684  1.00  0.00    -0.054 C  
HETATM    8  O   UNL     1      -9.028   5.876  67.073  1.00  0.00    -0.115 OA 
HETATM    9  N   UNL     1      -7.214   6.569  68.338  1.00  0.00    -0.083 N  
HETATM   10  OXT UNL     1      -7.207   3.641  70.426  1.00  0.00    -0.040 OA 
HETATM   11  C   UNL     1      -8.088   6.598  67.308  1.00  0.00    -0.121 C  
HETATM   12  O   UNL     1      -8.777   4.253  68.984  1.00  0.00    -0.081 OA 
ENDROOT
BRANCH   4  13
HETATM   13  C   UNL     1      -5.959   5.753  71.771  1.00  0.00    -0.034 C  
HETATM   14  C   UNL     1      -5.809   6.409  72.934  1.00  0.00    -0.042 C  
HETATM   15  C   UNL     1      -5.641   5.733  74.258  1.00  0.00    -0.048 C  
ENDBRANCH   4  13
BRANCH   6  16
HETATM   16  N   UNL     1      -8.325   9.147  67.085  1.00  0.00    -0.116 N  
HETATM   17  H   UNL     1      -7.980   9.820  67.771  1.00  0.00     0.000 HD 
HETATM   18  C   UNL     1      -9.533   9.414  66.485  1.00  0.00    -0.190 C  
HETATM   19  O   UNL     1     -10.006   8.722  65.590  1.00  0.00    -0.029 OA 
BRANCH  18  20
HETATM   20  CA  UNL     1     -10.225  10.673  67.065  1.00  0.00    -0.220 C  
HETATM   21  H2  UNL     1     -10.905   9.654  68.772  1.00  0.00     0.000 HD 
HETATM   22  N   UNL     1     -11.276  10.261  68.040  1.00  0.00    -0.463 NA 
HETATM   23  H1  UNL     1     -11.732  11.089  68.423  1.00  0.00     0.000 HD 
BRANCH  20  24
HETATM   24  C   UNL     1     -10.790  11.556  65.968  1.00  0.00    -0.330 A  
HETATM   25  C   UNL     1     -11.917  12.350  66.235  1.00  0.00    -0.369 A  
HETATM   26  C   UNL     1     -12.485  13.149  65.239  1.00  0.00    -0.550 A  
HETATM   27  C   UNL     1     -11.920  13.164  63.968  1.00  0.00    -0.460 A  
HETATM   28  C   UNL     1     -10.783  12.418  63.688  1.00  0.00    -0.497 A  
HETATM   29  O   UNL     1     -12.462  13.901  62.958  1.00  0.00    -1.099 OA 
HETATM   30  H   UNL     1     -12.075  13.911  62.091  1.00  0.00     0.000 HD 
HETATM   31  C   UNL     1     -10.215  11.623  64.685  1.00  0.00    -0.327 A  
ENDBRANCH  20  24
ENDBRANCH  18  20
ENDBRANCH   6  16
TORSDOF 4
ENDMDL
MODEL      132
REMARK 921   NORMALIZED FREE ENERGY PREDICTED BY IDOCK:   -4.13 KCAL/MOL
REMARK 922        TOTAL FREE ENERGY PREDICTED BY IDOCK:   -5.91 KCAL/MOL
REMARK 923 INTER-LIGAND FREE ENERGY PREDICTED BY IDOCK:   -5.10 KCAL/MOL
REMARK 924 INTRA-LIGAND FREE ENERGY PREDICTED BY IDOCK:   -0.80 KCAL/MOL
REMARK 927      BINDING AFFINITY PREDICTED BY RF-SCORE:    0.00 PKD
ROOT
HETATM    1  C   UNL     1     -11.729  15.077  68.392  1.00  0.00    -0.317 C  
HETATM    2  S   UNL     1     -10.209  15.241  69.358  1.00  0.00    -0.260 SA 
HETATM    3  C   UNL     1     -10.039  16.998  68.999  1.00  0.00    -0.290 C  
HETATM    4  C   UNL     1     -10.216  17.386  67.535  1.00  0.00    -0.332 C  
HETATM    5  CA  UNL     1     -10.886  16.622  66.619  1.00  0.00    -0.024 C  
HETATM    6  CA  UNL     1     -12.033  13.634  67.875  1.00  0.00    -0.347 C  
HETATM    7  C   UNL     1     -11.015  17.086  65.179  1.00  0.00    -0.010 C  
HETATM    8  O   UNL     1     -12.042  14.002  65.297  1.00  0.00    -0.369 OA 
HETATM    9  N   UNL     1     -11.456  15.442  67.016  1.00  0.00    -0.183 N  
HETATM   10  OXT UNL     1     -10.940  18.260  64.841  1.00  0.00    -0.660 OA 
HETATM   11  C   UNL     1     -11.936  14.308  66.461  1.00  0.00    -0.427 C  
HETATM   12  O   UNL     1     -11.237  16.145  64.244  1.00  0.00    -0.660 OA 
ENDROOT
BRANCH   4  13
HETATM   13  C   UNL     1      -9.484  18.621  67.202  1.00  0.00    -0.308 C  
HETATM   14  C   UNL     1      -9.592  19.792  67.851  1.00  0.00    -0.482 C  
HETATM   15  C   UNL     1      -8.788  21.008  67.518  1.00  0.00    -0.014 C  
ENDBRANCH   4  13
BRANCH   6  16
HETATM   16  N   UNL     1     -10.986  12.628  68.160  1.00  0.00    -0.225 N  
HETATM   17  H   UNL     1     -10.271  12.873  68.846  1.00  0.00     0.000 HD 
HETATM   18  C   UNL     1     -10.905  11.389  67.570  1.00  0.00    -0.244 C  
HETATM   19  O   UNL     1     -11.752  10.956  66.796  1.00  0.00    -0.174 OA 
BRANCH  18  20
HETATM   20  CA  UNL     1      -9.632  10.609  67.987  1.00  0.00    -0.157 C  
HETATM   21  H2  UNL     1     -10.732   9.105  68.957  1.00  0.00     0.000 HD 
HETATM   22  N   UNL     1      -9.945   9.726  69.147  1.00  0.00    -0.179 NA 
HETATM   23  H1  UNL     1      -9.108   9.212  69.422  1.00  0.00     0.000 HD 
BRANCH  20  24
HETATM   24  C   UNL     1      -8.476  11.545  68.288  1.00  0.00    -0.159 A  
HETATM   25  C   UNL     1      -7.867  12.246  67.234  1.00  0.00    -0.171 A  
HETATM   26  C   UNL     1      -6.778  13.090  67.469  1.00  0.00    -0.156 A  
HETATM   27  C   UNL     1      -6.298  13.245  68.765  1.00  0.00    -0.094 A  
HETATM   28  C   UNL     1      -6.907  12.595  69.829  1.00  0.00     0.261 A  
HETATM   29  O   UNL     1      -5.218  14.031  69.033  1.00  0.00    -0.074 OA 
HETATM   30  H   UNL     1      -4.891  14.137  69.919  1.00  0.00     0.000 HD 
HETATM   31  C   UNL     1      -7.997  11.755  69.594  1.00  0.00     0.951 A  
ENDBRANCH  20  24
ENDBRANCH  18  20
ENDBRANCH   6  16
TORSDOF 4
ENDMDL
MODEL      133
REMARK 921   NORMALIZED FREE ENERGY PREDICTED BY IDOCK:   -4.12 KCAL/MOL
REMARK 922        TOTAL FREE ENERGY PREDICTED BY IDOCK:   -5.89 KCAL/MOL
REMARK 923 INTER-LIGAND FREE ENERGY PREDICTED BY IDOCK:   -5.28 KCAL/MOL
REMARK 924 INTRA-LIGAND FREE ENERGY PREDICTED BY IDOCK:   -0.61 KCAL/MOL
REMARK 927      BINDING AFFINITY PREDICTED BY RF-SCORE:    0.00 PKD
ROOT
HETATM    1  C   UNL     1      -9.980   7.914  71.024  1.00  0.00    -0.181 C  
HETATM    2  S   UNL     1     -10.849   7.579  69.473  1.00  0.00    -0.120 SA 
HETATM    3  C   UNL     1     -11.030   5.822  69.827  1.00  0.00    -0.327 C  
HETATM    4  C   UNL     1      -9.769   5.119  70.316  1.00  0.00    -0.272 C  
HETATM    5  CA  UNL     1      -8.710   5.767  70.891  1.00  0.00    -0.134 C  
HETATM    6  CA  UNL     1      -9.070   9.185  71.011  1.00  0.00    -0.237 C  
HETATM    7  C   UNL     1      -7.490   4.988  71.352  1.00  0.00    -0.086 C  
HETATM    8  O   UNL     1      -6.732   8.148  71.502  1.00  0.00    -0.049 OA 
HETATM    9  N   UNL     1      -8.765   7.124  71.066  1.00  0.00    -0.140 N  
HETATM   10  OXT UNL     1      -7.521   3.799  71.640  1.00  0.00    -0.052 OA 
HETATM   11  C   UNL     1      -7.925   8.154  71.307  1.00  0.00    -0.099 C  
HETATM   12  O   UNL     1      -6.330   5.661  71.456  1.00  0.00    -0.040 OA 
ENDROOT
BRANCH   4  13
HETATM   13  C   UNL     1      -9.780   3.682  69.993  1.00  0.00    -0.180 C  
HETATM   14  C   UNL     1      -9.527   3.151  68.785  1.00  0.00    -0.191 C  
HETATM   15  C   UNL     1      -9.491   1.681  68.511  1.00  0.00    -0.234 C  
ENDBRANCH   4  13
BRANCH   6  16
HETATM   16  N   UNL     1      -8.967   9.874  69.707  1.00  0.00    -0.231 N  
HETATM   17  H   UNL     1      -9.722   9.731  69.036  1.00  0.00     0.000 HD 
HETATM   18  C   UNL     1      -7.929  10.693  69.330  1.00  0.00    -0.135 C  
HETATM   19  O   UNL     1      -7.010  11.003  70.081  1.00  0.00    -0.159 OA 
BRANCH  18  20
HETATM   20  CA  UNL     1      -8.047  11.175  67.862  1.00  0.00    -0.119 C  
HETATM   21  H2  UNL     1      -5.971  11.411  67.651  1.00  0.00     0.000 HD 
HETATM   22  N   UNL     1      -6.826  11.943  67.488  1.00  0.00    -0.111 NA 
HETATM   23  H1  UNL     1      -6.903  12.260  66.521  1.00  0.00     0.000 HD 
BRANCH  20  24
HETATM   24  C   UNL     1      -9.312  11.983  67.639  1.00  0.00    -0.185 A  
HETATM   25  C   UNL     1     -10.385  11.403  66.943  1.00  0.00    -0.262 A  
HETATM   26  C   UNL     1     -11.552  12.129  66.689  1.00  0.00    -0.416 A  
HETATM   27  C   UNL     1     -11.655  13.441  67.141  1.00  0.00    -0.358 A  
HETATM   28  C   UNL     1     -10.624  14.024  67.865  1.00  0.00    -0.246 A  
HETATM   29  O   UNL     1     -12.759  14.196  66.885  1.00  0.00    -0.496 OA 
HETATM   30  H   UNL     1     -12.830  15.091  67.194  1.00  0.00     0.000 HD 
HETATM   31  C   UNL     1      -9.460  13.297  68.121  1.00  0.00    -0.222 A  
ENDBRANCH  20  24
ENDBRANCH  18  20
ENDBRANCH   6  16
TORSDOF 4
ENDMDL
MODEL      134
REMARK 921   NORMALIZED FREE ENERGY PREDICTED BY IDOCK:   -4.10 KCAL/MOL
REMARK 922        TOTAL FREE ENERGY PREDICTED BY IDOCK:   -5.88 KCAL/MOL
REMARK 923 INTER-LIGAND FREE ENERGY PREDICTED BY IDOCK:   -5.32 KCAL/MOL
REMARK 924 INTRA-LIGAND FREE ENERGY PREDICTED BY IDOCK:   -0.56 KCAL/MOL
REMARK 927      BINDING AFFINITY PREDICTED BY RF-SCORE:    0.00 PKD
ROOT
HETATM    1  C   UNL     1      -9.364   9.150  65.920  1.00  0.00    -0.243 C  
HETATM    2  S   UNL     1      -7.685   9.576  65.398  1.00  0.00    -0.113 SA 
HETATM    3  C   UNL     1      -7.104   7.873  65.498  1.00  0.00    -0.060 C  
HETATM    4  C   UNL     1      -7.483   7.127  66.773  1.00  0.00    -0.089 C  
HETATM    5  CA  UNL     1      -8.530   7.479  67.580  1.00  0.00    -0.119 C  
HETATM    6  CA  UNL     1     -10.176  10.322  66.561  1.00  0.00    -0.226 C  
HETATM    7  C   UNL     1      -8.838   6.678  68.833  1.00  0.00    -0.131 C  
HETATM    8  O   UNL     1     -10.652   9.376  68.940  1.00  0.00    -0.217 OA 
HETATM    9  N   UNL     1      -9.311   8.551  67.239  1.00  0.00    -0.145 N  
HETATM   10  OXT UNL     1      -8.508   5.509  68.982  1.00  0.00    -0.100 OA 
HETATM   11  C   UNL     1     -10.206   9.381  67.817  1.00  0.00    -0.222 C  
HETATM   12  O   UNL     1      -9.523   7.298  69.811  1.00  0.00    -0.151 OA 
ENDROOT
BRANCH   4  13
HETATM   13  C   UNL     1      -6.522   6.056  67.089  1.00  0.00    -0.047 C  
HETATM   14  C   UNL     1      -6.246   4.998  66.308  1.00  0.00    -0.035 C  
HETATM   15  C   UNL     1      -5.220   3.962  66.639  1.00  0.00    -0.012 C  
ENDBRANCH   4  13
BRANCH   6  16
HETATM   16  N   UNL     1      -9.424  11.583  66.744  1.00  0.00    -0.185 N  
HETATM   17  H   UNL     1      -8.443  11.593  66.462  1.00  0.00     0.000 HD 
HETATM   18  C   UNL     1      -9.948  12.742  67.267  1.00  0.00    -0.219 C  
HETATM   19  O   UNL     1     -11.131  12.870  67.562  1.00  0.00    -0.251 OA 
BRANCH  18  20
HETATM   20  CA  UNL     1      -8.885  13.855  67.441  1.00  0.00    -0.207 C  
HETATM   21  H2  UNL     1      -8.199  13.074  69.266  1.00  0.00     0.000 HD 
HETATM   22  N   UNL     1      -8.509  13.966  68.879  1.00  0.00    -0.357 NA 
HETATM   23  H1  UNL     1      -7.809  14.699  68.995  1.00  0.00     0.000 HD 
BRANCH  20  24
HETATM   24  C   UNL     1      -9.367  15.181  66.880  1.00  0.00    -0.251 A  
HETATM   25  C   UNL     1      -9.067  16.368  67.567  1.00  0.00    -0.196 A  
HETATM   26  C   UNL     1      -9.524  17.603  67.100  1.00  0.00    -0.267 A  
HETATM   27  C   UNL     1     -10.277  17.657  65.932  1.00  0.00    -0.232 A  
HETATM   28  C   UNL     1     -10.554  16.503  65.212  1.00  0.00    -0.273 A  
HETATM   29  O   UNL     1     -10.772  18.835  65.459  1.00  0.00    -0.569 OA 
HETATM   30  H   UNL     1     -11.286  18.872  64.661  1.00  0.00     0.000 HD 
HETATM   31  C   UNL     1     -10.094  15.270  65.679  1.00  0.00    -0.401 A  
ENDBRANCH  20  24
ENDBRANCH  18  20
ENDBRANCH   6  16
TORSDOF 4
ENDMDL
MODEL      135
REMARK 921   NORMALIZED FREE ENERGY PREDICTED BY IDOCK:   -4.06 KCAL/MOL
REMARK 922        TOTAL FREE ENERGY PREDICTED BY IDOCK:   -5.83 KCAL/MOL
REMARK 923 INTER-LIGAND FREE ENERGY PREDICTED BY IDOCK:   -5.15 KCAL/MOL
REMARK 924 INTRA-LIGAND FREE ENERGY PREDICTED BY IDOCK:   -0.67 KCAL/MOL
REMARK 927      BINDING AFFINITY PREDICTED BY RF-SCORE:    0.00 PKD
ROOT
HETATM    1  C   UNL     1     -11.573  12.803  67.593  1.00  0.00    -0.358 C  
HETATM    2  S   UNL     1      -9.811  12.601  67.240  1.00  0.00    -0.209 SA 
HETATM    3  C   UNL     1      -9.817  10.847  67.655  1.00  0.00    -0.171 C  
HETATM    4  C   UNL     1     -10.516  10.487  68.961  1.00  0.00    -0.238 C  
HETATM    5  CA  UNL     1     -11.455  11.276  69.567  1.00  0.00    -0.307 C  
HETATM    6  CA  UNL     1     -12.013  14.260  67.950  1.00  0.00    -0.329 C  
HETATM    7  C   UNL     1     -12.102  10.839  70.869  1.00  0.00    -0.370 C  
HETATM    8  O   UNL     1     -12.956  13.936  70.356  1.00  0.00    -0.212 OA 
HETATM    9  N   UNL     1     -11.821  12.458  68.979  1.00  0.00    -0.310 N  
HETATM   10  OXT UNL     1     -12.178   9.670  71.223  1.00  0.00    -0.316 OA 
HETATM   11  C   UNL     1     -12.444  13.609  69.311  1.00  0.00     0.069 C  
HETATM   12  O   UNL     1     -12.627  11.800  71.651  1.00  0.00    -0.256 OA 
ENDROOT
BRANCH   4  13
HETATM   13  C   UNL     1      -9.978   9.248  69.548  1.00  0.00    -0.194 C  
HETATM   14  C   UNL     1      -8.677   8.983  69.760  1.00  0.00    -0.148 C  
HETATM   15  C   UNL     1      -8.175   7.735  70.412  1.00  0.00    -0.121 C  
ENDBRANCH   4  13
BRANCH   6  16
HETATM   16  N   UNL     1     -10.914  15.245  68.050  1.00  0.00    -0.288 N  
HETATM   17  H   UNL     1     -10.042  15.030  67.565  1.00  0.00     0.000 HD 
HETATM   18  C   UNL     1     -10.979  16.428  68.748  1.00  0.00    -0.344 C  
HETATM   19  O   UNL     1     -11.999  16.828  69.299  1.00  0.00     0.410 OA 
BRANCH  18  20
HETATM   20  CA  UNL     1      -9.630  17.190  68.763  1.00  0.00    -0.269 C  
HETATM   21  H2  UNL     1     -10.499  18.976  68.080  1.00  0.00     0.000 HD 
HETATM   22  N   UNL     1      -9.711  18.368  67.853  1.00  0.00    -0.297 NA 
HETATM   23  H1  UNL     1      -8.824  18.870  67.863  1.00  0.00     0.000 HD 
BRANCH  20  24
HETATM   24  C   UNL     1      -8.470  16.279  68.403  1.00  0.00    -0.195 A  
HETATM   25  C   UNL     1      -8.029  15.325  69.334  1.00  0.00    -0.223 A  
HETATM   26  C   UNL     1      -6.942  14.494  69.051  1.00  0.00    -0.121 A  
HETATM   27  C   UNL     1      -6.294  14.607  67.825  1.00  0.00    -0.152 A  
HETATM   28  C   UNL     1      -6.734  15.515  66.872  1.00  0.00     0.343 A  
HETATM   29  O   UNL     1      -5.210  13.841  67.522  1.00  0.00    -0.324 OA 
HETATM   30  H   UNL     1      -4.768  13.918  66.684  1.00  0.00     0.000 HD 
HETATM   31  C   UNL     1      -7.823  16.343  67.155  1.00  0.00    -0.223 A  
ENDBRANCH  20  24
ENDBRANCH  18  20
ENDBRANCH   6  16
TORSDOF 4
ENDMDL
MODEL      136
REMARK 921   NORMALIZED FREE ENERGY PREDICTED BY IDOCK:   -4.02 KCAL/MOL
REMARK 922        TOTAL FREE ENERGY PREDICTED BY IDOCK:   -5.77 KCAL/MOL
REMARK 923 INTER-LIGAND FREE ENERGY PREDICTED BY IDOCK:   -6.35 KCAL/MOL
REMARK 924 INTRA-LIGAND FREE ENERGY PREDICTED BY IDOCK:    0.57 KCAL/MOL
REMARK 927      BINDING AFFINITY PREDICTED BY RF-SCORE:    0.00 PKD
ROOT
HETATM    1  C   UNL     1     -11.050   6.345  71.894  1.00  0.00    -0.268 C  
HETATM    2  S   UNL     1     -11.526   6.476  70.154  1.00  0.00    -0.389 SA 
HETATM    3  C   UNL     1     -10.358   5.210  69.625  1.00  0.00    -0.246 C  
HETATM    4  C   UNL     1      -8.945   5.352  70.179  1.00  0.00    -0.157 C  
HETATM    5  CA  UNL     1      -8.637   6.052  71.314  1.00  0.00    -0.129 C  
HETATM    6  CA  UNL     1     -11.339   7.616  72.757  1.00  0.00    -0.367 C  
HETATM    7  C   UNL     1      -7.201   6.141  71.797  1.00  0.00    -0.087 C  
HETATM    8  O   UNL     1      -8.943   8.252  73.554  1.00  0.00    -0.249 OA 
HETATM    9  N   UNL     1      -9.640   6.658  72.023  1.00  0.00    -0.150 N  
HETATM   10  OXT UNL     1      -6.343   5.315  71.512  1.00  0.00    -0.031 OA 
HETATM   11  C   UNL     1      -9.784   7.612  72.968  1.00  0.00    -0.244 C  
HETATM   12  O   UNL     1      -6.877   7.179  72.589  1.00  0.00    -0.067 OA 
ENDROOT
BRANCH   4  13
HETATM   13  C   UNL     1      -7.942   4.743  69.289  1.00  0.00    -0.070 C  
HETATM   14  C   UNL     1      -7.495   5.272  68.137  1.00  0.00    -0.076 C  
HETATM   15  C   UNL     1      -6.432   4.650  67.289  1.00  0.00    -0.045 C  
ENDBRANCH   4  13
BRANCH   6  16
HETATM   16  N   UNL     1     -11.865   8.780  72.010  1.00  0.00    -0.356 N  
HETATM   17  H   UNL     1     -12.869   8.955  72.055  1.00  0.00     0.000 HD 
HETATM   18  C   UNL     1     -11.101   9.642  71.260  1.00  0.00    -0.355 C  
HETATM   19  O   UNL     1      -9.878   9.578  71.200  1.00  0.00    -0.251 OA 
BRANCH  18  20
HETATM   20  CA  UNL     1     -11.952  10.693  70.502  1.00  0.00    -0.352 C  
HETATM   21  H2  UNL     1     -13.766   9.898  71.204  1.00  0.00     0.000 HD 
HETATM   22  N   UNL     1     -13.338  10.175  70.319  1.00  0.00    -0.466 NA 
HETATM   23  H1  UNL     1     -13.899  10.866  69.821  1.00  0.00     0.000 HD 
BRANCH  20  24
HETATM   24  C   UNL     1     -11.316  11.080  69.180  1.00  0.00    -0.348 A  
HETATM   25  C   UNL     1     -10.966  10.074  68.264  1.00  0.00    -0.278 A  
HETATM   26  C   UNL     1     -10.347  10.391  67.052  1.00  0.00    -0.295 A  
HETATM   27  C   UNL     1     -10.082  11.721  66.745  1.00  0.00    -0.209 A  
HETATM   28  C   UNL     1     -10.453  12.737  67.615  1.00  0.00    -0.224 A  
HETATM   29  O   UNL     1      -9.449  12.071  65.591  1.00  0.00    -0.329 OA 
HETATM   30  H   UNL     1      -9.269  12.980  65.381  1.00  0.00     0.000 HD 
HETATM   31  C   UNL     1     -11.074  12.419  68.825  1.00  0.00    -0.307 A  
ENDBRANCH  20  24
ENDBRANCH  18  20
ENDBRANCH   6  16
TORSDOF 4
ENDMDL
MODEL      137
REMARK 921   NORMALIZED FREE ENERGY PREDICTED BY IDOCK:   -4.01 KCAL/MOL
REMARK 922        TOTAL FREE ENERGY PREDICTED BY IDOCK:   -5.76 KCAL/MOL
REMARK 923 INTER-LIGAND FREE ENERGY PREDICTED BY IDOCK:   -4.92 KCAL/MOL
REMARK 924 INTRA-LIGAND FREE ENERGY PREDICTED BY IDOCK:   -0.84 KCAL/MOL
REMARK 927      BINDING AFFINITY PREDICTED BY RF-SCORE:    0.00 PKD
ROOT
HETATM    1  C   UNL     1     -10.328   7.865  68.132  1.00  0.00    -0.200 C  
HETATM    2  S   UNL     1      -8.949   6.768  68.539  1.00  0.00    -0.119 SA 
HETATM    3  C   UNL     1      -9.955   5.718  69.603  1.00  0.00    -0.189 C  
HETATM    4  C   UNL     1     -10.837   6.456  70.603  1.00  0.00    -0.331 C  
HETATM    5  CA  UNL     1     -11.229   7.758  70.459  1.00  0.00    -0.257 C  
HETATM    6  CA  UNL     1      -9.917   9.305  67.682  1.00  0.00    -0.196 C  
HETATM    7  C   UNL     1     -12.111   8.416  71.506  1.00  0.00    -0.301 C  
HETATM    8  O   UNL     1     -11.069  10.762  69.507  1.00  0.00    -0.239 OA 
HETATM    9  N   UNL     1     -10.834   8.461  69.352  1.00  0.00    -0.145 N  
HETATM   10  OXT UNL     1     -12.847   7.789  72.256  1.00  0.00    -0.205 OA 
HETATM   11  C   UNL     1     -10.742   9.745  68.942  1.00  0.00    -0.217 C  
HETATM   12  O   UNL     1     -12.078   9.759  71.587  1.00  0.00    -0.378 OA 
ENDROOT
BRANCH   4  13
HETATM   13  C   UNL     1     -11.121   5.636  71.794  1.00  0.00    -0.265 C  
HETATM   14  C   UNL     1     -10.243   5.338  72.766  1.00  0.00    -0.228 C  
HETATM   15  C   UNL     1     -10.587   4.550  73.989  1.00  0.00    -0.338 C  
ENDBRANCH   4  13
BRANCH   6  16
HETATM   16  N   UNL     1      -8.469   9.599  67.751  1.00  0.00    -0.125 N  
HETATM   17  H   UNL     1      -7.940   9.189  68.522  1.00  0.00     0.000 HD 
HETATM   18  C   UNL     1      -7.782  10.382  66.854  1.00  0.00    -0.111 C  
HETATM   19  O   UNL     1      -8.294  10.857  65.847  1.00  0.00    -0.163 OA 
BRANCH  18  20
HETATM   20  CA  UNL     1      -6.301  10.598  67.258  1.00  0.00    -0.064 C  
HETATM   21  H2  UNL     1      -5.803   8.581  66.951  1.00  0.00     0.000 HD 
HETATM   22  N   UNL     1      -5.701   9.297  67.670  1.00  0.00    -0.041 NA 
HETATM   23  H1  UNL     1      -4.727   9.438  67.936  1.00  0.00     0.000 HD 
BRANCH  20  24
HETATM   24  C   UNL     1      -6.166  11.650  68.343  1.00  0.00    -0.050 A  
HETATM   25  C   UNL     1      -5.557  11.308  69.562  1.00  0.00    -0.057 A  
HETATM   26  C   UNL     1      -5.446  12.241  70.596  1.00  0.00    -0.164 A  
HETATM   27  C   UNL     1      -5.937  13.529  70.412  1.00  0.00    -0.140 A  
HETATM   28  C   UNL     1      -6.509  13.904  69.204  1.00  0.00    -0.111 A  
HETATM   29  O   UNL     1      -5.882  14.459  71.406  1.00  0.00    -0.185 OA 
HETATM   30  H   UNL     1      -6.217  15.339  71.280  1.00  0.00     0.000 HD 
HETATM   31  C   UNL     1      -6.616  12.972  68.170  1.00  0.00    -0.103 A  
ENDBRANCH  20  24
ENDBRANCH  18  20
ENDBRANCH   6  16
TORSDOF 4
ENDMDL
MODEL      138
REMARK 921   NORMALIZED FREE ENERGY PREDICTED BY IDOCK:   -4.00 KCAL/MOL
REMARK 922        TOTAL FREE ENERGY PREDICTED BY IDOCK:   -5.75 KCAL/MOL
REMARK 923 INTER-LIGAND FREE ENERGY PREDICTED BY IDOCK:   -5.29 KCAL/MOL
REMARK 924 INTRA-LIGAND FREE ENERGY PREDICTED BY IDOCK:   -0.46 KCAL/MOL
REMARK 927      BINDING AFFINITY PREDICTED BY RF-SCORE:    0.00 PKD
ROOT
HETATM    1  C   UNL     1     -10.404   7.755  68.808  1.00  0.00    -0.204 C  
HETATM    2  S   UNL     1      -8.706   7.308  68.374  1.00  0.00    -0.121 SA 
HETATM    3  C   UNL     1      -8.866   5.633  69.019  1.00  0.00    -0.106 C  
HETATM    4  C   UNL     1      -9.495   5.522  70.404  1.00  0.00    -0.209 C  
HETATM    5  CA  UNL     1     -10.295   6.484  70.957  1.00  0.00    -0.206 C  
HETATM    6  CA  UNL     1     -10.658   9.286  68.995  1.00  0.00    -0.205 C  
HETATM    7  C   UNL     1     -10.881   6.292  72.344  1.00  0.00    -0.243 C  
HETATM    8  O   UNL     1     -11.439   9.377  71.478  1.00  0.00    -0.350 OA 
HETATM    9  N   UNL     1     -10.578   7.617  70.241  1.00  0.00    -0.225 N  
HETATM   10  OXT UNL     1     -11.053   5.193  72.856  1.00  0.00    -0.259 OA 
HETATM   11  C   UNL     1     -11.048   8.865  70.456  1.00  0.00    -0.251 C  
HETATM   12  O   UNL     1     -11.239   7.397  73.023  1.00  0.00    -0.336 OA 
ENDROOT
BRANCH   4  13
HETATM   13  C   UNL     1      -9.047   4.313  71.115  1.00  0.00    -0.183 C  
HETATM   14  C   UNL     1      -8.178   3.404  70.642  1.00  0.00    -0.075 C  
HETATM   15  C   UNL     1      -7.704   2.218  71.419  1.00  0.00    -0.040 C  
ENDBRANCH   4  13
BRANCH   6  16
HETATM   16  N   UNL     1      -9.456  10.142  68.893  1.00  0.00    -0.172 N  
HETATM   17  H   UNL     1      -8.849  10.203  69.711  1.00  0.00     0.000 HD 
HETATM   18  C   UNL     1      -9.095  10.861  67.778  1.00  0.00    -0.149 C  
HETATM   19  O   UNL     1      -9.701  10.799  66.714  1.00  0.00    -0.179 OA 
BRANCH  18  20
HETATM   20  CA  UNL     1      -7.850  11.752  68.017  1.00  0.00    -0.134 C  
HETATM   21  H2  UNL     1      -6.991  10.390  69.365  1.00  0.00     0.000 HD 
HETATM   22  N   UNL     1      -7.214  11.385  69.314  1.00  0.00    -0.248 NA 
HETATM   23  H1  UNL     1      -6.394  11.971  69.471  1.00  0.00     0.000 HD 
BRANCH  20  24
HETATM   24  C   UNL     1      -8.200  13.228  67.959  1.00  0.00    -0.162 A  
HETATM   25  C   UNL     1      -9.517  13.634  68.228  1.00  0.00    -0.213 A  
HETATM   26  C   UNL     1      -9.884  14.980  68.150  1.00  0.00    -0.216 A  
HETATM   27  C   UNL     1      -8.928  15.932  67.811  1.00  0.00    -0.176 A  
HETATM   28  C   UNL     1      -7.610  15.562  67.578  1.00  0.00    -0.201 A  
HETATM   29  O   UNL     1      -9.249  17.250  67.689  1.00  0.00    -0.226 OA 
HETATM   30  H   UNL     1      -8.596  17.900  67.458  1.00  0.00     0.000 HD 
HETATM   31  C   UNL     1      -7.245  14.216  67.660  1.00  0.00    -0.195 A  
ENDBRANCH  20  24
ENDBRANCH  18  20
ENDBRANCH   6  16
TORSDOF 4
ENDMDL
MODEL      139
REMARK 921   NORMALIZED FREE ENERGY PREDICTED BY IDOCK:   -3.99 KCAL/MOL
REMARK 922        TOTAL FREE ENERGY PREDICTED BY IDOCK:   -5.74 KCAL/MOL
REMARK 923 INTER-LIGAND FREE ENERGY PREDICTED BY IDOCK:   -5.06 KCAL/MOL
REMARK 924 INTRA-LIGAND FREE ENERGY PREDICTED BY IDOCK:   -0.68 KCAL/MOL
REMARK 927      BINDING AFFINITY PREDICTED BY RF-SCORE:    0.00 PKD
ROOT
HETATM    1  C   UNL     1     -10.651   5.963  67.909  1.00  0.00    -0.251 C  
HETATM    2  S   UNL     1      -9.338   4.923  68.594  1.00  0.00    -0.144 SA 
HETATM    3  C   UNL     1     -10.148   4.764  70.195  1.00  0.00    -0.240 C  
HETATM    4  C   UNL     1     -10.665   6.066  70.798  1.00  0.00    -0.340 C  
HETATM    5  CA  UNL     1     -10.940   7.189  70.067  1.00  0.00    -0.262 C  
HETATM    6  CA  UNL     1     -10.217   6.879  66.719  1.00  0.00    -0.206 C  
HETATM    7  C   UNL     1     -11.453   8.444  70.750  1.00  0.00    -0.255 C  
HETATM    8  O   UNL     1     -10.708   9.246  67.687  1.00  0.00    -0.269 OA 
HETATM    9  N   UNL     1     -10.765   7.167  68.709  1.00  0.00    -0.198 N  
HETATM   10  OXT UNL     1     -12.038   8.434  71.825  1.00  0.00    -0.292 OA 
HETATM   11  C   UNL     1     -10.645   8.039  67.685  1.00  0.00    -0.194 C  
HETATM   12  O   UNL     1     -11.259   9.616  70.118  1.00  0.00    -0.245 OA 
ENDROOT
BRANCH   4  13
HETATM   13  C   UNL     1     -10.724   6.004  72.269  1.00  0.00    -0.272 C  
HETATM   14  C   UNL     1     -10.315   4.971  73.025  1.00  0.00    -0.233 C  
HETATM   15  C   UNL     1     -10.339   4.971  74.520  1.00  0.00    -0.315 C  
ENDBRANCH   4  13
BRANCH   6  16
HETATM   16  N   UNL     1      -8.776   6.842  66.388  1.00  0.00    -0.136 N  
HETATM   17  H   UNL     1      -8.145   7.404  66.962  1.00  0.00     0.000 HD 
HETATM   18  C   UNL     1      -8.222   6.109  65.365  1.00  0.00    -0.145 C  
HETATM   19  O   UNL     1      -8.869   5.338  64.665  1.00  0.00    -0.130 OA 
BRANCH  18  20
HETATM   20  CA  UNL     1      -6.704   6.368  65.196  1.00  0.00    -0.046 C  
HETATM   21  H2  UNL     1      -6.232   5.500  67.049  1.00  0.00     0.000 HD 
HETATM   22  N   UNL     1      -6.043   6.359  66.532  1.00  0.00    -0.032 NA 
HETATM   23  H1  UNL     1      -5.043   6.529  66.422  1.00  0.00     0.000 HD 
BRANCH  20  24
HETATM   24  C   UNL     1      -6.437   7.659  64.444  1.00  0.00    -0.048 A  
HETATM   25  C   UNL     1      -6.078   8.812  65.161  1.00  0.00    -0.059 A  
HETATM   26  C   UNL     1      -5.859  10.026  64.506  1.00  0.00    -0.115 A  
HETATM   27  C   UNL     1      -5.989  10.092  63.123  1.00  0.00    -0.129 A  
HETATM   28  C   UNL     1      -6.305   8.958  62.386  1.00  0.00    -0.095 A  
HETATM   29  O   UNL     1      -5.819  11.262  62.448  1.00  0.00    -0.341 OA 
HETATM   30  H   UNL     1      -5.908  11.306  61.503  1.00  0.00     0.000 HD 
HETATM   31  C   UNL     1      -6.521   7.744  63.042  1.00  0.00    -0.071 A  
ENDBRANCH  20  24
ENDBRANCH  18  20
ENDBRANCH   6  16
TORSDOF 4
ENDMDL
MODEL      140
REMARK 921   NORMALIZED FREE ENERGY PREDICTED BY IDOCK:   -3.88 KCAL/MOL
REMARK 922        TOTAL FREE ENERGY PREDICTED BY IDOCK:   -5.60 KCAL/MOL
REMARK 923 INTER-LIGAND FREE ENERGY PREDICTED BY IDOCK:   -6.18 KCAL/MOL
REMARK 924 INTRA-LIGAND FREE ENERGY PREDICTED BY IDOCK:    0.58 KCAL/MOL
REMARK 927      BINDING AFFINITY PREDICTED BY RF-SCORE:    0.00 PKD
ROOT
HETATM    1  C   UNL     1     -11.145  10.682  66.780  1.00  0.00    -0.030 C  
HETATM    2  S   UNL     1      -9.451  10.179  66.392  1.00  0.00    -0.185 SA 
HETATM    3  C   UNL     1      -9.594   8.619  67.282  1.00  0.00    -0.167 C  
HETATM    4  C   UNL     1     -10.201   8.716  68.677  1.00  0.00    -0.214 C  
HETATM    5  CA  UNL     1     -10.997   9.748  69.093  1.00  0.00    -0.175 C  
HETATM    6  CA  UNL     1     -11.403  12.224  66.740  1.00  0.00    -0.339 C  
HETATM    7  C   UNL     1     -11.562   9.764  70.502  1.00  0.00    -0.292 C  
HETATM    8  O   UNL     1     -12.146  12.684  69.193  1.00  0.00    -0.249 OA 
HETATM    9  N   UNL     1     -11.296  10.760  68.220  1.00  0.00    -0.302 N  
HETATM   10  OXT UNL     1     -11.721   8.754  71.175  1.00  0.00    -0.277 OA 
HETATM   11  C   UNL     1     -11.769  12.025  68.253  1.00  0.00    -0.334 C  
HETATM   12  O   UNL     1     -11.914  10.958  71.014  1.00  0.00    -0.326 OA 
ENDROOT
BRANCH   4  13
HETATM   13  C   UNL     1      -9.737   7.627  69.555  1.00  0.00    -0.168 C  
HETATM   14  C   UNL     1      -8.485   7.475  70.016  1.00  0.00    -0.137 C  
HETATM   15  C   UNL     1      -8.067   6.387  70.953  1.00  0.00    -0.124 C  
ENDBRANCH   4  13
BRANCH   6  16
HETATM   16  N   UNL     1     -10.206  13.057  66.492  1.00  0.00    -0.263 N  
HETATM   17  H   UNL     1      -9.806  13.042  65.554  1.00  0.00     0.000 HD 
HETATM   18  C   UNL     1      -9.592  13.851  67.432  1.00  0.00    -0.235 C  
HETATM   19  O   UNL     1     -10.032  14.012  68.566  1.00  0.00    -0.228 OA 
BRANCH  18  20
HETATM   20  CA  UNL     1      -8.294  14.512  66.904  1.00  0.00    -0.101 C  
HETATM   21  H2  UNL     1      -7.249  12.691  66.857  1.00  0.00     0.000 HD 
HETATM   22  N   UNL     1      -7.127  13.639  67.215  1.00  0.00    -0.357 NA 
HETATM   23  H1  UNL     1      -6.272  14.073  66.867  1.00  0.00     0.000 HD 
BRANCH  20  24
HETATM   24  C   UNL     1      -8.114  15.913  67.459  1.00  0.00    -0.171 A  
HETATM   25  C   UNL     1      -7.021  16.185  68.298  1.00  0.00    -0.126 A  
HETATM   26  C   UNL     1      -6.843  17.454  68.856  1.00  0.00    -0.241 A  
HETATM   27  C   UNL     1      -7.755  18.463  68.567  1.00  0.00    -0.303 A  
HETATM   28  C   UNL     1      -8.822  18.231  67.710  1.00  0.00    -0.270 A  
HETATM   29  O   UNL     1      -7.639  19.705  69.117  1.00  0.00    -0.350 OA 
HETATM   30  H   UNL     1      -8.262  20.394  68.919  1.00  0.00     0.000 HD 
HETATM   31  C   UNL     1      -8.997  16.964  67.151  1.00  0.00    -0.219 A  
ENDBRANCH  20  24
ENDBRANCH  18  20
ENDBRANCH   6  16
TORSDOF 4
ENDMDL
MODEL      141
REMARK 921   NORMALIZED FREE ENERGY PREDICTED BY IDOCK:   -3.87 KCAL/MOL
REMARK 922        TOTAL FREE ENERGY PREDICTED BY IDOCK:   -5.59 KCAL/MOL
REMARK 923 INTER-LIGAND FREE ENERGY PREDICTED BY IDOCK:   -6.15 KCAL/MOL
REMARK 924 INTRA-LIGAND FREE ENERGY PREDICTED BY IDOCK:    0.57 KCAL/MOL
REMARK 927      BINDING AFFINITY PREDICTED BY RF-SCORE:    0.00 PKD
ROOT
HETATM    1  C   UNL     1      -8.201  10.085  67.626  1.00  0.00    -0.114 C  
HETATM    2  S   UNL     1      -7.879  10.434  69.371  1.00  0.00    -0.150 SA 
HETATM    3  C   UNL     1      -6.477   9.304  69.452  1.00  0.00    -0.044 C  
HETATM    4  C   UNL     1      -6.712   7.926  68.843  1.00  0.00    -0.049 C  
HETATM    5  CA  UNL     1      -7.678   7.658  67.913  1.00  0.00    -0.115 C  
HETATM    6  CA  UNL     1      -9.665  10.361  67.155  1.00  0.00    -0.172 C  
HETATM    7  C   UNL     1      -7.843   6.255  67.357  1.00  0.00    -0.101 C  
HETATM    8  O   UNL     1     -10.407   7.993  66.365  1.00  0.00    -0.191 OA 
HETATM    9  N   UNL     1      -8.487   8.672  67.471  1.00  0.00    -0.123 N  
HETATM   10  OXT UNL     1      -6.941   5.427  67.344  1.00  0.00    -0.062 OA 
HETATM   11  C   UNL     1      -9.664   8.827  66.827  1.00  0.00    -0.221 C  
HETATM   12  O   UNL     1      -9.043   5.929  66.844  1.00  0.00    -0.117 OA 
ENDROOT
BRANCH   4  13
HETATM   13  C   UNL     1      -5.852   6.901  69.458  1.00  0.00    -0.015 C  
HETATM   14  C   UNL     1      -5.984   6.415  70.704  1.00  0.00    -0.023 C  
HETATM   15  C   UNL     1      -5.125   5.331  71.273  1.00  0.00    -0.005 C  
ENDBRANCH   4  13
BRANCH   6  16
HETATM   16  N   UNL     1     -10.605  10.770  68.222  1.00  0.00    -0.187 N  
HETATM   17  H   UNL     1     -11.133  10.034  68.693  1.00  0.00     0.000 HD 
HETATM   18  C   UNL     1     -10.820  12.066  68.627  1.00  0.00    -0.237 C  
HETATM   19  O   UNL     1     -10.184  13.020  68.192  1.00  0.00    -0.226 OA 
BRANCH  18  20
HETATM   20  CA  UNL     1     -11.947  12.185  69.684  1.00  0.00    -0.284 C  
HETATM   21  H2  UNL     1     -11.666  14.253  69.918  1.00  0.00     0.000 HD 
HETATM   22  N   UNL     1     -11.740  13.416  70.498  1.00  0.00    -0.532 NA 
HETATM   23  H1  UNL     1     -12.482  13.496  71.194  1.00  0.00     0.000 HD 
BRANCH  20  24
HETATM   24  C   UNL     1     -12.032  10.943  70.552  1.00  0.00    -0.466 A  
HETATM   25  C   UNL     1     -10.954  10.043  70.574  1.00  0.00    -0.392 A  
HETATM   26  C   UNL     1     -11.012   8.872  71.335  1.00  0.00    -0.380 A  
HETATM   27  C   UNL     1     -12.149   8.600  72.088  1.00  0.00    -0.381 A  
HETATM   28  C   UNL     1     -13.212   9.491  72.115  1.00  0.00    -0.539 A  
HETATM   29  O   UNL     1     -12.261   7.454  72.816  1.00  0.00    -0.529 OA 
HETATM   30  H   UNL     1     -13.037   7.268  73.331  1.00  0.00     0.000 HD 
HETATM   31  C   UNL     1     -13.152  10.663  71.357  1.00  0.00    -0.499 A  
ENDBRANCH  20  24
ENDBRANCH  18  20
ENDBRANCH   6  16
TORSDOF 4
ENDMDL
MODEL      142
REMARK 921   NORMALIZED FREE ENERGY PREDICTED BY IDOCK:   -3.84 KCAL/MOL
REMARK 922        TOTAL FREE ENERGY PREDICTED BY IDOCK:   -5.55 KCAL/MOL
REMARK 923 INTER-LIGAND FREE ENERGY PREDICTED BY IDOCK:   -4.97 KCAL/MOL
REMARK 924 INTRA-LIGAND FREE ENERGY PREDICTED BY IDOCK:   -0.57 KCAL/MOL
REMARK 927      BINDING AFFINITY PREDICTED BY RF-SCORE:    0.00 PKD
ROOT
HETATM    1  C   UNL     1      -9.794   5.638  69.843  1.00  0.00    -0.189 C  
HETATM    2  S   UNL     1     -11.026   5.885  68.542  1.00  0.00    -0.076 SA 
HETATM    3  C   UNL     1     -10.069   4.979  67.313  1.00  0.00    -0.184 C  
HETATM    4  C   UNL     1      -8.593   5.349  67.230  1.00  0.00    -0.108 C  
HETATM    5  CA  UNL     1      -7.898   5.948  68.245  1.00  0.00    -0.105 C  
HETATM    6  CA  UNL     1      -9.826   6.696  70.994  1.00  0.00    -0.182 C  
HETATM    7  C   UNL     1      -6.427   6.282  68.078  1.00  0.00    -0.052 C  
HETATM    8  O   UNL     1      -7.441   7.726  70.811  1.00  0.00    -0.068 OA 
HETATM    9  N   UNL     1      -8.538   6.228  69.424  1.00  0.00    -0.124 N  
HETATM   10  OXT UNL     1      -5.691   5.704  67.289  1.00  0.00    -0.015 OA 
HETATM   11  C   UNL     1      -8.362   7.000  70.518  1.00  0.00    -0.132 C  
HETATM   12  O   UNL     1      -5.921   7.256  68.857  1.00  0.00    -0.024 OA 
ENDROOT
BRANCH   4  13
HETATM   13  C   UNL     1      -8.036   5.090  65.891  1.00  0.00    -0.107 C  
HETATM   14  C   UNL     1      -8.716   5.157  64.735  1.00  0.00    -0.133 C  
HETATM   15  C   UNL     1      -8.100   4.943  63.390  1.00  0.00    -0.100 C  
ENDBRANCH   4  13
BRANCH   6  16
HETATM   16  N   UNL     1     -10.786   7.805  70.805  1.00  0.00    -0.235 N  
HETATM   17  H   UNL     1     -11.585   7.639  70.192  1.00  0.00     0.000 HD 
HETATM   18  C   UNL     1     -10.684   9.043  71.395  1.00  0.00    -0.331 C  
HETATM   19  O   UNL     1      -9.816   9.328  72.212  1.00  0.00    -0.030 OA 
BRANCH  18  20
HETATM   20  CA  UNL     1     -11.778  10.029  70.912  1.00  0.00    -0.374 C  
HETATM   21  H2  UNL     1     -13.341   8.836  71.651  1.00  0.00     0.000 HD 
HETATM   22  N   UNL     1     -13.078   9.310  70.786  1.00  0.00    -0.523 NA 
HETATM   23  H1  UNL     1     -13.799   9.959  70.469  1.00  0.00     0.000 HD 
BRANCH  20  24
HETATM   24  C   UNL     1     -11.383  10.710  69.615  1.00  0.00    -0.360 A  
HETATM   25  C   UNL     1     -11.052   9.925  68.498  1.00  0.00    -0.181 A  
HETATM   26  C   UNL     1     -10.651  10.517  67.298  1.00  0.00    -0.317 A  
HETATM   27  C   UNL     1     -10.587  11.904  67.206  1.00  0.00    -0.228 A  
HETATM   28  C   UNL     1     -10.946  12.703  68.282  1.00  0.00    -0.275 A  
HETATM   29  O   UNL     1     -10.167  12.522  66.066  1.00  0.00    -0.242 OA 
HETATM   30  H   UNL     1     -10.124  13.468  66.003  1.00  0.00     0.000 HD 
HETATM   31  C   UNL     1     -11.350  12.110  69.480  1.00  0.00    -0.277 A  
ENDBRANCH  20  24
ENDBRANCH  18  20
ENDBRANCH   6  16
TORSDOF 4
ENDMDL
MODEL      143
REMARK 921   NORMALIZED FREE ENERGY PREDICTED BY IDOCK:   -3.81 KCAL/MOL
REMARK 922        TOTAL FREE ENERGY PREDICTED BY IDOCK:   -5.51 KCAL/MOL
REMARK 923 INTER-LIGAND FREE ENERGY PREDICTED BY IDOCK:   -4.75 KCAL/MOL
REMARK 924 INTRA-LIGAND FREE ENERGY PREDICTED BY IDOCK:   -0.76 KCAL/MOL
REMARK 927      BINDING AFFINITY PREDICTED BY RF-SCORE:    0.00 PKD
ROOT
HETATM    1  C   UNL     1     -11.285   6.483  69.763  1.00  0.00    -0.395 C  
HETATM    2  S   UNL     1      -9.884   5.814  68.834  1.00  0.00    -0.158 SA 
HETATM    3  C   UNL     1      -9.851   4.279  69.777  1.00  0.00    -0.187 C  
HETATM    4  C   UNL     1      -9.927   4.439  71.291  1.00  0.00    -0.245 C  
HETATM    5  CA  UNL     1     -10.432   5.546  71.916  1.00  0.00    -0.225 C  
HETATM    6  CA  UNL     1     -11.399   8.042  69.757  1.00  0.00     0.128 C  
HETATM    7  C   UNL     1     -10.471   5.622  73.432  1.00  0.00    -0.242 C  
HETATM    8  O   UNL     1     -11.203   8.581  72.297  1.00  0.00    -0.342 OA 
HETATM    9  N   UNL     1     -10.921   6.580  71.163  1.00  0.00    -0.254 N  
HETATM   10  OXT UNL     1     -10.478   4.635  74.155  1.00  0.00    -0.230 OA 
HETATM   11  C   UNL     1     -11.236   7.885  71.310  1.00  0.00    -0.255 C  
HETATM   12  O   UNL     1     -10.513   6.846  73.989  1.00  0.00    -0.374 OA 
ENDROOT
BRANCH   4  13
HETATM   13  C   UNL     1      -9.290   3.313  71.995  1.00  0.00    -0.188 C  
HETATM   14  C   UNL     1      -7.969   3.160  72.190  1.00  0.00    -0.059 C  
HETATM   15  C   UNL     1      -7.365   2.030  72.961  1.00  0.00    -0.032 C  
ENDBRANCH   4  13
BRANCH   6  16
HETATM   16  N   UNL     1     -10.291   8.753  69.082  1.00  0.00    -0.215 N  
HETATM   17  H   UNL     1      -9.483   8.202  68.793  1.00  0.00     0.000 HD 
HETATM   18  C   UNL     1     -10.270  10.102  68.814  1.00  0.00    -0.186 C  
HETATM   19  O   UNL     1     -11.218  10.846  69.040  1.00  0.00    -0.223 OA 
BRANCH  18  20
HETATM   20  CA  UNL     1      -8.925  10.570  68.203  1.00  0.00    -0.138 C  
HETATM   21  H2  UNL     1      -9.502  12.590  68.192  1.00  0.00     0.000 HD 
HETATM   22  N   UNL     1      -9.108  11.899  67.552  1.00  0.00    -0.173 NA 
HETATM   23  H1  UNL     1      -8.223  12.208  67.150  1.00  0.00     0.000 HD 
BRANCH  20  24
HETATM   24  C   UNL     1      -8.361   9.543  67.239  1.00  0.00    -0.125 A  
HETATM   25  C   UNL     1      -8.958   9.382  65.978  1.00  0.00    -0.205 A  
HETATM   26  C   UNL     1      -8.487   8.423  65.078  1.00  0.00    -0.160 A  
HETATM   27  C   UNL     1      -7.407   7.622  65.433  1.00  0.00    -0.071 A  
HETATM   28  C   UNL     1      -6.775   7.787  66.657  1.00  0.00    -0.066 A  
HETATM   29  O   UNL     1      -6.938   6.651  64.600  1.00  0.00    -0.051 OA 
HETATM   30  H   UNL     1      -6.200   6.105  64.842  1.00  0.00     0.000 HD 
HETATM   31  C   UNL     1      -7.243   8.749  67.554  1.00  0.00    -0.080 A  
ENDBRANCH  20  24
ENDBRANCH  18  20
ENDBRANCH   6  16
TORSDOF 4
ENDMDL
MODEL      144
REMARK 921   NORMALIZED FREE ENERGY PREDICTED BY IDOCK:   -3.78 KCAL/MOL
REMARK 922        TOTAL FREE ENERGY PREDICTED BY IDOCK:   -5.48 KCAL/MOL
REMARK 923 INTER-LIGAND FREE ENERGY PREDICTED BY IDOCK:   -6.08 KCAL/MOL
REMARK 924 INTRA-LIGAND FREE ENERGY PREDICTED BY IDOCK:    0.60 KCAL/MOL
REMARK 927      BINDING AFFINITY PREDICTED BY RF-SCORE:    0.00 PKD
ROOT
HETATM    1  C   UNL     1      -8.432  10.250  67.961  1.00  0.00    -0.118 C  
HETATM    2  S   UNL     1      -9.817  10.054  69.107  1.00  0.00    -0.217 SA 
HETATM    3  C   UNL     1      -9.487   8.304  69.380  1.00  0.00    -0.159 C  
HETATM    4  C   UNL     1      -9.244   7.481  68.120  1.00  0.00    -0.137 C  
HETATM    5  CA  UNL     1      -8.843   8.014  66.926  1.00  0.00    -0.132 C  
HETATM    6  CA  UNL     1      -8.566  11.442  66.958  1.00  0.00    -0.157 C  
HETATM    7  C   UNL     1      -8.623   7.119  65.719  1.00  0.00    -0.133 C  
HETATM    8  O   UNL     1      -8.518  10.196  64.671  1.00  0.00    -0.156 OA 
HETATM    9  N   UNL     1      -8.624   9.362  66.831  1.00  0.00    -0.127 N  
HETATM   10  OXT UNL     1      -8.368   5.925  65.805  1.00  0.00    -0.127 OA 
HETATM   11  C   UNL     1      -8.503  10.308  65.874  1.00  0.00    -0.150 C  
HETATM   12  O   UNL     1      -8.703   7.689  64.503  1.00  0.00     0.165 OA 
ENDROOT
BRANCH   4  13
HETATM   13  C   UNL     1      -9.601   6.064  68.313  1.00  0.00    -0.126 C  
HETATM   14  C   UNL     1      -9.253   5.307  69.367  1.00  0.00    -0.152 C  
HETATM   15  C   UNL     1      -9.684   3.888  69.553  1.00  0.00    -0.191 C  
ENDBRANCH   4  13
BRANCH   6  16
HETATM   16  N   UNL     1      -9.850  12.175  67.018  1.00  0.00    -0.201 N  
HETATM   17  H   UNL     1     -10.060  12.689  67.874  1.00  0.00     0.000 HD 
HETATM   18  C   UNL     1     -10.780  12.217  66.007  1.00  0.00    -0.273 C  
HETATM   19  O   UNL     1     -10.599  11.707  64.906  1.00  0.00    -0.272 OA 
BRANCH  18  20
HETATM   20  CA  UNL     1     -12.072  12.970  66.411  1.00  0.00    -0.358 C  
HETATM   21  H2  UNL     1     -13.062  12.465  64.629  1.00  0.00     0.000 HD 
HETATM   22  N   UNL     1     -12.865  13.294  65.191  1.00  0.00    -0.706 NA 
HETATM   23  H1  UNL     1     -13.716  13.790  65.457  1.00  0.00     0.000 HD 
BRANCH  20  24
HETATM   24  C   UNL     1     -11.763  14.211  67.228  1.00  0.00    -0.421 A  
HETATM   25  C   UNL     1     -11.101  15.289  66.619  1.00  0.00    -0.276 A  
HETATM   26  C   UNL     1     -10.769  16.433  67.349  1.00  0.00    -0.278 A  
HETATM   27  C   UNL     1     -11.109  16.509  68.696  1.00  0.00    -0.329 A  
HETATM   28  C   UNL     1     -11.798  15.474  69.312  1.00  0.00    -0.372 A  
HETATM   29  O   UNL     1     -10.774  17.591  69.453  1.00  0.00    -0.383 OA 
HETATM   30  H   UNL     1     -11.007  17.643  70.373  1.00  0.00     0.000 HD 
HETATM   31  C   UNL     1     -12.132  14.333  68.581  1.00  0.00    -0.295 A  
ENDBRANCH  20  24
ENDBRANCH  18  20
ENDBRANCH   6  16
TORSDOF 4
ENDMDL
MODEL      145
REMARK 921   NORMALIZED FREE ENERGY PREDICTED BY IDOCK:   -3.74 KCAL/MOL
REMARK 922        TOTAL FREE ENERGY PREDICTED BY IDOCK:   -5.43 KCAL/MOL
REMARK 923 INTER-LIGAND FREE ENERGY PREDICTED BY IDOCK:   -4.98 KCAL/MOL
REMARK 924 INTRA-LIGAND FREE ENERGY PREDICTED BY IDOCK:   -0.45 KCAL/MOL
REMARK 927      BINDING AFFINITY PREDICTED BY RF-SCORE:    0.00 PKD
ROOT
HETATM    1  C   UNL     1      -7.149  11.950  68.750  1.00  0.00    -0.111 C  
HETATM    2  S   UNL     1      -6.100  12.346  67.331  1.00  0.00    -0.144 SA 
HETATM    3  C   UNL     1      -5.845  14.051  67.856  1.00  0.00    -0.122 C  
HETATM    4  C   UNL     1      -7.105  14.801  68.275  1.00  0.00    -0.113 C  
HETATM    5  CA  UNL     1      -8.258  14.187  68.681  1.00  0.00    -0.116 C  
HETATM    6  CA  UNL     1      -8.132  10.753  68.534  1.00  0.00    -0.133 C  
HETATM    7  C   UNL     1      -9.468  15.013  69.083  1.00  0.00    -0.195 C  
HETATM    8  O   UNL     1     -10.438  11.915  68.876  1.00  0.00    -0.202 OA 
HETATM    9  N   UNL     1      -8.308  12.820  68.739  1.00  0.00     0.052 N  
HETATM   10  OXT UNL     1      -9.392  16.169  69.477  1.00  0.00    -0.223 OA 
HETATM   11  C   UNL     1      -9.234  11.838  68.802  1.00  0.00     0.001 C  
HETATM   12  O   UNL     1     -10.673  14.420  69.010  1.00  0.00    -0.244 OA 
ENDROOT
BRANCH   4  13
HETATM   13  C   UNL     1      -6.967  16.255  68.083  1.00  0.00    -0.134 C  
HETATM   14  C   UNL     1      -7.024  16.897  66.904  1.00  0.00    -0.251 C  
HETATM   15  C   UNL     1      -6.937  18.382  66.757  1.00  0.00    -0.219 C  
ENDBRANCH   4  13
BRANCH   6  16
HETATM   16  N   UNL     1      -8.139  10.182  67.169  1.00  0.00    -0.120 N  
HETATM   17  H   UNL     1      -7.983  10.821  66.389  1.00  0.00     0.000 HD 
HETATM   18  C   UNL     1      -8.340   8.855  66.873  1.00  0.00    -0.112 C  
HETATM   19  O   UNL     1      -8.455   7.985  67.731  1.00  0.00    -0.126 OA 
BRANCH  18  20
HETATM   20  CA  UNL     1      -8.407   8.584  65.349  1.00  0.00    -0.156 C  
HETATM   21  H2  UNL     1      -6.494   7.720  65.302  1.00  0.00     0.000 HD 
HETATM   22  N   UNL     1      -7.027   8.435  64.806  1.00  0.00    -0.071 NA 
HETATM   23  H1  UNL     1      -7.071   8.256  63.803  1.00  0.00     0.000 HD 
BRANCH  20  24
HETATM   24  C   UNL     1      -9.185   9.666  64.623  1.00  0.00    -0.293 A  
HETATM   25  C   UNL     1      -8.842   9.991  63.301  1.00  0.00    -0.246 A  
HETATM   26  C   UNL     1      -9.512  11.005  62.613  1.00  0.00    -0.322 A  
HETATM   27  C   UNL     1     -10.542  11.696  63.244  1.00  0.00    -0.356 A  
HETATM   28  C   UNL     1     -10.927  11.368  64.536  1.00  0.00    -0.346 A  
HETATM   29  O   UNL     1     -11.199  12.715  62.623  1.00  0.00    -0.342 OA 
HETATM   30  H   UNL     1     -11.902  13.186  63.054  1.00  0.00     0.000 HD 
HETATM   31  C   UNL     1     -10.258  10.352  65.221  1.00  0.00    -0.332 A  
ENDBRANCH  20  24
ENDBRANCH  18  20
ENDBRANCH   6  16
TORSDOF 4
ENDMDL
MODEL      146
REMARK 921   NORMALIZED FREE ENERGY PREDICTED BY IDOCK:   -3.73 KCAL/MOL
REMARK 922        TOTAL FREE ENERGY PREDICTED BY IDOCK:   -5.41 KCAL/MOL
REMARK 923 INTER-LIGAND FREE ENERGY PREDICTED BY IDOCK:   -4.65 KCAL/MOL
REMARK 924 INTRA-LIGAND FREE ENERGY PREDICTED BY IDOCK:   -0.76 KCAL/MOL
REMARK 927      BINDING AFFINITY PREDICTED BY RF-SCORE:    0.00 PKD
ROOT
HETATM    1  C   UNL     1     -10.877   6.384  69.762  1.00  0.00    -0.314 C  
HETATM    2  S   UNL     1      -9.483   5.442  69.100  1.00  0.00    -0.142 SA 
HETATM    3  C   UNL     1      -9.755   4.048  70.208  1.00  0.00    -0.193 C  
HETATM    4  C   UNL     1      -9.975   4.410  71.672  1.00  0.00    -0.256 C  
HETATM    5  CA  UNL     1     -10.397   5.640  72.099  1.00  0.00    -0.209 C  
HETATM    6  CA  UNL     1     -10.785   7.931  69.564  1.00  0.00    -0.192 C  
HETATM    7  C   UNL     1     -10.592   5.915  73.579  1.00  0.00    -0.268 C  
HETATM    8  O   UNL     1     -10.801   8.768  72.030  1.00  0.00    -0.332 OA 
HETATM    9  N   UNL     1     -10.661   6.618  71.177  1.00  0.00    -0.224 N  
HETATM   10  OXT UNL     1     -10.808   5.037  74.404  1.00  0.00    -0.340 OA 
HETATM   11  C   UNL     1     -10.816   7.959  71.132  1.00  0.00    -0.234 C  
HETATM   12  O   UNL     1     -10.535   7.197  73.983  1.00  0.00    -0.353 OA 
ENDROOT
BRANCH   4  13
HETATM   13  C   UNL     1      -9.572   3.318  72.575  1.00  0.00    -0.189 C  
HETATM   14  C   UNL     1      -8.489   2.538  72.423  1.00  0.00    -0.065 C  
HETATM   15  C   UNL     1      -8.082   1.476  73.394  1.00  0.00    -0.041 C  
ENDBRANCH   4  13
BRANCH   6  16
HETATM   16  N   UNL     1      -9.526   8.416  68.956  1.00  0.00    -0.150 N  
HETATM   17  H   UNL     1      -8.757   7.751  68.871  1.00  0.00     0.000 HD 
HETATM   18  C   UNL     1      -9.316   9.694  68.497  1.00  0.00    -0.137 C  
HETATM   19  O   UNL     1     -10.192  10.552  68.472  1.00  0.00    -0.160 OA 
BRANCH  18  20
HETATM   20  CA  UNL     1      -7.859   9.928  68.022  1.00  0.00    -0.086 C  
HETATM   21  H2  UNL     1      -7.510   7.881  67.709  1.00  0.00     0.000 HD 
HETATM   22  N   UNL     1      -7.073   8.672  68.183  1.00  0.00    -0.080 NA 
HETATM   23  H1  UNL     1      -6.115   8.825  67.870  1.00  0.00     0.000 HD 
BRANCH  20  24
HETATM   24  C   UNL     1      -7.215  11.094  68.750  1.00  0.00    -0.098 A  
HETATM   25  C   UNL     1      -6.563  10.866  69.973  1.00  0.00    -0.151 A  
HETATM   26  C   UNL     1      -5.989  11.920  70.687  1.00  0.00     0.024 A  
HETATM   27  C   UNL     1      -6.055  13.212  70.175  1.00  0.00    -0.099 A  
HETATM   28  C   UNL     1      -6.659  13.458  68.950  1.00  0.00    -0.107 A  
HETATM   29  O   UNL     1      -5.539  14.273  70.855  1.00  0.00    -0.150 OA 
HETATM   30  H   UNL     1      -5.584  15.155  70.505  1.00  0.00     0.000 HD 
HETATM   31  C   UNL     1      -7.230  12.403  68.235  1.00  0.00    -0.103 A  
ENDBRANCH  20  24
ENDBRANCH  18  20
ENDBRANCH   6  16
TORSDOF 4
ENDMDL
MODEL      147
REMARK 921   NORMALIZED FREE ENERGY PREDICTED BY IDOCK:   -3.66 KCAL/MOL
REMARK 922        TOTAL FREE ENERGY PREDICTED BY IDOCK:   -5.33 KCAL/MOL
REMARK 923 INTER-LIGAND FREE ENERGY PREDICTED BY IDOCK:   -4.59 KCAL/MOL
REMARK 924 INTRA-LIGAND FREE ENERGY PREDICTED BY IDOCK:   -0.75 KCAL/MOL
REMARK 927      BINDING AFFINITY PREDICTED BY RF-SCORE:    0.00 PKD
ROOT
HETATM    1  C   UNL     1      -9.522   4.036  67.173  1.00  0.00    -0.196 C  
HETATM    2  S   UNL     1      -7.742   3.974  67.488  1.00  0.00    -0.075 SA 
HETATM    3  C   UNL     1      -7.953   3.565  69.230  1.00  0.00    -0.050 C  
HETATM    4  C   UNL     1      -8.967   4.420  69.984  1.00  0.00    -0.146 C  
HETATM    5  CA  UNL     1      -9.975   5.119  69.378  1.00  0.00    -0.222 C  
HETATM    6  CA  UNL     1      -9.946   4.907  65.946  1.00  0.00    -0.203 C  
HETATM    7  C   UNL     1     -10.942   5.946  70.207  1.00  0.00    -0.320 C  
HETATM    8  O   UNL     1     -11.458   6.696  67.084  1.00  0.00    -0.230 OA 
HETATM    9  N   UNL     1     -10.116   5.053  68.018  1.00  0.00    -0.135 N  
HETATM   10  OXT UNL     1     -11.171   5.728  71.389  1.00  0.00    -0.251 OA 
HETATM   11  C   UNL     1     -10.731   5.732  67.025  1.00  0.00    -0.289 C  
HETATM   12  O   UNL     1     -11.581   6.955  69.587  1.00  0.00    -0.201 OA 
ENDROOT
BRANCH   4  13
HETATM   13  C   UNL     1      -8.661   4.492  71.423  1.00  0.00    -0.140 C  
HETATM   14  C   UNL     1      -7.432   4.585  71.958  1.00  0.00    -0.082 C  
HETATM   15  C   UNL     1      -7.168   4.715  73.424  1.00  0.00    -0.080 C  
ENDBRANCH   4  13
BRANCH   6  16
HETATM   16  N   UNL     1      -8.846   5.638  65.280  1.00  0.00    -0.281 N  
HETATM   17  H   UNL     1      -8.310   6.299  65.843  1.00  0.00     0.000 HD 
HETATM   18  C   UNL     1      -8.492   5.493  63.959  1.00  0.00    -0.043 C  
HETATM   19  O   UNL     1      -9.010   4.671  63.211  1.00  0.00    -0.141 OA 
BRANCH  18  20
HETATM   20  CA  UNL     1      -7.377   6.479  63.526  1.00  0.00    -0.067 C  
HETATM   21  H2  UNL     1      -5.855   5.314  64.385  1.00  0.00     0.000 HD 
HETATM   22  N   UNL     1      -6.175   6.283  64.386  1.00  0.00    -0.029 NA 
HETATM   23  H1  UNL     1      -5.441   6.931  64.101  1.00  0.00     0.000 HD 
BRANCH  20  24
HETATM   24  C   UNL     1      -7.861   7.917  63.553  1.00  0.00    -0.138 A  
HETATM   25  C   UNL     1      -7.495   8.746  64.626  1.00  0.00    -0.104 A  
HETATM   26  C   UNL     1      -7.951  10.065  64.701  1.00  0.00    -0.145 A  
HETATM   27  C   UNL     1      -8.771  10.566  63.695  1.00  0.00    -0.181 A  
HETATM   28  C   UNL     1      -9.115   9.779  62.605  1.00  0.00    -0.297 A  
HETATM   29  O   UNL     1      -9.265  11.834  63.747  1.00  0.00    -0.472 OA 
HETATM   30  H   UNL     1      -9.825  12.175  63.059  1.00  0.00     0.000 HD 
HETATM   31  C   UNL     1      -8.657   8.462  62.529  1.00  0.00    -0.068 A  
ENDBRANCH  20  24
ENDBRANCH  18  20
ENDBRANCH   6  16
TORSDOF 4
ENDMDL
MODEL      148
REMARK 921   NORMALIZED FREE ENERGY PREDICTED BY IDOCK:   -3.58 KCAL/MOL
REMARK 922        TOTAL FREE ENERGY PREDICTED BY IDOCK:   -5.23 KCAL/MOL
REMARK 923 INTER-LIGAND FREE ENERGY PREDICTED BY IDOCK:   -4.58 KCAL/MOL
REMARK 924 INTRA-LIGAND FREE ENERGY PREDICTED BY IDOCK:   -0.64 KCAL/MOL
REMARK 927      BINDING AFFINITY PREDICTED BY RF-SCORE:    0.00 PKD
ROOT
HETATM    1  C   UNL     1      -8.699  13.337  68.986  1.00  0.00     0.443 C  
HETATM    2  S   UNL     1     -10.270  12.654  68.404  1.00  0.00    -0.211 SA 
HETATM    3  C   UNL     1      -9.872  10.983  68.947  1.00  0.00    -0.177 C  
HETATM    4  C   UNL     1      -8.482  10.485  68.565  1.00  0.00    -0.131 C  
HETATM    5  CA  UNL     1      -7.434  11.309  68.258  1.00  0.00    -0.099 C  
HETATM    6  CA  UNL     1      -8.244  14.652  68.274  1.00  0.00    -0.146 C  
HETATM    7  C   UNL     1      -6.081  10.727  67.888  1.00  0.00    -0.046 C  
HETATM    8  O   UNL     1      -5.977  13.910  67.227  1.00  0.00    -0.318 OA 
HETATM    9  N   UNL     1      -7.610  12.667  68.304  1.00  0.00    -0.125 N  
HETATM   10  OXT UNL     1      -5.712   9.612  68.233  1.00  0.00    -0.040 OA 
HETATM   11  C   UNL     1      -7.005  13.786  67.850  1.00  0.00    -0.155 C  
HETATM   12  O   UNL     1      -5.256  11.497  67.156  1.00  0.00    -0.059 OA 
ENDROOT
BRANCH   4  13
HETATM   13  C   UNL     1      -8.436   9.017  68.457  1.00  0.00    -0.128 C  
HETATM   14  C   UNL     1      -8.504   8.155  69.485  1.00  0.00    -0.127 C  
HETATM   15  C   UNL     1      -8.512   6.668  69.329  1.00  0.00    -0.124 C  
ENDBRANCH   4  13
BRANCH   6  16
HETATM   16  N   UNL     1      -9.106  15.095  67.157  1.00  0.00    -0.200 N  
HETATM   17  H   UNL     1      -9.870  14.479  66.877  1.00  0.00     0.000 HD 
HETATM   18  C   UNL     1      -8.955  16.275  66.467  1.00  0.00    -0.278 C  
HETATM   19  O   UNL     1      -8.126  17.127  66.767  1.00  0.00    -0.205 OA 
BRANCH  18  20
HETATM   20  CA  UNL     1      -9.938  16.403  65.276  1.00  0.00     0.158 C  
HETATM   21  H2  UNL     1     -10.142  18.479  65.520  1.00  0.00     0.000 HD 
HETATM   22  N   UNL     1     -10.735  17.655  65.419  1.00  0.00    -0.579 NA 
HETATM   23  H1  UNL     1     -11.382  17.740  64.636  1.00  0.00     0.000 HD 
BRANCH  20  24
HETATM   24  C   UNL     1     -10.828  15.180  65.152  1.00  0.00    -0.437 A  
HETATM   25  C   UNL     1     -10.412  14.105  64.350  1.00  0.00    -0.034 A  
HETATM   26  C   UNL     1     -11.221  12.978  64.184  1.00  0.00    -0.439 A  
HETATM   27  C   UNL     1     -12.450  12.915  64.831  1.00  0.00    -0.478 A  
HETATM   28  C   UNL     1     -12.868  13.947  65.661  1.00  0.00    -0.467 A  
HETATM   29  O   UNL     1     -13.285  11.851  64.670  1.00  0.00    -0.311 OA 
HETATM   30  H   UNL     1     -14.125  11.809  65.113  1.00  0.00     0.000 HD 
HETATM   31  C   UNL     1     -12.057  15.072  65.828  1.00  0.00     0.130 A  
ENDBRANCH  20  24
ENDBRANCH  18  20
ENDBRANCH   6  16
TORSDOF 4
ENDMDL
MODEL      149
REMARK 921   NORMALIZED FREE ENERGY PREDICTED BY IDOCK:   -3.24 KCAL/MOL
REMARK 922        TOTAL FREE ENERGY PREDICTED BY IDOCK:   -4.81 KCAL/MOL
REMARK 923 INTER-LIGAND FREE ENERGY PREDICTED BY IDOCK:   -4.22 KCAL/MOL
REMARK 924 INTRA-LIGAND FREE ENERGY PREDICTED BY IDOCK:   -0.58 KCAL/MOL
REMARK 927      BINDING AFFINITY PREDICTED BY RF-SCORE:    0.00 PKD
ROOT
HETATM    1  C   UNL     1      -7.477   7.796  68.742  1.00  0.00    -0.096 C  
HETATM    2  S   UNL     1      -7.720   9.588  68.793  1.00  0.00    -0.081 SA 
HETATM    3  C   UNL     1      -8.801   9.511  70.232  1.00  0.00    -0.243 C  
HETATM    4  C   UNL     1      -9.904   8.460  70.166  1.00  0.00    -0.183 C  
HETATM    5  CA  UNL     1      -9.859   7.357  69.358  1.00  0.00    -0.168 C  
HETATM    6  CA  UNL     1      -7.073   7.222  67.345  1.00  0.00    -0.088 C  
HETATM    7  C   UNL     1     -11.003   6.358  69.355  1.00  0.00    -0.359 C  
HETATM    8  O   UNL     1      -9.056   5.604  66.861  1.00  0.00    -0.115 OA 
HETATM    9  N   UNL     1      -8.763   7.150  68.563  1.00  0.00    -0.126 N  
HETATM   10  OXT UNL     1     -11.773   6.215  70.296  1.00  0.00    -0.319 OA 
HETATM   11  C   UNL     1      -8.414   6.419  67.482  1.00  0.00    -0.116 C  
HETATM   12  O   UNL     1     -11.151   5.591  68.260  1.00  0.00     0.009 OA 
ENDROOT
BRANCH   4  13
HETATM   13  C   UNL     1     -11.068   8.833  70.988  1.00  0.00    -0.328 C  
HETATM   14  C   UNL     1     -12.113   9.570  70.575  1.00  0.00    -0.148 C  
HETATM   15  C   UNL     1     -13.304   9.878  71.424  1.00  0.00    -0.447 C  
ENDBRANCH   4  13
BRANCH   6  16
HETATM   16  N   UNL     1      -7.047   8.208  66.242  1.00  0.00    -0.072 N  
HETATM   17  H   UNL     1      -7.183   9.190  66.483  1.00  0.00     0.000 HD 
HETATM   18  C   UNL     1      -6.852   7.900  64.916  1.00  0.00    -0.054 C  
HETATM   19  O   UNL     1      -6.596   6.768  64.520  1.00  0.00    -0.040 OA 
BRANCH  18  20
HETATM   20  CA  UNL     1      -6.993   9.132  63.987  1.00  0.00    -0.089 C  
HETATM   21  H2  UNL     1      -4.951   9.139  63.494  1.00  0.00     0.000 HD 
HETATM   22  N   UNL     1      -5.665   9.789  63.824  1.00  0.00    -0.098 NA 
HETATM   23  H1  UNL     1      -5.757  10.600  63.212  1.00  0.00     0.000 HD 
BRANCH  20  24
HETATM   24  C   UNL     1      -8.042  10.101  64.500  1.00  0.00    -0.160 A  
HETATM   25  C   UNL     1      -7.678  11.071  65.448  1.00  0.00     0.215 A  
HETATM   26  C   UNL     1      -8.625  11.957  65.968  1.00  0.00     0.129 A  
HETATM   27  C   UNL     1      -9.944  11.884  65.533  1.00  0.00    -0.238 A  
HETATM   28  C   UNL     1     -10.322  10.960  64.569  1.00  0.00    -0.417 A  
HETATM   29  O   UNL     1     -10.906  12.704  66.039  1.00  0.00    -0.269 OA 
HETATM   30  H   UNL     1     -11.807  12.654  65.742  1.00  0.00     0.000 HD 
HETATM   31  C   UNL     1      -9.374  10.077  64.047  1.00  0.00    -0.324 A  
ENDBRANCH  20  24
ENDBRANCH  18  20
ENDBRANCH   6  16
TORSDOF 4
ENDMDL
MODEL      150
REMARK 921   NORMALIZED FREE ENERGY PREDICTED BY IDOCK:   -3.14 KCAL/MOL
REMARK 922        TOTAL FREE ENERGY PREDICTED BY IDOCK:   -4.69 KCAL/MOL
REMARK 923 INTER-LIGAND FREE ENERGY PREDICTED BY IDOCK:   -4.55 KCAL/MOL
REMARK 924 INTRA-LIGAND FREE ENERGY PREDICTED BY IDOCK:   -0.13 KCAL/MOL
REMARK 927      BINDING AFFINITY PREDICTED BY RF-SCORE:    0.00 PKD
ROOT
HETATM    1  C   UNL     1      -6.269   7.451  66.992  1.00  0.00    -0.047 C  
HETATM    2  S   UNL     1      -6.602   7.885  68.716  1.00  0.00    -0.054 SA 
HETATM    3  C   UNL     1      -5.951   6.328  69.348  1.00  0.00    -0.021 C  
HETATM    4  C   UNL     1      -6.440   5.075  68.629  1.00  0.00    -0.037 C  
HETATM    5  CA  UNL     1      -6.941   5.073  67.356  1.00  0.00    -0.065 C  
HETATM    6  CA  UNL     1      -7.149   8.200  65.939  1.00  0.00    -0.064 C  
HETATM    7  C   UNL     1      -7.405   3.777  66.715  1.00  0.00    -0.068 C  
HETATM    8  O   UNL     1      -8.372   6.211  64.785  1.00  0.00    -0.135 OA 
HETATM    9  N   UNL     1      -7.004   6.248  66.656  1.00  0.00    -0.066 N  
HETATM   10  OXT UNL     1      -7.000   2.674  67.058  1.00  0.00    -0.047 OA 
HETATM   11  C   UNL     1      -7.627   6.752  65.568  1.00  0.00    -0.088 C  
HETATM   12  O   UNL     1      -8.296   3.868  65.711  1.00  0.00    -0.107 OA 
ENDROOT
BRANCH   4  13
HETATM   13  C   UNL     1      -6.413   3.893  69.507  1.00  0.00    -0.033 C  
HETATM   14  C   UNL     1      -7.152   3.726  70.617  1.00  0.00    -0.034 C  
HETATM   15  C   UNL     1      -7.138   2.485  71.450  1.00  0.00    -0.032 C  
ENDBRANCH   4  13
BRANCH   6  16
HETATM   16  N   UNL     1      -8.198   9.077  66.504  1.00  0.00    -0.113 N  
HETATM   17  H   UNL     1      -8.093   9.375  67.474  1.00  0.00     0.000 HD 
HETATM   18  C   UNL     1      -9.305   9.521  65.819  1.00  0.00    -0.233 C  
HETATM   19  O   UNL     1      -9.493   9.295  64.628  1.00  0.00    -0.091 OA 
BRANCH  18  20
HETATM   20  CA  UNL     1     -10.280  10.328  66.713  1.00  0.00    -0.228 C  
HETATM   21  H2  UNL     1     -10.950   8.615  67.727  1.00  0.00     0.000 HD 
HETATM   22  N   UNL     1     -11.340   9.422  67.240  1.00  0.00    -0.045 NA 
HETATM   23  H1  UNL     1     -11.982   9.953  67.829  1.00  0.00     0.000 HD 
BRANCH  20  24
HETATM   24  C   UNL     1     -10.868  11.513  65.970  1.00  0.00    -0.330 A  
HETATM   25  C   UNL     1     -12.019  12.140  66.475  1.00  0.00    -0.198 A  
HETATM   26  C   UNL     1     -12.608  13.211  65.799  1.00  0.00    -0.351 A  
HETATM   27  C   UNL     1     -12.042  13.669  64.614  1.00  0.00    -0.412 A  
HETATM   28  C   UNL     1     -10.883  13.092  64.113  1.00  0.00    -0.407 A  
HETATM   29  O   UNL     1     -12.603  14.687  63.905  1.00  0.00    -0.931 OA 
HETATM   30  H   UNL     1     -12.216  15.000  63.096  1.00  0.00     0.000 HD 
HETATM   31  C   UNL     1     -10.293  12.024  64.792  1.00  0.00    -0.318 A  
ENDBRANCH  20  24
ENDBRANCH  18  20
ENDBRANCH   6  16
TORSDOF 4
ENDMDL
MODEL      151
REMARK 921   NORMALIZED FREE ENERGY PREDICTED BY IDOCK:   -3.12 KCAL/MOL
REMARK 922        TOTAL FREE ENERGY PREDICTED BY IDOCK:   -4.66 KCAL/MOL
REMARK 923 INTER-LIGAND FREE ENERGY PREDICTED BY IDOCK:   -5.12 KCAL/MOL
REMARK 924 INTRA-LIGAND FREE ENERGY PREDICTED BY IDOCK:    0.46 KCAL/MOL
REMARK 927      BINDING AFFINITY PREDICTED BY RF-SCORE:    0.00 PKD
ROOT
HETATM    1  C   UNL     1      -9.688  11.407  67.697  1.00  0.00    -0.172 C  
HETATM    2  S   UNL     1     -10.641  12.922  67.958  1.00  0.00    -0.233 SA 
HETATM    3  C   UNL     1      -9.540  13.920  66.939  1.00  0.00    -0.269 C  
HETATM    4  C   UNL     1      -8.051  13.740  67.215  1.00  0.00    -0.154 C  
HETATM    5  CA  UNL     1      -7.515  12.635  67.817  1.00  0.00    -0.131 C  
HETATM    6  CA  UNL     1      -9.857  10.318  68.806  1.00  0.00    -0.180 C  
HETATM    7  C   UNL     1      -6.018  12.538  68.053  1.00  0.00    -0.081 C  
HETATM    8  O   UNL     1      -7.414  10.091  69.680  1.00  0.00    -0.100 OA 
HETATM    9  N   UNL     1      -8.339  11.606  68.189  1.00  0.00    -0.147 N  
HETATM   10  OXT UNL     1      -5.192  13.157  67.395  1.00  0.00    -0.313 OA 
HETATM   11  C   UNL     1      -8.313  10.525  68.999  1.00  0.00    -0.154 C  
HETATM   12  O   UNL     1      -5.598  11.713  69.029  1.00  0.00    -0.050 OA 
ENDROOT
BRANCH   4  13
HETATM   13  C   UNL     1      -7.278  14.943  66.861  1.00  0.00     0.455 C  
HETATM   14  C   UNL     1      -7.774  16.187  66.748  1.00  0.00    -0.288 C  
HETATM   15  C   UNL     1      -6.944  17.392  66.443  1.00  0.00    -0.314 C  
ENDBRANCH   4  13
BRANCH   6  16
HETATM   16  N   UNL     1     -10.689  10.720  69.962  1.00  0.00    -0.465 N  
HETATM   17  H   UNL     1     -10.233  11.234  70.716  1.00  0.00     0.000 HD 
HETATM   18  C   UNL     1     -12.031  10.452  70.095  1.00  0.00    -0.276 C  
HETATM   19  O   UNL     1     -12.699   9.915  69.219  1.00  0.00     0.706 OA 
BRANCH  18  20
HETATM   20  CA  UNL     1     -12.598  10.898  71.467  1.00  0.00    -0.375 C  
HETATM   21  H2  UNL     1     -13.834   9.208  71.635  1.00  0.00     0.000 HD 
HETATM   22  N   UNL     1     -13.904  10.224  71.711  1.00  0.00    -0.016 NA 
HETATM   23  H1  UNL     1     -14.278  10.517  72.614  1.00  0.00     0.000 HD 
BRANCH  20  24
HETATM   24  C   UNL     1     -12.717  12.408  71.558  1.00  0.00    -0.333 A  
HETATM   25  C   UNL     1     -12.112  13.207  70.574  1.00  0.00    -0.385 A  
HETATM   26  C   UNL     1     -12.172  14.602  70.644  1.00  0.00    -0.394 A  
HETATM   27  C   UNL     1     -12.849  15.206  71.698  1.00  0.00    -0.364 A  
HETATM   28  C   UNL     1     -13.489  14.439  72.662  1.00  0.00    -0.605 A  
HETATM   29  O   UNL     1     -12.903  16.561  71.824  1.00  0.00    -0.144 OA 
HETATM   30  H   UNL     1     -13.366  16.974  72.544  1.00  0.00     0.000 HD 
HETATM   31  C   UNL     1     -13.431  13.046  72.589  1.00  0.00    -0.337 A  
ENDBRANCH  20  24
ENDBRANCH  18  20
ENDBRANCH   6  16
TORSDOF 4
ENDMDL
MODEL      152
REMARK 921   NORMALIZED FREE ENERGY PREDICTED BY IDOCK:   -3.05 KCAL/MOL
REMARK 922        TOTAL FREE ENERGY PREDICTED BY IDOCK:   -4.58 KCAL/MOL
REMARK 923 INTER-LIGAND FREE ENERGY PREDICTED BY IDOCK:   -5.01 KCAL/MOL
REMARK 924 INTRA-LIGAND FREE ENERGY PREDICTED BY IDOCK:    0.43 KCAL/MOL
REMARK 927      BINDING AFFINITY PREDICTED BY RF-SCORE:    0.00 PKD
ROOT
HETATM    1  C   UNL     1      -8.121   5.889  67.987  1.00  0.00    -0.105 C  
HETATM    2  S   UNL     1      -6.856   7.129  68.354  1.00  0.00    -0.076 SA 
HETATM    3  C   UNL     1      -6.746   6.664  70.091  1.00  0.00    -0.052 C  
HETATM    4  C   UNL     1      -8.081   6.506  70.811  1.00  0.00    -0.120 C  
HETATM    5  CA  UNL     1      -9.268   6.269  70.174  1.00  0.00    -0.157 C  
HETATM    6  CA  UNL     1      -9.016   6.203  66.745  1.00  0.00    -0.124 C  
HETATM    7  C   UNL     1     -10.552   6.124  70.971  1.00  0.00    -0.246 C  
HETATM    8  O   UNL     1     -11.380   6.322  67.831  1.00  0.00    -0.257 OA 
HETATM    9  N   UNL     1      -9.287   6.145  68.810  1.00  0.00    -0.123 N  
HETATM   10  OXT UNL     1     -10.580   5.787  72.147  1.00  0.00    -0.205 OA 
HETATM   11  C   UNL     1     -10.179   6.185  67.798  1.00  0.00    -0.172 C  
HETATM   12  O   UNL     1     -11.710   6.368  70.329  1.00  0.00    -0.411 OA 
ENDROOT
BRANCH   4  13
HETATM   13  C   UNL     1      -7.956   6.751  72.258  1.00  0.00    -0.095 C  
HETATM   14  C   UNL     1      -7.752   7.948  72.834  1.00  0.00    -0.158 C  
HETATM   15  C   UNL     1      -7.689   8.164  74.312  1.00  0.00    -0.277 C  
ENDBRANCH   4  13
BRANCH   6  16
HETATM   16  N   UNL     1      -8.772   7.516  66.108  1.00  0.00    -0.151 N  
HETATM   17  H   UNL     1      -7.885   7.646  65.619  1.00  0.00     0.000 HD 
HETATM   18  C   UNL     1      -9.650   8.573  66.123  1.00  0.00    -0.206 C  
HETATM   19  O   UNL     1     -10.775   8.505  66.607  1.00  0.00    -0.191 OA 
BRANCH  18  20
HETATM   20  CA  UNL     1      -9.063   9.850  65.471  1.00  0.00    -0.189 C  
HETATM   21  H2  UNL     1      -7.601   8.777  64.413  1.00  0.00     0.000 HD 
HETATM   22  N   UNL     1      -7.664   9.587  65.029  1.00  0.00    -0.109 NA 
HETATM   23  H1  UNL     1      -7.277  10.428  64.599  1.00  0.00     0.000 HD 
BRANCH  20  24
HETATM   24  C   UNL     1      -9.144  11.043  66.406  1.00  0.00    -0.191 A  
HETATM   25  C   UNL     1      -7.986  11.477  67.071  1.00  0.00    -0.161 A  
HETATM   26  C   UNL     1      -8.030  12.549  67.965  1.00  0.00    -0.153 A  
HETATM   27  C   UNL     1      -9.237  13.203  68.192  1.00  0.00    -0.215 A  
HETATM   28  C   UNL     1     -10.388  12.819  67.518  1.00  0.00    -0.219 A  
HETATM   29  O   UNL     1      -9.332  14.230  69.081  1.00  0.00    -0.397 OA 
HETATM   30  H   UNL     1     -10.156  14.677  69.235  1.00  0.00     0.000 HD 
HETATM   31  C   UNL     1     -10.342  11.749  66.622  1.00  0.00    -0.251 A  
ENDBRANCH  20  24
ENDBRANCH  18  20
ENDBRANCH   6  16
TORSDOF 4
ENDMDL
MODEL      153
REMARK 921   NORMALIZED FREE ENERGY PREDICTED BY IDOCK:   -3.05 KCAL/MOL
REMARK 922        TOTAL FREE ENERGY PREDICTED BY IDOCK:   -4.57 KCAL/MOL
REMARK 923 INTER-LIGAND FREE ENERGY PREDICTED BY IDOCK:   -4.67 KCAL/MOL
REMARK 924 INTRA-LIGAND FREE ENERGY PREDICTED BY IDOCK:    0.10 KCAL/MOL
REMARK 927      BINDING AFFINITY PREDICTED BY RF-SCORE:    0.00 PKD
ROOT
HETATM    1  C   UNL     1      -9.898  11.049  66.823  1.00  0.00    -0.197 C  
HETATM    2  S   UNL     1      -8.220  11.213  67.477  1.00  0.00    -0.122 SA 
HETATM    3  C   UNL     1      -8.511  12.873  68.113  1.00  0.00    -0.176 C  
HETATM    4  C   UNL     1      -9.193  13.834  67.146  1.00  0.00    -0.245 C  
HETATM    5  CA  UNL     1      -9.946  13.433  66.077  1.00  0.00    -0.293 C  
HETATM    6  CA  UNL     1     -10.058  10.021  65.656  1.00  0.00    -0.251 C  
HETATM    7  C   UNL     1     -10.591  14.460  65.163  1.00  0.00    -0.410 C  
HETATM    8  O   UNL     1     -10.915  11.555  63.734  1.00  0.00    -0.375 OA 
HETATM    9  N   UNL     1     -10.130  12.095  65.847  1.00  0.00    -0.239 N  
HETATM   10  OXT UNL     1     -10.851  15.603  65.513  1.00  0.00    -0.338 OA 
HETATM   11  C   UNL     1     -10.524  11.281  64.844  1.00  0.00    -0.314 C  
HETATM   12  O   UNL     1     -10.898  14.069  63.912  1.00  0.00     0.121 OA 
ENDROOT
BRANCH   4  13
HETATM   13  C   UNL     1      -8.850  15.237  67.433  1.00  0.00    -0.191 C  
HETATM   14  C   UNL     1      -9.387  15.990  68.408  1.00  0.00    -0.207 C  
HETATM   15  C   UNL     1      -8.970  17.394  68.705  1.00  0.00    -0.255 C  
ENDBRANCH   4  13
BRANCH   6  16
HETATM   16  N   UNL     1      -8.799   9.405  65.183  1.00  0.00    -0.184 N  
HETATM   17  H   UNL     1      -8.131   9.094  65.888  1.00  0.00     0.000 HD 
HETATM   18  C   UNL     1      -8.462   9.220  63.863  1.00  0.00    -0.190 C  
HETATM   19  O   UNL     1      -9.220   9.478  62.933  1.00  0.00    -0.237 OA 
BRANCH  18  20
HETATM   20  CA  UNL     1      -7.030   8.656  63.683  1.00  0.00    -0.088 C  
HETATM   21  H2  UNL     1      -6.483  10.163  62.326  1.00  0.00     0.000 HD 
HETATM   22  N   UNL     1      -6.459   9.145  62.396  1.00  0.00    -0.094 NA 
HETATM   23  H1  UNL     1      -5.516   8.775  62.277  1.00  0.00     0.000 HD 
BRANCH  20  24
HETATM   24  C   UNL     1      -7.012   7.141  63.768  1.00  0.00    -0.060 A  
HETATM   25  C   UNL     1      -7.811   6.392  62.889  1.00  0.00    -0.100 A  
HETATM   26  C   UNL     1      -7.846   4.997  62.961  1.00  0.00    -0.074 A  
HETATM   27  C   UNL     1      -7.069   4.341  63.910  1.00  0.00    -0.046 A  
HETATM   28  C   UNL     1      -6.241   5.055  64.765  1.00  0.00    -0.033 A  
HETATM   29  O   UNL     1      -7.099   2.985  64.038  1.00  0.00    -0.046 OA 
HETATM   30  H   UNL     1      -6.568   2.537  64.686  1.00  0.00     0.000 HD 
HETATM   31  C   UNL     1      -6.204   6.449  64.689  1.00  0.00    -0.030 A  
ENDBRANCH  20  24
ENDBRANCH  18  20
ENDBRANCH   6  16
TORSDOF 4
ENDMDL
MODEL      154
REMARK 921   NORMALIZED FREE ENERGY PREDICTED BY IDOCK:   -2.97 KCAL/MOL
REMARK 922        TOTAL FREE ENERGY PREDICTED BY IDOCK:   -4.47 KCAL/MOL
REMARK 923 INTER-LIGAND FREE ENERGY PREDICTED BY IDOCK:   -3.88 KCAL/MOL
REMARK 924 INTRA-LIGAND FREE ENERGY PREDICTED BY IDOCK:   -0.60 KCAL/MOL
REMARK 927      BINDING AFFINITY PREDICTED BY RF-SCORE:    0.00 PKD
ROOT
HETATM    1  C   UNL     1      -7.081   5.347  70.110  1.00  0.00    -0.065 C  
HETATM    2  S   UNL     1      -6.295   6.836  69.449  1.00  0.00    -0.044 SA 
HETATM    3  C   UNL     1      -5.682   7.360  71.061  1.00  0.00    -0.035 C  
HETATM    4  C   UNL     1      -6.701   7.314  72.194  1.00  0.00    -0.055 C  
HETATM    5  CA  UNL     1      -7.828   6.538  72.176  1.00  0.00    -0.098 C  
HETATM    6  CA  UNL     1      -8.258   4.782  69.250  1.00  0.00    -0.077 C  
HETATM    7  C   UNL     1      -8.790   6.552  73.350  1.00  0.00    -0.123 C  
HETATM    8  O   UNL     1     -10.242   4.935  70.930  1.00  0.00    -0.227 OA 
HETATM    9  N   UNL     1      -8.073   5.733  71.095  1.00  0.00    -0.115 N  
HETATM   10  OXT UNL     1      -8.460   6.868  74.486  1.00  0.00    -0.151 OA 
HETATM   11  C   UNL     1      -9.104   5.059  70.542  1.00  0.00    -0.138 C  
HETATM   12  O   UNL     1     -10.061   6.181  73.113  1.00  0.00    -0.174 OA 
ENDROOT
BRANCH   4  13
HETATM   13  C   UNL     1      -6.386   8.285  73.256  1.00  0.00    -0.111 C  
HETATM   14  C   UNL     1      -5.388   9.185  73.221  1.00  0.00    -0.103 C  
HETATM   15  C   UNL     1      -5.136  10.193  74.296  1.00  0.00    -0.042 C  
ENDBRANCH   4  13
BRANCH   6  16
HETATM   16  N   UNL     1      -8.629   5.601  68.075  1.00  0.00    -0.102 N  
HETATM   17  H   UNL     1      -8.118   6.471  67.924  1.00  0.00     0.000 HD 
HETATM   18  C   UNL     1      -9.612   5.277  67.170  1.00  0.00    -0.141 C  
HETATM   19  O   UNL     1     -10.234   4.220  67.203  1.00  0.00    -0.099 OA 
BRANCH  18  20
HETATM   20  CA  UNL     1      -9.846   6.388  66.115  1.00  0.00     0.103 C  
HETATM   21  H2  UNL     1      -8.623   5.450  64.688  1.00  0.00     0.000 HD 
HETATM   22  N   UNL     1      -8.740   6.369  65.116  1.00  0.00    -0.353 NA 
HETATM   23  H1  UNL     1      -8.893   7.100  64.421  1.00  0.00     0.000 HD 
BRANCH  20  24
HETATM   24  C   UNL     1      -9.997   7.751  66.764  1.00  0.00    -0.331 A  
HETATM   25  C   UNL     1      -9.608   8.899  66.054  1.00  0.00    -0.320 A  
HETATM   26  C   UNL     1      -9.699  10.167  66.632  1.00  0.00    -0.242 A  
HETATM   27  C   UNL     1     -10.192  10.296  67.927  1.00  0.00    -0.183 A  
HETATM   28  C   UNL     1     -10.620   9.182  68.636  1.00  0.00    -0.207 A  
HETATM   29  O   UNL     1     -10.267  11.509  68.542  1.00  0.00    -0.201 OA 
HETATM   30  H   UNL     1     -10.604  11.596  69.425  1.00  0.00     0.000 HD 
HETATM   31  C   UNL     1     -10.531   7.915  68.055  1.00  0.00    -0.245 A  
ENDBRANCH  20  24
ENDBRANCH  18  20
ENDBRANCH   6  16
TORSDOF 4
ENDMDL
MODEL      155
REMARK 921   NORMALIZED FREE ENERGY PREDICTED BY IDOCK:   -2.92 KCAL/MOL
REMARK 922        TOTAL FREE ENERGY PREDICTED BY IDOCK:   -4.42 KCAL/MOL
REMARK 923 INTER-LIGAND FREE ENERGY PREDICTED BY IDOCK:   -3.79 KCAL/MOL
REMARK 924 INTRA-LIGAND FREE ENERGY PREDICTED BY IDOCK:   -0.63 KCAL/MOL
REMARK 927      BINDING AFFINITY PREDICTED BY RF-SCORE:    0.00 PKD
ROOT
HETATM    1  C   UNL     1      -9.867  19.068  67.296  1.00  0.00    -0.326 C  
HETATM    2  S   UNL     1     -10.176  18.574  69.008  1.00  0.00     0.040 SA 
HETATM    3  C   UNL     1      -8.945  19.709  69.674  1.00  0.00     0.485 C  
HETATM    4  C   UNL     1      -7.593  19.694  68.968  1.00  0.00    -0.320 C  
HETATM    5  CA  UNL     1      -7.406  19.248  67.688  1.00  0.00    -0.236 C  
HETATM    6  CA  UNL     1     -10.255  18.003  66.219  1.00  0.00    -0.381 C  
HETATM    7  C   UNL     1      -6.023  19.269  67.062  1.00  0.00    -0.177 C  
HETATM    8  O   UNL     1      -7.956  17.560  65.080  1.00  0.00     0.838 OA 
HETATM    9  N   UNL     1      -8.480  18.797  66.969  1.00  0.00    -0.274 N  
HETATM   10  OXT UNL     1      -5.130  20.022  67.428  1.00  0.00    -0.165 OA 
HETATM   11  C   UNL     1      -8.728  18.059  65.865  1.00  0.00     0.190 C  
HETATM   12  O   UNL     1      -5.792  18.420  66.044  1.00  0.00    -0.157 OA 
ENDROOT
BRANCH   4  13
HETATM   13  C   UNL     1      -6.501  20.110  69.865  1.00  0.00    -0.326 C  
HETATM   14  C   UNL     1      -6.585  20.216  71.202  1.00  0.00     0.135 C  
HETATM   15  C   UNL     1      -5.436  20.587  72.083  1.00  0.00    -0.001 C  
ENDBRANCH   4  13
BRANCH   6  16
HETATM   16  N   UNL     1     -10.724  16.706  66.755  1.00  0.00    -0.200 N  
HETATM   17  H   UNL     1     -11.075  16.690  67.713  1.00  0.00     0.000 HD 
HETATM   18  C   UNL     1     -10.722  15.520  66.059  1.00  0.00    -0.326 C  
HETATM   19  O   UNL     1     -10.401  15.435  64.878  1.00  0.00    -0.367 OA 
BRANCH  18  20
HETATM   20  CA  UNL     1     -11.163  14.315  66.927  1.00  0.00    -0.326 C  
HETATM   21  H2  UNL     1     -10.832  15.343  68.728  1.00  0.00     0.000 HD 
HETATM   22  N   UNL     1     -10.591  14.450  68.297  1.00  0.00    -0.238 NA 
HETATM   23  H1  UNL     1     -10.881  13.656  68.869  1.00  0.00     0.000 HD 
BRANCH  20  24
HETATM   24  C   UNL     1     -10.780  12.994  66.284  1.00  0.00    -0.290 A  
HETATM   25  C   UNL     1      -9.476  12.500  66.450  1.00  0.00    -0.233 A  
HETATM   26  C   UNL     1      -9.079  11.305  65.844  1.00  0.00    -0.217 A  
HETATM   27  C   UNL     1      -9.990  10.591  65.074  1.00  0.00    -0.322 A  
HETATM   28  C   UNL     1     -11.296  11.037  64.926  1.00  0.00     0.224 A  
HETATM   29  O   UNL     1      -9.635   9.440  64.438  1.00  0.00    -0.389 OA 
HETATM   30  H   UNL     1     -10.258   8.952  63.912  1.00  0.00     0.000 HD 
HETATM   31  C   UNL     1     -11.693  12.230  65.534  1.00  0.00    -0.433 A  
ENDBRANCH  20  24
ENDBRANCH  18  20
ENDBRANCH   6  16
TORSDOF 4
ENDMDL
MODEL      156
REMARK 921   NORMALIZED FREE ENERGY PREDICTED BY IDOCK:   -2.72 KCAL/MOL
REMARK 922        TOTAL FREE ENERGY PREDICTED BY IDOCK:   -4.17 KCAL/MOL
REMARK 923 INTER-LIGAND FREE ENERGY PREDICTED BY IDOCK:   -6.65 KCAL/MOL
REMARK 924 INTRA-LIGAND FREE ENERGY PREDICTED BY IDOCK:    2.48 KCAL/MOL
REMARK 927      BINDING AFFINITY PREDICTED BY RF-SCORE:    0.00 PKD
ROOT
HETATM    1  C   UNL     1      -9.379  14.292  68.763  1.00  0.00    -0.119 C  
HETATM    2  S   UNL     1      -9.991  12.590  68.751  1.00  0.00     0.075 SA 
HETATM    3  C   UNL     1      -9.514  12.314  67.036  1.00  0.00    -0.204 C  
HETATM    4  C   UNL     1      -9.913  13.416  66.061  1.00  0.00    -0.300 C  
HETATM    5  CA  UNL     1     -10.186  14.703  66.435  1.00  0.00    -0.289 C  
HETATM    6  CA  UNL     1     -10.037  15.225  69.831  1.00  0.00    -0.188 C  
HETATM    7  C   UNL     1     -10.577  15.739  65.395  1.00  0.00    -0.421 C  
HETATM    8  O   UNL     1     -11.109  17.057  68.321  1.00  0.00    -0.337 OA 
HETATM    9  N   UNL     1     -10.086  15.056  67.754  1.00  0.00    -0.233 N  
HETATM   10  OXT UNL     1     -10.276  15.652  64.212  1.00  0.00     0.315 OA 
HETATM   11  C   UNL     1     -10.493  16.049  68.575  1.00  0.00    -0.258 C  
HETATM   12  O   UNL     1     -11.276  16.808  65.819  1.00  0.00     0.121 OA 
ENDROOT
BRANCH   4  13
HETATM   13  C   UNL     1     -10.080  12.902  64.690  1.00  0.00    -0.254 C  
HETATM   14  C   UNL     1     -11.103  12.145  64.258  1.00  0.00    -0.403 C  
HETATM   15  C   UNL     1     -11.265  11.691  62.843  1.00  0.00     0.237 C  
ENDBRANCH   4  13
BRANCH   6  16
HETATM   16  N   UNL     1     -11.138  14.615  70.609  1.00  0.00    -0.499 N  
HETATM   17  H   UNL     1     -11.243  13.601  70.563  1.00  0.00     0.000 HD 
HETATM   18  C   UNL     1     -12.029  15.312  71.391  1.00  0.00    -0.368 C  
HETATM   19  O   UNL     1     -11.949  16.520  71.587  1.00  0.00    -0.337 OA 
BRANCH  18  20
HETATM   20  CA  UNL     1     -13.137  14.408  71.988  1.00  0.00    -0.361 C  
HETATM   21  H2  UNL     1     -13.255  15.528  73.761  1.00  0.00     0.000 HD 
HETATM   22  N   UNL     1     -13.155  14.554  73.471  1.00  0.00    -0.472 NA 
HETATM   23  H1  UNL     1     -13.885  13.960  73.865  1.00  0.00     0.000 HD 
BRANCH  20  24
HETATM   24  C   UNL     1     -12.964  12.960  71.566  1.00  0.00    -0.388 A  
HETATM   25  C   UNL     1     -13.497  11.941  72.372  1.00  0.00     0.028 A  
HETATM   26  C   UNL     1     -13.328  10.596  72.034  1.00  0.00    -0.409 A  
HETATM   27  C   UNL     1     -12.630  10.263  70.877  1.00  0.00    -0.371 A  
HETATM   28  C   UNL     1     -12.127  11.252  70.043  1.00  0.00    -0.425 A  
HETATM   29  O   UNL     1     -12.412   8.964  70.528  1.00  0.00    -0.475 OA 
HETATM   30  H   UNL     1     -11.936   8.737  69.738  1.00  0.00     0.000 HD 
HETATM   31  C   UNL     1     -12.300  12.596  70.381  1.00  0.00    -0.315 A  
ENDBRANCH  20  24
ENDBRANCH  18  20
ENDBRANCH   6  16
TORSDOF 4
ENDMDL
MODEL      157
REMARK 921   NORMALIZED FREE ENERGY PREDICTED BY IDOCK:   -2.58 KCAL/MOL
REMARK 922        TOTAL FREE ENERGY PREDICTED BY IDOCK:   -4.00 KCAL/MOL
REMARK 923 INTER-LIGAND FREE ENERGY PREDICTED BY IDOCK:   -4.61 KCAL/MOL
REMARK 924 INTRA-LIGAND FREE ENERGY PREDICTED BY IDOCK:    0.61 KCAL/MOL
REMARK 927      BINDING AFFINITY PREDICTED BY RF-SCORE:    0.00 PKD
ROOT
HETATM    1  C   UNL     1     -10.501  10.988  67.199  1.00  0.00    -0.232 C  
HETATM    2  S   UNL     1      -8.843  10.895  67.916  1.00  0.00    -0.138 SA 
HETATM    3  C   UNL     1      -8.822  12.638  68.370  1.00  0.00    -0.119 C  
HETATM    4  C   UNL     1      -9.273  13.603  67.280  1.00  0.00    -0.232 C  
HETATM    5  CA  UNL     1     -10.058  13.243  66.219  1.00  0.00    -0.294 C  
HETATM    6  CA  UNL     1     -10.825   9.892  66.133  1.00  0.00     0.288 C  
HETATM    7  C   UNL     1     -10.462  14.271  65.177  1.00  0.00    -0.411 C  
HETATM    8  O   UNL     1     -11.307  11.348  64.028  1.00  0.00    -0.353 OA 
HETATM    9  N   UNL     1     -10.494  11.949  66.114  1.00  0.00    -0.230 N  
HETATM   10  OXT UNL     1     -10.503  15.474  65.400  1.00  0.00    -0.349 OA 
HETATM   11  C   UNL     1     -11.011  11.123  65.178  1.00  0.00    -0.086 C  
HETATM   12  O   UNL     1     -10.803  13.816  63.958  1.00  0.00    -0.190 OA 
ENDROOT
BRANCH   4  13
HETATM   13  C   UNL     1      -8.670  14.937  67.444  1.00  0.00    -0.208 C  
HETATM   14  C   UNL     1      -8.826  15.740  68.510  1.00  0.00    -0.193 C  
HETATM   15  C   UNL     1      -8.149  17.064  68.664  1.00  0.00    -0.254 C  
ENDBRANCH   4  13
BRANCH   6  16
HETATM   16  N   UNL     1      -9.698   8.998  65.785  1.00  0.00    -0.441 N  
HETATM   17  H   UNL     1      -9.511   8.211  66.407  1.00  0.00     0.000 HD 
HETATM   18  C   UNL     1      -8.885   9.149  64.687  1.00  0.00    -0.142 C  
HETATM   19  O   UNL     1      -9.066  10.006  63.830  1.00  0.00    -0.232 OA 
BRANCH  18  20
HETATM   20  CA  UNL     1      -7.722   8.125  64.657  1.00  0.00    -0.118 C  
HETATM   21  H2  UNL     1      -8.709   6.871  63.291  1.00  0.00     0.000 HD 
HETATM   22  N   UNL     1      -8.232   6.804  64.191  1.00  0.00    -0.323 NA 
HETATM   23  H1  UNL     1      -7.467   6.129  64.171  1.00  0.00     0.000 HD 
BRANCH  20  24
HETATM   24  C   UNL     1      -7.035   8.019  66.007  1.00  0.00    -0.058 A  
HETATM   25  C   UNL     1      -7.251   6.882  66.802  1.00  0.00    -0.076 A  
HETATM   26  C   UNL     1      -6.663   6.767  68.064  1.00  0.00    -0.068 A  
HETATM   27  C   UNL     1      -5.845   7.788  68.535  1.00  0.00    -0.031 A  
HETATM   28  C   UNL     1      -5.584   8.905  67.753  1.00  0.00    -0.035 A  
HETATM   29  O   UNL     1      -5.280   7.732  69.773  1.00  0.00    -0.022 OA 
HETATM   30  H   UNL     1      -4.721   8.430  70.094  1.00  0.00     0.000 HD 
HETATM   31  C   UNL     1      -6.170   9.017  66.490  1.00  0.00    -0.065 A  
ENDBRANCH  20  24
ENDBRANCH  18  20
ENDBRANCH   6  16
TORSDOF 4
ENDMDL
MODEL      158
REMARK 921   NORMALIZED FREE ENERGY PREDICTED BY IDOCK:   -2.36 KCAL/MOL
REMARK 922        TOTAL FREE ENERGY PREDICTED BY IDOCK:   -3.73 KCAL/MOL
REMARK 923 INTER-LIGAND FREE ENERGY PREDICTED BY IDOCK:   -3.44 KCAL/MOL
REMARK 924 INTRA-LIGAND FREE ENERGY PREDICTED BY IDOCK:   -0.29 KCAL/MOL
REMARK 927      BINDING AFFINITY PREDICTED BY RF-SCORE:    0.00 PKD
ROOT
HETATM    1  C   UNL     1      -9.024   7.748  71.167  1.00  0.00    -0.138 C  
HETATM    2  S   UNL     1     -10.055   7.659  69.684  1.00  0.00    -0.199 SA 
HETATM    3  C   UNL     1     -10.002   5.860  69.620  1.00  0.00    -0.180 C  
HETATM    4  C   UNL     1      -8.619   5.240  69.787  1.00  0.00    -0.102 C  
HETATM    5  CA  UNL     1      -7.565   5.876  70.384  1.00  0.00    -0.091 C  
HETATM    6  CA  UNL     1      -8.262   9.098  71.364  1.00  0.00     0.059 C  
HETATM    7  C   UNL     1      -6.220   5.184  70.509  1.00  0.00    -0.022 C  
HETATM    8  O   UNL     1      -5.784   8.300  71.336  1.00  0.00    -0.033 OA 
HETATM    9  N   UNL     1      -7.739   7.139  70.886  1.00  0.00    -0.092 N  
HETATM   10  OXT UNL     1      -6.086   3.967  70.503  1.00  0.00    -0.017 OA 
HETATM   11  C   UNL     1      -6.986   8.190  71.278  1.00  0.00    -0.056 C  
HETATM   12  O   UNL     1      -5.133   5.965  70.648  1.00  0.00    -0.008 OA 
ENDROOT
BRANCH   4  13
HETATM   13  C   UNL     1      -8.523   3.926  69.129  1.00  0.00    -0.102 C  
HETATM   14  C   UNL     1      -8.293   3.721  67.821  1.00  0.00    -0.099 C  
HETATM   15  C   UNL     1      -8.145   2.368  67.202  1.00  0.00    -0.072 C  
ENDBRANCH   4  13
BRANCH   6  16
HETATM   16  N   UNL     1      -8.410  10.073  70.261  1.00  0.00    -0.310 N  
HETATM   17  H   UNL     1      -9.346  10.217  69.880  1.00  0.00     0.000 HD 
HETATM   18  C   UNL     1      -7.381  10.800  69.711  1.00  0.00    -0.064 C  
HETATM   19  O   UNL     1      -6.233  10.770  70.141  1.00  0.00    -0.105 OA 
BRANCH  18  20
HETATM   20  CA  UNL     1      -7.830  11.649  68.495  1.00  0.00    -0.140 C  
HETATM   21  H2  UNL     1      -8.732  13.111  69.703  1.00  0.00     0.000 HD 
HETATM   22  N   UNL     1      -8.962  12.533  68.894  1.00  0.00    -0.359 NA 
HETATM   23  H1  UNL     1      -9.258  13.093  68.094  1.00  0.00     0.000 HD 
BRANCH  20  24
HETATM   24  C   UNL     1      -8.188  10.777  67.306  1.00  0.00    -0.121 A  
HETATM   25  C   UNL     1      -7.162  10.175  66.559  1.00  0.00    -0.104 A  
HETATM   26  C   UNL     1      -7.453   9.394  65.438  1.00  0.00    -0.099 A  
HETATM   27  C   UNL     1      -8.779   9.202  65.062  1.00  0.00    -0.189 A  
HETATM   28  C   UNL     1      -9.813   9.753  65.805  1.00  0.00    -0.360 A  
HETATM   29  O   UNL     1      -9.106   8.477  63.956  1.00  0.00    -0.241 OA 
HETATM   30  H   UNL     1     -10.011   8.346  63.700  1.00  0.00     0.000 HD 
HETATM   31  C   UNL     1      -9.521  10.531  66.928  1.00  0.00    -0.191 A  
ENDBRANCH  20  24
ENDBRANCH  18  20
ENDBRANCH   6  16
TORSDOF 4
ENDMDL
MODEL      159
REMARK 921   NORMALIZED FREE ENERGY PREDICTED BY IDOCK:   -2.30 KCAL/MOL
REMARK 922        TOTAL FREE ENERGY PREDICTED BY IDOCK:   -3.65 KCAL/MOL
REMARK 923 INTER-LIGAND FREE ENERGY PREDICTED BY IDOCK:   -3.21 KCAL/MOL
REMARK 924 INTRA-LIGAND FREE ENERGY PREDICTED BY IDOCK:   -0.44 KCAL/MOL
REMARK 927      BINDING AFFINITY PREDICTED BY RF-SCORE:    0.00 PKD
ROOT
HETATM    1  C   UNL     1      -6.871   5.072  68.583  1.00  0.00    -0.052 C  
HETATM    2  S   UNL     1      -5.664   6.418  68.652  1.00  0.00    -0.021 SA 
HETATM    3  C   UNL     1      -5.522   6.345  70.447  1.00  0.00    -0.018 C  
HETATM    4  C   UNL     1      -6.843   6.287  71.206  1.00  0.00    -0.067 C  
HETATM    5  CA  UNL     1      -8.021   5.864  70.655  1.00  0.00    -0.110 C  
HETATM    6  CA  UNL     1      -7.787   5.068  67.317  1.00  0.00    -0.096 C  
HETATM    7  C   UNL     1      -9.293   5.838  71.485  1.00  0.00    -0.146 C  
HETATM    8  O   UNL     1     -10.147   5.313  68.390  1.00  0.00    -0.167 OA 
HETATM    9  N   UNL     1      -8.042   5.447  69.351  1.00  0.00    -0.092 N  
HETATM   10  OXT UNL     1      -9.297   5.763  72.706  1.00  0.00    -0.145 OA 
HETATM   11  C   UNL     1      -8.942   5.227  68.368  1.00  0.00    -0.108 C  
HETATM   12  O   UNL     1     -10.464   5.884  70.824  1.00  0.00    -0.221 OA 
ENDROOT
BRANCH   4  13
HETATM   13  C   UNL     1      -6.721   6.846  72.564  1.00  0.00    -0.062 C  
HETATM   14  C   UNL     1      -5.725   7.636  72.997  1.00  0.00    -0.044 C  
HETATM   15  C   UNL     1      -5.667   8.231  74.368  1.00  0.00    -0.101 C  
ENDBRANCH   4  13
BRANCH   6  16
HETATM   16  N   UNL     1      -7.610   6.221  66.407  1.00  0.00    -0.092 N  
HETATM   17  H   UNL     1      -7.067   7.015  66.750  1.00  0.00     0.000 HD 
HETATM   18  C   UNL     1      -8.121   6.304  65.134  1.00  0.00    -0.130 C  
HETATM   19  O   UNL     1      -8.717   5.381  64.588  1.00  0.00    -0.136 OA 
BRANCH  18  20
HETATM   20  CA  UNL     1      -7.865   7.682  64.473  1.00  0.00    -0.134 C  
HETATM   21  H2  UNL     1      -6.208   6.983  63.388  1.00  0.00     0.000 HD 
HETATM   22  N   UNL     1      -6.451   7.757  64.006  1.00  0.00    -0.057 NA 
HETATM   23  H1  UNL     1      -6.283   8.664  63.571  1.00  0.00     0.000 HD 
BRANCH  20  24
HETATM   24  C   UNL     1      -8.211   8.824  65.410  1.00  0.00    -0.137 A  
HETATM   25  C   UNL     1      -9.370   9.582  65.174  1.00  0.00    -0.316 A  
HETATM   26  C   UNL     1      -9.701  10.662  65.996  1.00  0.00    -0.258 A  
HETATM   27  C   UNL     1      -8.877  10.985  67.069  1.00  0.00    -0.143 A  
HETATM   28  C   UNL     1      -7.747  10.228  67.348  1.00  0.00    -0.095 A  
HETATM   29  O   UNL     1      -9.143  12.050  67.875  1.00  0.00    -0.169 OA 
HETATM   30  H   UNL     1      -8.581  12.270  68.608  1.00  0.00     0.000 HD 
HETATM   31  C   UNL     1      -7.419   9.146  66.528  1.00  0.00    -0.093 A  
ENDBRANCH  20  24
ENDBRANCH  18  20
ENDBRANCH   6  16
TORSDOF 4
ENDMDL
MODEL      160
REMARK 921   NORMALIZED FREE ENERGY PREDICTED BY IDOCK:   -1.70 KCAL/MOL
REMARK 922        TOTAL FREE ENERGY PREDICTED BY IDOCK:   -2.91 KCAL/MOL
REMARK 923 INTER-LIGAND FREE ENERGY PREDICTED BY IDOCK:   -3.88 KCAL/MOL
REMARK 924 INTRA-LIGAND FREE ENERGY PREDICTED BY IDOCK:    0.96 KCAL/MOL
REMARK 927      BINDING AFFINITY PREDICTED BY RF-SCORE:    0.00 PKD
ROOT
HETATM    1  C   UNL     1      -8.029  15.109  67.543  1.00  0.00    -0.174 C  
HETATM    2  S   UNL     1      -7.742  16.069  69.050  1.00  0.00    -0.224 SA 
HETATM    3  C   UNL     1      -8.974  15.156  69.997  1.00  0.00     0.354 C  
HETATM    4  C   UNL     1     -10.317  14.959  69.303  1.00  0.00    -0.240 C  
HETATM    5  CA  UNL     1     -10.493  15.024  67.948  1.00  0.00    -0.247 C  
HETATM    6  CA  UNL     1      -7.634  15.831  66.214  1.00  0.00     0.652 C  
HETATM    7  C   UNL     1     -11.868  14.814  67.340  1.00  0.00    -0.295 C  
HETATM    8  O   UNL     1      -9.924  15.913  64.975  1.00  0.00    -0.395 OA 
HETATM    9  N   UNL     1      -9.413  15.264  67.141  1.00  0.00    -0.210 N  
HETATM   10  OXT UNL     1     -12.760  14.187  67.896  1.00  0.00     0.290 OA 
HETATM   11  C   UNL     1      -9.158  15.663  65.876  1.00  0.00    -0.242 C  
HETATM   12  O   UNL     1     -12.093  15.339  66.122  1.00  0.00     0.169 OA 
ENDROOT
BRANCH   4  13
HETATM   13  C   UNL     1     -11.417  14.803  70.271  1.00  0.00    -0.309 C  
HETATM   14  C   UNL     1     -11.552  15.490  71.418  1.00  0.00    -0.481 C  
HETATM   15  C   UNL     1     -12.715  15.343  72.346  1.00  0.00    -0.467 C  
ENDBRANCH   4  13
BRANCH   6  16
HETATM   16  N   UNL     1      -7.180  17.230  66.366  1.00  0.00    -0.267 N  
HETATM   17  H   UNL     1      -6.197  17.386  66.591  1.00  0.00     0.000 HD 
HETATM   18  C   UNL     1      -7.984  18.337  66.227  1.00  0.00    -0.234 C  
HETATM   19  O   UNL     1      -9.158  18.276  65.878  1.00  0.00    -0.503 OA 
BRANCH  18  20
HETATM   20  CA  UNL     1      -7.247  19.659  66.561  1.00  0.00    -0.228 C  
HETATM   21  H2  UNL     1      -6.077  19.581  64.819  1.00  0.00     0.000 HD 
HETATM   22  N   UNL     1      -5.952  19.709  65.823  1.00  0.00    -0.174 NA 
HETATM   23  H1  UNL     1      -5.467  20.579  66.043  1.00  0.00     0.000 HD 
BRANCH  20  24
HETATM   24  C   UNL     1      -7.050  19.826  68.057  1.00  0.00    -0.312 A  
HETATM   25  C   UNL     1      -7.990  19.273  68.941  1.00  0.00    -0.353 A  
HETATM   26  C   UNL     1      -7.860  19.436  70.323  1.00  0.00     1.125 A  
HETATM   27  C   UNL     1      -6.778  20.149  70.829  1.00  0.00     0.173 A  
HETATM   28  C   UNL     1      -5.813  20.672  69.979  1.00  0.00    -0.278 A  
HETATM   29  O   UNL     1      -6.630  20.362  72.166  1.00  0.00    -0.639 OA 
HETATM   30  H   UNL     1      -5.891  20.848  72.512  1.00  0.00     0.000 HD 
HETATM   31  C   UNL     1      -5.943  20.505  68.599  1.00  0.00    -0.366 A  
ENDBRANCH  20  24
ENDBRANCH  18  20
ENDBRANCH   6  16
TORSDOF 4
ENDMDL
MODEL      161
REMARK 921   NORMALIZED FREE ENERGY PREDICTED BY IDOCK:   -1.21 KCAL/MOL
REMARK 922        TOTAL FREE ENERGY PREDICTED BY IDOCK:   -2.30 KCAL/MOL
REMARK 923 INTER-LIGAND FREE ENERGY PREDICTED BY IDOCK:   -3.59 KCAL/MOL
REMARK 924 INTRA-LIGAND FREE ENERGY PREDICTED BY IDOCK:    1.29 KCAL/MOL
REMARK 927      BINDING AFFINITY PREDICTED BY RF-SCORE:    0.00 PKD
ROOT
HETATM    1  C   UNL     1      -9.505   7.145  68.675  1.00  0.00    -0.140 C  
HETATM    2  S   UNL     1      -7.727   6.874  68.483  1.00  0.00    -0.115 SA 
HETATM    3  C   UNL     1      -7.603   5.890  69.987  1.00  0.00    -0.087 C  
HETATM    4  C   UNL     1      -8.292   6.480  71.213  1.00  0.00    -0.125 C  
HETATM    5  CA  UNL     1      -9.299   7.405  71.151  1.00  0.00    -0.155 C  
HETATM    6  CA  UNL     1     -10.063   8.416  67.954  1.00  0.00    -0.203 C  
HETATM    7  C   UNL     1      -9.930   7.940  72.424  1.00  0.00    -0.229 C  
HETATM    8  O   UNL     1     -11.014   9.771  69.964  1.00  0.00    -0.244 OA 
HETATM    9  N   UNL     1      -9.746   7.831  69.929  1.00  0.00    -0.175 N  
HETATM   10  OXT UNL     1      -9.920   7.332  73.487  1.00  0.00    -0.255 OA 
HETATM   11  C   UNL     1     -10.462   8.851  69.408  1.00  0.00    -0.222 C  
HETATM   12  O   UNL     1     -10.540   9.137  72.356  1.00  0.00    -0.053 OA 
ENDROOT
BRANCH   4  13
HETATM   13  C   UNL     1      -7.668   6.023  72.467  1.00  0.00    -0.100 C  
HETATM   14  C   UNL     1      -6.847   6.750  73.242  1.00  0.00    -0.075 C  
HETATM   15  C   UNL     1      -6.280   6.269  74.539  1.00  0.00    -0.069 C  
ENDBRANCH   4  13
BRANCH   6  16
HETATM   16  N   UNL     1      -9.045   9.271  67.305  1.00  0.00    -0.126 N  
HETATM   17  H   UNL     1      -8.727   9.002  66.373  1.00  0.00     0.000 HD 
HETATM   18  C   UNL     1      -8.494  10.400  67.863  1.00  0.00    -0.114 C  
HETATM   19  O   UNL     1      -8.858  10.863  68.939  1.00  0.00    -0.163 OA 
BRANCH  18  20
HETATM   20  CA  UNL     1      -7.371  11.015  66.990  1.00  0.00    -0.123 C  
HETATM   21  H2  UNL     1      -7.982  12.984  67.388  1.00  0.00     0.000 HD 
HETATM   22  N   UNL     1      -7.754  12.397  66.585  1.00  0.00    -0.374 NA 
HETATM   23  H1  UNL     1      -7.015  12.802  66.010  1.00  0.00     0.000 HD 
BRANCH  20  24
HETATM   24  C   UNL     1      -7.057  10.142  65.789  1.00  0.00    -0.127 A  
HETATM   25  C   UNL     1      -7.480  10.548  64.513  1.00  0.00     0.070 A  
HETATM   26  C   UNL     1      -7.238   9.753  63.390  1.00  0.00    -0.123 A  
HETATM   27  C   UNL     1      -6.560   8.548  63.536  1.00  0.00    -0.085 A  
HETATM   28  C   UNL     1      -6.097   8.142  64.780  1.00  0.00    -0.049 A  
HETATM   29  O   UNL     1      -6.334   7.726  62.474  1.00  0.00    -0.074 OA 
HETATM   30  H   UNL     1      -5.871   6.903  62.574  1.00  0.00     0.000 HD 
HETATM   31  C   UNL     1      -6.336   8.938  65.902  1.00  0.00    -0.056 A  
ENDBRANCH  20  24
ENDBRANCH  18  20
ENDBRANCH   6  16
TORSDOF 4
ENDMDL
MODEL      162
REMARK 921   NORMALIZED FREE ENERGY PREDICTED BY IDOCK:   -0.88 KCAL/MOL
REMARK 922        TOTAL FREE ENERGY PREDICTED BY IDOCK:   -1.90 KCAL/MOL
REMARK 923 INTER-LIGAND FREE ENERGY PREDICTED BY IDOCK:   -1.34 KCAL/MOL
REMARK 924 INTRA-LIGAND FREE ENERGY PREDICTED BY IDOCK:   -0.56 KCAL/MOL
REMARK 927      BINDING AFFINITY PREDICTED BY RF-SCORE:    0.00 PKD
ROOT
HETATM    1  C   UNL     1      -9.912  19.070  67.330  1.00  0.00    -0.344 C  
HETATM    2  S   UNL     1     -10.397  18.625  69.015  1.00  0.00     0.217 SA 
HETATM    3  C   UNL     1      -9.107  19.632  69.769  1.00  0.00     0.596 C  
HETATM    4  C   UNL     1      -7.716  19.473  69.166  1.00  0.00    -0.271 C  
HETATM    5  CA  UNL     1      -7.482  18.999  67.904  1.00  0.00    -0.251 C  
HETATM    6  CA  UNL     1     -10.328  18.042  66.228  1.00  0.00    -0.382 C  
HETATM    7  C   UNL     1      -6.062  18.873  67.382  1.00  0.00    -0.175 C  
HETATM    8  O   UNL     1      -8.009  17.356  65.263  1.00  0.00     0.412 OA 
HETATM    9  N   UNL     1      -8.541  18.655  67.107  1.00  0.00    -0.265 N  
HETATM   10  OXT UNL     1      -5.125  19.533  67.813  1.00  0.00    -0.169 OA 
HETATM   11  C   UNL     1      -8.781  17.938  65.988  1.00  0.00     0.020 C  
HETATM   12  O   UNL     1      -5.845  17.997  66.384  1.00  0.00    -0.145 OA 
ENDROOT
BRANCH   4  13
HETATM   13  C   UNL     1      -6.656  19.781  70.141  1.00  0.00    -0.232 C  
HETATM   14  C   UNL     1      -6.227  21.012  70.466  1.00  0.00     1.222 C  
HETATM   15  C   UNL     1      -5.187  21.287  71.504  1.00  0.00     0.238 C  
ENDBRANCH   4  13
BRANCH   6  16
HETATM   16  N   UNL     1     -10.966  16.804  66.729  1.00  0.00     0.003 N  
HETATM   17  H   UNL     1     -11.397  16.836  67.653  1.00  0.00     0.000 HD 
HETATM   18  C   UNL     1     -11.022  15.615  66.041  1.00  0.00    -0.213 C  
HETATM   19  O   UNL     1     -10.613  15.483  64.893  1.00  0.00    -0.423 OA 
BRANCH  18  20
HETATM   20  CA  UNL     1     -11.652  14.470  66.874  1.00  0.00    -0.385 C  
HETATM   21  H2  UNL     1     -13.361  15.598  67.345  1.00  0.00     0.000 HD 
HETATM   22  N   UNL     1     -12.655  15.035  67.822  1.00  0.00     0.070 NA 
HETATM   23  H1  UNL     1     -13.071  14.282  68.370  1.00  0.00     0.000 HD 
BRANCH  20  24
HETATM   24  C   UNL     1     -10.594  13.655  67.594  1.00  0.00    -0.245 A  
HETATM   25  C   UNL     1     -10.948  12.426  68.173  1.00  0.00    -0.263 A  
HETATM   26  C   UNL     1     -10.008  11.665  68.873  1.00  0.00    -0.083 A  
HETATM   27  C   UNL     1      -8.701  12.127  68.989  1.00  0.00     0.399 A  
HETATM   28  C   UNL     1      -8.316  13.320  68.394  1.00  0.00    -0.131 A  
HETATM   29  O   UNL     1      -7.762  11.435  69.692  1.00  0.00    -0.351 OA 
HETATM   30  H   UNL     1      -6.870  11.751  69.771  1.00  0.00     0.000 HD 
HETATM   31  C   UNL     1      -9.255  14.078  67.691  1.00  0.00    -0.194 A  
ENDBRANCH  20  24
ENDBRANCH  18  20
ENDBRANCH   6  16
TORSDOF 4
ENDMDL
MODEL      163
REMARK 921   NORMALIZED FREE ENERGY PREDICTED BY IDOCK:   -0.52 KCAL/MOL
REMARK 922        TOTAL FREE ENERGY PREDICTED BY IDOCK:   -1.46 KCAL/MOL
REMARK 923 INTER-LIGAND FREE ENERGY PREDICTED BY IDOCK:   -2.86 KCAL/MOL
REMARK 924 INTRA-LIGAND FREE ENERGY PREDICTED BY IDOCK:    1.40 KCAL/MOL
REMARK 927      BINDING AFFINITY PREDICTED BY RF-SCORE:    0.00 PKD
ROOT
HETATM    1  C   UNL     1      -8.843   6.484  64.963  1.00  0.00     0.270 C  
HETATM    2  S   UNL     1      -9.782   6.688  66.496  1.00  0.00    -0.074 SA 
HETATM    3  C   UNL     1      -9.911   8.476  66.308  1.00  0.00    -0.181 C  
HETATM    4  C   UNL     1      -8.613   9.191  65.952  1.00  0.00    -0.168 C  
HETATM    5  CA  UNL     1      -7.539   8.576  65.368  1.00  0.00    -0.088 C  
HETATM    6  CA  UNL     1      -7.960   5.196  64.895  1.00  0.00    -0.102 C  
HETATM    7  C   UNL     1      -6.283   9.366  65.045  1.00  0.00    -0.068 C  
HETATM    8  O   UNL     1      -5.581   6.218  64.622  1.00  0.00    -0.021 OA 
HETATM    9  N   UNL     1      -7.613   7.244  65.058  1.00  0.00    -0.099 N  
HETATM   10  OXT UNL     1      -6.275  10.578  64.875  1.00  0.00    -0.121 OA 
HETATM   11  C   UNL     1      -6.782   6.222  64.758  1.00  0.00    -0.039 C  
HETATM   12  O   UNL     1      -5.132   8.678  64.932  1.00  0.00    -0.037 OA 
ENDROOT
BRANCH   4  13
HETATM   13  C   UNL     1      -8.612  10.589  66.414  1.00  0.00    -0.147 C  
HETATM   14  C   UNL     1      -8.922  11.004  67.654  1.00  0.00    -0.142 C  
HETATM   15  C   UNL     1      -8.853  12.429  68.099  1.00  0.00    -0.191 C  
ENDBRANCH   4  13
BRANCH   6  16
HETATM   16  N   UNL     1      -7.937   4.381  66.129  1.00  0.00    -0.098 N  
HETATM   17  H   UNL     1      -8.177   3.392  66.047  1.00  0.00     0.000 HD 
HETATM   18  C   UNL     1      -7.615   4.855  67.379  1.00  0.00    -0.090 C  
HETATM   19  O   UNL     1      -7.232   6.002  67.584  1.00  0.00    -0.073 OA 
BRANCH  18  20
HETATM   20  CA  UNL     1      -7.793   3.789  68.489  1.00  0.00    -0.067 C  
HETATM   21  H2  UNL     1      -8.004   2.220  67.109  1.00  0.00     0.000 HD 
HETATM   22  N   UNL     1      -8.485   2.594  67.928  1.00  0.00    -0.080 NA 
HETATM   23  H1  UNL     1      -8.602   1.892  68.658  1.00  0.00     0.000 HD 
BRANCH  20  24
HETATM   24  C   UNL     1      -8.528   4.352  69.692  1.00  0.00    -0.089 A  
HETATM   25  C   UNL     1      -7.843   4.501  70.909  1.00  0.00    -0.068 A  
HETATM   26  C   UNL     1      -8.496   4.983  72.046  1.00  0.00    -0.125 A  
HETATM   27  C   UNL     1      -9.840   5.331  71.968  1.00  0.00    -0.174 A  
HETATM   28  C   UNL     1     -10.530   5.231  70.768  1.00  0.00    -0.298 A  
HETATM   29  O   UNL     1     -10.525   5.772  73.060  1.00  0.00    -0.196 OA 
HETATM   30  H   UNL     1     -11.443   6.010  73.007  1.00  0.00     0.000 HD 
HETATM   31  C   UNL     1      -9.875   4.752  69.631  1.00  0.00    -0.292 A  
ENDBRANCH  20  24
ENDBRANCH  18  20
ENDBRANCH   6  16
TORSDOF 4
ENDMDL
MODEL      164
REMARK 921   NORMALIZED FREE ENERGY PREDICTED BY IDOCK:    0.29 KCAL/MOL
REMARK 922        TOTAL FREE ENERGY PREDICTED BY IDOCK:   -0.46 KCAL/MOL
REMARK 923 INTER-LIGAND FREE ENERGY PREDICTED BY IDOCK:   -3.61 KCAL/MOL
REMARK 924 INTRA-LIGAND FREE ENERGY PREDICTED BY IDOCK:    3.15 KCAL/MOL
REMARK 927      BINDING AFFINITY PREDICTED BY RF-SCORE:    0.00 PKD
ROOT
HETATM    1  C   UNL     1      -9.912  19.070  67.330  1.00  0.00    -0.344 C  
HETATM    2  S   UNL     1     -10.397  18.625  69.015  1.00  0.00     0.217 SA 
HETATM    3  C   UNL     1      -9.107  19.632  69.769  1.00  0.00     0.596 C  
HETATM    4  C   UNL     1      -7.716  19.473  69.166  1.00  0.00    -0.271 C  
HETATM    5  CA  UNL     1      -7.482  18.999  67.904  1.00  0.00    -0.251 C  
HETATM    6  CA  UNL     1     -10.328  18.042  66.228  1.00  0.00    -0.382 C  
HETATM    7  C   UNL     1      -6.062  18.873  67.382  1.00  0.00    -0.175 C  
HETATM    8  O   UNL     1      -8.009  17.356  65.263  1.00  0.00     0.412 OA 
HETATM    9  N   UNL     1      -8.541  18.655  67.107  1.00  0.00    -0.265 N  
HETATM   10  OXT UNL     1      -5.125  19.533  67.813  1.00  0.00    -0.169 OA 
HETATM   11  C   UNL     1      -8.781  17.938  65.988  1.00  0.00     0.020 C  
HETATM   12  O   UNL     1      -5.845  17.997  66.384  1.00  0.00    -0.145 OA 
ENDROOT
BRANCH   4  13
HETATM   13  C   UNL     1      -6.656  19.781  70.141  1.00  0.00    -0.232 C  
HETATM   14  C   UNL     1      -6.837  19.968  71.459  1.00  0.00     0.532 C  
HETATM   15  C   UNL     1      -5.725  20.223  72.426  1.00  0.00     0.463 C  
ENDBRANCH   4  13
BRANCH   6  16
HETATM   16  N   UNL     1     -10.966  16.804  66.729  1.00  0.00     0.003 N  
HETATM   17  H   UNL     1     -11.397  16.836  67.653  1.00  0.00     0.000 HD 
HETATM   18  C   UNL     1     -11.022  15.615  66.041  1.00  0.00    -0.213 C  
HETATM   19  O   UNL     1     -10.613  15.483  64.893  1.00  0.00    -0.423 OA 
BRANCH  18  20
HETATM   20  CA  UNL     1     -11.652  14.470  66.874  1.00  0.00    -0.385 C  
HETATM   21  H2  UNL     1     -12.984  13.933  65.341  1.00  0.00     0.000 HD 
HETATM   22  N   UNL     1     -13.006  14.149  66.339  1.00  0.00    -0.308 NA 
HETATM   23  H1  UNL     1     -13.421  13.395  66.886  1.00  0.00     0.000 HD 
BRANCH  20  24
HETATM   24  C   UNL     1     -11.698  14.814  68.352  1.00  0.00    -0.343 A  
HETATM   25  C   UNL     1     -11.982  13.804  69.285  1.00  0.00    -0.399 A  
HETATM   26  C   UNL     1     -12.066  14.091  70.650  1.00  0.00    -0.424 A  
HETATM   27  C   UNL     1     -11.857  15.393  71.091  1.00  0.00    -0.371 A  
HETATM   28  C   UNL     1     -11.536  16.402  70.194  1.00  0.00    -0.009 A  
HETATM   29  O   UNL     1     -11.963  15.723  72.408  1.00  0.00    -0.405 OA 
HETATM   30  H   UNL     1     -11.820  16.613  72.709  1.00  0.00     0.000 HD 
HETATM   31  C   UNL     1     -11.449  16.114  68.830  1.00  0.00    -0.340 A  
ENDBRANCH  20  24
ENDBRANCH  18  20
ENDBRANCH   6  16
TORSDOF 4
ENDMDL
MODEL      165
REMARK 921   NORMALIZED FREE ENERGY PREDICTED BY IDOCK:    0.46 KCAL/MOL
REMARK 922        TOTAL FREE ENERGY PREDICTED BY IDOCK:   -0.24 KCAL/MOL
REMARK 923 INTER-LIGAND FREE ENERGY PREDICTED BY IDOCK:   -3.35 KCAL/MOL
REMARK 924 INTRA-LIGAND FREE ENERGY PREDICTED BY IDOCK:    3.10 KCAL/MOL
REMARK 927      BINDING AFFINITY PREDICTED BY RF-SCORE:    0.00 PKD
ROOT
HETATM    1  C   UNL     1     -12.280  11.474  68.012  1.00  0.00     0.357 C  
HETATM    2  S   UNL     1     -11.595  12.904  67.142  1.00  0.00    -0.378 SA 
HETATM    3  C   UNL     1     -11.192  11.952  65.667  1.00  0.00    -0.306 C  
HETATM    4  C   UNL     1     -10.476  10.629  65.917  1.00  0.00    -0.243 C  
HETATM    5  CA  UNL     1     -10.517   9.953  67.106  1.00  0.00    -0.242 C  
HETATM    6  CA  UNL     1     -12.276  11.583  69.572  1.00  0.00    -0.221 C  
HETATM    7  C   UNL     1      -9.775   8.639  67.269  1.00  0.00    -0.185 C  
HETATM    8  O   UNL     1     -10.780   9.554  70.224  1.00  0.00    -0.225 OA 
HETATM    9  N   UNL     1     -11.250  10.462  68.145  1.00  0.00    -0.289 N  
HETATM   10  OXT UNL     1      -9.480   7.911  66.329  1.00  0.00    -0.195 OA 
HETATM   11  C   UNL     1     -11.357  10.314  69.483  1.00  0.00    -0.241 C  
HETATM   12  O   UNL     1      -9.445   8.265  68.518  1.00  0.00    -0.145 OA 
ENDROOT
BRANCH   4  13
HETATM   13  C   UNL     1      -9.648  10.227  64.768  1.00  0.00    -0.369 C  
HETATM   14  C   UNL     1     -10.016   9.371  63.799  1.00  0.00     1.701 C  
HETATM   15  C   UNL     1      -9.166   9.033  62.617  1.00  0.00     0.352 C  
ENDBRANCH   4  13
BRANCH   6  16
HETATM   16  N   UNL     1     -11.620  12.791  70.118  1.00  0.00    -0.536 N  
HETATM   17  H   UNL     1     -11.001  12.670  70.920  1.00  0.00     0.000 HD 
HETATM   18  C   UNL     1     -11.780  14.064  69.625  1.00  0.00    -0.311 C  
HETATM   19  O   UNL     1     -12.432  14.317  68.617  1.00  0.00    -0.136 OA 
BRANCH  18  20
HETATM   20  CA  UNL     1     -11.056  15.134  70.479  1.00  0.00    -0.262 C  
HETATM   21  H2  UNL     1     -12.492  15.051  72.009  1.00  0.00     0.000 HD 
HETATM   22  N   UNL     1     -12.022  15.750  71.433  1.00  0.00    -0.400 NA 
HETATM   23  H1  UNL     1     -11.545  16.454  71.997  1.00  0.00     0.000 HD 
BRANCH  20  24
HETATM   24  C   UNL     1     -10.379  16.178  69.611  1.00  0.00    -0.271 A  
HETATM   25  C   UNL     1      -9.564  15.764  68.545  1.00  0.00    -0.204 A  
HETATM   26  C   UNL     1      -8.898  16.696  67.746  1.00  0.00    -0.206 A  
HETATM   27  C   UNL     1      -9.051  18.054  68.004  1.00  0.00    -0.272 A  
HETATM   28  C   UNL     1      -9.881  18.492  69.027  1.00  0.00    -0.313 A  
HETATM   29  O   UNL     1      -8.393  18.996  67.272  1.00  0.00    -0.271 OA 
HETATM   30  H   UNL     1      -8.499  19.923  67.449  1.00  0.00     0.000 HD 
HETATM   31  C   UNL     1     -10.550  17.559  69.823  1.00  0.00     0.462 A  
ENDBRANCH  20  24
ENDBRANCH  18  20
ENDBRANCH   6  16
TORSDOF 4
ENDMDL
MODEL      166
REMARK 921   NORMALIZED FREE ENERGY PREDICTED BY IDOCK:    2.06 KCAL/MOL
REMARK 922        TOTAL FREE ENERGY PREDICTED BY IDOCK:    1.73 KCAL/MOL
REMARK 923 INTER-LIGAND FREE ENERGY PREDICTED BY IDOCK:    0.06 KCAL/MOL
REMARK 924 INTRA-LIGAND FREE ENERGY PREDICTED BY IDOCK:    1.68 KCAL/MOL
REMARK 927      BINDING AFFINITY PREDICTED BY RF-SCORE:    0.00 PKD
ROOT
HETATM    1  C   UNL     1      -8.044  12.018  66.025  1.00  0.00     0.529 C  
HETATM    2  S   UNL     1      -9.312  10.999  65.234  1.00  0.00    -0.215 SA 
HETATM    3  C   UNL     1      -9.996  12.379  64.299  1.00  0.00    -0.206 C  
HETATM    4  C   UNL     1     -10.242  13.653  65.100  1.00  0.00    -0.349 C  
HETATM    5  CA  UNL     1      -9.613  13.947  66.279  1.00  0.00    -0.256 C  
HETATM    6  CA  UNL     1      -7.502  11.466  67.383  1.00  0.00    -0.120 C  
HETATM    7  C   UNL     1      -9.918  15.241  67.011  1.00  0.00    -0.234 C  
HETATM    8  O   UNL     1      -8.141  13.393  69.013  1.00  0.00     0.081 OA 
HETATM    9  N   UNL     1      -8.690  13.070  66.785  1.00  0.00    -0.151 N  
HETATM   10  OXT UNL     1     -10.359  16.239  66.457  1.00  0.00    -0.293 OA 
HETATM   11  C   UNL     1      -8.069  12.812  67.956  1.00  0.00    -0.162 C  
HETATM   12  O   UNL     1      -9.670  15.277  68.333  1.00  0.00    -0.205 OA 
ENDROOT
BRANCH   4  13
HETATM   13  C   UNL     1     -11.317  14.471  64.513  1.00  0.00    -0.323 C  
HETATM   14  C   UNL     1     -12.341  15.019  65.189  1.00  0.00     0.048 C  
HETATM   15  C   UNL     1     -13.381  15.892  64.564  1.00  0.00     2.556 C  
ENDBRANCH   4  13
BRANCH   6  16
HETATM   16  N   UNL     1      -8.173  10.245  67.880  1.00  0.00    -0.109 N  
HETATM   17  H   UNL     1      -8.272   9.463  67.232  1.00  0.00     0.000 HD 
HETATM   18  C   UNL     1      -8.674  10.085  69.150  1.00  0.00    -0.167 C  
HETATM   19  O   UNL     1      -8.540  10.923  70.036  1.00  0.00     0.569 OA 
BRANCH  18  20
HETATM   20  CA  UNL     1      -9.422   8.740  69.335  1.00  0.00    -0.161 C  
HETATM   21  H2  UNL     1     -11.131   9.668  70.129  1.00  0.00     0.000 HD 
HETATM   22  N   UNL     1     -10.496   8.902  70.356  1.00  0.00    -0.200 NA 
HETATM   23  H1  UNL     1     -10.990   8.018  70.477  1.00  0.00     0.000 HD 
BRANCH  20  24
HETATM   24  C   UNL     1      -8.469   7.615  69.692  1.00  0.00    -0.135 A  
HETATM   25  C   UNL     1      -8.853   6.669  70.657  1.00  0.00    -0.148 A  
HETATM   26  C   UNL     1      -7.987   5.640  71.037  1.00  0.00    -0.111 A  
HETATM   27  C   UNL     1      -6.733   5.545  70.444  1.00  0.00    -0.047 A  
HETATM   28  C   UNL     1      -6.345   6.443  69.459  1.00  0.00    -0.035 A  
HETATM   29  O   UNL     1      -5.845   4.579  70.808  1.00  0.00    -0.015 OA 
HETATM   30  H   UNL     1      -4.989   4.514  70.403  1.00  0.00     0.000 HD 
HETATM   31  C   UNL     1      -7.212   7.470  69.078  1.00  0.00    -0.085 A  
ENDBRANCH  20  24
ENDBRANCH  18  20
ENDBRANCH   6  16
TORSDOF 4
ENDMDL
MODEL      167
REMARK 921   NORMALIZED FREE ENERGY PREDICTED BY IDOCK:    2.88 KCAL/MOL
REMARK 922        TOTAL FREE ENERGY PREDICTED BY IDOCK:    2.74 KCAL/MOL
REMARK 923 INTER-LIGAND FREE ENERGY PREDICTED BY IDOCK:    3.47 KCAL/MOL
REMARK 924 INTRA-LIGAND FREE ENERGY PREDICTED BY IDOCK:   -0.73 KCAL/MOL
REMARK 927      BINDING AFFINITY PREDICTED BY RF-SCORE:    0.00 PKD
ROOT
HETATM    1  C   UNL     1      -7.158  13.970  69.973  1.00  0.00     0.314 C  
HETATM    2  S   UNL     1      -8.802  13.244  70.179  1.00  0.00     4.263 SA 
HETATM    3  C   UNL     1      -8.207  11.559  69.953  1.00  0.00     1.596 C  
HETATM    4  C   UNL     1      -7.277  11.347  68.763  1.00  0.00    -0.107 C  
HETATM    5  CA  UNL     1      -6.559  12.349  68.169  1.00  0.00    -0.073 C  
HETATM    6  CA  UNL     1      -7.146  15.462  69.507  1.00  0.00    -0.200 C  
HETATM    7  C   UNL     1      -5.655  12.049  66.986  1.00  0.00    -0.112 C  
HETATM    8  O   UNL     1      -5.864  15.285  67.247  1.00  0.00    -0.332 OA 
HETATM    9  N   UNL     1      -6.649  13.624  68.660  1.00  0.00    -0.089 N  
HETATM   10  OXT UNL     1      -5.181  10.942  66.765  1.00  0.00    -0.047 OA 
HETATM   11  C   UNL     1      -6.374  14.887  68.268  1.00  0.00    -0.121 C  
HETATM   12  O   UNL     1      -5.360  13.068  66.159  1.00  0.00     1.832 OA 
ENDROOT
BRANCH   4  13
HETATM   13  C   UNL     1      -7.332   9.963  68.263  1.00  0.00    -0.079 C  
HETATM   14  C   UNL     1      -8.384   9.395  67.648  1.00  0.00    -0.119 C  
HETATM   15  C   UNL     1      -8.380   8.003  67.102  1.00  0.00    -0.121 C  
ENDBRANCH   4  13
BRANCH   6  16
HETATM   16  N   UNL     1      -8.475  16.038  69.201  1.00  0.00    -0.246 N  
HETATM   17  H   UNL     1      -9.291  15.442  69.342  1.00  0.00     0.000 HD 
HETATM   18  C   UNL     1      -8.691  17.315  68.740  1.00  0.00    -0.232 C  
HETATM   19  O   UNL     1      -7.796  18.143  68.611  1.00  0.00    -0.299 OA 
BRANCH  18  20
HETATM   20  CA  UNL     1     -10.179  17.586  68.402  1.00  0.00    -0.372 C  
HETATM   21  H2  UNL     1     -10.619  18.250  70.345  1.00  0.00     0.000 HD 
HETATM   22  N   UNL     1     -10.984  17.591  69.656  1.00  0.00    -0.041 NA 
HETATM   23  H1  UNL     1     -11.963  17.769  69.434  1.00  0.00     0.000 HD 
BRANCH  20  24
HETATM   24  C   UNL     1     -10.713  16.586  67.393  1.00  0.00    -0.260 A  
HETATM   25  C   UNL     1     -11.168  15.334  67.839  1.00  0.00    -0.333 A  
HETATM   26  C   UNL     1     -11.634  14.376  66.935  1.00  0.00    -0.404 A  
HETATM   27  C   UNL     1     -11.658  14.670  65.576  1.00  0.00    -0.335 A  
HETATM   28  C   UNL     1     -11.251  15.913  65.113  1.00  0.00    -0.228 A  
HETATM   29  O   UNL     1     -12.072  13.753  64.658  1.00  0.00    -0.386 OA 
HETATM   30  H   UNL     1     -12.088  13.954  63.730  1.00  0.00     0.000 HD 
HETATM   31  C   UNL     1     -10.788  16.871  66.017  1.00  0.00    -0.005 A  
ENDBRANCH  20  24
ENDBRANCH  18  20
ENDBRANCH   6  16
TORSDOF 4
ENDMDL
MODEL      168
REMARK 921   NORMALIZED FREE ENERGY PREDICTED BY IDOCK:    4.17 KCAL/MOL
REMARK 922        TOTAL FREE ENERGY PREDICTED BY IDOCK:    4.33 KCAL/MOL
REMARK 923 INTER-LIGAND FREE ENERGY PREDICTED BY IDOCK:    4.01 KCAL/MOL
REMARK 924 INTRA-LIGAND FREE ENERGY PREDICTED BY IDOCK:    0.31 KCAL/MOL
REMARK 927      BINDING AFFINITY PREDICTED BY RF-SCORE:    0.00 PKD
ROOT
HETATM    1  C   UNL     1      -8.247   2.226  67.732  1.00  0.00    -0.065 C  
HETATM    2  S   UNL     1      -6.586   2.491  68.397  1.00  0.00    -0.029 SA 
HETATM    3  C   UNL     1      -7.033   1.910  70.043  1.00  0.00    -0.033 C  
HETATM    4  C   UNL     1      -8.326   2.484  70.610  1.00  0.00    -0.079 C  
HETATM    5  CA  UNL     1      -9.325   3.017  69.842  1.00  0.00    -0.151 C  
HETATM    6  CA  UNL     1      -8.605   3.091  66.480  1.00  0.00    -0.117 C  
HETATM    7  C   UNL     1     -10.583   3.567  70.491  1.00  0.00     1.752 C  
HETATM    8  O   UNL     1     -10.645   4.449  67.360  1.00  0.00     0.212 OA 
HETATM    9  N   UNL     1      -9.190   3.034  68.479  1.00  0.00    -0.160 N  
HETATM   10  OXT UNL     1     -10.981   3.214  71.593  1.00  0.00     1.011 OA 
HETATM   11  C   UNL     1      -9.735   3.656  67.411  1.00  0.00    -0.056 C  
HETATM   12  O   UNL     1     -11.291   4.477  69.796  1.00  0.00     2.664 OA 
ENDROOT
BRANCH   4  13
HETATM   13  C   UNL     1      -8.321   2.500  72.083  1.00  0.00    -0.060 C  
HETATM   14  C   UNL     1      -8.991   1.647  72.876  1.00  0.00    -0.070 C  
HETATM   15  C   UNL     1      -8.913   1.660  74.369  1.00  0.00    -0.063 C  
ENDBRANCH   4  13
BRANCH   6  16
HETATM   16  N   UNL     1      -7.577   4.076  66.079  1.00  0.00    -0.088 N  
HETATM   17  H   UNL     1      -6.790   4.222  66.713  1.00  0.00     0.000 HD 
HETATM   18  C   UNL     1      -7.602   4.810  64.917  1.00  0.00    -0.077 C  
HETATM   19  O   UNL     1      -8.451   4.660  64.045  1.00  0.00    -0.114 OA 
BRANCH  18  20
HETATM   20  CA  UNL     1      -6.448   5.842  64.834  1.00  0.00    -0.041 C  
HETATM   21  H2  UNL     1      -5.073   4.420  64.129  1.00  0.00     0.000 HD 
HETATM   22  N   UNL     1      -5.139   5.130  64.859  1.00  0.00    -0.009 NA 
HETATM   23  H1  UNL     1      -4.379   5.808  64.804  1.00  0.00     0.000 HD 
BRANCH  20  24
HETATM   24  C   UNL     1      -6.546   6.879  65.937  1.00  0.00    -0.051 A  
HETATM   25  C   UNL     1      -6.318   8.231  65.633  1.00  0.00    -0.049 A  
HETATM   26  C   UNL     1      -6.365   9.209  66.630  1.00  0.00    -0.066 A  
HETATM   27  C   UNL     1      -6.653   8.840  67.939  1.00  0.00    -0.061 A  
HETATM   28  C   UNL     1      -6.922   7.516  68.260  1.00  0.00    -0.068 A  
HETATM   29  O   UNL     1      -6.676   9.755  68.948  1.00  0.00    -0.049 OA 
HETATM   30  H   UNL     1      -6.873   9.503  69.842  1.00  0.00     0.000 HD 
HETATM   31  C   UNL     1      -6.877   6.540  67.262  1.00  0.00    -0.069 A  
ENDBRANCH  20  24
ENDBRANCH  18  20
ENDBRANCH   6  16
TORSDOF 4
ENDMDL
MODEL      169
REMARK 921   NORMALIZED FREE ENERGY PREDICTED BY IDOCK:    4.91 KCAL/MOL
REMARK 922        TOTAL FREE ENERGY PREDICTED BY IDOCK:    5.24 KCAL/MOL
REMARK 923 INTER-LIGAND FREE ENERGY PREDICTED BY IDOCK:    3.18 KCAL/MOL
REMARK 924 INTRA-LIGAND FREE ENERGY PREDICTED BY IDOCK:    2.06 KCAL/MOL
REMARK 927      BINDING AFFINITY PREDICTED BY RF-SCORE:    0.00 PKD
ROOT
HETATM    1  C   UNL     1      -9.900  17.788  67.332  1.00  0.00    -0.311 C  
HETATM    2  S   UNL     1     -10.700  17.020  68.761  1.00  0.00    -0.270 SA 
HETATM    3  C   UNL     1      -9.440  17.595  69.914  1.00  0.00     1.216 C  
HETATM    4  C   UNL     1      -7.998  17.375  69.469  1.00  0.00     0.530 C  
HETATM    5  CA  UNL     1      -7.620  17.200  68.166  1.00  0.00    -0.208 C  
HETATM    6  CA  UNL     1     -10.251  17.144  65.952  1.00  0.00    -0.276 C  
HETATM    7  C   UNL     1      -6.159  16.988  67.812  1.00  0.00    -0.136 C  
HETATM    8  O   UNL     1      -7.903  16.367  65.137  1.00  0.00     2.034 OA 
HETATM    9  N   UNL     1      -8.570  17.234  67.180  1.00  0.00    -0.202 N  
HETATM   10  OXT UNL     1      -5.234  17.366  68.518  1.00  0.00    -0.135 OA 
HETATM   11  C   UNL     1      -8.708  16.863  65.888  1.00  0.00    -0.023 C  
HETATM   12  O   UNL     1      -5.888  16.364  66.651  1.00  0.00    -0.317 OA 
ENDROOT
BRANCH   4  13
HETATM   13  C   UNL     1      -7.081  17.263  70.616  1.00  0.00     2.735 C  
HETATM   14  C   UNL     1      -6.071  16.383  70.727  1.00  0.00     0.574 C  
HETATM   15  C   UNL     1      -5.126  16.339  71.884  1.00  0.00     0.339 C  
ENDBRANCH   4  13
BRANCH   6  16
HETATM   16  N   UNL     1     -11.102  15.936  66.017  1.00  0.00    -0.123 N  
HETATM   17  H   UNL     1     -12.100  16.070  66.184  1.00  0.00     0.000 HD 
HETATM   18  C   UNL     1     -10.650  14.646  65.871  1.00  0.00    -0.311 C  
HETATM   19  O   UNL     1      -9.489  14.370  65.586  1.00  0.00    -0.194 OA 
BRANCH  18  20
HETATM   20  CA  UNL     1     -11.760  13.591  66.106  1.00  0.00    -0.365 C  
HETATM   21  H2  UNL     1     -12.809  14.825  67.443  1.00  0.00     0.000 HD 
HETATM   22  N   UNL     1     -12.449  13.871  67.398  1.00  0.00    -0.432 NA 
HETATM   23  H1  UNL     1     -13.180  13.177  67.553  1.00  0.00     0.000 HD 
BRANCH  20  24
HETATM   24  C   UNL     1     -11.207  12.178  66.057  1.00  0.00    -0.382 A  
HETATM   25  C   UNL     1     -11.239  11.469  64.845  1.00  0.00    -0.242 A  
HETATM   26  C   UNL     1     -10.771  10.154  64.771  1.00  0.00     0.813 A  
HETATM   27  C   UNL     1     -10.257   9.544  65.910  1.00  0.00    -0.115 A  
HETATM   28  C   UNL     1     -10.179  10.236  67.111  1.00  0.00    -0.277 A  
HETATM   29  O   UNL     1      -9.823   8.253  65.891  1.00  0.00    -0.466 OA 
HETATM   30  H   UNL     1      -9.472   7.837  66.669  1.00  0.00     0.000 HD 
HETATM   31  C   UNL     1     -10.644  11.551  67.183  1.00  0.00    -0.273 A  
ENDBRANCH  20  24
ENDBRANCH  18  20
ENDBRANCH   6  16
TORSDOF 4
ENDMDL
MODEL      170
REMARK 921   NORMALIZED FREE ENERGY PREDICTED BY IDOCK:    4.91 KCAL/MOL
REMARK 922        TOTAL FREE ENERGY PREDICTED BY IDOCK:    5.25 KCAL/MOL
REMARK 923 INTER-LIGAND FREE ENERGY PREDICTED BY IDOCK:    4.42 KCAL/MOL
REMARK 924 INTRA-LIGAND FREE ENERGY PREDICTED BY IDOCK:    0.83 KCAL/MOL
REMARK 927      BINDING AFFINITY PREDICTED BY RF-SCORE:    0.00 PKD
ROOT
HETATM    1  C   UNL     1      -7.164  13.974  69.981  1.00  0.00     0.429 C  
HETATM    2  S   UNL     1      -8.798  13.248  70.255  1.00  0.00     4.935 SA 
HETATM    3  C   UNL     1      -8.214  11.563  69.997  1.00  0.00     2.013 C  
HETATM    4  C   UNL     1      -7.337  11.357  68.767  1.00  0.00    -0.114 C  
HETATM    5  CA  UNL     1      -6.645  12.361  68.146  1.00  0.00    -0.073 C  
HETATM    6  CA  UNL     1      -7.173  15.468  69.521  1.00  0.00    -0.201 C  
HETATM    7  C   UNL     1      -5.794  12.065  66.924  1.00  0.00    -0.071 C  
HETATM    8  O   UNL     1      -5.990  15.300  67.207  1.00  0.00    -0.329 OA 
HETATM    9  N   UNL     1      -6.713  13.634  68.646  1.00  0.00    -0.093 N  
HETATM   10  OXT UNL     1      -5.330  10.960  66.678  1.00  0.00    -0.056 OA 
HETATM   11  C   UNL     1      -6.455  14.898  68.248  1.00  0.00    -0.118 C  
HETATM   12  O   UNL     1      -5.534  13.088  66.089  1.00  0.00     1.923 OA 
ENDROOT
BRANCH   4  13
HETATM   13  C   UNL     1      -7.414   9.975  68.263  1.00  0.00    -0.079 C  
HETATM   14  C   UNL     1      -7.999   8.944  68.896  1.00  0.00    -0.104 C  
HETATM   15  C   UNL     1      -8.107   7.566  68.324  1.00  0.00    -0.124 C  
ENDBRANCH   4  13
BRANCH   6  16
HETATM   16  N   UNL     1      -8.512  16.045  69.276  1.00  0.00    -0.251 N  
HETATM   17  H   UNL     1      -8.887  16.685  69.977  1.00  0.00     0.000 HD 
HETATM   18  C   UNL     1      -9.291  15.784  68.174  1.00  0.00    -0.194 C  
HETATM   19  O   UNL     1      -8.912  15.097  67.231  1.00  0.00    -0.182 OA 
BRANCH  18  20
HETATM   20  CA  UNL     1     -10.690  16.444  68.257  1.00  0.00    -0.337 C  
HETATM   21  H2  UNL     1     -10.038  18.213  67.331  1.00  0.00     0.000 HD 
HETATM   22  N   UNL     1     -10.550  17.926  68.166  1.00  0.00    -0.374 NA 
HETATM   23  H1  UNL     1     -11.471  18.361  68.220  1.00  0.00     0.000 HD 
BRANCH  20  24
HETATM   24  C   UNL     1     -11.432  16.026  69.514  1.00  0.00    -0.326 A  
HETATM   25  C   UNL     1     -11.172  16.694  70.721  1.00  0.00     0.094 A  
HETATM   26  C   UNL     1     -11.810  16.312  71.905  1.00  0.00    -0.538 A  
HETATM   27  C   UNL     1     -12.722  15.263  71.884  1.00  0.00    -0.361 A  
HETATM   28  C   UNL     1     -13.026  14.612  70.696  1.00  0.00    -0.367 A  
HETATM   29  O   UNL     1     -13.340  14.836  73.020  1.00  0.00    -0.478 OA 
HETATM   30  H   UNL     1     -13.964  14.120  73.005  1.00  0.00     0.000 HD 
HETATM   31  C   UNL     1     -12.390  14.996  69.514  1.00  0.00    -0.199 A  
ENDBRANCH  20  24
ENDBRANCH  18  20
ENDBRANCH   6  16
TORSDOF 4
ENDMDL
MODEL      171
REMARK 921   NORMALIZED FREE ENERGY PREDICTED BY IDOCK:    4.98 KCAL/MOL
REMARK 922        TOTAL FREE ENERGY PREDICTED BY IDOCK:    5.34 KCAL/MOL
REMARK 923 INTER-LIGAND FREE ENERGY PREDICTED BY IDOCK:   -3.14 KCAL/MOL
REMARK 924 INTRA-LIGAND FREE ENERGY PREDICTED BY IDOCK:    8.48 KCAL/MOL
REMARK 927      BINDING AFFINITY PREDICTED BY RF-SCORE:    0.00 PKD
ROOT
HETATM    1  C   UNL     1     -10.762   4.712  69.324  1.00  0.00     0.987 C  
HETATM    2  S   UNL     1      -9.239   4.210  68.486  1.00  0.00    -0.156 SA 
HETATM    3  C   UNL     1      -8.923   2.858  69.635  1.00  0.00    -0.106 C  
HETATM    4  C   UNL     1      -9.058   3.210  71.112  1.00  0.00    -0.182 C  
HETATM    5  CA  UNL     1      -9.783   4.272  71.580  1.00  0.00    -0.173 C  
HETATM    6  CA  UNL     1     -11.181   6.202  69.100  1.00  0.00    -0.339 C  
HETATM    7  C   UNL     1      -9.865   4.550  73.071  1.00  0.00    -0.140 C  
HETATM    8  O   UNL     1     -11.143   7.118  71.537  1.00  0.00    -0.235 OA 
HETATM    9  N   UNL     1     -10.451   5.073  70.693  1.00  0.00    -0.205 N  
HETATM   10  OXT UNL     1      -9.692   3.691  73.926  1.00  0.00    -0.104 OA 
HETATM   11  C   UNL     1     -11.019   6.299  70.658  1.00  0.00    -0.309 C  
HETATM   12  O   UNL     1     -10.158   5.807  73.451  1.00  0.00    -0.176 OA 
ENDROOT
BRANCH   4  13
HETATM   13  C   UNL     1      -8.225   2.342  71.962  1.00  0.00    -0.054 C  
HETATM   14  C   UNL     1      -7.259   2.760  72.798  1.00  0.00    -0.040 C  
HETATM   15  C   UNL     1      -6.474   1.850  73.687  1.00  0.00    -0.013 C  
ENDBRANCH   4  13
BRANCH   6  16
HETATM   16  N   UNL     1     -10.222   7.016  68.322  1.00  0.00    -0.174 N  
HETATM   17  H   UNL     1     -10.530   7.937  68.009  1.00  0.00     0.000 HD 
HETATM   18  C   UNL     1      -8.946   6.625  67.989  1.00  0.00    -0.117 C  
HETATM   19  O   UNL     1      -8.441   5.578  68.379  1.00  0.00    -0.101 OA 
BRANCH  18  20
HETATM   20  CA  UNL     1      -8.227   7.645  67.071  1.00  0.00    -0.117 C  
HETATM   21  H2  UNL     1      -6.329   7.170  67.836  1.00  0.00     0.000 HD 
HETATM   22  N   UNL     1      -6.901   7.996  67.656  1.00  0.00    -0.068 NA 
HETATM   23  H1  UNL     1      -6.427   8.667  67.052  1.00  0.00     0.000 HD 
BRANCH  20  24
HETATM   24  C   UNL     1      -9.079   8.877  66.829  1.00  0.00    -0.177 A  
HETATM   25  C   UNL     1      -8.509   9.996  66.199  1.00  0.00    -0.131 A  
HETATM   26  C   UNL     1      -9.254  11.160  65.991  1.00  0.00    -0.223 A  
HETATM   27  C   UNL     1     -10.581  11.207  66.405  1.00  0.00    -0.261 A  
HETATM   28  C   UNL     1     -11.180  10.103  66.994  1.00  0.00     0.123 A  
HETATM   29  O   UNL     1     -11.333  12.333  66.253  1.00  0.00    -0.309 OA 
HETATM   30  H   UNL     1     -12.239  12.365  66.535  1.00  0.00     0.000 HD 
HETATM   31  C   UNL     1     -10.435   8.939  67.199  1.00  0.00    -0.344 A  
ENDBRANCH  20  24
ENDBRANCH  18  20
ENDBRANCH   6  16
TORSDOF 4
ENDMDL
MODEL      172
REMARK 921   NORMALIZED FREE ENERGY PREDICTED BY IDOCK:    5.01 KCAL/MOL
REMARK 922        TOTAL FREE ENERGY PREDICTED BY IDOCK:    5.37 KCAL/MOL
REMARK 923 INTER-LIGAND FREE ENERGY PREDICTED BY IDOCK:    5.84 KCAL/MOL
REMARK 924 INTRA-LIGAND FREE ENERGY PREDICTED BY IDOCK:   -0.47 KCAL/MOL
REMARK 927      BINDING AFFINITY PREDICTED BY RF-SCORE:    0.00 PKD
ROOT
HETATM    1  C   UNL     1      -6.479  15.794  69.023  1.00  0.00    -0.130 C  
HETATM    2  S   UNL     1      -7.770  16.023  70.269  1.00  0.00     1.575 SA 
HETATM    3  C   UNL     1      -6.959  14.948  71.466  1.00  0.00     1.712 C  
HETATM    4  C   UNL     1      -6.470  13.612  70.919  1.00  0.00     0.510 C  
HETATM    5  CA  UNL     1      -6.218  13.376  69.596  1.00  0.00    -0.120 C  
HETATM    6  CA  UNL     1      -6.931  16.045  67.547  1.00  0.00    -0.176 C  
HETATM    7  C   UNL     1      -5.731  12.012  69.137  1.00  0.00    -0.064 C  
HETATM    8  O   UNL     1      -6.491  13.715  66.471  1.00  0.00     1.312 OA 
HETATM    9  N   UNL     1      -6.391  14.386  68.687  1.00  0.00    -0.083 N  
HETATM   10  OXT UNL     1      -5.147  11.225  69.870  1.00  0.00    -0.049 OA 
HETATM   11  C   UNL     1      -6.528  14.541  67.352  1.00  0.00     0.104 C  
HETATM   12  O   UNL     1      -5.950  11.678  67.852  1.00  0.00    -0.043 OA 
ENDROOT
BRANCH   4  13
HETATM   13  C   UNL     1      -6.411  12.579  71.967  1.00  0.00     3.303 C  
HETATM   14  C   UNL     1      -5.331  12.276  72.707  1.00  0.00     0.719 C  
HETATM   15  C   UNL     1      -5.328  11.258  73.803  1.00  0.00     0.780 C  
ENDBRANCH   4  13
BRANCH   6  16
HETATM   16  N   UNL     1      -8.371  16.333  67.369  1.00  0.00    -0.164 N  
HETATM   17  H   UNL     1      -9.037  15.717  67.836  1.00  0.00     0.000 HD 
HETATM   18  C   UNL     1      -8.879  17.369  66.622  1.00  0.00    -0.254 C  
HETATM   19  O   UNL     1      -8.175  18.219  66.085  1.00  0.00    -0.423 OA 
BRANCH  18  20
HETATM   20  CA  UNL     1     -10.426  17.341  66.531  1.00  0.00    -0.260 C  
HETATM   21  H2  UNL     1     -10.658  18.703  68.113  1.00  0.00     0.000 HD 
HETATM   22  N   UNL     1     -11.010  17.789  67.827  1.00  0.00    -0.217 NA 
HETATM   23  H1  UNL     1     -12.028  17.771  67.768  1.00  0.00     0.000 HD 
BRANCH  20  24
HETATM   24  C   UNL     1     -10.937  15.971  66.126  1.00  0.00    -0.083 A  
HETATM   25  C   UNL     1     -10.727  15.519  64.813  1.00  0.00    -0.329 A  
HETATM   26  C   UNL     1     -11.214  14.278  64.394  1.00  0.00    -0.262 A  
HETATM   27  C   UNL     1     -11.907  13.475  65.294  1.00  0.00    -0.352 A  
HETATM   28  C   UNL     1     -12.093  13.881  66.608  1.00  0.00    -0.485 A  
HETATM   29  O   UNL     1     -12.428  12.273  64.919  1.00  0.00    -0.500 OA 
HETATM   30  H   UNL     1     -12.901  11.725  65.534  1.00  0.00     0.000 HD 
HETATM   31  C   UNL     1     -11.604  15.120  67.026  1.00  0.00    -0.179 A  
ENDBRANCH  20  24
ENDBRANCH  18  20
ENDBRANCH   6  16
TORSDOF 4
ENDMDL
MODEL      173
REMARK 921   NORMALIZED FREE ENERGY PREDICTED BY IDOCK:    5.89 KCAL/MOL
REMARK 922        TOTAL FREE ENERGY PREDICTED BY IDOCK:    6.46 KCAL/MOL
REMARK 923 INTER-LIGAND FREE ENERGY PREDICTED BY IDOCK:    2.01 KCAL/MOL
REMARK 924 INTRA-LIGAND FREE ENERGY PREDICTED BY IDOCK:    4.45 KCAL/MOL
REMARK 927      BINDING AFFINITY PREDICTED BY RF-SCORE:    0.00 PKD
ROOT
HETATM    1  C   UNL     1      -5.759  14.396  68.332  1.00  0.00    -0.106 C  
HETATM    2  S   UNL     1      -6.429  14.456  70.011  1.00  0.00    -0.116 SA 
HETATM    3  C   UNL     1      -5.476  13.030  70.561  1.00  0.00    -0.159 C  
HETATM    4  C   UNL     1      -5.506  11.824  69.628  1.00  0.00    -0.071 C  
HETATM    5  CA  UNL     1      -5.809  11.898  68.296  1.00  0.00    -0.050 C  
HETATM    6  CA  UNL     1      -6.656  15.058  67.236  1.00  0.00     0.116 C  
HETATM    7  C   UNL     1      -5.815  10.645  67.438  1.00  0.00    -0.045 C  
HETATM    8  O   UNL     1      -7.128  13.036  65.666  1.00  0.00     3.537 OA 
HETATM    9  N   UNL     1      -6.090  13.116  67.736  1.00  0.00    -0.142 N  
HETATM   10  OXT UNL     1      -5.179   9.636  67.716  1.00  0.00    -0.036 OA 
HETATM   11  C   UNL     1      -6.671  13.614  66.623  1.00  0.00     2.097 C  
HETATM   12  O   UNL     1      -6.551  10.669  66.312  1.00  0.00    -0.108 OA 
ENDROOT
BRANCH   4  13
HETATM   13  C   UNL     1      -5.282  10.562  70.354  1.00  0.00    -0.057 C  
HETATM   14  C   UNL     1      -6.146   9.535  70.422  1.00  0.00    -0.059 C  
HETATM   15  C   UNL     1      -5.857   8.247  71.123  1.00  0.00    -0.034 C  
ENDBRANCH   4  13
BRANCH   6  16
HETATM   16  N   UNL     1      -7.969  15.549  67.708  1.00  0.00    -0.136 N  
HETATM   17  H   UNL     1      -8.338  16.398  67.279  1.00  0.00     0.000 HD 
HETATM   18  C   UNL     1      -8.730  14.946  68.682  1.00  0.00    -0.177 C  
HETATM   19  O   UNL     1      -8.427  13.880  69.207  1.00  0.00     0.231 OA 
BRANCH  18  20
HETATM   20  CA  UNL     1      -9.999  15.759  69.040  1.00  0.00    -0.234 C  
HETATM   21  H2  UNL     1     -11.089  14.043  69.569  1.00  0.00     0.000 HD 
HETATM   22  N   UNL     1     -11.195  14.870  68.981  1.00  0.00    -0.250 NA 
HETATM   23  H1  UNL     1     -12.031  15.405  69.217  1.00  0.00     0.000 HD 
BRANCH  20  24
HETATM   24  C   UNL     1     -10.156  16.974  68.144  1.00  0.00    -0.308 A  
HETATM   25  C   UNL     1      -9.896  18.252  68.666  1.00  0.00    -0.400 A  
HETATM   26  C   UNL     1     -10.063  19.396  67.881  1.00  0.00    -0.503 A  
HETATM   27  C   UNL     1     -10.482  19.266  66.562  1.00  0.00    -0.462 A  
HETATM   28  C   UNL     1     -10.708  18.012  66.010  1.00  0.00    -0.143 A  
HETATM   29  O   UNL     1     -10.691  20.355  65.772  1.00  0.00    -0.174 OA 
HETATM   30  H   UNL     1     -10.977  20.266  64.870  1.00  0.00     0.000 HD 
HETATM   31  C   UNL     1     -10.537  16.870  66.794  1.00  0.00    -0.201 A  
ENDBRANCH  20  24
ENDBRANCH  18  20
ENDBRANCH   6  16
TORSDOF 4
ENDMDL
MODEL      174
REMARK 921   NORMALIZED FREE ENERGY PREDICTED BY IDOCK:    6.14 KCAL/MOL
REMARK 922        TOTAL FREE ENERGY PREDICTED BY IDOCK:    6.77 KCAL/MOL
REMARK 923 INTER-LIGAND FREE ENERGY PREDICTED BY IDOCK:    4.03 KCAL/MOL
REMARK 924 INTRA-LIGAND FREE ENERGY PREDICTED BY IDOCK:    2.74 KCAL/MOL
REMARK 927      BINDING AFFINITY PREDICTED BY RF-SCORE:    0.00 PKD
ROOT
HETATM    1  C   UNL     1      -9.915  17.780  67.331  1.00  0.00    -0.323 C  
HETATM    2  S   UNL     1     -10.790  17.051  68.736  1.00  0.00    -0.187 SA 
HETATM    3  C   UNL     1      -9.497  17.493  69.911  1.00  0.00     1.196 C  
HETATM    4  C   UNL     1      -8.075  17.162  69.473  1.00  0.00     0.520 C  
HETATM    5  CA  UNL     1      -7.701  16.982  68.169  1.00  0.00    -0.197 C  
HETATM    6  CA  UNL     1     -10.305  17.197  65.933  1.00  0.00    -0.284 C  
HETATM    7  C   UNL     1      -6.259  16.655  67.822  1.00  0.00    -0.141 C  
HETATM    8  O   UNL     1      -8.023  16.241  65.120  1.00  0.00     2.059 OA 
HETATM    9  N   UNL     1      -8.634  17.118  67.177  1.00  0.00    -0.199 N  
HETATM   10  OXT UNL     1      -5.312  16.938  68.543  1.00  0.00    -0.123 OA 
HETATM   11  C   UNL     1      -8.791  16.788  65.876  1.00  0.00    -0.053 C  
HETATM   12  O   UNL     1      -6.031  16.035  66.650  1.00  0.00    -0.186 OA 
ENDROOT
BRANCH   4  13
HETATM   13  C   UNL     1      -7.182  16.948  70.625  1.00  0.00     2.807 C  
HETATM   14  C   UNL     1      -6.142  16.097  70.660  1.00  0.00     0.315 C  
HETATM   15  C   UNL     1      -5.223  15.951  71.830  1.00  0.00     0.189 C  
ENDBRANCH   4  13
BRANCH   6  16
HETATM   16  N   UNL     1     -11.256  16.064  65.966  1.00  0.00     0.032 N  
HETATM   17  H   UNL     1     -12.236  16.276  66.156  1.00  0.00     0.000 HD 
HETATM   18  C   UNL     1     -10.919  14.748  65.759  1.00  0.00    -0.334 C  
HETATM   19  O   UNL     1      -9.791  14.385  65.442  1.00  0.00    -0.325 OA 
BRANCH  18  20
HETATM   20  CA  UNL     1     -12.112  13.782  65.972  1.00  0.00    -0.436 C  
HETATM   21  H2  UNL     1     -13.241  14.654  64.431  1.00  0.00     0.000 HD 
HETATM   22  N   UNL     1     -13.352  14.389  65.410  1.00  0.00    -0.467 NA 
HETATM   23  H1  UNL     1     -14.138  13.753  65.550  1.00  0.00     0.000 HD 
BRANCH  20  24
HETATM   24  C   UNL     1     -12.278  13.413  67.435  1.00  0.00    -0.262 A  
HETATM   25  C   UNL     1     -12.716  14.389  68.345  1.00  0.00     0.820 A  
HETATM   26  C   UNL     1     -12.847  14.095  69.705  1.00  0.00     0.309 A  
HETATM   27  C   UNL     1     -12.549  12.815  70.161  1.00  0.00     0.079 A  
HETATM   28  C   UNL     1     -12.151  11.822  69.277  1.00  0.00    -0.292 A  
HETATM   29  O   UNL     1     -12.629  12.495  71.483  1.00  0.00    -0.267 OA 
HETATM   30  H   UNL     1     -12.426  11.621  71.794  1.00  0.00     0.000 HD 
HETATM   31  C   UNL     1     -12.023  12.116  67.918  1.00  0.00    -0.218 A  
ENDBRANCH  20  24
ENDBRANCH  18  20
ENDBRANCH   6  16
TORSDOF 4
ENDMDL
MODEL      175
REMARK 921   NORMALIZED FREE ENERGY PREDICTED BY IDOCK:    6.99 KCAL/MOL
REMARK 922        TOTAL FREE ENERGY PREDICTED BY IDOCK:    7.81 KCAL/MOL
REMARK 923 INTER-LIGAND FREE ENERGY PREDICTED BY IDOCK:    6.56 KCAL/MOL
REMARK 924 INTRA-LIGAND FREE ENERGY PREDICTED BY IDOCK:    1.25 KCAL/MOL
REMARK 927      BINDING AFFINITY PREDICTED BY RF-SCORE:    0.00 PKD
ROOT
HETATM    1  C   UNL     1      -9.743  15.481  68.588  1.00  0.00    -0.208 C  
HETATM    2  S   UNL     1      -9.504  15.582  70.378  1.00  0.00     1.071 SA 
HETATM    3  C   UNL     1      -8.672  17.178  70.287  1.00  0.00     2.893 C  
HETATM    4  C   UNL     1      -7.578  17.286  69.230  1.00  0.00     0.003 C  
HETATM    5  CA  UNL     1      -7.497  16.474  68.132  1.00  0.00    -0.159 C  
HETATM    6  CA  UNL     1      -9.917  14.033  68.025  1.00  0.00    -0.235 C  
HETATM    7  C   UNL     1      -6.373  16.652  67.127  1.00  0.00    -0.184 C  
HETATM    8  O   UNL     1      -7.891  13.869  66.398  1.00  0.00     0.811 OA 
HETATM    9  N   UNL     1      -8.449  15.510  67.936  1.00  0.00    -0.142 N  
HETATM   10  OXT UNL     1      -5.767  17.704  66.974  1.00  0.00    -0.127 OA 
HETATM   11  C   UNL     1      -8.620  14.382  67.213  1.00  0.00    -0.215 C  
HETATM   12  O   UNL     1      -6.051  15.591  66.364  1.00  0.00     0.934 OA 
ENDROOT
BRANCH   4  13
HETATM   13  C   UNL     1      -6.562  18.289  69.592  1.00  0.00    -0.089 C  
HETATM   14  C   UNL     1      -6.216  18.635  70.843  1.00  0.00     0.639 C  
HETATM   15  C   UNL     1      -5.137  19.618  71.169  1.00  0.00    -0.273 C  
ENDBRANCH   4  13
BRANCH   6  16
HETATM   16  N   UNL     1      -9.759  12.947  69.016  1.00  0.00    -0.361 N  
HETATM   17  H   UNL     1     -10.516  12.804  69.685  1.00  0.00     0.000 HD 
HETATM   18  C   UNL     1      -8.667  12.115  69.104  1.00  0.00     0.587 C  
HETATM   19  O   UNL     1      -7.737  12.141  68.305  1.00  0.00    -0.120 OA 
BRANCH  18  20
HETATM   20  CA  UNL     1      -8.742  11.154  70.317  1.00  0.00     2.468 C  
HETATM   21  H2  UNL     1      -6.706  10.653  70.192  1.00  0.00     0.000 HD 
HETATM   22  N   UNL     1      -7.611  10.185  70.257  1.00  0.00    -0.370 NA 
HETATM   23  H1  UNL     1      -7.659   9.553  71.056  1.00  0.00     0.000 HD 
BRANCH  20  24
HETATM   24  C   UNL     1     -10.084  10.450  70.390  1.00  0.00     0.270 A  
HETATM   25  C   UNL     1     -11.239  11.197  70.672  1.00  0.00     0.339 A  
HETATM   26  C   UNL     1     -12.487  10.577  70.781  1.00  0.00    -0.472 A  
HETATM   27  C   UNL     1     -12.586   9.202  70.598  1.00  0.00     0.166 A  
HETATM   28  C   UNL     1     -11.467   8.446  70.280  1.00  0.00    -0.063 A  
HETATM   29  O   UNL     1     -13.776   8.552  70.729  1.00  0.00    -0.378 OA 
HETATM   30  H   UNL     1     -13.844   7.612  70.604  1.00  0.00     0.000 HD 
HETATM   31  C   UNL     1     -10.221   9.067  70.168  1.00  0.00    -0.224 A  
ENDBRANCH  20  24
ENDBRANCH  18  20
ENDBRANCH   6  16
TORSDOF 4
ENDMDL
MODEL      176
REMARK 921   NORMALIZED FREE ENERGY PREDICTED BY IDOCK:    8.20 KCAL/MOL
REMARK 922        TOTAL FREE ENERGY PREDICTED BY IDOCK:    9.31 KCAL/MOL
REMARK 923 INTER-LIGAND FREE ENERGY PREDICTED BY IDOCK:    9.16 KCAL/MOL
REMARK 924 INTRA-LIGAND FREE ENERGY PREDICTED BY IDOCK:    0.15 KCAL/MOL
REMARK 927      BINDING AFFINITY PREDICTED BY RF-SCORE:    0.00 PKD
ROOT
HETATM    1  C   UNL     1      -8.708   9.460  66.630  1.00  0.00    -0.131 C  
HETATM    2  S   UNL     1      -9.683  10.312  67.893  1.00  0.00    -0.147 SA 
HETATM    3  C   UNL     1      -9.781   8.860  68.955  1.00  0.00    -0.171 C  
HETATM    4  C   UNL     1     -10.164   7.562  68.253  1.00  0.00    -0.218 C  
HETATM    5  CA  UNL     1     -10.010   7.346  66.911  1.00  0.00    -0.236 C  
HETATM    6  CA  UNL     1      -8.805  10.071  65.194  1.00  0.00    -0.180 C  
HETATM    7  C   UNL     1     -10.418   6.020  66.294  1.00  0.00     0.032 C  
HETATM    8  O   UNL     1      -9.790   8.071  63.849  1.00  0.00     3.264 OA 
HETATM    9  N   UNL     1      -9.467   8.330  66.129  1.00  0.00    -0.199 N  
HETATM   10  OXT UNL     1     -10.488   4.975  66.928  1.00  0.00    -0.234 OA 
HETATM   11  C   UNL     1      -9.384   8.661  64.822  1.00  0.00     0.581 C  
HETATM   12  O   UNL     1     -10.700   6.010  64.978  1.00  0.00     2.217 OA 
ENDROOT
BRANCH   4  13
HETATM   13  C   UNL     1     -10.821   6.615  69.171  1.00  0.00    -0.329 C  
HETATM   14  C   UNL     1     -10.217   5.600  69.811  1.00  0.00    -0.321 C  
HETATM   15  C   UNL     1     -10.909   4.696  70.781  1.00  0.00     0.590 C  
ENDBRANCH   4  13
BRANCH   6  16
HETATM   16  N   UNL     1      -9.757  11.194  65.050  1.00  0.00    -0.240 N  
HETATM   17  H   UNL     1     -10.695  11.070  65.432  1.00  0.00     0.000 HD 
HETATM   18  C   UNL     1      -9.472  12.393  64.439  1.00  0.00     0.319 C  
HETATM   19  O   UNL     1      -8.358  12.684  64.017  1.00  0.00     2.805 OA 
BRANCH  18  20
HETATM   20  CA  UNL     1     -10.707  13.324  64.341  1.00  0.00    -0.415 C  
HETATM   21  H2  UNL     1     -11.231  12.618  62.433  1.00  0.00     0.000 HD 
HETATM   22  N   UNL     1     -11.081  13.508  62.909  1.00  0.00     0.692 NA 
HETATM   23  H1  UNL     1     -11.894  14.121  62.844  1.00  0.00     0.000 HD 
BRANCH  20  24
HETATM   24  C   UNL     1     -10.463  14.651  65.035  1.00  0.00    -0.447 A  
HETATM   25  C   UNL     1     -11.451  15.176  65.883  1.00  0.00    -0.159 A  
HETATM   26  C   UNL     1     -11.275  16.411  66.512  1.00  0.00     0.328 A  
HETATM   27  C   UNL     1     -10.101  17.126  66.302  1.00  0.00    -0.320 A  
HETATM   28  C   UNL     1      -9.092  16.612  65.499  1.00  0.00     0.500 A  
HETATM   29  O   UNL     1      -9.903  18.350  66.867  1.00  0.00    -0.307 OA 
HETATM   30  H   UNL     1      -9.100  18.837  66.724  1.00  0.00     0.000 HD 
HETATM   31  C   UNL     1      -9.267  15.375  64.874  1.00  0.00     1.883 A  
ENDBRANCH  20  24
ENDBRANCH  18  20
ENDBRANCH   6  16
TORSDOF 4
ENDMDL
MODEL      177
REMARK 921   NORMALIZED FREE ENERGY PREDICTED BY IDOCK:    9.84 KCAL/MOL
REMARK 922        TOTAL FREE ENERGY PREDICTED BY IDOCK:   11.32 KCAL/MOL
REMARK 923 INTER-LIGAND FREE ENERGY PREDICTED BY IDOCK:   10.73 KCAL/MOL
REMARK 924 INTRA-LIGAND FREE ENERGY PREDICTED BY IDOCK:    0.60 KCAL/MOL
REMARK 927      BINDING AFFINITY PREDICTED BY RF-SCORE:    0.00 PKD
ROOT
HETATM    1  C   UNL     1      -9.695  15.395  68.001  1.00  0.00    -0.207 C  
HETATM    2  S   UNL     1      -9.184  16.543  69.303  1.00  0.00    -0.034 SA 
HETATM    3  C   UNL     1      -9.985  15.592  70.607  1.00  0.00     0.655 C  
HETATM    4  C   UNL     1     -11.414  15.152  70.312  1.00  0.00    -0.315 C  
HETATM    5  CA  UNL     1     -11.935  15.046  69.051  1.00  0.00    -0.264 C  
HETATM    6  CA  UNL     1      -9.762  16.010  66.565  1.00  0.00    -0.264 C  
HETATM    7  C   UNL     1     -13.371  14.599  68.848  1.00  0.00     2.873 C  
HETATM    8  O   UNL     1     -12.276  15.667  65.977  1.00  0.00     0.733 OA 
HETATM    9  N   UNL     1     -11.143  15.329  67.971  1.00  0.00    -0.300 N  
HETATM   10  OXT UNL     1     -13.990  13.929  69.665  1.00  0.00     2.826 OA 
HETATM   11  C   UNL     1     -11.278  15.615  66.658  1.00  0.00    -0.067 C  
HETATM   12  O   UNL     1     -13.973  14.954  67.698  1.00  0.00     6.307 OA 
ENDROOT
BRANCH   4  13
HETATM   13  C   UNL     1     -12.197  14.967  71.546  1.00  0.00    -0.402 C  
HETATM   14  C   UNL     1     -13.293  15.664  71.889  1.00  0.00    -0.537 C  
HETATM   15  C   UNL     1     -14.094  15.406  73.125  1.00  0.00     0.308 C  
ENDBRANCH   4  13
BRANCH   6  16
HETATM   16  N   UNL     1      -9.500  17.464  66.489  1.00  0.00    -0.265 N  
HETATM   17  H   UNL     1      -8.822  17.856  67.143  1.00  0.00     0.000 HD 
HETATM   18  C   UNL     1     -10.102  18.326  65.603  1.00  0.00     0.179 C  
HETATM   19  O   UNL     1     -10.869  17.955  64.721  1.00  0.00    -0.636 OA 
BRANCH  18  20
HETATM   20  CA  UNL     1      -9.709  19.805  65.845  1.00  0.00    -0.281 C  
HETATM   21  H2  UNL     1     -10.293  20.396  63.916  1.00  0.00     0.000 HD 
HETATM   22  N   UNL     1      -9.487  20.483  64.536  1.00  0.00     1.094 NA 
HETATM   23  H1  UNL     1      -9.228  21.457  64.695  1.00  0.00     0.000 HD 
BRANCH  20  24
HETATM   24  C   UNL     1      -8.497  19.920  66.752  1.00  0.00    -0.377 A  
HETATM   25  C   UNL     1      -8.647  20.471  68.035  1.00  0.00     0.020 A  
HETATM   26  C   UNL     1      -7.548  20.624  68.883  1.00  0.00     0.635 A  
HETATM   27  C   UNL     1      -6.289  20.216  68.455  1.00  0.00    -0.291 A  
HETATM   28  C   UNL     1      -6.120  19.632  67.207  1.00  0.00    -0.197 A  
HETATM   29  O   UNL     1      -5.185  20.378  69.236  1.00  0.00    -0.208 OA 
HETATM   30  H   UNL     1      -4.325  20.099  68.943  1.00  0.00     0.000 HD 
HETATM   31  C   UNL     1      -7.220  19.477  66.361  1.00  0.00    -0.253 A  
ENDBRANCH  20  24
ENDBRANCH  18  20
ENDBRANCH   6  16
TORSDOF 4
ENDMDL
MODEL      178
REMARK 921   NORMALIZED FREE ENERGY PREDICTED BY IDOCK:   18.06 KCAL/MOL
REMARK 922        TOTAL FREE ENERGY PREDICTED BY IDOCK:   21.47 KCAL/MOL
REMARK 923 INTER-LIGAND FREE ENERGY PREDICTED BY IDOCK:   18.81 KCAL/MOL
REMARK 924 INTRA-LIGAND FREE ENERGY PREDICTED BY IDOCK:    2.66 KCAL/MOL
REMARK 927      BINDING AFFINITY PREDICTED BY RF-SCORE:    0.00 PKD
ROOT
HETATM    1  C   UNL     1      -8.244  12.383  70.612  1.00  0.00     6.552 C  
HETATM    2  S   UNL     1      -9.058  10.790  70.882  1.00  0.00     4.471 SA 
HETATM    3  C   UNL     1      -7.705   9.851  70.150  1.00  0.00    -0.175 C  
HETATM    4  C   UNL     1      -7.190  10.378  68.815  1.00  0.00    -0.085 C  
HETATM    5  CA  UNL     1      -7.361  11.666  68.387  1.00  0.00    -0.096 C  
HETATM    6  CA  UNL     1      -9.205  13.613  70.540  1.00  0.00     4.591 C  
HETATM    7  C   UNL     1      -6.813  12.108  67.042  1.00  0.00    -0.067 C  
HETATM    8  O   UNL     1      -8.730  14.497  68.137  1.00  0.00    -0.158 OA 
HETATM    9  N   UNL     1      -8.014  12.562  69.192  1.00  0.00     0.308 N  
HETATM   10  OXT UNL     1      -5.881  11.549  66.478  1.00  0.00    -0.146 OA 
HETATM   11  C   UNL     1      -8.621  13.764  69.092  1.00  0.00     0.415 C  
HETATM   12  O   UNL     1      -7.386  13.178  66.462  1.00  0.00     0.644 OA 
ENDROOT
BRANCH   4  13
HETATM   13  C   UNL     1      -6.590   9.310  67.998  1.00  0.00    -0.060 C  
HETATM   14  C   UNL     1      -6.962   8.978  66.750  1.00  0.00    -0.081 C  
HETATM   15  C   UNL     1      -6.289   7.924  65.931  1.00  0.00    -0.042 C  
ENDBRANCH   4  13
BRANCH   6  16
HETATM   16  N   UNL     1     -10.648  13.291  70.599  1.00  0.00     1.906 N  
HETATM   17  H   UNL     1     -11.140  13.487  71.471  1.00  0.00     0.000 HD 
HETATM   18  C   UNL     1     -11.375  12.748  69.567  1.00  0.00    -0.154 C  
HETATM   19  O   UNL     1     -10.910  12.547  68.450  1.00  0.00    -0.224 OA 
BRANCH  18  20
HETATM   20  CA  UNL     1     -12.834  12.416  69.971  1.00  0.00     0.554 C  
HETATM   21  H2  UNL     1     -13.431  14.429  69.904  1.00  0.00     0.000 HD 
HETATM   22  N   UNL     1     -13.483  13.632  70.540  1.00  0.00     0.200 NA 
HETATM   23  H1  UNL     1     -14.444  13.415  70.805  1.00  0.00     0.000 HD 
BRANCH  20  24
HETATM   24  C   UNL     1     -12.895  11.243  70.932  1.00  0.00    -0.343 A  
HETATM   25  C   UNL     1     -11.878  10.276  70.903  1.00  0.00    -0.473 A  
HETATM   26  C   UNL     1     -11.919   9.165  71.748  1.00  0.00    -0.449 A  
HETATM   27  C   UNL     1     -12.978   9.020  72.638  1.00  0.00    -0.270 A  
HETATM   28  C   UNL     1     -13.977   9.981  72.714  1.00  0.00     0.600 A  
HETATM   29  O   UNL     1     -13.076   7.935  73.456  1.00  0.00     0.804 OA 
HETATM   30  H   UNL     1     -13.799   7.836  74.064  1.00  0.00     0.000 HD 
HETATM   31  C   UNL     1     -13.932  11.093  71.871  1.00  0.00     0.589 A  
ENDBRANCH  20  24
ENDBRANCH  18  20
ENDBRANCH   6  16
TORSDOF 4
ENDMDL
MODEL      179
REMARK 921   NORMALIZED FREE ENERGY PREDICTED BY IDOCK:   20.32 KCAL/MOL
REMARK 922        TOTAL FREE ENERGY PREDICTED BY IDOCK:   24.26 KCAL/MOL
REMARK 923 INTER-LIGAND FREE ENERGY PREDICTED BY IDOCK:   24.53 KCAL/MOL
REMARK 924 INTRA-LIGAND FREE ENERGY PREDICTED BY IDOCK:   -0.27 KCAL/MOL
REMARK 927      BINDING AFFINITY PREDICTED BY RF-SCORE:    0.00 PKD
ROOT
HETATM    1  C   UNL     1      -6.072  13.541  71.816  1.00  0.00     0.749 C  
HETATM    2  S   UNL     1      -7.716  13.219  72.497  1.00  0.00    12.359 SA 
HETATM    3  C   UNL     1      -7.381  11.469  72.769  1.00  0.00    11.917 C  
HETATM    4  C   UNL     1      -6.738  10.737  71.597  1.00  0.00     2.369 C  
HETATM    5  CA  UNL     1      -6.039  11.360  70.599  1.00  0.00     0.044 C  
HETATM    6  CA  UNL     1      -5.977  14.787  70.877  1.00  0.00    -0.064 C  
HETATM    7  C   UNL     1      -5.430  10.551  69.467  1.00  0.00    -0.038 C  
HETATM    8  O   UNL     1      -5.199  13.691  68.646  1.00  0.00    -0.075 OA 
HETATM    9  N   UNL     1      -5.878  12.719  70.638  1.00  0.00    -0.153 N  
HETATM   10  OXT UNL     1      -5.143   9.366  69.566  1.00  0.00    -0.035 OA 
HETATM   11  C   UNL     1      -5.539  13.727  69.805  1.00  0.00    -0.101 C  
HETATM   12  O   UNL     1      -5.186  11.193  68.310  1.00  0.00    -0.040 OA 
ENDROOT
BRANCH   4  13
HETATM   13  C   UNL     1      -7.054   9.298  71.608  1.00  0.00     0.159 C  
HETATM   14  C   UNL     1      -8.242   8.762  71.934  1.00  0.00    -0.113 C  
HETATM   15  C   UNL     1      -8.541   7.298  71.877  1.00  0.00    -0.123 C  
ENDBRANCH   4  13
BRANCH   6  16
HETATM   16  N   UNL     1      -7.262  15.464  70.595  1.00  0.00     0.535 N  
HETATM   17  H   UNL     1      -7.977  15.441  71.323  1.00  0.00     0.000 HD 
HETATM   18  C   UNL     1      -7.565  16.121  69.427  1.00  0.00    -0.161 C  
HETATM   19  O   UNL     1      -6.757  16.283  68.518  1.00  0.00    -0.128 OA 
BRANCH  18  20
HETATM   20  CA  UNL     1      -9.029  16.627  69.385  1.00  0.00     0.090 C  
HETATM   21  H2  UNL     1      -9.809  14.767  69.969  1.00  0.00     0.000 HD 
HETATM   22  N   UNL     1      -9.954  15.467  69.241  1.00  0.00    -0.246 NA 
HETATM   23  H1  UNL     1     -10.918  15.800  69.214  1.00  0.00     0.000 HD 
BRANCH  20  24
HETATM   24  C   UNL     1      -9.235  17.652  68.285  1.00  0.00    -0.283 A  
HETATM   25  C   UNL     1      -9.233  19.019  68.609  1.00  0.00    -0.414 A  
HETATM   26  C   UNL     1      -9.454  19.989  67.628  1.00  0.00    -0.498 A  
HETATM   27  C   UNL     1      -9.669  19.596  66.311  1.00  0.00    -0.423 A  
HETATM   28  C   UNL     1      -9.637  18.254  65.958  1.00  0.00    -0.068 A  
HETATM   29  O   UNL     1      -9.923  20.506  65.330  1.00  0.00    -0.467 OA 
HETATM   30  H   UNL     1     -10.070  20.237  64.431  1.00  0.00     0.000 HD 
HETATM   31  C   UNL     1      -9.413  17.285  66.938  1.00  0.00    -0.264 A  
ENDBRANCH  20  24
ENDBRANCH  18  20
ENDBRANCH   6  16
TORSDOF 4
ENDMDL
MODEL      180
REMARK 921   NORMALIZED FREE ENERGY PREDICTED BY IDOCK:   21.00 KCAL/MOL
REMARK 922        TOTAL FREE ENERGY PREDICTED BY IDOCK:   25.10 KCAL/MOL
REMARK 923 INTER-LIGAND FREE ENERGY PREDICTED BY IDOCK:   24.66 KCAL/MOL
REMARK 924 INTRA-LIGAND FREE ENERGY PREDICTED BY IDOCK:    0.44 KCAL/MOL
REMARK 927      BINDING AFFINITY PREDICTED BY RF-SCORE:    0.00 PKD
ROOT
HETATM    1  C   UNL     1      -9.434  19.200  69.208  1.00  0.00    -0.112 C  
HETATM    2  S   UNL     1      -9.320  17.474  69.736  1.00  0.00     1.261 SA 
HETATM    3  C   UNL     1      -8.749  16.904  68.125  1.00  0.00    -0.226 C  
HETATM    4  C   UNL     1      -9.539  17.424  66.929  1.00  0.00    -0.279 C  
HETATM    5  CA  UNL     1     -10.306  18.557  66.956  1.00  0.00    -0.399 C  
HETATM    6  CA  UNL     1     -10.424  20.082  70.037  1.00  0.00     0.783 C  
HETATM    7  C   UNL     1     -11.061  19.004  65.717  1.00  0.00     0.274 C  
HETATM    8  O   UNL     1     -12.114  20.824  68.200  1.00  0.00     3.389 OA 
HETATM    9  N   UNL     1     -10.373  19.297  68.107  1.00  0.00    -0.406 N  
HETATM   10  OXT UNL     1     -10.734  18.690  64.581  1.00  0.00     0.329 OA 
HETATM   11  C   UNL     1     -11.152  20.253  68.658  1.00  0.00     1.247 C  
HETATM   12  O   UNL     1     -12.133  19.797  65.899  1.00  0.00     1.937 OA 
ENDROOT
BRANCH   4  13
HETATM   13  C   UNL     1      -9.470  16.503  65.782  1.00  0.00    -0.149 C  
HETATM   14  C   UNL     1     -10.114  15.328  65.682  1.00  0.00    -0.401 C  
HETATM   15  C   UNL     1     -10.062  14.448  64.475  1.00  0.00     0.333 C  
ENDBRANCH   4  13
BRANCH   6  16
HETATM   16  N   UNL     1     -11.202  19.358  71.067  1.00  0.00     3.289 N  
HETATM   17  H   UNL     1     -12.215  19.318  70.951  1.00  0.00     0.000 HD 
HETATM   18  C   UNL     1     -10.662  18.737  72.168  1.00  0.00     3.615 C  
HETATM   19  O   UNL     1      -9.454  18.651  72.366  1.00  0.00     6.883 OA 
BRANCH  18  20
HETATM   20  CA  UNL     1     -11.740  18.166  73.123  1.00  0.00     2.542 C  
HETATM   21  H2  UNL     1     -10.910  19.107  74.808  1.00  0.00     0.000 HD 
HETATM   22  N   UNL     1     -11.225  18.180  74.522  1.00  0.00     1.228 NA 
HETATM   23  H1  UNL     1     -11.935  17.804  75.152  1.00  0.00     0.000 HD 
BRANCH  20  24
HETATM   24  C   UNL     1     -12.184  16.779  72.699  1.00  0.00     0.139 A  
HETATM   25  C   UNL     1     -11.215  15.814  72.379  1.00  0.00     0.024 A  
HETATM   26  C   UNL     1     -11.588  14.537  71.952  1.00  0.00     0.123 A  
HETATM   27  C   UNL     1     -12.937  14.214  71.851  1.00  0.00    -0.360 A  
HETATM   28  C   UNL     1     -13.914  15.136  72.199  1.00  0.00    -0.635 A  
HETATM   29  O   UNL     1     -13.344  12.993  71.406  1.00  0.00    -0.254 OA 
HETATM   30  H   UNL     1     -14.266  12.773  71.338  1.00  0.00     0.000 HD 
HETATM   31  C   UNL     1     -13.541  16.411  72.629  1.00  0.00     0.481 A  
ENDBRANCH  20  24
ENDBRANCH  18  20
ENDBRANCH   6  16
TORSDOF 4
ENDMDL
MODEL      181
REMARK 921   NORMALIZED FREE ENERGY PREDICTED BY IDOCK:   33.83 KCAL/MOL
REMARK 922        TOTAL FREE ENERGY PREDICTED BY IDOCK:   40.92 KCAL/MOL
REMARK 923 INTER-LIGAND FREE ENERGY PREDICTED BY IDOCK:   41.26 KCAL/MOL
REMARK 924 INTRA-LIGAND FREE ENERGY PREDICTED BY IDOCK:   -0.34 KCAL/MOL
REMARK 927      BINDING AFFINITY PREDICTED BY RF-SCORE:    0.00 PKD
ROOT
HETATM    1  C   UNL     1      -6.240  16.841  68.902  1.00  0.00    -0.162 C  
HETATM    2  S   UNL     1      -7.019  15.688  70.057  1.00  0.00     0.182 SA 
HETATM    3  C   UNL     1      -7.729  14.680  68.744  1.00  0.00    -0.137 C  
HETATM    4  C   UNL     1      -8.437  15.452  67.636  1.00  0.00    -0.173 C  
HETATM    5  CA  UNL     1      -8.200  16.770  67.355  1.00  0.00    -0.177 C  
HETATM    6  CA  UNL     1      -5.947  18.263  69.481  1.00  0.00    -0.252 C  
HETATM    7  C   UNL     1      -8.951  17.463  66.231  1.00  0.00    -0.208 C  
HETATM    8  O   UNL     1      -7.373  19.765  67.903  1.00  0.00    -0.269 OA 
HETATM    9  N   UNL     1      -7.266  17.457  68.084  1.00  0.00    -0.193 N  
HETATM   10  OXT UNL     1      -9.445  16.865  65.284  1.00  0.00    -0.130 OA 
HETATM   11  C   UNL     1      -6.916  18.736  68.341  1.00  0.00    -0.257 C  
HETATM   12  O   UNL     1      -9.054  18.803  66.290  1.00  0.00    -0.374 OA 
ENDROOT
BRANCH   4  13
HETATM   13  C   UNL     1      -9.482  14.644  66.985  1.00  0.00    -0.249 C  
HETATM   14  C   UNL     1      -9.278  13.740  66.012  1.00  0.00     0.059 C  
HETATM   15  C   UNL     1     -10.359  12.898  65.415  1.00  0.00    -0.310 C  
ENDBRANCH   4  13
BRANCH   6  16
HETATM   16  N   UNL     1      -6.441  18.498  70.856  1.00  0.00     0.965 N  
HETATM   17  H   UNL     1      -6.941  17.736  71.315  1.00  0.00     0.000 HD 
HETATM   18  C   UNL     1      -6.276  19.666  71.562  1.00  0.00     0.136 C  
HETATM   19  O   UNL     1      -5.623  20.616  71.145  1.00  0.00    -0.506 OA 
BRANCH  18  20
HETATM   20  CA  UNL     1      -7.004  19.648  72.930  1.00  0.00     3.207 C  
HETATM   21  H2  UNL     1      -5.360  18.799  73.924  1.00  0.00     0.000 HD 
HETATM   22  N   UNL     1      -6.364  18.641  73.824  1.00  0.00     5.937 NA 
HETATM   23  H1  UNL     1      -6.843  18.629  74.724  1.00  0.00     0.000 HD 
BRANCH  20  24
HETATM   24  C   UNL     1      -8.491  19.391  72.767  1.00  0.00     5.466 A  
HETATM   25  C   UNL     1      -9.283  19.185  73.908  1.00  0.00     5.661 A  
HETATM   26  C   UNL     1     -10.649  18.912  73.795  1.00  0.00     3.281 A  
HETATM   27  C   UNL     1     -11.234  18.854  72.535  1.00  0.00     4.558 A  
HETATM   28  C   UNL     1     -10.482  19.092  71.393  1.00  0.00     2.956 A  
HETATM   29  O   UNL     1     -12.554  18.557  72.377  1.00  0.00     8.080 OA 
HETATM   30  H   UNL     1     -12.953  18.517  71.516  1.00  0.00     0.000 HD 
HETATM   31  C   UNL     1      -9.118  19.368  71.507  1.00  0.00     4.171 A  
ENDBRANCH  20  24
ENDBRANCH  18  20
ENDBRANCH   6  16
TORSDOF 4
ENDMDL
MODEL      182
REMARK 921   NORMALIZED FREE ENERGY PREDICTED BY IDOCK:   45.02 KCAL/MOL
REMARK 922        TOTAL FREE ENERGY PREDICTED BY IDOCK:   54.73 KCAL/MOL
REMARK 923 INTER-LIGAND FREE ENERGY PREDICTED BY IDOCK:   55.05 KCAL/MOL
REMARK 924 INTRA-LIGAND FREE ENERGY PREDICTED BY IDOCK:   -0.32 KCAL/MOL
REMARK 927      BINDING AFFINITY PREDICTED BY RF-SCORE:    0.00 PKD
ROOT
HETATM    1  C   UNL     1      -9.485   9.918  66.141  1.00  0.00    -0.200 C  
HETATM    2  S   UNL     1      -8.763   9.671  67.781  1.00  0.00    -0.121 SA 
HETATM    3  C   UNL     1      -9.200   7.923  67.831  1.00  0.00    -0.134 C  
HETATM    4  C   UNL     1     -10.632   7.595  67.424  1.00  0.00    -0.356 C  
HETATM    5  CA  UNL     1     -11.413   8.413  66.654  1.00  0.00     2.803 C  
HETATM    6  CA  UNL     1      -9.905  11.388  65.817  1.00  0.00    -0.232 C  
HETATM    7  C   UNL     1     -12.831   8.007  66.296  1.00  0.00    14.860 C  
HETATM    8  O   UNL     1     -12.463  11.116  65.412  1.00  0.00     1.308 OA 
HETATM    9  N   UNL     1     -10.898   9.595  66.193  1.00  0.00     0.262 N  
HETATM   10  OXT UNL     1     -13.214   6.845  66.276  1.00  0.00     9.075 OA 
HETATM   11  C   UNL     1     -11.338  10.764  65.678  1.00  0.00     0.567 C  
HETATM   12  O   UNL     1     -13.693   8.989  65.972  1.00  0.00    19.423 OA 
ENDROOT
BRANCH   4  13
HETATM   13  C   UNL     1     -11.110   6.351  68.053  1.00  0.00    -0.365 C  
HETATM   14  C   UNL     1     -11.923   6.277  69.120  1.00  0.00     0.999 C  
HETATM   15  C   UNL     1     -12.432   4.993  69.693  1.00  0.00     9.663 C  
ENDBRANCH   4  13
BRANCH   6  16
HETATM   16  N   UNL     1      -9.748  12.349  66.931  1.00  0.00    -0.210 N  
HETATM   17  H   UNL     1      -9.400  11.988  67.820  1.00  0.00     0.000 HD 
HETATM   18  C   UNL     1     -10.036  13.691  66.858  1.00  0.00    -0.260 C  
HETATM   19  O   UNL     1     -10.381  14.249  65.822  1.00  0.00    -0.299 OA 
BRANCH  18  20
HETATM   20  CA  UNL     1      -9.881  14.413  68.221  1.00  0.00    -0.229 C  
HETATM   21  H2  UNL     1     -11.951  14.436  68.575  1.00  0.00     0.000 HD 
HETATM   22  N   UNL     1     -11.162  15.084  68.579  1.00  0.00    -0.273 NA 
HETATM   23  H1  UNL     1     -11.060  15.559  69.477  1.00  0.00     0.000 HD 
BRANCH  20  24
HETATM   24  C   UNL     1      -8.718  15.388  68.207  1.00  0.00    -0.164 A  
HETATM   25  C   UNL     1      -8.671  16.416  69.162  1.00  0.00    -0.185 A  
HETATM   26  C   UNL     1      -7.634  17.353  69.158  1.00  0.00    -0.088 A  
HETATM   27  C   UNL     1      -6.629  17.259  68.201  1.00  0.00    -0.164 A  
HETATM   28  C   UNL     1      -6.631  16.229  67.271  1.00  0.00    -0.228 A  
HETATM   29  O   UNL     1      -5.619  18.170  68.139  1.00  0.00    -0.158 OA 
HETATM   30  H   UNL     1      -4.932  18.105  67.486  1.00  0.00     0.000 HD 
HETATM   31  C   UNL     1      -7.666  15.292  67.277  1.00  0.00    -0.243 A  
ENDBRANCH  20  24
ENDBRANCH  18  20
ENDBRANCH   6  16
TORSDOF 4
ENDMDL
MODEL      183
REMARK 921   NORMALIZED FREE ENERGY PREDICTED BY IDOCK:   48.62 KCAL/MOL
REMARK 922        TOTAL FREE ENERGY PREDICTED BY IDOCK:   59.17 KCAL/MOL
REMARK 923 INTER-LIGAND FREE ENERGY PREDICTED BY IDOCK:   52.64 KCAL/MOL
REMARK 924 INTRA-LIGAND FREE ENERGY PREDICTED BY IDOCK:    6.53 KCAL/MOL
REMARK 927      BINDING AFFINITY PREDICTED BY RF-SCORE:    0.00 PKD
ROOT
HETATM    1  C   UNL     1      -8.213   7.086  69.698  1.00  0.00    -0.131 C  
HETATM    2  S   UNL     1      -9.570   8.281  69.684  1.00  0.00    -0.168 SA 
HETATM    3  C   UNL     1     -10.807   7.038  69.270  1.00  0.00    -0.214 C  
HETATM    4  C   UNL     1     -10.431   6.096  68.131  1.00  0.00    -0.284 C  
HETATM    5  CA  UNL     1      -9.144   5.855  67.733  1.00  0.00    -0.109 C  
HETATM    6  CA  UNL     1      -6.794   7.692  69.446  1.00  0.00    -0.048 C  
HETATM    7  C   UNL     1      -8.859   4.900  66.588  1.00  0.00    -0.110 C  
HETATM    8  O   UNL     1      -6.077   6.436  67.280  1.00  0.00    -0.023 OA 
HETATM    9  N   UNL     1      -8.111   6.470  68.390  1.00  0.00    -0.110 N  
HETATM   10  OXT UNL     1      -9.626   4.008  66.250  1.00  0.00    -0.181 OA 
HETATM   11  C   UNL     1      -6.802   6.741  68.197  1.00  0.00    -0.078 C  
HETATM   12  O   UNL     1      -7.693   5.049  65.934  1.00  0.00    -0.089 OA 
ENDROOT
BRANCH   4  13
HETATM   13  C   UNL     1     -11.620   5.568  67.440  1.00  0.00     2.008 C  
HETATM   14  C   UNL     1     -12.280   4.444  67.768  1.00  0.00    13.004 C  
HETATM   15  C   UNL     1     -13.519   3.972  67.077  1.00  0.00    24.227 C  
ENDBRANCH   4  13
BRANCH   6  16
HETATM   16  N   UNL     1      -6.773   9.137  69.129  1.00  0.00    -0.050 N  
HETATM   17  H   UNL     1      -5.864   9.571  68.965  1.00  0.00     0.000 HD 
HETATM   18  C   UNL     1      -7.886   9.939  69.039  1.00  0.00    -0.095 C  
HETATM   19  O   UNL     1      -9.032   9.511  69.135  1.00  0.00    -0.136 OA 
BRANCH  18  20
HETATM   20  CA  UNL     1      -7.534  11.430  68.808  1.00  0.00    -0.124 C  
HETATM   21  H2  UNL     1      -8.632  12.067  70.481  1.00  0.00     0.000 HD 
HETATM   22  N   UNL     1      -8.541  12.292  69.490  1.00  0.00     0.607 NA 
HETATM   23  H1  UNL     1      -8.309  13.274  69.339  1.00  0.00     0.000 HD 
BRANCH  20  24
HETATM   24  C   UNL     1      -7.422  11.755  67.330  1.00  0.00    -0.143 A  
HETATM   25  C   UNL     1      -8.287  12.708  66.768  1.00  0.00    -0.011 A  
HETATM   26  C   UNL     1      -8.235  13.007  65.404  1.00  0.00     3.022 A  
HETATM   27  C   UNL     1      -7.308  12.360  64.595  1.00  0.00     6.010 A  
HETATM   28  C   UNL     1      -6.415  11.443  65.133  1.00  0.00     1.229 A  
HETATM   29  O   UNL     1      -7.246  12.596  63.254  1.00  0.00     4.766 OA 
HETATM   30  H   UNL     1      -6.612  12.154  62.702  1.00  0.00     0.000 HD 
HETATM   31  C   UNL     1      -6.465  11.147  66.497  1.00  0.00    -0.129 A  
ENDBRANCH  20  24
ENDBRANCH  18  20
ENDBRANCH   6  16
TORSDOF 4
ENDMDL
MODEL      184
REMARK 921   NORMALIZED FREE ENERGY PREDICTED BY IDOCK:   65.23 KCAL/MOL
REMARK 922        TOTAL FREE ENERGY PREDICTED BY IDOCK:   79.67 KCAL/MOL
REMARK 923 INTER-LIGAND FREE ENERGY PREDICTED BY IDOCK:   79.19 KCAL/MOL
REMARK 924 INTRA-LIGAND FREE ENERGY PREDICTED BY IDOCK:    0.48 KCAL/MOL
REMARK 927      BINDING AFFINITY PREDICTED BY RF-SCORE:    0.00 PKD
ROOT
HETATM    1  C   UNL     1      -8.709   2.212  67.691  1.00  0.00    -0.110 C  
HETATM    2  S   UNL     1      -7.777   3.072  68.981  1.00  0.00    -0.046 SA 
HETATM    3  C   UNL     1      -8.884   2.532  70.295  1.00  0.00    -0.081 C  
HETATM    4  C   UNL     1     -10.372   2.696  70.005  1.00  0.00     1.579 C  
HETATM    5  CA  UNL     1     -10.897   2.795  68.746  1.00  0.00     5.038 C  
HETATM    6  CA  UNL     1      -8.532   2.791  66.249  1.00  0.00    -0.103 C  
HETATM    7  C   UNL     1     -12.394   2.956  68.548  1.00  0.00    22.894 C  
HETATM    8  O   UNL     1     -10.977   3.473  65.666  1.00  0.00     1.170 OA 
HETATM    9  N   UNL     1     -10.063   2.729  67.662  1.00  0.00     0.909 N  
HETATM   10  OXT UNL     1     -13.224   2.595  69.372  1.00  0.00    22.346 OA 
HETATM   11  C   UNL     1     -10.079   3.034  66.346  1.00  0.00     1.018 C  
HETATM   12  O   UNL     1     -12.809   3.512  67.395  1.00  0.00    18.821 OA 
ENDROOT
BRANCH   4  13
HETATM   13  C   UNL     1     -11.158   2.848  71.241  1.00  0.00     2.771 C  
HETATM   14  C   UNL     1     -11.998   1.932  71.752  1.00  0.00     3.335 C  
HETATM   15  C   UNL     1     -12.735   2.102  73.042  1.00  0.00     0.727 C  
ENDBRANCH   4  13
BRANCH   6  16
HETATM   16  N   UNL     1      -7.712   4.019  66.158  1.00  0.00    -0.089 N  
HETATM   17  H   UNL     1      -7.445   4.474  67.032  1.00  0.00     0.000 HD 
HETATM   18  C   UNL     1      -7.283   4.592  64.985  1.00  0.00    -0.067 C  
HETATM   19  O   UNL     1      -7.472   4.089  63.882  1.00  0.00    -0.060 OA 
BRANCH  18  20
HETATM   20  CA  UNL     1      -6.542   5.934  65.210  1.00  0.00    -0.043 C  
HETATM   21  H2  UNL     1      -4.709   4.989  65.605  1.00  0.00     0.000 HD 
HETATM   22  N   UNL     1      -5.314   5.697  66.021  1.00  0.00    -0.012 NA 
HETATM   23  H1  UNL     1      -4.825   6.581  66.169  1.00  0.00     0.000 HD 
BRANCH  20  24
HETATM   24  C   UNL     1      -7.447   6.972  65.848  1.00  0.00    -0.080 A  
HETATM   25  C   UNL     1      -7.420   8.294  65.373  1.00  0.00    -0.085 A  
HETATM   26  C   UNL     1      -8.214   9.283  65.959  1.00  0.00    -0.111 A  
HETATM   27  C   UNL     1      -9.050   8.952  67.020  1.00  0.00    -0.135 A  
HETATM   28  C   UNL     1      -9.125   7.645  67.482  1.00  0.00    -0.131 A  
HETATM   29  O   UNL     1      -9.815   9.892  67.643  1.00  0.00    -0.154 OA 
HETATM   30  H   UNL     1     -10.386   9.665  68.367  1.00  0.00     0.000 HD 
HETATM   31  C   UNL     1      -8.333   6.657  66.894  1.00  0.00    -0.114 A  
ENDBRANCH  20  24
ENDBRANCH  18  20
ENDBRANCH   6  16
TORSDOF 4
ENDMDL
MODEL      185
REMARK 921   NORMALIZED FREE ENERGY PREDICTED BY IDOCK:   75.36 KCAL/MOL
REMARK 922        TOTAL FREE ENERGY PREDICTED BY IDOCK:   92.18 KCAL/MOL
REMARK 923 INTER-LIGAND FREE ENERGY PREDICTED BY IDOCK:   92.66 KCAL/MOL
REMARK 924 INTRA-LIGAND FREE ENERGY PREDICTED BY IDOCK:   -0.48 KCAL/MOL
REMARK 927      BINDING AFFINITY PREDICTED BY RF-SCORE:    0.00 PKD
ROOT
HETATM    1  C   UNL     1      -9.228   1.765  68.676  1.00  0.00    -0.163 C  
HETATM    2  S   UNL     1      -8.524   2.769  70.006  1.00  0.00    -0.057 SA 
HETATM    3  C   UNL     1      -9.749   2.229  71.211  1.00  0.00    -0.131 C  
HETATM    4  C   UNL     1     -11.196   2.264  70.733  1.00  0.00     4.307 C  
HETATM    5  CA  UNL     1     -11.565   2.246  69.416  1.00  0.00    10.643 C  
HETATM    6  CA  UNL     1      -8.910   2.265  67.229  1.00  0.00    -0.134 C  
HETATM    7  C   UNL     1     -13.032   2.283  69.028  1.00  0.00    25.074 C  
HETATM    8  O   UNL     1     -11.302   2.727  66.309  1.00  0.00     5.575 OA 
HETATM    9  N   UNL     1     -10.599   2.176  68.448  1.00  0.00     2.771 N  
HETATM   10  OXT UNL     1     -13.934   1.913  69.768  1.00  0.00    12.054 OA 
HETATM   11  C   UNL     1     -10.470   2.399  67.121  1.00  0.00     3.321 C  
HETATM   12  O   UNL     1     -13.336   2.735  67.797  1.00  0.00    24.454 OA 
ENDROOT
BRANCH   4  13
HETATM   13  C   UNL     1     -12.140   2.433  71.851  1.00  0.00     4.105 C  
HETATM   14  C   UNL     1     -12.004   1.898  73.077  1.00  0.00     0.176 C  
HETATM   15  C   UNL     1     -12.956   2.141  74.203  1.00  0.00     1.586 C  
ENDBRANCH   4  13
BRANCH   6  16
HETATM   16  N   UNL     1      -8.168   3.543  67.153  1.00  0.00    -0.090 N  
HETATM   17  H   UNL     1      -7.513   3.754  67.906  1.00  0.00     0.000 HD 
HETATM   18  C   UNL     1      -8.296   4.467  66.143  1.00  0.00    -0.113 C  
HETATM   19  O   UNL     1      -8.989   4.283  65.148  1.00  0.00    -0.127 OA 
BRANCH  18  20
HETATM   20  CA  UNL     1      -7.475   5.755  66.402  1.00  0.00    -0.086 C  
HETATM   21  H2  UNL     1      -6.356   5.535  64.638  1.00  0.00     0.000 HD 
HETATM   22  N   UNL     1      -6.199   5.698  65.633  1.00  0.00    -0.033 NA 
HETATM   23  H1  UNL     1      -5.658   6.546  65.803  1.00  0.00     0.000 HD 
BRANCH  20  24
HETATM   24  C   UNL     1      -7.232   5.974  67.883  1.00  0.00    -0.082 A  
HETATM   25  C   UNL     1      -6.030   5.528  68.456  1.00  0.00    -0.021 A  
HETATM   26  C   UNL     1      -5.786   5.681  69.824  1.00  0.00    -0.016 A  
HETATM   27  C   UNL     1      -6.743   6.293  70.626  1.00  0.00    -0.061 A  
HETATM   28  C   UNL     1      -7.923   6.778  70.078  1.00  0.00    -0.116 A  
HETATM   29  O   UNL     1      -6.562   6.432  71.969  1.00  0.00    -0.056 OA 
HETATM   30  H   UNL     1      -7.215   6.850  72.517  1.00  0.00     0.000 HD 
HETATM   31  C   UNL     1      -8.164   6.627  68.711  1.00  0.00    -0.120 A  
ENDBRANCH  20  24
ENDBRANCH  18  20
ENDBRANCH   6  16
TORSDOF 4
ENDMDL
