MODEL        1
REMARK 921   NORMALIZED FREE ENERGY PREDICTED BY IDOCK:   -7.85 KCAL/MOL
REMARK 922        TOTAL FREE ENERGY PREDICTED BY IDOCK:  -12.27 KCAL/MOL
REMARK 923 INTER-LIGAND FREE ENERGY PREDICTED BY IDOCK:  -11.06 KCAL/MOL
REMARK 924 INTRA-LIGAND FREE ENERGY PREDICTED BY IDOCK:   -1.21 KCAL/MOL
REMARK 927      BINDING AFFINITY PREDICTED BY RF-SCORE:    0.00 PKD
ROOT
HETATM    1  C   UNL     1     -12.100  14.373  68.401  1.00  0.00    -0.243 C  
HETATM    2  S   UNL     1     -11.310  14.792  69.987  1.00  0.00    -0.250 SA 
HETATM    3  C   UNL     1     -10.998  16.497  69.566  1.00  0.00    -0.289 C  
HETATM    4  C   UNL     1     -10.316  16.718  68.244  1.00  0.00    -0.319 C  
HETATM    5  CA  UNL     1     -11.944  12.882  67.958  1.00  0.00    -0.275 C  
HETATM    6  CA  UNL     1     -10.495  15.891  67.178  1.00  0.00    -0.313 C  
HETATM    7  C   UNL     1      -9.978  16.300  65.740  1.00  0.00    -0.323 C  
HETATM    8  O   UNL     1     -10.222  12.994  66.059  1.00  0.00    -0.276 OA 
HETATM    9  N   UNL     1     -11.232  14.734  67.300  1.00  0.00    -0.336 N  
HETATM   10  OXT UNL     1      -8.958  17.066  65.749  1.00  0.00    -0.526 OA 
HETATM   11  O   UNL     1     -10.739  15.991  64.787  1.00  0.00    -0.611 OA 
HETATM   12  C   UNL     1     -11.018  13.477  66.835  1.00  0.00    -0.288 C  
ENDROOT
BRANCH   4  13
HETATM   13  C   UNL     1      -9.632  18.072  68.190  1.00  0.00    -0.301 C  
BRANCH  13  14
HETATM   14  N   UNL     1      -8.176  18.172  68.545  1.00  0.00    -0.308 NA 
HETATM   15  C   UNL     1      -7.337  19.184  68.208  1.00  0.00    -0.287 A  
HETATM   16  C   UNL     1      -7.631  20.468  67.485  1.00  0.00    -0.344 C  
HETATM   17  C   UNL     1      -6.261  21.172  67.375  1.00  0.00    -0.420 C  
HETATM   18  C   UNL     1      -7.641  17.070  69.151  1.00  0.00    -0.140 A  
HETATM   19  C   UNL     1      -5.210  20.326  68.092  1.00  0.00    -0.219 C  
HETATM   20  C   UNL     1      -6.277  16.956  69.416  1.00  0.00    -0.226 A  
HETATM   21  C   UNL     1      -5.419  17.986  69.087  1.00  0.00    -0.196 A  
HETATM   22  C   UNL     1      -5.965  19.101  68.486  1.00  0.00    -0.234 A  
ENDBRANCH  13  14
ENDBRANCH   4  13
BRANCH   5  23
HETATM   23  N   UNL     1     -11.220  11.976  68.893  1.00  0.00    -0.243 N  
HETATM   24  C   UNL     1     -10.973  10.632  68.669  1.00  0.00    -0.246 C  
HETATM   25  O   UNL     1     -11.158  10.094  67.588  1.00  0.00    -0.301 OA 
HETATM   26  H   UNL     1     -10.879  12.378  69.766  1.00  0.00     0.000 HD 
BRANCH  24  27
HETATM   27  C   UNL     1     -10.450   9.857  69.918  1.00  0.00    -0.269 C  
BRANCH  27  28
HETATM   28  C   UNL     1     -11.365   9.000  70.682  1.00  0.00    -0.265 A  
HETATM   29  N   UNL     1     -12.390   9.546  71.450  1.00  0.00    -0.341 NA 
HETATM   30  N   UNL     1     -14.120   8.885  72.854  1.00  0.00    -1.094 NA 
HETATM   31  C   UNL     1     -11.346   7.616  70.694  1.00  0.00    -0.272 A  
HETATM   32  S   UNL     1     -12.599   7.007  71.689  1.00  0.00    -0.360 SA 
HETATM   33  H1  UNL     1     -14.412   9.840  73.064  1.00  0.00     0.000 HD 
HETATM   34  H2  UNL     1     -14.630   8.110  73.278  1.00  0.00     0.000 HD 
HETATM   35  C   UNL     1     -13.090   8.614  72.042  1.00  0.00    -0.381 A  
ENDBRANCH  27  28
BRANCH  27  36
HETATM   36  N   UNL     1      -9.221   9.854  70.353  1.00  0.00    -0.358 NA 
HETATM   37  H   UNL     1      -8.948  10.262  71.248  1.00  0.00     0.000 HD 
BRANCH  36  38
HETATM   38  O   UNL     1      -8.310   9.243  69.491  1.00  0.00    -0.115 OA 
HETATM   39  C   UNL     1      -7.321  10.214  69.154  1.00  0.00    -0.089 C  
ENDBRANCH  36  38
ENDBRANCH  27  36
ENDBRANCH  24  27
ENDBRANCH   5  23
TORSDOF 7
ENDMDL
MODEL        2
REMARK 921   NORMALIZED FREE ENERGY PREDICTED BY IDOCK:   -7.50 KCAL/MOL
REMARK 922        TOTAL FREE ENERGY PREDICTED BY IDOCK:  -11.78 KCAL/MOL
REMARK 923 INTER-LIGAND FREE ENERGY PREDICTED BY IDOCK:  -10.54 KCAL/MOL
REMARK 924 INTRA-LIGAND FREE ENERGY PREDICTED BY IDOCK:   -1.24 KCAL/MOL
REMARK 927      BINDING AFFINITY PREDICTED BY RF-SCORE:    0.00 PKD
ROOT
HETATM    1  C   UNL     1     -10.074  14.419  66.848  1.00  0.00    -0.259 C  
HETATM    2  S   UNL     1      -9.486  13.520  68.318  1.00  0.00    -0.192 SA 
HETATM    3  C   UNL     1      -8.422  12.410  67.414  1.00  0.00    -0.179 C  
HETATM    4  C   UNL     1      -9.065  11.711  66.248  1.00  0.00    -0.219 C  
HETATM    5  CA  UNL     1     -11.512  15.018  66.971  1.00  0.00    -0.284 C  
HETATM    6  CA  UNL     1     -10.058  12.277  65.510  1.00  0.00    -0.256 C  
HETATM    7  C   UNL     1     -10.520  11.630  64.142  1.00  0.00    -0.351 C  
HETATM    8  O   UNL     1     -12.939  13.469  65.505  1.00  0.00    -0.586 OA 
HETATM    9  N   UNL     1     -10.604  13.489  65.874  1.00  0.00    -0.280 N  
HETATM   10  OXT UNL     1     -10.366  10.365  64.084  1.00  0.00    -0.248 OA 
HETATM   11  O   UNL     1     -10.789  12.448  63.224  1.00  0.00    -0.432 OA 
HETATM   12  C   UNL     1     -11.890  13.923  65.908  1.00  0.00    -0.382 C  
ENDROOT
BRANCH   4  13
HETATM   13  C   UNL     1      -8.311  10.450  65.870  1.00  0.00    -0.152 C  
BRANCH  13  14
HETATM   14  N   UNL     1      -8.062   9.404  66.918  1.00  0.00    -0.108 NA 
HETATM   15  C   UNL     1      -8.950   8.472  67.348  1.00  0.00    -0.134 A  
HETATM   16  C   UNL     1     -10.343   8.186  66.865  1.00  0.00    -0.401 C  
HETATM   17  C   UNL     1     -10.842   7.044  67.777  1.00  0.00    -0.276 C  
HETATM   18  C   UNL     1      -6.867   9.502  67.576  1.00  0.00    -0.083 A  
HETATM   19  C   UNL     1      -9.714   6.638  68.724  1.00  0.00    -0.130 C  
HETATM   20  C   UNL     1      -6.549   8.693  68.665  1.00  0.00    -0.055 A  
HETATM   21  C   UNL     1      -7.442   7.734  69.101  1.00  0.00    -0.094 A  
HETATM   22  C   UNL     1      -8.641   7.631  68.427  1.00  0.00    -0.124 A  
ENDBRANCH  13  14
ENDBRANCH   4  13
BRANCH   5  23
HETATM   23  N   UNL     1     -12.209  14.831  68.275  1.00  0.00    -0.591 N  
HETATM   24  C   UNL     1     -11.921  15.524  69.439  1.00  0.00    -0.336 C  
HETATM   25  O   UNL     1     -11.191  16.503  69.465  1.00  0.00    -0.283 OA 
HETATM   26  H   UNL     1     -12.956  14.139  68.312  1.00  0.00     0.000 HD 
BRANCH  24  27
HETATM   27  C   UNL     1     -12.599  14.943  70.718  1.00  0.00    -0.354 C  
BRANCH  27  28
HETATM   28  C   UNL     1     -12.658  13.489  70.916  1.00  0.00    -0.337 A  
HETATM   29  N   UNL     1     -12.051  12.615  70.019  1.00  0.00    -0.304 NA 
HETATM   30  N   UNL     1     -11.741  10.337  69.672  1.00  0.00    -0.426 NA 
HETATM   31  C   UNL     1     -13.256  12.850  71.989  1.00  0.00    -0.448 A  
HETATM   32  S   UNL     1     -13.075  11.153  71.853  1.00  0.00    -0.263 SA 
HETATM   33  H1  UNL     1     -11.230  10.467  68.798  1.00  0.00     0.000 HD 
HETATM   34  H2  UNL     1     -11.897   9.390  70.016  1.00  0.00     0.000 HD 
HETATM   35  C   UNL     1     -12.215  11.370  70.382  1.00  0.00    -0.362 A  
ENDBRANCH  27  28
BRANCH  27  36
HETATM   36  N   UNL     1     -13.106  15.640  71.696  1.00  0.00    -0.476 NA 
HETATM   37  H   UNL     1     -14.110  15.735  71.847  1.00  0.00     0.000 HD 
BRANCH  36  38
HETATM   38  O   UNL     1     -12.156  16.246  72.519  1.00  0.00    -0.509 OA 
HETATM   39  C   UNL     1     -12.503  15.945  73.870  1.00  0.00    -0.625 C  
ENDBRANCH  36  38
ENDBRANCH  27  36
ENDBRANCH  24  27
ENDBRANCH   5  23
TORSDOF 7
ENDMDL
MODEL        3
REMARK 921   NORMALIZED FREE ENERGY PREDICTED BY IDOCK:   -7.42 KCAL/MOL
REMARK 922        TOTAL FREE ENERGY PREDICTED BY IDOCK:  -11.66 KCAL/MOL
REMARK 923 INTER-LIGAND FREE ENERGY PREDICTED BY IDOCK:  -10.34 KCAL/MOL
REMARK 924 INTRA-LIGAND FREE ENERGY PREDICTED BY IDOCK:   -1.31 KCAL/MOL
REMARK 927      BINDING AFFINITY PREDICTED BY RF-SCORE:    0.00 PKD
ROOT
HETATM    1  C   UNL     1      -8.871  15.022  66.356  1.00  0.00    -0.203 C  
HETATM    2  S   UNL     1      -9.012  15.137  68.168  1.00  0.00    -0.178 SA 
HETATM    3  C   UNL     1      -9.989  13.657  68.349  1.00  0.00    -0.235 C  
HETATM    4  C   UNL     1     -11.194  13.567  67.452  1.00  0.00    -0.317 C  
HETATM    5  CA  UNL     1      -8.721  16.390  65.616  1.00  0.00     0.411 C  
HETATM    6  CA  UNL     1     -11.228  14.125  66.211  1.00  0.00    -0.329 C  
HETATM    7  C   UNL     1     -12.398  13.786  65.203  1.00  0.00    -0.448 C  
HETATM    8  O   UNL     1     -11.019  16.742  64.529  1.00  0.00    -0.921 OA 
HETATM    9  N   UNL     1     -10.185  14.904  65.760  1.00  0.00    -0.314 N  
HETATM   10  OXT UNL     1     -13.504  13.490  65.765  1.00  0.00    -0.279 OA 
HETATM   11  O   UNL     1     -12.051  13.656  64.000  1.00  0.00    -0.453 OA 
HETATM   12  C   UNL     1     -10.167  16.080  65.081  1.00  0.00    -0.113 C  
ENDROOT
BRANCH   4  13
HETATM   13  C   UNL     1     -12.224  12.596  67.997  1.00  0.00     0.119 C  
BRANCH  13  14
HETATM   14  N   UNL     1     -11.794  11.207  68.375  1.00  0.00    -0.560 NA 
HETATM   15  C   UNL     1     -11.950  10.622  69.589  1.00  0.00    -0.268 A  
HETATM   16  C   UNL     1     -12.633  11.145  70.821  1.00  0.00    -0.445 C  
HETATM   17  C   UNL     1     -12.435  10.033  71.873  1.00  0.00    -0.408 C  
HETATM   18  C   UNL     1     -11.067  10.539  67.429  1.00  0.00    -0.252 A  
HETATM   19  C   UNL     1     -11.706   8.859  71.224  1.00  0.00    -0.370 C  
HETATM   20  C   UNL     1     -10.481   9.300  67.681  1.00  0.00    -0.325 A  
HETATM   21  C   UNL     1     -10.644   8.692  68.910  1.00  0.00    -0.166 A  
HETATM   22  C   UNL     1     -11.388   9.365  69.856  1.00  0.00    -0.121 A  
ENDBRANCH  13  14
ENDBRANCH   4  13
BRANCH   5  23
HETATM   23  N   UNL     1      -8.663  17.611  66.467  1.00  0.00    -0.263 N  
HETATM   24  C   UNL     1      -7.767  18.654  66.305  1.00  0.00    -0.264 C  
HETATM   25  O   UNL     1      -7.052  18.768  65.321  1.00  0.00    -0.503 OA 
HETATM   26  H   UNL     1      -9.337  17.684  67.229  1.00  0.00     0.000 HD 
BRANCH  24  27
HETATM   27  C   UNL     1      -7.736  19.667  67.490  1.00  0.00    -0.267 C  
BRANCH  27  28
HETATM   28  C   UNL     1      -6.861  19.417  68.643  1.00  0.00    -0.305 A  
HETATM   29  N   UNL     1      -6.695  20.372  69.642  1.00  0.00    -0.109 NA 
HETATM   30  N   UNL     1      -5.545  20.694  71.636  1.00  0.00    -0.620 NA 
HETATM   31  C   UNL     1      -6.167  18.243  68.882  1.00  0.00    -0.223 A  
HETATM   32  S   UNL     1      -5.289  18.354  70.348  1.00  0.00    -0.255 SA 
HETATM   33  H1  UNL     1      -5.899  21.641  71.771  1.00  0.00     0.000 HD 
HETATM   34  H2  UNL     1      -4.913  20.299  72.333  1.00  0.00     0.000 HD 
HETATM   35  C   UNL     1      -5.883  19.949  70.575  1.00  0.00    -0.308 A  
ENDBRANCH  27  28
BRANCH  27  36
HETATM   36  N   UNL     1      -8.403  20.786  67.555  1.00  0.00    -0.311 NA 
HETATM   37  H   UNL     1      -7.996  21.654  67.904  1.00  0.00     0.000 HD 
BRANCH  36  38
HETATM   38  O   UNL     1      -9.720  20.694  67.105  1.00  0.00    -0.454 OA 
HETATM   39  C   UNL     1     -10.486  20.080  68.140  1.00  0.00    -0.288 C  
ENDBRANCH  36  38
ENDBRANCH  27  36
ENDBRANCH  24  27
ENDBRANCH   5  23
TORSDOF 7
ENDMDL
MODEL        4
REMARK 921   NORMALIZED FREE ENERGY PREDICTED BY IDOCK:   -7.28 KCAL/MOL
REMARK 922        TOTAL FREE ENERGY PREDICTED BY IDOCK:  -11.47 KCAL/MOL
REMARK 923 INTER-LIGAND FREE ENERGY PREDICTED BY IDOCK:  -10.17 KCAL/MOL
REMARK 924 INTRA-LIGAND FREE ENERGY PREDICTED BY IDOCK:   -1.30 KCAL/MOL
REMARK 927      BINDING AFFINITY PREDICTED BY RF-SCORE:    0.00 PKD
ROOT
HETATM    1  C   UNL     1     -12.120  13.115  66.640  1.00  0.00    -0.346 C  
HETATM    2  S   UNL     1     -11.271  13.049  68.249  1.00  0.00    -0.297 SA 
HETATM    3  C   UNL     1     -11.412  14.795  68.579  1.00  0.00    -0.308 C  
HETATM    4  C   UNL     1     -10.957  15.699  67.467  1.00  0.00    -0.309 C  
HETATM    5  CA  UNL     1     -11.675  12.025  65.612  1.00  0.00    -0.246 C  
HETATM    6  CA  UNL     1     -11.060  15.356  66.154  1.00  0.00    -0.230 C  
HETATM    7  C   UNL     1     -10.821  16.428  65.016  1.00  0.00    -0.273 C  
HETATM    8  O   UNL     1     -10.255  13.334  63.921  1.00  0.00    -0.322 OA 
HETATM    9  N   UNL     1     -11.491  14.101  65.785  1.00  0.00    -0.321 N  
HETATM   10  OXT UNL     1     -10.012  17.361  65.337  1.00  0.00    -0.479 OA 
HETATM   11  O   UNL     1     -11.595  16.344  64.026  1.00  0.00    -1.071 OA 
HETATM   12  C   UNL     1     -11.047  13.239  64.834  1.00  0.00    -0.328 C  
ENDROOT
BRANCH   4  13
HETATM   13  C   UNL     1     -10.616  17.086  67.979  1.00  0.00    -0.373 C  
BRANCH  13  14
HETATM   14  N   UNL     1      -9.192  17.407  68.332  1.00  0.00    -0.270 NA 
HETATM   15  C   UNL     1      -8.551  18.579  68.090  1.00  0.00    -0.303 A  
HETATM   16  C   UNL     1      -9.082  19.853  67.498  1.00  0.00    -0.432 C  
HETATM   17  C   UNL     1      -7.859  20.794  67.448  1.00  0.00    -0.293 C  
HETATM   18  C   UNL     1      -8.458  16.364  68.825  1.00  0.00    -0.249 A  
HETATM   19  C   UNL     1      -6.659  20.083  68.071  1.00  0.00    -0.302 C  
HETATM   20  C   UNL     1      -7.089  16.467  69.067  1.00  0.00    -0.213 A  
HETATM   21  C   UNL     1      -6.432  17.659  68.835  1.00  0.00    -0.215 A  
HETATM   22  C   UNL     1      -7.179  18.712  68.350  1.00  0.00    -0.300 A  
ENDBRANCH  13  14
ENDBRANCH   4  13
BRANCH   5  23
HETATM   23  N   UNL     1     -10.658  11.041  66.075  1.00  0.00    -0.240 N  
HETATM   24  C   UNL     1     -10.023  10.111  65.268  1.00  0.00    -0.311 C  
HETATM   25  O   UNL     1     -10.092  10.133  64.049  1.00  0.00    -0.173 OA 
HETATM   26  H   UNL     1     -10.410  11.052  67.064  1.00  0.00     0.000 HD 
BRANCH  24  27
HETATM   27  C   UNL     1      -9.220   9.024  66.048  1.00  0.00    -0.226 C  
BRANCH  27  28
HETATM   28  C   UNL     1      -8.174   9.429  66.996  1.00  0.00    -0.116 A  
HETATM   29  N   UNL     1      -8.496   9.966  68.239  1.00  0.00    -0.110 NA 
HETATM   30  N   UNL     1      -7.469  10.800  70.150  1.00  0.00    -0.433 NA 
HETATM   31  C   UNL     1      -6.811   9.291  66.793  1.00  0.00    -0.080 A  
HETATM   32  S   UNL     1      -5.941   9.859  68.154  1.00  0.00    -0.042 SA 
HETATM   33  H1  UNL     1      -8.349  11.033  70.609  1.00  0.00     0.000 HD 
HETATM   34  H2  UNL     1      -6.593  10.990  70.637  1.00  0.00     0.000 HD 
HETATM   35  C   UNL     1      -7.424  10.252  68.928  1.00  0.00    -0.094 A  
ENDBRANCH  27  28
BRANCH  27  36
HETATM   36  N   UNL     1      -9.414   7.737  65.979  1.00  0.00    -0.411 NA 
HETATM   37  H   UNL     1      -9.197   7.187  65.147  1.00  0.00     0.000 HD 
BRANCH  36  38
HETATM   38  O   UNL     1      -9.943   7.175  67.141  1.00  0.00    -0.174 OA 
HETATM   39  C   UNL     1     -10.902   6.195  66.746  1.00  0.00    -0.285 C  
ENDBRANCH  36  38
ENDBRANCH  27  36
ENDBRANCH  24  27
ENDBRANCH   5  23
TORSDOF 7
ENDMDL
MODEL        5
REMARK 921   NORMALIZED FREE ENERGY PREDICTED BY IDOCK:   -7.28 KCAL/MOL
REMARK 922        TOTAL FREE ENERGY PREDICTED BY IDOCK:  -11.46 KCAL/MOL
REMARK 923 INTER-LIGAND FREE ENERGY PREDICTED BY IDOCK:  -10.23 KCAL/MOL
REMARK 924 INTRA-LIGAND FREE ENERGY PREDICTED BY IDOCK:   -1.23 KCAL/MOL
REMARK 927      BINDING AFFINITY PREDICTED BY RF-SCORE:    0.00 PKD
ROOT
HETATM    1  C   UNL     1     -11.509  13.899  68.903  1.00  0.00    -0.301 C  
HETATM    2  S   UNL     1      -9.851  14.614  69.137  1.00  0.00    -0.062 SA 
HETATM    3  C   UNL     1     -10.112  15.992  68.035  1.00  0.00    -0.240 C  
HETATM    4  C   UNL     1     -10.650  15.636  66.676  1.00  0.00    -0.307 C  
HETATM    5  CA  UNL     1     -11.591  12.348  69.076  1.00  0.00    -0.311 C  
HETATM    6  CA  UNL     1     -11.477  14.575  66.470  1.00  0.00    -0.362 C  
HETATM    7  C   UNL     1     -12.229  14.391  65.090  1.00  0.00    -0.393 C  
HETATM    8  O   UNL     1     -11.847  11.486  66.673  1.00  0.00    -0.470 OA 
HETATM    9  N   UNL     1     -11.773  13.702  67.494  1.00  0.00    -0.349 N  
HETATM   10  OXT UNL     1     -11.611  14.883  64.088  1.00  0.00    -0.212 OA 
HETATM   11  O   UNL     1     -13.412  13.970  65.175  1.00  0.00    -0.520 OA 
HETATM   12  C   UNL     1     -11.854  12.347  67.526  1.00  0.00    -0.284 C  
ENDROOT
BRANCH   4  13
HETATM   13  C   UNL     1     -10.359  16.723  65.659  1.00  0.00    -0.265 C  
BRANCH  13  14
HETATM   14  N   UNL     1      -9.719  18.002  66.117  1.00  0.00    -0.504 NA 
HETATM   15  C   UNL     1      -8.394  18.203  66.331  1.00  0.00    -0.245 A  
HETATM   16  C   UNL     1      -7.238  17.270  66.108  1.00  0.00    -0.304 C  
HETATM   17  C   UNL     1      -6.002  18.067  66.577  1.00  0.00    -0.206 C  
HETATM   18  C   UNL     1     -10.584  19.001  66.466  1.00  0.00    -0.410 A  
HETATM   19  C   UNL     1      -6.445  19.467  66.999  1.00  0.00    -0.203 C  
HETATM   20  C   UNL     1     -10.149  20.195  67.040  1.00  0.00    -0.599 A  
HETATM   21  C   UNL     1      -8.801  20.412  67.250  1.00  0.00    -0.444 A  
HETATM   22  C   UNL     1      -7.932  19.406  66.884  1.00  0.00    -0.287 A  
ENDBRANCH  13  14
ENDBRANCH   4  13
BRANCH   5  23
HETATM   23  N   UNL     1     -10.332  11.647  69.455  1.00  0.00    -0.426 N  
HETATM   24  C   UNL     1     -10.190  10.275  69.580  1.00  0.00    -0.236 C  
HETATM   25  O   UNL     1     -11.039   9.483  69.201  1.00  0.00    -0.171 OA 
HETATM   26  H   UNL     1      -9.510  12.224  69.637  1.00  0.00     0.000 HD 
BRANCH  24  27
HETATM   27  C   UNL     1      -8.858   9.825  70.255  1.00  0.00    -0.142 C  
BRANCH  27  28
HETATM   28  C   UNL     1      -8.833   8.614  71.086  1.00  0.00    -0.199 A  
HETATM   29  N   UNL     1      -9.292   8.633  72.400  1.00  0.00    -0.326 NA 
HETATM   30  N   UNL     1      -9.545   7.220  74.228  1.00  0.00    -0.426 NA 
HETATM   31  C   UNL     1      -8.414   7.363  70.668  1.00  0.00    -0.136 A  
HETATM   32  S   UNL     1      -8.573   6.222  71.934  1.00  0.00    -0.128 SA 
HETATM   33  H1  UNL     1      -9.911   7.953  74.836  1.00  0.00     0.000 HD 
HETATM   34  H2  UNL     1      -9.447   6.275  74.599  1.00  0.00     0.000 HD 
HETATM   35  C   UNL     1      -9.189   7.456  72.958  1.00  0.00    -0.165 A  
ENDBRANCH  27  28
BRANCH  27  36
HETATM   36  N   UNL     1      -7.700  10.410  70.123  1.00  0.00    -0.410 NA 
HETATM   37  H   UNL     1      -7.057  10.550  70.902  1.00  0.00     0.000 HD 
BRANCH  36  38
HETATM   38  O   UNL     1      -7.415  10.827  68.823  1.00  0.00    -0.092 OA 
HETATM   39  C   UNL     1      -6.702  12.060  68.914  1.00  0.00    -0.093 C  
ENDBRANCH  36  38
ENDBRANCH  27  36
ENDBRANCH  24  27
ENDBRANCH   5  23
TORSDOF 7
ENDMDL
MODEL        6
REMARK 921   NORMALIZED FREE ENERGY PREDICTED BY IDOCK:   -7.23 KCAL/MOL
REMARK 922        TOTAL FREE ENERGY PREDICTED BY IDOCK:  -11.40 KCAL/MOL
REMARK 923 INTER-LIGAND FREE ENERGY PREDICTED BY IDOCK:  -10.07 KCAL/MOL
REMARK 924 INTRA-LIGAND FREE ENERGY PREDICTED BY IDOCK:   -1.33 KCAL/MOL
REMARK 927      BINDING AFFINITY PREDICTED BY RF-SCORE:    0.00 PKD
ROOT
HETATM    1  C   UNL     1     -11.998  13.349  66.871  1.00  0.00    -0.385 C  
HETATM    2  S   UNL     1     -11.121  13.239  68.462  1.00  0.00    -0.279 SA 
HETATM    3  C   UNL     1     -11.225  14.982  68.825  1.00  0.00    -0.277 C  
HETATM    4  C   UNL     1     -10.774  15.897  67.719  1.00  0.00    -0.320 C  
HETATM    5  CA  UNL     1     -11.592  12.270  65.816  1.00  0.00    -0.388 C  
HETATM    6  CA  UNL     1     -10.908  15.579  66.403  1.00  0.00    -0.277 C  
HETATM    7  C   UNL     1     -10.672  16.667  65.279  1.00  0.00    -0.204 C  
HETATM    8  O   UNL     1     -10.181  13.583  64.121  1.00  0.00    -0.344 OA 
HETATM    9  N   UNL     1     -11.369  14.338  66.022  1.00  0.00    -0.328 N  
HETATM   10  OXT UNL     1      -9.840  17.579  65.601  1.00  0.00    -0.543 OA 
HETATM   11  O   UNL     1     -11.465  16.614  64.304  1.00  0.00    -1.075 OA 
HETATM   12  C   UNL     1     -10.958  13.486  65.048  1.00  0.00    -0.335 C  
ENDROOT
BRANCH   4  13
HETATM   13  C   UNL     1     -10.399  17.268  68.249  1.00  0.00    -0.361 C  
BRANCH  13  14
HETATM   14  N   UNL     1      -8.970  17.545  68.620  1.00  0.00    -0.278 NA 
HETATM   15  C   UNL     1      -8.280  18.685  68.359  1.00  0.00    -0.334 A  
HETATM   16  C   UNL     1      -8.752  19.962  67.724  1.00  0.00    -0.377 C  
HETATM   17  C   UNL     1      -7.493  20.855  67.672  1.00  0.00    -0.239 C  
HETATM   18  C   UNL     1      -8.284  16.489  69.152  1.00  0.00    -0.159 A  
HETATM   19  C   UNL     1      -6.333  20.116  68.335  1.00  0.00    -0.326 C  
HETATM   20  C   UNL     1      -6.917  16.547  69.417  1.00  0.00    -0.202 A  
HETATM   21  C   UNL     1      -6.211  17.707  69.166  1.00  0.00    -0.226 A  
HETATM   22  C   UNL     1      -6.909  18.773  68.640  1.00  0.00    -0.294 A  
ENDBRANCH  13  14
ENDBRANCH   4  13
BRANCH   5  23
HETATM   23  N   UNL     1     -10.585  11.259  66.243  1.00  0.00    -0.258 N  
HETATM   24  C   UNL     1     -10.056  10.269  65.432  1.00  0.00    -0.284 C  
HETATM   25  O   UNL     1     -10.220  10.244  64.222  1.00  0.00    -0.269 OA 
HETATM   26  H   UNL     1     -10.259  11.300  67.208  1.00  0.00     0.000 HD 
BRANCH  24  27
HETATM   27  C   UNL     1      -9.241   9.180  66.195  1.00  0.00    -0.205 C  
BRANCH  27  28
HETATM   28  C   UNL     1      -9.620   8.809  67.564  1.00  0.00    -0.152 A  
HETATM   29  N   UNL     1      -9.221   9.577  68.655  1.00  0.00    -0.134 NA 
HETATM   30  N   UNL     1      -9.403   9.626  70.972  1.00  0.00    -0.343 NA 
HETATM   31  C   UNL     1     -10.416   7.731  67.912  1.00  0.00    -0.201 A  
HETATM   32  S   UNL     1     -10.639   7.673  69.609  1.00  0.00    -0.230 SA 
HETATM   33  H1  UNL     1      -8.826  10.461  71.071  1.00  0.00     0.000 HD 
HETATM   34  H2  UNL     1      -9.790   9.191  71.809  1.00  0.00     0.000 HD 
HETATM   35  C   UNL     1      -9.668   9.079  69.778  1.00  0.00    -0.175 A  
ENDBRANCH  27  28
BRANCH  27  36
HETATM   36  N   UNL     1      -8.238   8.500  65.712  1.00  0.00    -0.118 NA 
HETATM   37  H   UNL     1      -8.340   7.824  64.955  1.00  0.00     0.000 HD 
BRANCH  36  38
HETATM   38  O   UNL     1      -7.014   8.776  66.321  1.00  0.00    -0.079 OA 
HETATM   39  C   UNL     1      -6.324   9.711  65.495  1.00  0.00    -0.071 C  
ENDBRANCH  36  38
ENDBRANCH  27  36
ENDBRANCH  24  27
ENDBRANCH   5  23
TORSDOF 7
ENDMDL
MODEL        7
REMARK 921   NORMALIZED FREE ENERGY PREDICTED BY IDOCK:   -7.23 KCAL/MOL
REMARK 922        TOTAL FREE ENERGY PREDICTED BY IDOCK:  -11.39 KCAL/MOL
REMARK 923 INTER-LIGAND FREE ENERGY PREDICTED BY IDOCK:  -10.08 KCAL/MOL
REMARK 924 INTRA-LIGAND FREE ENERGY PREDICTED BY IDOCK:   -1.31 KCAL/MOL
REMARK 927      BINDING AFFINITY PREDICTED BY RF-SCORE:    0.00 PKD
ROOT
HETATM    1  C   UNL     1     -11.882  15.078  68.517  1.00  0.00    -0.291 C  
HETATM    2  S   UNL     1     -10.563  14.024  67.837  1.00  0.00    -0.247 SA 
HETATM    3  C   UNL     1     -11.423  12.487  68.117  1.00  0.00    -0.319 C  
HETATM    4  C   UNL     1     -11.968  12.298  69.506  1.00  0.00    -0.333 C  
HETATM    5  CA  UNL     1     -11.395  16.421  69.150  1.00  0.00    -0.241 C  
HETATM    6  CA  UNL     1     -12.392  13.338  70.275  1.00  0.00    -0.264 C  
HETATM    7  C   UNL     1     -13.198  13.081  71.612  1.00  0.00    -0.336 C  
HETATM    8  O   UNL     1     -11.631  16.019  71.674  1.00  0.00    -0.439 OA 
HETATM    9  N   UNL     1     -12.234  14.639  69.851  1.00  0.00    -0.319 N  
HETATM   10  OXT UNL     1     -12.921  11.975  72.185  1.00  0.00    -0.358 OA 
HETATM   11  O   UNL     1     -14.139  13.885  71.835  1.00  0.00    -0.438 OA 
HETATM   12  C   UNL     1     -11.832  15.758  70.507  1.00  0.00    -0.375 C  
ENDROOT
BRANCH   4  13
HETATM   13  C   UNL     1     -12.205  10.833  69.818  1.00  0.00    -0.288 C  
BRANCH  13  14
HETATM   14  N   UNL     1     -11.043   9.974  70.230  1.00  0.00    -0.295 NA 
HETATM   15  C   UNL     1     -11.045   9.045  71.220  1.00  0.00    -0.312 A  
HETATM   16  C   UNL     1     -12.177   8.580  72.091  1.00  0.00    -0.446 C  
HETATM   17  C   UNL     1     -11.533   7.545  73.040  1.00  0.00    -0.247 C  
HETATM   18  C   UNL     1      -9.852  10.265  69.625  1.00  0.00    -0.198 A  
HETATM   19  C   UNL     1     -10.062   7.375  72.664  1.00  0.00    -0.255 C  
HETATM   20  C   UNL     1      -8.658   9.653  70.001  1.00  0.00    -0.237 A  
HETATM   21  C   UNL     1      -8.653   8.698  70.999  1.00  0.00    -0.211 A  
HETATM   22  C   UNL     1      -9.859   8.399  71.598  1.00  0.00    -0.290 A  
ENDBRANCH  13  14
ENDBRANCH   4  13
BRANCH   5  23
HETATM   23  N   UNL     1      -9.934  16.704  69.084  1.00  0.00    -0.271 N  
HETATM   24  C   UNL     1      -9.372  17.912  68.705  1.00  0.00    -0.277 C  
HETATM   25  O   UNL     1     -10.026  18.935  68.571  1.00  0.00    -0.369 OA 
HETATM   26  H   UNL     1      -9.297  15.949  69.337  1.00  0.00     0.000 HD 
BRANCH  24  27
HETATM   27  C   UNL     1      -7.834  17.856  68.451  1.00  0.00    -0.286 C  
BRANCH  27  28
HETATM   28  C   UNL     1      -7.126  16.572  68.539  1.00  0.00    -0.164 A  
HETATM   29  N   UNL     1      -7.322  15.575  67.588  1.00  0.00    -0.156 NA 
HETATM   30  N   UNL     1      -6.622  13.415  67.088  1.00  0.00    -0.452 NA 
HETATM   31  C   UNL     1      -6.195  16.234  69.506  1.00  0.00    -0.186 A  
HETATM   32  S   UNL     1      -5.587  14.658  69.230  1.00  0.00    -0.093 SA 
HETATM   33  H1  UNL     1      -7.221  13.334  66.267  1.00  0.00     0.000 HD 
HETATM   34  H2  UNL     1      -6.023  12.630  67.342  1.00  0.00     0.000 HD 
HETATM   35  C   UNL     1      -6.596  14.519  67.846  1.00  0.00    -0.166 A  
ENDBRANCH  27  28
BRANCH  27  36
HETATM   36  N   UNL     1      -7.079  18.863  68.112  1.00  0.00    -0.244 NA 
HETATM   37  H   UNL     1      -6.501  18.864  67.272  1.00  0.00     0.000 HD 
BRANCH  36  38
HETATM   38  O   UNL     1      -7.131  19.940  68.998  1.00  0.00    -0.325 OA 
HETATM   39  C   UNL     1      -5.817  20.489  69.083  1.00  0.00    -0.357 C  
ENDBRANCH  36  38
ENDBRANCH  27  36
ENDBRANCH  24  27
ENDBRANCH   5  23
TORSDOF 7
ENDMDL
MODEL        8
REMARK 921   NORMALIZED FREE ENERGY PREDICTED BY IDOCK:   -7.21 KCAL/MOL
REMARK 922        TOTAL FREE ENERGY PREDICTED BY IDOCK:  -11.37 KCAL/MOL
REMARK 923 INTER-LIGAND FREE ENERGY PREDICTED BY IDOCK:  -10.15 KCAL/MOL
REMARK 924 INTRA-LIGAND FREE ENERGY PREDICTED BY IDOCK:   -1.22 KCAL/MOL
REMARK 927      BINDING AFFINITY PREDICTED BY RF-SCORE:    0.00 PKD
ROOT
HETATM    1  C   UNL     1     -11.355  15.392  67.527  1.00  0.00    -0.269 C  
HETATM    2  S   UNL     1     -10.149  14.176  66.910  1.00  0.00    -0.263 SA 
HETATM    3  C   UNL     1     -11.135  12.748  67.322  1.00  0.00    -0.276 C  
HETATM    4  C   UNL     1     -11.663  12.715  68.730  1.00  0.00    -0.364 C  
HETATM    5  CA  UNL     1     -10.737  16.731  68.045  1.00  0.00    -0.355 C  
HETATM    6  CA  UNL     1     -11.976  13.843  69.423  1.00  0.00    -0.354 C  
HETATM    7  C   UNL     1     -12.771  13.762  70.787  1.00  0.00    -0.290 C  
HETATM    8  O   UNL     1     -10.951  16.544  70.596  1.00  0.00    -0.232 OA 
HETATM    9  N   UNL     1     -11.713  15.089  68.896  1.00  0.00    -0.322 N  
HETATM   10  OXT UNL     1     -12.579  12.683  71.440  1.00  0.00    -0.314 OA 
HETATM   11  O   UNL     1     -13.633  14.662  70.963  1.00  0.00    -0.374 OA 
HETATM   12  C   UNL     1     -11.200  16.214  69.457  1.00  0.00    -0.337 C  
ENDROOT
BRANCH   4  13
HETATM   13  C   UNL     1     -12.020  11.304  69.158  1.00  0.00    -0.336 C  
BRANCH  13  14
HETATM   14  N   UNL     1     -10.946  10.413  69.715  1.00  0.00    -0.273 NA 
HETATM   15  C   UNL     1     -11.074   9.565  70.767  1.00  0.00    -0.323 A  
HETATM   16  C   UNL     1     -12.290   9.236  71.587  1.00  0.00    -0.450 C  
HETATM   17  C   UNL     1     -11.779   8.243  72.652  1.00  0.00    -0.406 C  
HETATM   18  C   UNL     1      -9.702  10.585  69.177  1.00  0.00    -0.211 A  
HETATM   19  C   UNL     1     -10.301   7.957  72.397  1.00  0.00    -0.333 C  
HETATM   20  C   UNL     1      -8.577   9.934  69.682  1.00  0.00    -0.207 A  
HETATM   21  C   UNL     1      -8.700   9.060  70.744  1.00  0.00    -0.269 A  
HETATM   22  C   UNL     1      -9.961   8.881  71.276  1.00  0.00    -0.358 A  
ENDBRANCH  13  14
ENDBRANCH   4  13
BRANCH   5  23
HETATM   23  N   UNL     1      -9.259  16.876  67.934  1.00  0.00    -0.230 N  
HETATM   24  C   UNL     1      -8.553  18.044  68.169  1.00  0.00    -0.273 C  
HETATM   25  O   UNL     1      -9.056  19.031  68.683  1.00  0.00    -0.345 OA 
HETATM   26  H   UNL     1      -8.725  16.050  67.663  1.00  0.00     0.000 HD 
BRANCH  24  27
HETATM   27  C   UNL     1      -7.062  17.998  67.712  1.00  0.00    -0.206 C  
BRANCH  27  28
HETATM   28  C   UNL     1      -6.554  19.009  66.775  1.00  0.00    -0.189 A  
HETATM   29  N   UNL     1      -6.568  18.787  65.400  1.00  0.00    -0.416 NA 
HETATM   30  N   UNL     1      -5.966  19.832  63.413  1.00  0.00    -0.340 NA 
HETATM   31  C   UNL     1      -6.067  20.256  67.126  1.00  0.00    -0.177 A  
HETATM   32  S   UNL     1      -5.604  21.134  65.732  1.00  0.00    -0.211 SA 
HETATM   33  H1  UNL     1      -6.248  19.045  62.830  1.00  0.00     0.000 HD 
HETATM   34  H2  UNL     1      -5.583  20.666  62.966  1.00  0.00     0.000 HD 
HETATM   35  C   UNL     1      -6.080  19.809  64.748  1.00  0.00    -0.267 A  
ENDBRANCH  27  28
BRANCH  27  36
HETATM   36  N   UNL     1      -6.164  17.146  68.122  1.00  0.00    -0.133 NA 
HETATM   37  H   UNL     1      -5.409  16.808  67.527  1.00  0.00     0.000 HD 
BRANCH  36  38
HETATM   38  O   UNL     1      -6.327  16.737  69.446  1.00  0.00    -0.199 OA 
HETATM   39  C   UNL     1      -5.458  17.532  70.251  1.00  0.00    -0.248 C  
ENDBRANCH  36  38
ENDBRANCH  27  36
ENDBRANCH  24  27
ENDBRANCH   5  23
TORSDOF 7
ENDMDL
MODEL        9
REMARK 921   NORMALIZED FREE ENERGY PREDICTED BY IDOCK:   -7.09 KCAL/MOL
REMARK 922        TOTAL FREE ENERGY PREDICTED BY IDOCK:  -11.20 KCAL/MOL
REMARK 923 INTER-LIGAND FREE ENERGY PREDICTED BY IDOCK:  -10.14 KCAL/MOL
REMARK 924 INTRA-LIGAND FREE ENERGY PREDICTED BY IDOCK:   -1.06 KCAL/MOL
REMARK 927      BINDING AFFINITY PREDICTED BY RF-SCORE:    0.00 PKD
ROOT
HETATM    1  C   UNL     1     -10.919  13.214  67.787  1.00  0.00    -0.251 C  
HETATM    2  S   UNL     1     -12.019  13.935  69.045  1.00  0.00    -0.344 SA 
HETATM    3  C   UNL     1     -11.440  15.607  68.828  1.00  0.00    -0.376 C  
HETATM    4  C   UNL     1      -9.946  15.781  68.871  1.00  0.00    -0.223 C  
HETATM    5  CA  UNL     1     -10.512  11.726  68.039  1.00  0.00    -0.199 C  
HETATM    6  CA  UNL     1      -9.083  14.818  68.446  1.00  0.00    -0.188 C  
HETATM    7  C   UNL     1      -7.545  15.135  68.258  1.00  0.00    -0.109 C  
HETATM    8  O   UNL     1      -8.068  11.892  68.806  1.00  0.00    -0.117 OA 
HETATM    9  N   UNL     1      -9.545  13.580  68.057  1.00  0.00    -0.214 N  
HETATM   10  OXT UNL     1      -7.101  16.050  69.028  1.00  0.00    -0.146 OA 
HETATM   11  O   UNL     1      -7.004  14.599  67.255  1.00  0.00    -0.221 OA 
HETATM   12  C   UNL     1      -9.084  12.327  68.307  1.00  0.00    -0.187 C  
ENDROOT
BRANCH   4  13
HETATM   13  C   UNL     1      -9.560  17.211  69.200  1.00  0.00    -0.116 C  
BRANCH  13  14
HETATM   14  N   UNL     1      -9.381  18.198  68.082  1.00  0.00    -0.280 NA 
HETATM   15  C   UNL     1      -8.385  19.113  67.974  1.00  0.00    -0.305 A  
HETATM   16  C   UNL     1      -7.193  19.337  68.860  1.00  0.00    -0.393 C  
HETATM   17  C   UNL     1      -6.464  20.544  68.229  1.00  0.00    -0.338 C  
HETATM   18  C   UNL     1     -10.397  18.245  67.170  1.00  0.00    -0.384 A  
HETATM   19  C   UNL     1      -7.200  20.958  66.956  1.00  0.00    -0.351 C  
HETATM   20  C   UNL     1     -10.444  19.201  66.157  1.00  0.00    -0.558 A  
HETATM   21  C   UNL     1      -9.428  20.128  66.032  1.00  0.00    -0.345 A  
HETATM   22  C   UNL     1      -8.399  20.069  66.948  1.00  0.00    -0.376 A  
ENDBRANCH  13  14
ENDBRANCH   4  13
BRANCH   5  23
HETATM   23  N   UNL     1     -11.100  11.063  69.236  1.00  0.00    -0.235 N  
HETATM   24  C   UNL     1     -10.850   9.757  69.627  1.00  0.00    -0.250 C  
HETATM   25  O   UNL     1      -9.966   9.075  69.133  1.00  0.00    -0.175 OA 
HETATM   26  H   UNL     1     -11.736  11.613  69.812  1.00  0.00     0.000 HD 
BRANCH  24  27
HETATM   27  C   UNL     1     -11.801   9.227  70.743  1.00  0.00    -0.243 C  
BRANCH  27  28
HETATM   28  C   UNL     1     -11.306   8.248  71.720  1.00  0.00    -0.288 A  
HETATM   29  N   UNL     1     -11.956   7.033  71.914  1.00  0.00    -0.306 NA 
HETATM   30  N   UNL     1     -11.796   5.103  73.200  1.00  0.00    -0.504 NA 
HETATM   31  C   UNL     1     -10.167   8.393  72.494  1.00  0.00    -0.299 A  
HETATM   32  S   UNL     1      -9.931   7.012  73.478  1.00  0.00    -0.320 SA 
HETATM   33  H1  UNL     1     -12.640   4.685  72.808  1.00  0.00     0.000 HD 
HETATM   34  H2  UNL     1     -11.272   4.586  73.906  1.00  0.00     0.000 HD 
HETATM   35  C   UNL     1     -11.353   6.308  72.819  1.00  0.00    -0.201 A  
ENDBRANCH  27  28
BRANCH  27  36
HETATM   36  N   UNL     1     -13.033   9.607  70.940  1.00  0.00    -0.543 NA 
HETATM   37  H   UNL     1     -13.773   9.464  70.253  1.00  0.00     0.000 HD 
BRANCH  36  38
HETATM   38  O   UNL     1     -13.251  10.226  72.171  1.00  0.00    -0.452 OA 
HETATM   39  C   UNL     1     -13.314  11.632  71.939  1.00  0.00    -0.298 C  
ENDBRANCH  36  38
ENDBRANCH  27  36
ENDBRANCH  24  27
ENDBRANCH   5  23
TORSDOF 7
ENDMDL
MODEL       10
REMARK 921   NORMALIZED FREE ENERGY PREDICTED BY IDOCK:   -7.07 KCAL/MOL
REMARK 922        TOTAL FREE ENERGY PREDICTED BY IDOCK:  -11.17 KCAL/MOL
REMARK 923 INTER-LIGAND FREE ENERGY PREDICTED BY IDOCK:  -10.64 KCAL/MOL
REMARK 924 INTRA-LIGAND FREE ENERGY PREDICTED BY IDOCK:   -0.54 KCAL/MOL
REMARK 927      BINDING AFFINITY PREDICTED BY RF-SCORE:    0.00 PKD
ROOT
HETATM    1  C   UNL     1     -12.236  13.612  66.902  1.00  0.00    -0.352 C  
HETATM    2  S   UNL     1     -11.488  13.445  68.553  1.00  0.00    -0.335 SA 
HETATM    3  C   UNL     1     -11.425  15.197  68.881  1.00  0.00    -0.320 C  
HETATM    4  C   UNL     1     -10.802  16.033  67.796  1.00  0.00    -0.324 C  
HETATM    5  CA  UNL     1     -11.879  12.471  65.896  1.00  0.00    -0.430 C  
HETATM    6  CA  UNL     1     -10.879  15.701  66.478  1.00  0.00    -0.260 C  
HETATM    7  C   UNL     1     -10.449  16.730  65.357  1.00  0.00    -0.193 C  
HETATM    8  O   UNL     1     -10.219  13.585  64.285  1.00  0.00    -0.368 OA 
HETATM    9  N   UNL     1     -11.445  14.508  66.084  1.00  0.00    -0.353 N  
HETATM   10  OXT UNL     1      -9.547  17.554  65.723  1.00  0.00    -0.523 OA 
HETATM   11  O   UNL     1     -11.174  16.740  64.329  1.00  0.00    -1.163 OA 
HETATM   12  C   UNL     1     -11.063  13.594  65.156  1.00  0.00    -0.318 C  
ENDROOT
BRANCH   4  13
HETATM   13  C   UNL     1     -10.317  17.367  68.329  1.00  0.00    -0.374 C  
BRANCH  13  14
HETATM   14  N   UNL     1      -8.848  17.571  68.568  1.00  0.00    -0.281 NA 
HETATM   15  C   UNL     1      -7.959  16.620  68.952  1.00  0.00    -0.236 A  
HETATM   16  C   UNL     1      -8.167  15.147  69.164  1.00  0.00    -0.214 C  
HETATM   17  C   UNL     1      -6.792  14.626  69.633  1.00  0.00    -0.163 C  
HETATM   18  C   UNL     1      -8.416  18.866  68.511  1.00  0.00    -0.349 A  
HETATM   19  C   UNL     1      -5.793  15.782  69.621  1.00  0.00    -0.135 C  
HETATM   20  C   UNL     1      -7.113  19.232  68.845  1.00  0.00    -0.385 A  
HETATM   21  C   UNL     1      -6.199  18.269  69.226  1.00  0.00    -0.255 A  
HETATM   22  C   UNL     1      -6.636  16.962  69.270  1.00  0.00    -0.232 A  
ENDBRANCH  13  14
ENDBRANCH   4  13
BRANCH   5  23
HETATM   23  N   UNL     1     -11.019  11.368  66.409  1.00  0.00    -0.282 N  
HETATM   24  C   UNL     1     -10.395  10.413  65.624  1.00  0.00    -0.190 C  
HETATM   25  O   UNL     1     -10.329  10.494  64.407  1.00  0.00    -0.341 OA 
HETATM   26  H   UNL     1     -10.880  11.312  67.418  1.00  0.00     0.000 HD 
BRANCH  24  27
HETATM   27  C   UNL     1      -9.791   9.217  66.423  1.00  0.00    -0.277 C  
BRANCH  27  28
HETATM   28  C   UNL     1      -9.611   9.328  67.877  1.00  0.00    -0.142 A  
HETATM   29  N   UNL     1      -8.464   9.901  68.419  1.00  0.00    -0.110 NA 
HETATM   30  N   UNL     1      -7.509  10.388  70.481  1.00  0.00    -0.424 NA 
HETATM   31  C   UNL     1     -10.533   8.934  68.832  1.00  0.00    -0.205 A  
HETATM   32  S   UNL     1      -9.944   9.263  70.405  1.00  0.00    -0.255 SA 
HETATM   33  H1  UNL     1      -6.655  10.771  70.077  1.00  0.00     0.000 HD 
HETATM   34  H2  UNL     1      -7.609  10.370  71.496  1.00  0.00     0.000 HD 
HETATM   35  C   UNL     1      -8.505   9.908  69.725  1.00  0.00    -0.192 A  
ENDBRANCH  27  28
BRANCH  27  36
HETATM   36  N   UNL     1      -9.453   8.061  65.926  1.00  0.00    -0.425 NA 
HETATM   37  H   UNL     1     -10.127   7.318  65.741  1.00  0.00     0.000 HD 
BRANCH  36  38
HETATM   38  O   UNL     1      -8.089   7.926  65.669  1.00  0.00    -0.114 OA 
HETATM   39  C   UNL     1      -7.900   6.688  64.985  1.00  0.00    -0.113 C  
ENDBRANCH  36  38
ENDBRANCH  27  36
ENDBRANCH  24  27
ENDBRANCH   5  23
TORSDOF 7
ENDMDL
MODEL       11
REMARK 921   NORMALIZED FREE ENERGY PREDICTED BY IDOCK:   -7.06 KCAL/MOL
REMARK 922        TOTAL FREE ENERGY PREDICTED BY IDOCK:  -11.16 KCAL/MOL
REMARK 923 INTER-LIGAND FREE ENERGY PREDICTED BY IDOCK:   -9.64 KCAL/MOL
REMARK 924 INTRA-LIGAND FREE ENERGY PREDICTED BY IDOCK:   -1.52 KCAL/MOL
REMARK 927      BINDING AFFINITY PREDICTED BY RF-SCORE:    0.00 PKD
ROOT
HETATM    1  C   UNL     1      -9.244  10.101  68.679  1.00  0.00    -0.157 C  
HETATM    2  S   UNL     1     -10.551  10.253  69.937  1.00  0.00    -0.260 SA 
HETATM    3  C   UNL     1     -10.633   8.509  70.298  1.00  0.00    -0.226 C  
HETATM    4  C   UNL     1     -10.770   7.610  69.100  1.00  0.00    -0.153 C  
HETATM    5  CA  UNL     1      -9.270  11.193  67.562  1.00  0.00    -0.153 C  
HETATM    6  CA  UNL     1     -10.235   7.917  67.887  1.00  0.00    -0.209 C  
HETATM    7  C   UNL     1     -10.170   6.837  66.733  1.00  0.00    -0.202 C  
HETATM    8  O   UNL     1     -10.163   9.935  65.511  1.00  0.00    -0.273 OA 
HETATM    9  N   UNL     1      -9.631   9.136  67.672  1.00  0.00    -0.146 N  
HETATM   10  OXT UNL     1     -11.097   5.962  66.783  1.00  0.00    -0.262 OA 
HETATM   11  O   UNL     1      -9.120   6.853  66.040  1.00  0.00    -0.146 OA 
HETATM   12  C   UNL     1      -9.696  10.002  66.627  1.00  0.00    -0.194 C  
ENDROOT
BRANCH   4  13
HETATM   13  C   UNL     1     -11.344   6.258  69.480  1.00  0.00    -0.404 C  
BRANCH  13  14
HETATM   14  N   UNL     1     -10.474   5.271  70.206  1.00  0.00    -0.281 NA 
HETATM   15  C   UNL     1     -10.407   5.100  71.551  1.00  0.00    -0.208 A  
HETATM   16  C   UNL     1     -11.203   5.764  72.639  1.00  0.00    -0.348 C  
HETATM   17  C   UNL     1     -10.632   5.176  73.948  1.00  0.00    -0.340 C  
HETATM   18  C   UNL     1      -9.585   4.585  69.427  1.00  0.00    -0.194 A  
HETATM   19  C   UNL     1      -9.568   4.135  73.602  1.00  0.00    -0.128 C  
HETATM   20  C   UNL     1      -8.619   3.740  69.970  1.00  0.00    -0.107 A  
HETATM   21  C   UNL     1      -8.552   3.550  71.336  1.00  0.00    -0.108 A  
HETATM   22  C   UNL     1      -9.459   4.235  72.117  1.00  0.00    -0.186 A  
ENDBRANCH  13  14
ENDBRANCH   4  13
BRANCH   5  23
HETATM   23  N   UNL     1     -10.317  12.247  67.677  1.00  0.00    -0.202 N  
HETATM   24  C   UNL     1     -10.119  13.511  68.206  1.00  0.00    -0.247 C  
HETATM   25  O   UNL     1      -9.012  13.960  68.457  1.00  0.00    -0.186 OA 
HETATM   26  H   UNL     1     -11.252  12.018  67.340  1.00  0.00     0.000 HD 
BRANCH  24  27
HETATM   27  C   UNL     1     -11.433  14.312  68.466  1.00  0.00    -0.298 C  
BRANCH  27  28
HETATM   28  C   UNL     1     -11.804  14.680  69.839  1.00  0.00    -0.319 A  
HETATM   29  N   UNL     1     -12.601  13.846  70.618  1.00  0.00    -0.343 NA 
HETATM   30  N   UNL     1     -13.560  13.751  72.733  1.00  0.00    -0.694 NA 
HETATM   31  C   UNL     1     -11.390  15.822  70.503  1.00  0.00    -0.380 A  
HETATM   32  S   UNL     1     -12.024  15.855  72.093  1.00  0.00    -0.561 SA 
HETATM   33  H1  UNL     1     -14.025  12.859  72.561  1.00  0.00     0.000 HD 
HETATM   34  H2  UNL     1     -13.673  14.198  73.642  1.00  0.00     0.000 HD 
HETATM   35  C   UNL     1     -12.806  14.354  71.804  1.00  0.00    -0.347 A  
ENDBRANCH  27  28
BRANCH  27  36
HETATM   36  N   UNL     1     -12.254  14.747  67.552  1.00  0.00    -0.514 NA 
HETATM   37  H   UNL     1     -13.189  15.093  67.767  1.00  0.00     0.000 HD 
BRANCH  36  38
HETATM   38  O   UNL     1     -11.744  14.698  66.255  1.00  0.00    -0.370 OA 
HETATM   39  C   UNL     1     -12.671  13.964  65.456  1.00  0.00    -0.499 C  
ENDBRANCH  36  38
ENDBRANCH  27  36
ENDBRANCH  24  27
ENDBRANCH   5  23
TORSDOF 7
ENDMDL
MODEL       12
REMARK 921   NORMALIZED FREE ENERGY PREDICTED BY IDOCK:   -6.94 KCAL/MOL
REMARK 922        TOTAL FREE ENERGY PREDICTED BY IDOCK:  -11.00 KCAL/MOL
REMARK 923 INTER-LIGAND FREE ENERGY PREDICTED BY IDOCK:   -9.91 KCAL/MOL
REMARK 924 INTRA-LIGAND FREE ENERGY PREDICTED BY IDOCK:   -1.08 KCAL/MOL
REMARK 927      BINDING AFFINITY PREDICTED BY RF-SCORE:    0.00 PKD
ROOT
HETATM    1  C   UNL     1     -10.865  10.046  68.847  1.00  0.00    -0.220 C  
HETATM    2  S   UNL     1      -9.053  10.178  68.968  1.00  0.00    -0.183 SA 
HETATM    3  C   UNL     1      -8.827   8.590  69.747  1.00  0.00    -0.137 C  
HETATM    4  C   UNL     1      -9.698   8.332  70.947  1.00  0.00    -0.204 C  
HETATM    5  CA  UNL     1     -11.631  11.408  68.884  1.00  0.00    -0.323 C  
HETATM    6  CA  UNL     1     -10.946   8.858  71.074  1.00  0.00    -0.276 C  
HETATM    7  C   UNL     1     -11.924   8.356  72.211  1.00  0.00    -0.389 C  
HETATM    8  O   UNL     1     -12.675  11.448  71.228  1.00  0.00    -0.405 OA 
HETATM    9  N   UNL     1     -11.432   9.753  70.146  1.00  0.00    -0.238 N  
HETATM   10  OXT UNL     1     -11.334   7.934  73.260  1.00  0.00    -0.312 OA 
HETATM   11  O   UNL     1     -13.132   8.247  71.872  1.00  0.00    -0.329 OA 
HETATM   12  C   UNL     1     -12.130  10.909  70.289  1.00  0.00    -0.355 C  
ENDROOT
BRANCH   4  13
HETATM   13  C   UNL     1      -9.114   7.250  71.836  1.00  0.00    -0.133 C  
BRANCH  13  14
HETATM   14  N   UNL     1      -9.443   5.813  71.552  1.00  0.00    -0.150 NA 
HETATM   15  C   UNL     1      -9.871   4.895  72.456  1.00  0.00    -0.157 A  
HETATM   16  C   UNL     1     -10.196   5.068  73.913  1.00  0.00    -0.259 C  
HETATM   17  C   UNL     1     -10.584   3.653  74.392  1.00  0.00    -0.233 C  
HETATM   18  C   UNL     1      -9.154   5.381  70.288  1.00  0.00    -0.136 A  
HETATM   19  C   UNL     1     -10.547   2.698  73.201  1.00  0.00    -0.260 C  
HETATM   20  C   UNL     1      -9.271   4.044  69.914  1.00  0.00    -0.213 A  
HETATM   21  C   UNL     1      -9.717   3.106  70.824  1.00  0.00    -0.157 A  
HETATM   22  C   UNL     1     -10.020   3.548  72.095  1.00  0.00    -0.234 A  
ENDBRANCH  13  14
ENDBRANCH   4  13
BRANCH   5  23
HETATM   23  N   UNL     1     -10.802  12.643  68.964  1.00  0.00    -0.393 N  
HETATM   24  C   UNL     1     -11.291  13.937  68.901  1.00  0.00    -0.282 C  
HETATM   25  O   UNL     1     -12.481  14.200  68.967  1.00  0.00    -0.211 OA 
HETATM   26  H   UNL     1      -9.795  12.525  69.074  1.00  0.00     0.000 HD 
BRANCH  24  27
HETATM   27  C   UNL     1     -10.193  15.032  68.727  1.00  0.00    -0.235 C  
BRANCH  27  28
HETATM   28  C   UNL     1     -10.303  16.008  67.635  1.00  0.00    -0.284 A  
HETATM   29  N   UNL     1     -10.734  15.626  66.368  1.00  0.00    -0.306 NA 
HETATM   30  N   UNL     1     -11.129  16.531  64.264  1.00  0.00    -1.300 NA 
HETATM   31  C   UNL     1     -10.044  17.364  67.743  1.00  0.00    -0.323 A  
HETATM   32  S   UNL     1     -10.320  18.148  66.247  1.00  0.00    -0.353 SA 
HETATM   33  H1  UNL     1     -11.393  15.638  63.850  1.00  0.00     0.000 HD 
HETATM   34  H2  UNL     1     -11.139  17.368  63.680  1.00  0.00     0.000 HD 
HETATM   35  C   UNL     1     -10.766  16.644  65.548  1.00  0.00    -0.223 A  
ENDBRANCH  27  28
BRANCH  27  36
HETATM   36  N   UNL     1      -9.163  15.210  69.506  1.00  0.00    -0.420 NA 
HETATM   37  H   UNL     1      -9.180  15.834  70.313  1.00  0.00     0.000 HD 
BRANCH  36  38
HETATM   38  O   UNL     1      -8.037  14.473  69.142  1.00  0.00    -0.122 OA 
HETATM   39  C   UNL     1      -6.909  15.344  69.222  1.00  0.00    -0.157 C  
ENDBRANCH  36  38
ENDBRANCH  27  36
ENDBRANCH  24  27
ENDBRANCH   5  23
TORSDOF 7
ENDMDL
MODEL       13
REMARK 921   NORMALIZED FREE ENERGY PREDICTED BY IDOCK:   -6.90 KCAL/MOL
REMARK 922        TOTAL FREE ENERGY PREDICTED BY IDOCK:  -10.94 KCAL/MOL
REMARK 923 INTER-LIGAND FREE ENERGY PREDICTED BY IDOCK:   -9.62 KCAL/MOL
REMARK 924 INTRA-LIGAND FREE ENERGY PREDICTED BY IDOCK:   -1.31 KCAL/MOL
REMARK 927      BINDING AFFINITY PREDICTED BY RF-SCORE:    0.00 PKD
ROOT
HETATM    1  C   UNL     1     -12.159  13.547  68.603  1.00  0.00    -0.268 C  
HETATM    2  S   UNL     1     -11.164  14.329  69.912  1.00  0.00    -0.077 SA 
HETATM    3  C   UNL     1     -11.175  15.953  69.177  1.00  0.00    -0.334 C  
HETATM    4  C   UNL     1     -10.779  16.005  67.726  1.00  0.00    -0.323 C  
HETATM    5  CA  UNL     1     -11.878  12.027  68.377  1.00  0.00    -0.300 C  
HETATM    6  CA  UNL     1     -11.029  14.985  66.861  1.00  0.00    -0.324 C  
HETATM    7  C   UNL     1     -10.842  15.180  65.302  1.00  0.00    -0.400 C  
HETATM    8  O   UNL     1     -10.558  11.979  66.176  1.00  0.00    -0.247 OA 
HETATM    9  N   UNL     1     -11.563  13.796  67.308  1.00  0.00    -0.341 N  
HETATM   10  OXT UNL     1      -9.955  16.041  64.986  1.00  0.00    -0.406 OA 
HETATM   11  O   UNL     1     -11.711  14.624  64.582  1.00  0.00    -0.404 OA 
HETATM   12  C   UNL     1     -11.261  12.505  67.012  1.00  0.00    -0.302 C  
ENDROOT
BRANCH   4  13
HETATM   13  C   UNL     1     -10.313  17.392  67.325  1.00  0.00    -0.336 C  
BRANCH  13  14
HETATM   14  N   UNL     1      -8.959  17.866  67.767  1.00  0.00    -0.251 NA 
HETATM   15  C   UNL     1      -7.860  17.092  67.952  1.00  0.00    -0.193 A  
HETATM   16  C   UNL     1      -7.674  15.622  67.705  1.00  0.00    -0.176 C  
HETATM   17  C   UNL     1      -6.222  15.337  68.147  1.00  0.00    -0.138 C  
HETATM   18  C   UNL     1      -8.887  19.181  68.134  1.00  0.00    -0.319 A  
HETATM   19  C   UNL     1      -5.567  16.648  68.576  1.00  0.00    -0.121 C  
HETATM   20  C   UNL     1      -7.738  19.734  68.696  1.00  0.00    -0.305 A  
HETATM   21  C   UNL     1      -6.611  18.957  68.877  1.00  0.00    -0.301 A  
HETATM   22  C   UNL     1      -6.685  17.634  68.494  1.00  0.00    -0.208 A  
ENDBRANCH  13  14
ENDBRANCH   4  13
BRANCH   5  23
HETATM   23  N   UNL     1     -10.877  11.388  69.277  1.00  0.00    -0.337 N  
HETATM   24  C   UNL     1     -10.495  10.058  69.226  1.00  0.00    -0.225 C  
HETATM   25  O   UNL     1     -10.800   9.314  68.307  1.00  0.00    -0.179 OA 
HETATM   26  H   UNL     1     -10.440  11.977  69.985  1.00  0.00     0.000 HD 
BRANCH  24  27
HETATM   27  C   UNL     1      -9.650   9.585  70.449  1.00  0.00    -0.269 C  
BRANCH  27  28
HETATM   28  C   UNL     1     -10.222   8.629  71.406  1.00  0.00    -0.254 A  
HETATM   29  N   UNL     1     -11.475   8.060  71.194  1.00  0.00    -0.273 NA 
HETATM   30  N   UNL     1     -12.959   6.576  72.193  1.00  0.00    -0.515 NA 
HETATM   31  C   UNL     1      -9.597   8.170  72.553  1.00  0.00    -0.277 A  
HETATM   32  S   UNL     1     -10.595   7.045  73.372  1.00  0.00    -0.359 SA 
HETATM   33  H1  UNL     1     -13.671   6.689  71.471  1.00  0.00     0.000 HD 
HETATM   34  H2  UNL     1     -13.141   5.940  72.969  1.00  0.00     0.000 HD 
HETATM   35  C   UNL     1     -11.793   7.235  72.156  1.00  0.00    -0.286 A  
ENDBRANCH  27  28
BRANCH  27  36
HETATM   36  N   UNL     1      -8.418   9.928  70.704  1.00  0.00    -0.373 NA 
HETATM   37  H   UNL     1      -7.985   9.799  71.618  1.00  0.00     0.000 HD 
BRANCH  36  38
HETATM   38  O   UNL     1      -7.744  10.488  69.619  1.00  0.00    -0.154 OA 
HETATM   39  C   UNL     1      -6.793   9.528  69.162  1.00  0.00    -0.050 C  
ENDBRANCH  36  38
ENDBRANCH  27  36
ENDBRANCH  24  27
ENDBRANCH   5  23
TORSDOF 7
ENDMDL
MODEL       14
REMARK 921   NORMALIZED FREE ENERGY PREDICTED BY IDOCK:   -6.90 KCAL/MOL
REMARK 922        TOTAL FREE ENERGY PREDICTED BY IDOCK:  -10.93 KCAL/MOL
REMARK 923 INTER-LIGAND FREE ENERGY PREDICTED BY IDOCK:   -9.17 KCAL/MOL
REMARK 924 INTRA-LIGAND FREE ENERGY PREDICTED BY IDOCK:   -1.76 KCAL/MOL
REMARK 927      BINDING AFFINITY PREDICTED BY RF-SCORE:    0.00 PKD
ROOT
HETATM    1  C   UNL     1     -11.884  14.928  68.570  1.00  0.00    -0.294 C  
HETATM    2  S   UNL     1     -10.527  13.942  67.863  1.00  0.00    -0.246 SA 
HETATM    3  C   UNL     1     -11.333  12.368  68.092  1.00  0.00    -0.291 C  
HETATM    4  C   UNL     1     -11.875  12.118  69.473  1.00  0.00    -0.386 C  
HETATM    5  CA  UNL     1     -11.447  16.267  69.246  1.00  0.00    -0.251 C  
HETATM    6  CA  UNL     1     -12.337  13.118  70.272  1.00  0.00    -0.249 C  
HETATM    7  C   UNL     1     -13.137  12.791  71.597  1.00  0.00    -0.331 C  
HETATM    8  O   UNL     1     -11.675  15.779  71.756  1.00  0.00    -0.393 OA 
HETATM    9  N   UNL     1     -12.224  14.436  69.889  1.00  0.00    -0.334 N  
HETATM   10  OXT UNL     1     -12.823  11.679  72.137  1.00  0.00    -0.270 OA 
HETATM   11  O   UNL     1     -14.107  13.555  71.842  1.00  0.00    -0.348 OA 
HETATM   12  C   UNL     1     -11.864  15.547  70.581  1.00  0.00    -0.365 C  
ENDROOT
BRANCH   4  13
HETATM   13  C   UNL     1     -12.060  10.636  69.739  1.00  0.00    -0.272 C  
BRANCH  13  14
HETATM   14  N   UNL     1     -10.851   9.749  69.819  1.00  0.00    -0.244 NA 
HETATM   15  C   UNL     1     -10.298   9.052  68.794  1.00  0.00    -0.215 A  
HETATM   16  C   UNL     1     -10.675   9.032  67.340  1.00  0.00    -0.231 C  
HETATM   17  C   UNL     1      -9.701   8.019  66.702  1.00  0.00    -0.313 C  
HETATM   18  C   UNL     1     -10.358   9.539  71.077  1.00  0.00    -0.283 A  
HETATM   19  C   UNL     1      -8.733   7.520  67.773  1.00  0.00    -0.123 C  
HETATM   20  C   UNL     1      -9.329   8.634  71.330  1.00  0.00    -0.305 A  
HETATM   21  C   UNL     1      -8.753   7.930  70.291  1.00  0.00    -0.138 A  
HETATM   22  C   UNL     1      -9.246   8.154  69.023  1.00  0.00    -0.148 A  
ENDBRANCH  13  14
ENDBRANCH   4  13
BRANCH   5  23
HETATM   23  N   UNL     1      -9.996  16.603  69.194  1.00  0.00    -0.271 N  
HETATM   24  C   UNL     1      -9.452  17.679  68.512  1.00  0.00    -0.298 C  
HETATM   25  O   UNL     1     -10.130  18.578  68.040  1.00  0.00    -0.335 OA 
HETATM   26  H   UNL     1      -9.355  15.993  69.699  1.00  0.00     0.000 HD 
BRANCH  24  27
HETATM   27  C   UNL     1      -7.898  17.641  68.387  1.00  0.00    -0.268 C  
BRANCH  27  28
HETATM   28  C   UNL     1      -7.184  16.366  68.533  1.00  0.00    -0.170 A  
HETATM   29  N   UNL     1      -7.189  15.672  69.740  1.00  0.00    -0.144 NA 
HETATM   30  N   UNL     1      -6.341  13.729  70.692  1.00  0.00    -0.416 NA 
HETATM   31  C   UNL     1      -6.493  15.713  67.527  1.00  0.00    -0.170 A  
HETATM   32  S   UNL     1      -5.832  14.244  68.108  1.00  0.00    -0.137 SA 
HETATM   33  H1  UNL     1      -6.739  13.918  71.611  1.00  0.00     0.000 HD 
HETATM   34  H2  UNL     1      -5.800  12.875  70.555  1.00  0.00     0.000 HD 
HETATM   35  C   UNL     1      -6.503  14.563  69.656  1.00  0.00    -0.148 A  
ENDBRANCH  27  28
BRANCH  27  36
HETATM   36  N   UNL     1      -7.129  18.658  68.111  1.00  0.00    -0.243 NA 
HETATM   37  H   UNL     1      -7.286  19.270  67.310  1.00  0.00     0.000 HD 
BRANCH  36  38
HETATM   38  O   UNL     1      -6.074  18.836  69.005  1.00  0.00    -0.213 OA 
HETATM   39  C   UNL     1      -6.467  19.841  69.939  1.00  0.00    -0.327 C  
ENDBRANCH  36  38
ENDBRANCH  27  36
ENDBRANCH  24  27
ENDBRANCH   5  23
TORSDOF 7
ENDMDL
MODEL       15
REMARK 921   NORMALIZED FREE ENERGY PREDICTED BY IDOCK:   -6.84 KCAL/MOL
REMARK 922        TOTAL FREE ENERGY PREDICTED BY IDOCK:  -10.84 KCAL/MOL
REMARK 923 INTER-LIGAND FREE ENERGY PREDICTED BY IDOCK:   -9.26 KCAL/MOL
REMARK 924 INTRA-LIGAND FREE ENERGY PREDICTED BY IDOCK:   -1.58 KCAL/MOL
REMARK 927      BINDING AFFINITY PREDICTED BY RF-SCORE:    0.00 PKD
ROOT
HETATM    1  C   UNL     1     -11.353  11.930  66.620  1.00  0.00    -0.337 C  
HETATM    2  S   UNL     1     -10.064  12.413  67.811  1.00  0.00    -0.208 SA 
HETATM    3  C   UNL     1     -10.650  14.086  68.013  1.00  0.00    -0.247 C  
HETATM    4  C   UNL     1     -10.888  14.842  66.735  1.00  0.00    -0.320 C  
HETATM    5  CA  UNL     1     -10.930  10.821  65.603  1.00  0.00     0.103 C  
HETATM    6  CA  UNL     1     -11.286  14.233  65.585  1.00  0.00    -0.317 C  
HETATM    7  C   UNL     1     -11.780  15.084  64.347  1.00  0.00    -0.312 C  
HETATM    8  O   UNL     1     -10.623  12.107  63.403  1.00  0.00    -0.436 OA 
HETATM    9  N   UNL     1     -11.382  12.860  65.512  1.00  0.00    -0.299 N  
HETATM   10  OXT UNL     1     -11.258  16.245  64.268  1.00  0.00    -0.770 OA 
HETATM   11  O   UNL     1     -12.757  14.600  63.717  1.00  0.00    -0.778 OA 
HETATM   12  C   UNL     1     -11.009  11.982  64.545  1.00  0.00    -0.318 C  
ENDROOT
BRANCH   4  13
HETATM   13  C   UNL     1     -10.870  16.342  66.963  1.00  0.00    -0.173 C  
BRANCH  13  14
HETATM   14  N   UNL     1      -9.570  17.085  66.843  1.00  0.00    -0.248 NA 
HETATM   15  C   UNL     1      -9.407  18.431  66.918  1.00  0.00    -0.290 A  
HETATM   16  C   UNL     1     -10.420  19.501  67.205  1.00  0.00    -0.590 C  
HETATM   17  C   UNL     1      -9.625  20.821  67.110  1.00  0.00    -0.465 C  
HETATM   18  C   UNL     1      -8.487  16.326  66.498  1.00  0.00    -0.303 A  
HETATM   19  C   UNL     1      -8.157  20.498  66.839  1.00  0.00    -0.279 C  
HETATM   20  C   UNL     1      -7.244  16.889  66.213  1.00  0.00    -0.210 A  
HETATM   21  C   UNL     1      -7.066  18.256  66.299  1.00  0.00    -0.293 A  
HETATM   22  C   UNL     1      -8.159  19.016  66.659  1.00  0.00    -0.285 A  
ENDBRANCH  13  14
ENDBRANCH   4  13
BRANCH   5  23
HETATM   23  N   UNL     1      -9.558  10.260  65.752  1.00  0.00    -0.207 N  
HETATM   24  C   UNL     1      -9.262   8.991  66.222  1.00  0.00    -0.206 C  
HETATM   25  O   UNL     1     -10.111   8.128  66.381  1.00  0.00    -0.241 OA 
HETATM   26  H   UNL     1      -8.775  10.858  65.488  1.00  0.00     0.000 HD 
BRANCH  24  27
HETATM   27  C   UNL     1      -7.754   8.759  66.542  1.00  0.00    -0.099 C  
BRANCH  27  28
HETATM   28  C   UNL     1      -6.977   9.817  67.203  1.00  0.00    -0.085 A  
HETATM   29  N   UNL     1      -6.912  11.102  66.672  1.00  0.00    -0.141 NA 
HETATM   30  N   UNL     1      -5.945  13.170  67.104  1.00  0.00    -0.446 NA 
HETATM   31  C   UNL     1      -6.287   9.679  68.396  1.00  0.00    -0.051 A  
HETATM   32  S   UNL     1      -5.540  11.156  68.831  1.00  0.00    -0.039 SA 
HETATM   33  H1  UNL     1      -6.323  13.604  66.263  1.00  0.00     0.000 HD 
HETATM   34  H2  UNL     1      -5.368  13.731  67.732  1.00  0.00     0.000 HD 
HETATM   35  C   UNL     1      -6.178  11.888  67.414  1.00  0.00    -0.125 A  
ENDBRANCH  27  28
BRANCH  27  36
HETATM   36  N   UNL     1      -7.085   7.663  66.316  1.00  0.00    -0.069 NA 
HETATM   37  H   UNL     1      -6.392   7.580  65.572  1.00  0.00     0.000 HD 
BRANCH  36  38
HETATM   38  O   UNL     1      -7.400   6.613  67.178  1.00  0.00    -0.079 OA 
HETATM   39  C   UNL     1      -7.886   5.534  66.382  1.00  0.00    -0.100 C  
ENDBRANCH  36  38
ENDBRANCH  27  36
ENDBRANCH  24  27
ENDBRANCH   5  23
TORSDOF 7
ENDMDL
MODEL       16
REMARK 921   NORMALIZED FREE ENERGY PREDICTED BY IDOCK:   -6.82 KCAL/MOL
REMARK 922        TOTAL FREE ENERGY PREDICTED BY IDOCK:  -10.82 KCAL/MOL
REMARK 923 INTER-LIGAND FREE ENERGY PREDICTED BY IDOCK:   -9.58 KCAL/MOL
REMARK 924 INTRA-LIGAND FREE ENERGY PREDICTED BY IDOCK:   -1.24 KCAL/MOL
REMARK 927      BINDING AFFINITY PREDICTED BY RF-SCORE:    0.00 PKD
ROOT
HETATM    1  C   UNL     1      -9.270  10.104  68.770  1.00  0.00    -0.164 C  
HETATM    2  S   UNL     1     -10.616  10.282  69.982  1.00  0.00    -0.232 SA 
HETATM    3  C   UNL     1     -10.712   8.546  70.375  1.00  0.00    -0.228 C  
HETATM    4  C   UNL     1     -10.813   7.623  69.191  1.00  0.00    -0.082 C  
HETATM    5  CA  UNL     1      -9.260  11.173  67.631  1.00  0.00    -0.151 C  
HETATM    6  CA  UNL     1     -10.240   7.906  67.990  1.00  0.00    -0.208 C  
HETATM    7  C   UNL     1     -10.140   6.803  66.861  1.00  0.00    -0.202 C  
HETATM    8  O   UNL     1     -10.090   9.876  65.578  1.00  0.00    -0.303 OA 
HETATM    9  N   UNL     1      -9.627   9.120  67.770  1.00  0.00    -0.143 N  
HETATM   10  OXT UNL     1     -11.069   5.930  66.899  1.00  0.00    -0.263 OA 
HETATM   11  O   UNL     1      -9.068   6.804  66.201  1.00  0.00    -0.154 OA 
HETATM   12  C   UNL     1      -9.658   9.965  66.707  1.00  0.00    -0.183 C  
ENDROOT
BRANCH   4  13
HETATM   13  C   UNL     1     -11.400   6.279  69.580  1.00  0.00    -0.422 C  
BRANCH  13  14
HETATM   14  N   UNL     1     -10.801   5.523  70.731  1.00  0.00    -0.224 NA 
HETATM   15  C   UNL     1      -9.930   4.486  70.642  1.00  0.00    -0.203 A  
HETATM   16  C   UNL     1      -9.290   3.878  69.427  1.00  0.00    -0.246 C  
HETATM   17  C   UNL     1      -8.439   2.714  69.980  1.00  0.00    -0.091 C  
HETATM   18  C   UNL     1     -11.292   5.844  71.966  1.00  0.00    -0.267 A  
HETATM   19  C   UNL     1      -8.542   2.705  71.504  1.00  0.00    -0.098 C  
HETATM   20  C   UNL     1     -10.938   5.137  73.114  1.00  0.00    -0.368 A  
HETATM   21  C   UNL     1     -10.044   4.088  73.034  1.00  0.00    -0.212 A  
HETATM   22  C   UNL     1      -9.542   3.776  71.787  1.00  0.00    -0.226 A  
ENDBRANCH  13  14
ENDBRANCH   4  13
BRANCH   5  23
HETATM   23  N   UNL     1     -10.307  12.230  67.692  1.00  0.00    -0.202 N  
HETATM   24  C   UNL     1     -10.140  13.487  68.250  1.00  0.00    -0.247 C  
HETATM   25  O   UNL     1      -9.049  13.928  68.578  1.00  0.00    -0.189 OA 
HETATM   26  H   UNL     1     -11.220  12.011  67.293  1.00  0.00     0.000 HD 
BRANCH  24  27
HETATM   27  C   UNL     1     -11.464  14.290  68.435  1.00  0.00    -0.301 C  
BRANCH  27  28
HETATM   28  C   UNL     1     -11.877  14.719  69.778  1.00  0.00    -0.316 A  
HETATM   29  N   UNL     1     -12.751  13.951  70.543  1.00  0.00    -0.288 NA 
HETATM   30  N   UNL     1     -13.808  13.970  72.612  1.00  0.00    -0.691 NA 
HETATM   31  C   UNL     1     -11.433  15.858  70.428  1.00  0.00    -0.378 A  
HETATM   32  S   UNL     1     -12.134  15.972  71.985  1.00  0.00    -0.522 SA 
HETATM   33  H1  UNL     1     -14.311  13.099  72.445  1.00  0.00     0.000 HD 
HETATM   34  H2  UNL     1     -13.938  14.451  73.503  1.00  0.00     0.000 HD 
HETATM   35  C   UNL     1     -12.982  14.505  71.703  1.00  0.00    -0.337 A  
ENDBRANCH  27  28
BRANCH  27  36
HETATM   36  N   UNL     1     -12.262  14.678  67.479  1.00  0.00    -0.571 NA 
HETATM   37  H   UNL     1     -13.207  15.021  67.651  1.00  0.00     0.000 HD 
BRANCH  36  38
HETATM   38  O   UNL     1     -11.711  14.581  66.201  1.00  0.00    -0.366 OA 
HETATM   39  C   UNL     1     -12.619  13.828  65.398  1.00  0.00    -0.497 C  
ENDBRANCH  36  38
ENDBRANCH  27  36
ENDBRANCH  24  27
ENDBRANCH   5  23
TORSDOF 7
ENDMDL
MODEL       17
REMARK 921   NORMALIZED FREE ENERGY PREDICTED BY IDOCK:   -6.81 KCAL/MOL
REMARK 922        TOTAL FREE ENERGY PREDICTED BY IDOCK:  -10.81 KCAL/MOL
REMARK 923 INTER-LIGAND FREE ENERGY PREDICTED BY IDOCK:   -9.81 KCAL/MOL
REMARK 924 INTRA-LIGAND FREE ENERGY PREDICTED BY IDOCK:   -1.00 KCAL/MOL
REMARK 927      BINDING AFFINITY PREDICTED BY RF-SCORE:    0.00 PKD
ROOT
HETATM    1  C   UNL     1     -12.229  13.183  67.069  1.00  0.00    -0.210 C  
HETATM    2  S   UNL     1     -11.538  13.230  68.753  1.00  0.00    -0.333 SA 
HETATM    3  C   UNL     1     -11.600  15.006  68.903  1.00  0.00    -0.326 C  
HETATM    4  C   UNL     1     -10.988  15.770  67.760  1.00  0.00    -0.314 C  
HETATM    5  CA  UNL     1     -11.761  11.974  66.196  1.00  0.00    -0.241 C  
HETATM    6  CA  UNL     1     -10.991  15.305  66.481  1.00  0.00    -0.295 C  
HETATM    7  C   UNL     1     -10.582  16.244  65.277  1.00  0.00    -0.336 C  
HETATM    8  O   UNL     1     -10.112  13.031  64.537  1.00  0.00    -0.317 OA 
HETATM    9  N   UNL     1     -11.464  14.043  66.192  1.00  0.00    -0.335 N  
HETATM   10  OXT UNL     1      -9.749  17.160  65.587  1.00  0.00    -0.545 OA 
HETATM   11  O   UNL     1     -11.265  16.104  64.229  1.00  0.00    -0.660 OA 
HETATM   12  C   UNL     1     -10.989  13.070  65.373  1.00  0.00    -0.275 C  
ENDROOT
BRANCH   4  13
HETATM   13  C   UNL     1     -10.609  17.180  68.172  1.00  0.00    -0.380 C  
BRANCH  13  14
HETATM   14  N   UNL     1      -9.186  17.477  68.550  1.00  0.00    -0.274 NA 
HETATM   15  C   UNL     1      -8.517  18.632  68.307  1.00  0.00    -0.324 A  
HETATM   16  C   UNL     1      -9.009  19.910  67.690  1.00  0.00    -0.416 C  
HETATM   17  C   UNL     1      -7.767  20.826  67.654  1.00  0.00    -0.220 C  
HETATM   18  C   UNL     1      -8.484  16.425  69.068  1.00  0.00    -0.225 A  
HETATM   19  C   UNL     1      -6.595  20.097  68.309  1.00  0.00    -0.329 C  
HETATM   20  C   UNL     1      -7.118  16.503  69.337  1.00  0.00    -0.176 A  
HETATM   21  C   UNL     1      -6.432  17.679  69.105  1.00  0.00    -0.237 A  
HETATM   22  C   UNL     1      -7.148  18.741  68.592  1.00  0.00    -0.321 A  
ENDBRANCH  13  14
ENDBRANCH   4  13
BRANCH   5  23
HETATM   23  N   UNL     1     -10.854  10.987  66.847  1.00  0.00    -0.276 N  
HETATM   24  C   UNL     1     -10.161   9.986  66.187  1.00  0.00    -0.213 C  
HETATM   25  O   UNL     1     -10.073   9.931  64.970  1.00  0.00    -0.286 OA 
HETATM   26  H   UNL     1     -10.735  11.054  67.857  1.00  0.00     0.000 HD 
BRANCH  24  27
HETATM   27  C   UNL     1      -9.512   8.925  67.128  1.00  0.00    -0.157 C  
BRANCH  27  28
HETATM   28  C   UNL     1      -9.308   7.551  66.650  1.00  0.00    -0.174 A  
HETATM   29  N   UNL     1     -10.381   6.680  66.484  1.00  0.00    -0.110 NA 
HETATM   30  N   UNL     1     -10.828   4.496  65.825  1.00  0.00    -0.693 NA 
HETATM   31  C   UNL     1      -8.091   7.001  66.284  1.00  0.00    -0.115 A  
HETATM   32  S   UNL     1      -8.297   5.386  65.758  1.00  0.00    -0.132 SA 
HETATM   33  H1  UNL     1     -11.830   4.573  65.996  1.00  0.00     0.000 HD 
HETATM   34  H2  UNL     1     -10.453   3.614  65.475  1.00  0.00     0.000 HD 
HETATM   35  C   UNL     1      -9.985   5.514  66.046  1.00  0.00    -0.035 A  
ENDBRANCH  27  28
BRANCH  27  36
HETATM   36  N   UNL     1      -9.071   9.145  68.336  1.00  0.00    -0.133 NA 
HETATM   37  H   UNL     1      -8.330   9.815  68.542  1.00  0.00     0.000 HD 
BRANCH  36  38
HETATM   38  O   UNL     1      -9.699   8.384  69.321  1.00  0.00    -0.172 OA 
HETATM   39  C   UNL     1     -10.634   9.231  69.987  1.00  0.00    -0.228 C  
ENDBRANCH  36  38
ENDBRANCH  27  36
ENDBRANCH  24  27
ENDBRANCH   5  23
TORSDOF 7
ENDMDL
MODEL       18
REMARK 921   NORMALIZED FREE ENERGY PREDICTED BY IDOCK:   -6.75 KCAL/MOL
REMARK 922        TOTAL FREE ENERGY PREDICTED BY IDOCK:  -10.72 KCAL/MOL
REMARK 923 INTER-LIGAND FREE ENERGY PREDICTED BY IDOCK:   -9.14 KCAL/MOL
REMARK 924 INTRA-LIGAND FREE ENERGY PREDICTED BY IDOCK:   -1.58 KCAL/MOL
REMARK 927      BINDING AFFINITY PREDICTED BY RF-SCORE:    0.00 PKD
ROOT
HETATM    1  C   UNL     1     -12.130  13.343  68.193  1.00  0.00    -0.232 C  
HETATM    2  S   UNL     1     -10.965  14.170  69.322  1.00  0.00    -0.180 SA 
HETATM    3  C   UNL     1     -11.256  15.809  68.683  1.00  0.00    -0.351 C  
HETATM    4  C   UNL     1     -11.158  15.943  67.187  1.00  0.00    -0.148 C  
HETATM    5  CA  UNL     1     -11.772  11.863  67.843  1.00  0.00    -0.298 C  
HETATM    6  CA  UNL     1     -11.487  14.932  66.338  1.00  0.00    -0.280 C  
HETATM    7  C   UNL     1     -11.626  15.193  64.784  1.00  0.00    -0.364 C  
HETATM    8  O   UNL     1     -10.910  12.005  65.430  1.00  0.00    -0.274 OA 
HETATM    9  N   UNL     1     -11.822  13.686  66.821  1.00  0.00    -0.389 N  
HETATM   10  OXT UNL     1     -10.893  16.140  64.345  1.00  0.00    -0.569 OA 
HETATM   11  O   UNL     1     -12.570  14.583  64.218  1.00  0.00    -0.681 OA 
HETATM   12  C   UNL     1     -11.478  12.438  66.410  1.00  0.00    -0.373 C  
ENDROOT
BRANCH   4  13
HETATM   13  C   UNL     1     -10.897  17.378  66.772  1.00  0.00     0.024 C  
BRANCH  13  14
HETATM   14  N   UNL     1      -9.727  18.111  67.363  1.00  0.00    -0.289 NA 
HETATM   15  C   UNL     1      -8.419  17.773  67.230  1.00  0.00    -0.231 A  
HETATM   16  C   UNL     1      -7.796  16.667  66.427  1.00  0.00    -0.347 C  
HETATM   17  C   UNL     1      -6.284  16.782  66.721  1.00  0.00    -0.187 C  
HETATM   18  C   UNL     1     -10.042  19.133  68.215  1.00  0.00    -0.416 A  
HETATM   19  C   UNL     1      -6.045  17.987  67.628  1.00  0.00    -0.162 C  
HETATM   20  C   UNL     1      -9.073  19.816  68.948  1.00  0.00    -0.198 A  
HETATM   21  C   UNL     1      -7.739  19.486  68.809  1.00  0.00    -0.375 A  
HETATM   22  C   UNL     1      -7.425  18.463  67.939  1.00  0.00    -0.245 A  
ENDBRANCH  13  14
ENDBRANCH   4  13
BRANCH   5  23
HETATM   23  N   UNL     1     -10.565  11.290  68.501  1.00  0.00    -0.190 N  
HETATM   24  C   UNL     1     -10.152   9.971  68.399  1.00  0.00    -0.165 C  
HETATM   25  O   UNL     1     -10.633   9.186  67.598  1.00  0.00    -0.258 OA 
HETATM   26  H   UNL     1      -9.999  11.917  69.071  1.00  0.00     0.000 HD 
BRANCH  24  27
HETATM   27  C   UNL     1      -9.027   9.571  69.403  1.00  0.00    -0.172 C  
BRANCH  27  28
HETATM   28  C   UNL     1      -9.338   8.684  70.532  1.00  0.00    -0.175 A  
HETATM   29  N   UNL     1      -8.863   8.954  71.812  1.00  0.00    -0.358 NA 
HETATM   30  N   UNL     1      -8.914   8.075  73.963  1.00  0.00    -0.370 NA 
HETATM   31  C   UNL     1     -10.138   7.555  70.469  1.00  0.00    -0.188 A  
HETATM   32  S   UNL     1     -10.267   6.824  72.012  1.00  0.00    -0.191 SA 
HETATM   33  H1  UNL     1      -8.315   8.802  74.353  1.00  0.00     0.000 HD 
HETATM   34  H2  UNL     1      -9.264   7.341  74.580  1.00  0.00     0.000 HD 
HETATM   35  C   UNL     1      -9.258   8.049  72.669  1.00  0.00    -0.239 A  
ENDBRANCH  27  28
BRANCH  27  36
HETATM   36  N   UNL     1      -7.773   9.918  69.322  1.00  0.00    -0.098 NA 
HETATM   37  H   UNL     1      -7.010   9.242  69.318  1.00  0.00     0.000 HD 
BRANCH  36  38
HETATM   38  O   UNL     1      -7.566  11.295  69.244  1.00  0.00    -0.107 OA 
HETATM   39  C   UNL     1      -6.646  11.531  68.179  1.00  0.00    -0.057 C  
ENDBRANCH  36  38
ENDBRANCH  27  36
ENDBRANCH  24  27
ENDBRANCH   5  23
TORSDOF 7
ENDMDL
MODEL       19
REMARK 921   NORMALIZED FREE ENERGY PREDICTED BY IDOCK:   -6.74 KCAL/MOL
REMARK 922        TOTAL FREE ENERGY PREDICTED BY IDOCK:  -10.71 KCAL/MOL
REMARK 923 INTER-LIGAND FREE ENERGY PREDICTED BY IDOCK:   -9.13 KCAL/MOL
REMARK 924 INTRA-LIGAND FREE ENERGY PREDICTED BY IDOCK:   -1.57 KCAL/MOL
REMARK 927      BINDING AFFINITY PREDICTED BY RF-SCORE:    0.00 PKD
ROOT
HETATM    1  C   UNL     1      -9.753  12.615  67.654  1.00  0.00    -0.197 C  
HETATM    2  S   UNL     1     -10.773  13.519  68.862  1.00  0.00    -0.153 SA 
HETATM    3  C   UNL     1      -9.914  15.070  68.670  1.00  0.00    -0.220 C  
HETATM    4  C   UNL     1      -8.415  14.994  68.779  1.00  0.00    -0.180 C  
HETATM    5  CA  UNL     1      -9.611  11.083  67.925  1.00  0.00    -0.172 C  
HETATM    6  CA  UNL     1      -7.707  13.897  68.394  1.00  0.00    -0.139 C  
HETATM    7  C   UNL     1      -6.131  13.953  68.275  1.00  0.00    -0.112 C  
HETATM    8  O   UNL     1      -7.210  10.846  68.801  1.00  0.00    -0.077 OA 
HETATM    9  N   UNL     1      -8.351  12.750  67.986  1.00  0.00    -0.163 N  
HETATM   10  OXT UNL     1      -5.575  14.788  69.063  1.00  0.00    -0.091 OA 
HETATM   11  O   UNL     1      -5.643  13.327  67.298  1.00  0.00    -0.356 OA 
HETATM   12  C   UNL     1      -8.116  11.440  68.257  1.00  0.00    -0.143 C  
ENDROOT
BRANCH   4  13
HETATM   13  C   UNL     1      -7.812  16.342  69.125  1.00  0.00    -0.231 C  
BRANCH  13  14
HETATM   14  N   UNL     1      -7.788  17.423  68.083  1.00  0.00    -0.225 NA 
HETATM   15  C   UNL     1      -8.726  18.389  67.908  1.00  0.00    -0.283 A  
HETATM   16  C   UNL     1      -9.957  18.683  68.718  1.00  0.00    -0.427 C  
HETATM   17  C   UNL     1     -10.624  19.869  67.990  1.00  0.00    -0.406 C  
HETATM   18  C   UNL     1      -6.787  17.327  67.157  1.00  0.00    -0.177 A  
HETATM   19  C   UNL     1      -9.742  20.290  66.815  1.00  0.00    -0.571 C  
HETATM   20  C   UNL     1      -6.713  18.171  66.050  1.00  0.00    -0.312 A  
HETATM   21  C   UNL     1      -7.656  19.164  65.872  1.00  0.00    -0.239 A  
HETATM   22  C   UNL     1      -8.658  19.265  66.815  1.00  0.00    -0.326 A  
ENDBRANCH  13  14
ENDBRANCH   4  13
BRANCH   5  23
HETATM   23  N   UNL     1     -10.353  10.536  69.095  1.00  0.00    -0.209 N  
HETATM   24  C   UNL     1     -10.481   9.191  69.400  1.00  0.00    -0.219 C  
HETATM   25  O   UNL     1      -9.831   8.320  68.843  1.00  0.00    -0.171 OA 
HETATM   26  H   UNL     1     -10.802  11.204  69.720  1.00  0.00     0.000 HD 
BRANCH  24  27
HETATM   27  C   UNL     1     -11.534   8.879  70.507  1.00  0.00    -0.200 C  
BRANCH  27  28
HETATM   28  C   UNL     1     -11.185   7.979  71.615  1.00  0.00    -0.255 A  
HETATM   29  N   UNL     1     -11.798   6.737  71.754  1.00  0.00    -0.313 NA 
HETATM   30  N   UNL     1     -11.789   4.884  73.156  1.00  0.00    -0.406 NA 
HETATM   31  C   UNL     1     -10.222   8.228  72.577  1.00  0.00    -0.316 A  
HETATM   32  S   UNL     1     -10.109   6.913  73.667  1.00  0.00    -0.352 SA 
HETATM   33  H1  UNL     1     -12.521   4.398  72.638  1.00  0.00     0.000 HD 
HETATM   34  H2  UNL     1     -11.384   4.434  73.977  1.00  0.00     0.000 HD 
HETATM   35  C   UNL     1     -11.342   6.094  72.796  1.00  0.00    -0.222 A  
ENDBRANCH  27  28
BRANCH  27  36
HETATM   36  N   UNL     1     -12.732   9.387  70.584  1.00  0.00    -0.509 NA 
HETATM   37  H   UNL     1     -13.567   8.818  70.727  1.00  0.00     0.000 HD 
BRANCH  36  38
HETATM   38  O   UNL     1     -12.775  10.775  70.456  1.00  0.00    -0.336 OA 
HETATM   39  C   UNL     1     -13.115  11.315  71.732  1.00  0.00    -0.422 C  
ENDBRANCH  36  38
ENDBRANCH  27  36
ENDBRANCH  24  27
ENDBRANCH   5  23
TORSDOF 7
ENDMDL
MODEL       20
REMARK 921   NORMALIZED FREE ENERGY PREDICTED BY IDOCK:   -6.71 KCAL/MOL
REMARK 922        TOTAL FREE ENERGY PREDICTED BY IDOCK:  -10.67 KCAL/MOL
REMARK 923 INTER-LIGAND FREE ENERGY PREDICTED BY IDOCK:   -9.43 KCAL/MOL
REMARK 924 INTRA-LIGAND FREE ENERGY PREDICTED BY IDOCK:   -1.24 KCAL/MOL
REMARK 927      BINDING AFFINITY PREDICTED BY RF-SCORE:    0.00 PKD
ROOT
HETATM    1  C   UNL     1     -11.749  12.351  67.313  1.00  0.00    -0.349 C  
HETATM    2  S   UNL     1     -10.061  12.014  66.720  1.00  0.00    -0.205 SA 
HETATM    3  C   UNL     1     -10.046  10.307  67.236  1.00  0.00    -0.203 C  
HETATM    4  C   UNL     1     -10.462  10.062  68.661  1.00  0.00    -0.228 C  
HETATM    5  CA  UNL     1     -12.016  13.830  67.743  1.00  0.00    -0.356 C  
HETATM    6  CA  UNL     1     -11.369  10.845  69.305  1.00  0.00    -0.277 C  
HETATM    7  C   UNL     1     -11.975  10.404  70.698  1.00  0.00    -0.351 C  
HETATM    8  O   UNL     1     -12.088  13.710  70.305  1.00  0.00    -0.327 OA 
HETATM    9  N   UNL     1     -11.871  11.981  68.707  1.00  0.00    -0.311 N  
HETATM   10  OXT UNL     1     -11.198   9.674  71.398  1.00  0.00    -0.365 OA 
HETATM   11  O   UNL     1     -13.198  10.654  70.856  1.00  0.00    -0.317 OA 
HETATM   12  C   UNL     1     -12.100  13.228  69.193  1.00  0.00    -0.238 C  
ENDROOT
BRANCH   4  13
HETATM   13  C   UNL     1      -9.942   8.731  69.172  1.00  0.00    -0.191 C  
BRANCH  13  14
HETATM   14  N   UNL     1      -9.065   7.897  68.283  1.00  0.00    -0.135 NA 
HETATM   15  C   UNL     1      -9.467   6.854  67.512  1.00  0.00    -0.128 A  
HETATM   16  C   UNL     1     -10.849   6.313  67.281  1.00  0.00    -0.457 C  
HETATM   17  C   UNL     1     -10.639   5.105  66.344  1.00  0.00    -0.336 C  
HETATM   18  C   UNL     1      -7.725   8.148  68.375  1.00  0.00    -0.113 A  
HETATM   19  C   UNL     1      -9.156   5.003  65.990  1.00  0.00    -0.146 C  
HETATM   20  C   UNL     1      -6.775   7.366  67.720  1.00  0.00    -0.062 A  
HETATM   21  C   UNL     1      -7.175   6.311  66.924  1.00  0.00    -0.074 A  
HETATM   22  C   UNL     1      -8.530   6.069  66.825  1.00  0.00    -0.110 A  
ENDBRANCH  13  14
ENDBRANCH   4  13
BRANCH   5  23
HETATM   23  N   UNL     1     -10.891  14.791  67.575  1.00  0.00    -0.280 N  
HETATM   24  C   UNL     1     -10.621  15.510  66.421  1.00  0.00    -0.311 C  
HETATM   25  O   UNL     1     -11.399  15.572  65.482  1.00  0.00    -0.230 OA 
HETATM   26  H   UNL     1     -10.270  14.931  68.372  1.00  0.00     0.000 HD 
BRANCH  24  27
HETATM   27  C   UNL     1      -9.235  16.224  66.417  1.00  0.00    -0.299 C  
BRANCH  27  28
HETATM   28  C   UNL     1      -9.168  17.689  66.499  1.00  0.00    -0.269 A  
HETATM   29  N   UNL     1      -8.148  18.400  65.873  1.00  0.00    -0.511 NA 
HETATM   30  N   UNL     1      -7.407  20.583  65.577  1.00  0.00    -0.534 NA 
HETATM   31  C   UNL     1     -10.091  18.500  67.138  1.00  0.00    -0.353 A  
HETATM   32  S   UNL     1      -9.658  20.148  66.972  1.00  0.00    -0.443 SA 
HETATM   33  H1  UNL     1      -6.587  20.308  65.037  1.00  0.00     0.000 HD 
HETATM   34  H2  UNL     1      -7.572  21.574  65.755  1.00  0.00     0.000 HD 
HETATM   35  C   UNL     1      -8.276  19.686  66.062  1.00  0.00    -0.295 A  
ENDBRANCH  27  28
BRANCH  27  36
HETATM   36  N   UNL     1      -8.073  15.634  66.391  1.00  0.00    -0.320 NA 
HETATM   37  H   UNL     1      -7.381  15.805  65.662  1.00  0.00     0.000 HD 
BRANCH  36  38
HETATM   38  O   UNL     1      -7.857  14.748  67.447  1.00  0.00    -0.173 OA 
HETATM   39  C   UNL     1      -6.699  15.193  68.152  1.00  0.00    -0.132 C  
ENDBRANCH  36  38
ENDBRANCH  27  36
ENDBRANCH  24  27
ENDBRANCH   5  23
TORSDOF 7
ENDMDL
MODEL       21
REMARK 921   NORMALIZED FREE ENERGY PREDICTED BY IDOCK:   -6.70 KCAL/MOL
REMARK 922        TOTAL FREE ENERGY PREDICTED BY IDOCK:  -10.65 KCAL/MOL
REMARK 923 INTER-LIGAND FREE ENERGY PREDICTED BY IDOCK:   -9.38 KCAL/MOL
REMARK 924 INTRA-LIGAND FREE ENERGY PREDICTED BY IDOCK:   -1.26 KCAL/MOL
REMARK 927      BINDING AFFINITY PREDICTED BY RF-SCORE:    0.00 PKD
ROOT
HETATM    1  C   UNL     1     -11.357  12.715  66.868  1.00  0.00    -0.320 C  
HETATM    2  S   UNL     1      -9.564  12.692  66.554  1.00  0.00    -0.246 SA 
HETATM    3  C   UNL     1      -9.329  11.003  67.078  1.00  0.00    -0.172 C  
HETATM    4  C   UNL     1      -9.915  10.659  68.420  1.00  0.00    -0.176 C  
HETATM    5  CA  UNL     1     -11.945  14.114  67.240  1.00  0.00    -0.414 C  
HETATM    6  CA  UNL     1     -11.037  11.256  68.906  1.00  0.00    -0.238 C  
HETATM    7  C   UNL     1     -11.768  10.686  70.187  1.00  0.00    -0.332 C  
HETATM    8  O   UNL     1     -12.400  13.928  69.759  1.00  0.00    -0.329 OA 
HETATM    9  N   UNL     1     -11.630  12.299  68.228  1.00  0.00    -0.310 N  
HETATM   10  OXT UNL     1     -10.995  10.088  71.007  1.00  0.00    -0.322 OA 
HETATM   11  O   UNL     1     -13.026  10.714  70.146  1.00  0.00    -0.225 OA 
HETATM   12  C   UNL     1     -12.150  13.475  68.662  1.00  0.00    -0.268 C  
ENDROOT
BRANCH   4  13
HETATM   13  C   UNL     1      -9.256   9.429  69.016  1.00  0.00    -0.145 C  
BRANCH  13  14
HETATM   14  N   UNL     1      -9.828   8.073  68.716  1.00  0.00    -0.167 NA 
HETATM   15  C   UNL     1      -9.695   6.960  69.482  1.00  0.00    -0.158 A  
HETATM   16  C   UNL     1      -9.035   6.795  70.821  1.00  0.00    -0.151 C  
HETATM   17  C   UNL     1      -9.182   5.292  71.141  1.00  0.00    -0.179 C  
HETATM   18  C   UNL     1     -10.422   7.943  67.492  1.00  0.00    -0.262 A  
HETATM   19  C   UNL     1      -9.979   4.622  70.023  1.00  0.00    -0.302 C  
HETATM   20  C   UNL     1     -10.875   6.715  67.012  1.00  0.00    -0.467 A  
HETATM   21  C   UNL     1     -10.755   5.580  67.790  1.00  0.00    -0.186 A  
HETATM   22  C   UNL     1     -10.166   5.719  69.029  1.00  0.00    -0.282 A  
ENDBRANCH  13  14
ENDBRANCH   4  13
BRANCH   5  23
HETATM   23  N   UNL     1     -10.996  15.262  67.247  1.00  0.00    -0.323 N  
HETATM   24  C   UNL     1     -10.539  15.926  66.120  1.00  0.00    -0.305 C  
HETATM   25  O   UNL     1     -11.022  15.760  65.011  1.00  0.00    -0.410 OA 
HETATM   26  H   UNL     1     -10.655  15.583  68.153  1.00  0.00     0.000 HD 
BRANCH  24  27
HETATM   27  C   UNL     1      -9.347  16.896  66.384  1.00  0.00    -0.276 C  
BRANCH  27  28
HETATM   28  C   UNL     1      -8.179  16.428  67.142  1.00  0.00    -0.180 A  
HETATM   29  N   UNL     1      -8.326  15.779  68.364  1.00  0.00    -0.159 NA 
HETATM   30  N   UNL     1      -7.041  14.821  70.048  1.00  0.00    -0.346 NA 
HETATM   31  C   UNL     1      -6.861  16.533  66.730  1.00  0.00    -0.190 A  
HETATM   32  S   UNL     1      -5.812  15.839  67.891  1.00  0.00    -0.148 SA 
HETATM   33  H1  UNL     1      -7.847  14.585  70.628  1.00  0.00     0.000 HD 
HETATM   34  H2  UNL     1      -6.108  14.578  70.379  1.00  0.00     0.000 HD 
HETATM   35  C   UNL     1      -7.168  15.441  68.867  1.00  0.00    -0.139 A  
ENDBRANCH  27  28
BRANCH  27  36
HETATM   36  N   UNL     1      -9.250  18.122  65.950  1.00  0.00    -0.486 NA 
HETATM   37  H   UNL     1      -9.188  18.355  64.959  1.00  0.00     0.000 HD 
BRANCH  36  38
HETATM   38  O   UNL     1      -9.239  19.086  66.957  1.00  0.00    -0.287 OA 
HETATM   39  C   UNL     1     -10.595  19.347  67.318  1.00  0.00    -0.486 C  
ENDBRANCH  36  38
ENDBRANCH  27  36
ENDBRANCH  24  27
ENDBRANCH   5  23
TORSDOF 7
ENDMDL
MODEL       22
REMARK 921   NORMALIZED FREE ENERGY PREDICTED BY IDOCK:   -6.67 KCAL/MOL
REMARK 922        TOTAL FREE ENERGY PREDICTED BY IDOCK:  -10.61 KCAL/MOL
REMARK 923 INTER-LIGAND FREE ENERGY PREDICTED BY IDOCK:   -8.72 KCAL/MOL
REMARK 924 INTRA-LIGAND FREE ENERGY PREDICTED BY IDOCK:   -1.89 KCAL/MOL
REMARK 927      BINDING AFFINITY PREDICTED BY RF-SCORE:    0.00 PKD
ROOT
HETATM    1  C   UNL     1      -8.760   7.357  67.887  1.00  0.00    -0.123 C  
HETATM    2  S   UNL     1     -10.423   8.056  67.642  1.00  0.00    -0.209 SA 
HETATM    3  C   UNL     1     -10.029   8.879  66.110  1.00  0.00    -0.220 C  
HETATM    4  C   UNL     1      -8.793   9.736  66.140  1.00  0.00    -0.162 C  
HETATM    5  CA  UNL     1      -8.350   7.134  69.378  1.00  0.00    -0.133 C  
HETATM    6  CA  UNL     1      -7.720   9.448  66.926  1.00  0.00    -0.091 C  
HETATM    7  C   UNL     1      -6.348  10.212  66.734  1.00  0.00    -0.070 C  
HETATM    8  O   UNL     1      -6.661   9.014  69.826  1.00  0.00    -0.047 OA 
HETATM    9  N   UNL     1      -7.765   8.406  67.826  1.00  0.00    -0.102 N  
HETATM   10  OXT UNL     1      -6.469  11.399  66.283  1.00  0.00    -0.088 OA 
HETATM   11  O   UNL     1      -5.316   9.502  66.857  1.00  0.00    -0.044 OA 
HETATM   12  C   UNL     1      -7.337   8.306  69.110  1.00  0.00    -0.081 C  
ENDROOT
BRANCH   4  13
HETATM   13  C   UNL     1      -8.808  10.774  65.034  1.00  0.00    -0.177 C  
BRANCH  13  14
HETATM   14  N   UNL     1     -10.002  11.674  64.890  1.00  0.00    -0.249 NA 
HETATM   15  C   UNL     1     -10.502  12.500  65.843  1.00  0.00    -0.265 A  
HETATM   16  C   UNL     1      -9.983  12.793  67.222  1.00  0.00    -0.219 C  
HETATM   17  C   UNL     1     -11.012  13.776  67.821  1.00  0.00    -0.272 C  
HETATM   18  C   UNL     1     -10.707  11.534  63.727  1.00  0.00    -0.408 A  
HETATM   19  C   UNL     1     -12.069  14.092  66.765  1.00  0.00    -0.474 C  
HETATM   20  C   UNL     1     -11.913  12.196  63.505  1.00  0.00    -0.619 A  
HETATM   21  C   UNL     1     -12.424  13.048  64.465  1.00  0.00    -0.427 A  
HETATM   22  C   UNL     1     -11.702  13.195  65.631  1.00  0.00    -0.402 A  
ENDBRANCH  13  14
ENDBRANCH   4  13
BRANCH   5  23
HETATM   23  N   UNL     1      -9.369   7.469  70.413  1.00  0.00    -0.161 N  
HETATM   24  C   UNL     1      -9.296   7.109  71.748  1.00  0.00    -0.147 C  
HETATM   25  O   UNL     1      -8.288   6.643  72.256  1.00  0.00    -0.108 OA 
HETATM   26  H   UNL     1     -10.183   8.004  70.113  1.00  0.00     0.000 HD 
BRANCH  24  27
HETATM   27  C   UNL     1     -10.615   7.338  72.548  1.00  0.00    -0.247 C  
BRANCH  27  28
HETATM   28  C   UNL     1     -11.538   8.408  72.145  1.00  0.00    -0.374 A  
HETATM   29  N   UNL     1     -11.076   9.551  71.498  1.00  0.00    -0.370 NA 
HETATM   30  N   UNL     1     -11.867  11.552  70.618  1.00  0.00    -0.455 NA 
HETATM   31  C   UNL     1     -12.912   8.387  72.313  1.00  0.00    -0.301 A  
HETATM   32  S   UNL     1     -13.615   9.814  71.680  1.00  0.00    -0.239 SA 
HETATM   33  H1  UNL     1     -10.941  11.882  70.347  1.00  0.00     0.000 HD 
HETATM   34  H2  UNL     1     -12.677  12.141  70.425  1.00  0.00     0.000 HD 
HETATM   35  C   UNL     1     -12.056  10.371  71.222  1.00  0.00    -0.362 A  
ENDBRANCH  27  28
BRANCH  27  36
HETATM   36  N   UNL     1     -11.029   6.624  73.558  1.00  0.00    -0.495 NA 
HETATM   37  H   UNL     1     -11.099   6.993  74.506  1.00  0.00     0.000 HD 
BRANCH  36  38
HETATM   38  O   UNL     1     -11.368   5.312  73.229  1.00  0.00    -0.308 OA 
HETATM   39  C   UNL     1     -10.625   4.448  74.088  1.00  0.00    -0.270 C  
ENDBRANCH  36  38
ENDBRANCH  27  36
ENDBRANCH  24  27
ENDBRANCH   5  23
TORSDOF 7
ENDMDL
MODEL       23
REMARK 921   NORMALIZED FREE ENERGY PREDICTED BY IDOCK:   -6.66 KCAL/MOL
REMARK 922        TOTAL FREE ENERGY PREDICTED BY IDOCK:  -10.60 KCAL/MOL
REMARK 923 INTER-LIGAND FREE ENERGY PREDICTED BY IDOCK:   -8.70 KCAL/MOL
REMARK 924 INTRA-LIGAND FREE ENERGY PREDICTED BY IDOCK:   -1.90 KCAL/MOL
REMARK 927      BINDING AFFINITY PREDICTED BY RF-SCORE:    0.00 PKD
ROOT
HETATM    1  C   UNL     1     -11.975  13.134  67.777  1.00  0.00    -0.307 C  
HETATM    2  S   UNL     1     -10.811  13.909  68.943  1.00  0.00    -0.236 SA 
HETATM    3  C   UNL     1     -11.169  15.582  68.443  1.00  0.00    -0.341 C  
HETATM    4  C   UNL     1     -11.112  15.837  66.961  1.00  0.00    -0.152 C  
HETATM    5  CA  UNL     1     -11.578  11.699  67.302  1.00  0.00    -0.238 C  
HETATM    6  CA  UNL     1     -11.429  14.886  66.041  1.00  0.00    -0.275 C  
HETATM    7  C   UNL     1     -11.614  15.264  64.516  1.00  0.00    -0.312 C  
HETATM    8  O   UNL     1     -10.780  12.061  64.890  1.00  0.00    -0.279 OA 
HETATM    9  N   UNL     1     -11.711  13.595  66.430  1.00  0.00    -0.354 N  
HETATM   10  OXT UNL     1     -10.923  16.267  64.139  1.00  0.00    -0.649 OA 
HETATM   11  O   UNL     1     -12.552  14.668  63.924  1.00  0.00    -0.834 OA 
HETATM   12  C   UNL     1     -11.337  12.396  65.913  1.00  0.00    -0.356 C  
ENDROOT
BRANCH   4  13
HETATM   13  C   UNL     1     -10.908  17.309  66.656  1.00  0.00     0.049 C  
BRANCH  13  14
HETATM   14  N   UNL     1      -9.795  18.051  67.339  1.00  0.00    -0.299 NA 
HETATM   15  C   UNL     1      -8.473  17.754  67.270  1.00  0.00    -0.231 A  
HETATM   16  C   UNL     1      -7.773  16.694  66.468  1.00  0.00    -0.337 C  
HETATM   17  C   UNL     1      -6.285  16.839  66.852  1.00  0.00    -0.222 C  
HETATM   18  C   UNL     1     -10.188  19.033  68.205  1.00  0.00    -0.386 A  
HETATM   19  C   UNL     1      -6.133  18.017  67.812  1.00  0.00    -0.161 C  
HETATM   20  C   UNL     1      -9.282  19.715  69.016  1.00  0.00    -0.246 A  
HETATM   21  C   UNL     1      -7.933  19.427  68.943  1.00  0.00    -0.360 A  
HETATM   22  C   UNL     1      -7.541  18.444  68.059  1.00  0.00    -0.270 A  
ENDBRANCH  13  14
ENDBRANCH   4  13
BRANCH   5  23
HETATM   23  N   UNL     1     -10.337  11.117  67.886  1.00  0.00    -0.180 N  
HETATM   24  C   UNL     1      -9.858   9.843  67.632  1.00  0.00    -0.163 C  
HETATM   25  O   UNL     1     -10.306   9.131  66.746  1.00  0.00    -0.258 OA 
HETATM   26  H   UNL     1      -9.799  11.704  68.523  1.00  0.00     0.000 HD 
BRANCH  24  27
HETATM   27  C   UNL     1      -8.706   9.388  68.579  1.00  0.00    -0.128 C  
BRANCH  27  28
HETATM   28  C   UNL     1      -7.693  10.358  69.015  1.00  0.00    -0.116 A  
HETATM   29  N   UNL     1      -7.474  11.537  68.309  1.00  0.00    -0.096 NA 
HETATM   30  N   UNL     1      -6.130  13.433  68.363  1.00  0.00    -0.083 NA 
HETATM   31  C   UNL     1      -6.906  10.242  70.149  1.00  0.00    -0.151 A  
HETATM   32  S   UNL     1      -5.878  11.601  70.308  1.00  0.00    -0.156 SA 
HETATM   33  H1  UNL     1      -6.522  13.824  67.507  1.00  0.00     0.000 HD 
HETATM   34  H2  UNL     1      -5.400  13.951  68.853  1.00  0.00     0.000 HD 
HETATM   35  C   UNL     1      -6.539  12.261  68.866  1.00  0.00    -0.094 A  
ENDBRANCH  27  28
BRANCH  27  36
HETATM   36  N   UNL     1      -8.560   8.195  69.084  1.00  0.00    -0.135 NA 
HETATM   37  H   UNL     1      -7.664   7.707  69.104  1.00  0.00     0.000 HD 
BRANCH  36  38
HETATM   38  O   UNL     1      -9.734   7.642  69.595  1.00  0.00    -0.170 OA 
HETATM   39  C   UNL     1      -9.803   7.984  70.979  1.00  0.00    -0.174 C  
ENDBRANCH  36  38
ENDBRANCH  27  36
ENDBRANCH  24  27
ENDBRANCH   5  23
TORSDOF 7
ENDMDL
MODEL       24
REMARK 921   NORMALIZED FREE ENERGY PREDICTED BY IDOCK:   -6.65 KCAL/MOL
REMARK 922        TOTAL FREE ENERGY PREDICTED BY IDOCK:  -10.58 KCAL/MOL
REMARK 923 INTER-LIGAND FREE ENERGY PREDICTED BY IDOCK:   -8.99 KCAL/MOL
REMARK 924 INTRA-LIGAND FREE ENERGY PREDICTED BY IDOCK:   -1.59 KCAL/MOL
REMARK 927      BINDING AFFINITY PREDICTED BY RF-SCORE:    0.00 PKD
ROOT
HETATM    1  C   UNL     1     -11.556  10.577  69.334  1.00  0.00    -0.246 C  
HETATM    2  S   UNL     1      -9.798  11.048  69.299  1.00  0.00     0.053 SA 
HETATM    3  C   UNL     1      -9.184   9.405  69.624  1.00  0.00    -0.185 C  
HETATM    4  C   UNL     1      -9.807   8.708  70.802  1.00  0.00    -0.236 C  
HETATM    5  CA  UNL     1     -12.534  11.707  69.793  1.00  0.00    -0.025 C  
HETATM    6  CA  UNL     1     -11.095   8.922  71.185  1.00  0.00    -0.285 C  
HETATM    7  C   UNL     1     -11.789   7.983  72.252  1.00  0.00    -0.369 C  
HETATM    8  O   UNL     1     -13.207  10.995  72.165  1.00  0.00    -0.481 OA 
HETATM    9  N   UNL     1     -11.862   9.885  70.568  1.00  0.00    -0.276 N  
HETATM   10  OXT UNL     1     -10.984   7.464  73.094  1.00  0.00    -0.357 OA 
HETATM   11  O   UNL     1     -12.996   7.708  72.022  1.00  0.00    -0.278 OA 
HETATM   12  C   UNL     1     -12.722  10.808  71.070  1.00  0.00    -0.415 C  
ENDROOT
BRANCH   4  13
HETATM   13  C   UNL     1      -8.917   7.595  71.325  1.00  0.00    -0.133 C  
BRANCH  13  14
HETATM   14  N   UNL     1      -8.747   6.347  70.506  1.00  0.00    -0.142 NA 
HETATM   15  C   UNL     1      -7.582   5.878  69.993  1.00  0.00    -0.087 A  
HETATM   16  C   UNL     1      -6.185   6.406  70.155  1.00  0.00    -0.035 C  
HETATM   17  C   UNL     1      -5.314   5.463  69.298  1.00  0.00    -0.003 C  
HETATM   18  C   UNL     1      -9.906   5.714  70.151  1.00  0.00    -0.190 A  
HETATM   19  C   UNL     1      -6.199   4.366  68.711  1.00  0.00    -0.032 C  
HETATM   20  C   UNL     1      -9.922   4.626  69.280  1.00  0.00    -0.231 A  
HETATM   21  C   UNL     1      -8.739   4.134  68.763  1.00  0.00    -0.128 A  
HETATM   22  C   UNL     1      -7.572   4.769  69.133  1.00  0.00    -0.056 A  
ENDBRANCH  13  14
ENDBRANCH   4  13
BRANCH   5  23
HETATM   23  N   UNL     1     -11.930  13.034  70.098  1.00  0.00    -0.453 N  
HETATM   24  C   UNL     1     -12.619  14.128  70.596  1.00  0.00    -0.351 C  
HETATM   25  O   UNL     1     -13.762  14.055  71.020  1.00  0.00    -0.180 OA 
HETATM   26  H   UNL     1     -10.931  13.146  69.926  1.00  0.00     0.000 HD 
BRANCH  24  27
HETATM   27  C   UNL     1     -11.817  15.465  70.560  1.00  0.00    -0.339 C  
BRANCH  27  28
HETATM   28  C   UNL     1     -11.194  15.909  69.306  1.00  0.00    -0.335 A  
HETATM   29  N   UNL     1     -11.346  15.181  68.129  1.00  0.00    -0.322 NA 
HETATM   30  N   UNL     1     -10.699  15.231  65.897  1.00  0.00    -0.322 NA 
HETATM   31  C   UNL     1     -10.455  17.068  69.144  1.00  0.00    -0.323 A  
HETATM   32  S   UNL     1      -9.934  17.226  67.521  1.00  0.00    -0.306 SA 
HETATM   33  H1  UNL     1     -11.166  14.354  65.667  1.00  0.00     0.000 HD 
HETATM   34  H2  UNL     1     -10.198  15.730  65.163  1.00  0.00     0.000 HD 
HETATM   35  C   UNL     1     -10.721  15.749  67.132  1.00  0.00    -0.312 A  
ENDBRANCH  27  28
BRANCH  27  36
HETATM   36  N   UNL     1     -11.668  16.292  71.557  1.00  0.00    -0.623 NA 
HETATM   37  H   UNL     1     -11.731  17.304  71.451  1.00  0.00     0.000 HD 
BRANCH  36  38
HETATM   38  O   UNL     1     -11.412  15.673  72.780  1.00  0.00    -0.401 OA 
HETATM   39  C   UNL     1     -12.458  16.044  73.676  1.00  0.00    -0.589 C  
ENDBRANCH  36  38
ENDBRANCH  27  36
ENDBRANCH  24  27
ENDBRANCH   5  23
TORSDOF 7
ENDMDL
MODEL       25
REMARK 921   NORMALIZED FREE ENERGY PREDICTED BY IDOCK:   -6.64 KCAL/MOL
REMARK 922        TOTAL FREE ENERGY PREDICTED BY IDOCK:  -10.56 KCAL/MOL
REMARK 923 INTER-LIGAND FREE ENERGY PREDICTED BY IDOCK:   -9.04 KCAL/MOL
REMARK 924 INTRA-LIGAND FREE ENERGY PREDICTED BY IDOCK:   -1.52 KCAL/MOL
REMARK 927      BINDING AFFINITY PREDICTED BY RF-SCORE:    0.00 PKD
ROOT
HETATM    1  C   UNL     1     -11.450  11.989  67.254  1.00  0.00    -0.335 C  
HETATM    2  S   UNL     1      -9.686  11.792  66.849  1.00  0.00    -0.201 SA 
HETATM    3  C   UNL     1      -9.558  10.132  67.488  1.00  0.00    -0.156 C  
HETATM    4  C   UNL     1     -10.091   9.936  68.881  1.00  0.00    -0.194 C  
HETATM    5  CA  UNL     1     -11.901  13.456  67.547  1.00  0.00    -0.366 C  
HETATM    6  CA  UNL     1     -11.130  10.659  69.378  1.00  0.00    -0.260 C  
HETATM    7  C   UNL     1     -11.829  10.247  70.735  1.00  0.00    -0.365 C  
HETATM    8  O   UNL     1     -12.223  13.491  70.093  1.00  0.00    -0.332 OA 
HETATM    9  N   UNL     1     -11.676  11.697  68.653  1.00  0.00    -0.308 N  
HETATM   10  OXT UNL     1     -11.061   9.646  71.557  1.00  0.00    -0.370 OA 
HETATM   11  O   UNL     1     -13.081  10.378  70.758  1.00  0.00    -0.385 OA 
HETATM   12  C   UNL     1     -12.074  12.941  69.023  1.00  0.00    -0.154 C  
ENDROOT
BRANCH   4  13
HETATM   13  C   UNL     1      -9.499   8.701  69.535  1.00  0.00    -0.162 C  
BRANCH  13  14
HETATM   14  N   UNL     1      -9.545   7.391  68.803  1.00  0.00    -0.147 NA 
HETATM   15  C   UNL     1      -8.492   6.757  68.226  1.00  0.00    -0.125 A  
HETATM   16  C   UNL     1      -7.037   7.132  68.224  1.00  0.00    -0.082 C  
HETATM   17  C   UNL     1      -6.359   6.039  67.369  1.00  0.00    -0.038 C  
HETATM   18  C   UNL     1     -10.794   6.873  68.600  1.00  0.00    -0.187 A  
HETATM   19  C   UNL     1      -7.411   5.015  66.947  1.00  0.00    -0.086 C  
HETATM   20  C   UNL     1     -11.011   5.739  67.820  1.00  0.00    -0.138 A  
HETATM   21  C   UNL     1      -9.944   5.081  67.240  1.00  0.00    -0.220 A  
HETATM   22  C   UNL     1      -8.685   5.601  67.457  1.00  0.00    -0.107 A  
ENDBRANCH  13  14
ENDBRANCH   4  13
BRANCH   5  23
HETATM   23  N   UNL     1     -10.864  14.517  67.416  1.00  0.00    -0.285 N  
HETATM   24  C   UNL     1     -10.625  15.262  66.273  1.00  0.00    -0.309 C  
HETATM   25  O   UNL     1     -11.374  15.257  65.310  1.00  0.00    -0.338 OA 
HETATM   26  H   UNL     1     -10.284  14.709  68.233  1.00  0.00     0.000 HD 
BRANCH  24  27
HETATM   27  C   UNL     1      -9.310  16.099  66.315  1.00  0.00    -0.317 C  
BRANCH  27  28
HETATM   28  C   UNL     1      -9.378  17.559  66.470  1.00  0.00    -0.265 A  
HETATM   29  N   UNL     1      -8.310  18.372  66.104  1.00  0.00    -0.476 NA 
HETATM   30  N   UNL     1      -7.700  20.615  66.064  1.00  0.00    -0.504 NA 
HETATM   31  C   UNL     1     -10.474  18.265  66.935  1.00  0.00    -0.373 A  
HETATM   32  S   UNL     1     -10.149  19.946  66.933  1.00  0.00    -0.480 SA 
HETATM   33  H1  UNL     1      -6.766  20.429  65.698  1.00  0.00     0.000 HD 
HETATM   34  H2  UNL     1      -7.976  21.580  66.245  1.00  0.00     0.000 HD 
HETATM   35  C   UNL     1      -8.576  19.634  66.316  1.00  0.00    -0.366 A  
ENDBRANCH  27  28
BRANCH  27  36
HETATM   36  N   UNL     1      -8.098  15.620  66.267  1.00  0.00    -0.268 NA 
HETATM   37  H   UNL     1      -7.455  15.815  65.500  1.00  0.00     0.000 HD 
BRANCH  36  38
HETATM   38  O   UNL     1      -7.757  14.818  67.356  1.00  0.00    -0.180 OA 
HETATM   39  C   UNL     1      -6.420  15.145  67.729  1.00  0.00    -0.161 C  
ENDBRANCH  36  38
ENDBRANCH  27  36
ENDBRANCH  24  27
ENDBRANCH   5  23
TORSDOF 7
ENDMDL
MODEL       26
REMARK 921   NORMALIZED FREE ENERGY PREDICTED BY IDOCK:   -6.62 KCAL/MOL
REMARK 922        TOTAL FREE ENERGY PREDICTED BY IDOCK:  -10.54 KCAL/MOL
REMARK 923 INTER-LIGAND FREE ENERGY PREDICTED BY IDOCK:   -9.37 KCAL/MOL
REMARK 924 INTRA-LIGAND FREE ENERGY PREDICTED BY IDOCK:   -1.18 KCAL/MOL
REMARK 927      BINDING AFFINITY PREDICTED BY RF-SCORE:    0.00 PKD
ROOT
HETATM    1  C   UNL     1     -10.995  10.740  67.490  1.00  0.00    -0.312 C  
HETATM    2  S   UNL     1      -9.204  10.709  67.160  1.00  0.00    -0.147 SA 
HETATM    3  C   UNL     1      -8.910   9.171  68.013  1.00  0.00    -0.129 C  
HETATM    4  C   UNL     1      -9.472   9.091  69.406  1.00  0.00    -0.159 C  
HETATM    5  CA  UNL     1     -11.626  12.167  67.576  1.00  0.00    -0.343 C  
HETATM    6  CA  UNL     1     -10.609   9.741  69.777  1.00  0.00    -0.257 C  
HETATM    7  C   UNL     1     -11.310   9.422  71.158  1.00  0.00    -0.351 C  
HETATM    8  O   UNL     1     -12.053  12.487  70.086  1.00  0.00    -0.340 OA 
HETATM    9  N   UNL     1     -11.242  10.603  68.909  1.00  0.00    -0.256 N  
HETATM   10  OXT UNL     1     -10.511   9.029  72.072  1.00  0.00    -0.346 OA 
HETATM   11  O   UNL     1     -12.568   9.403  71.132  1.00  0.00    -0.314 OA 
HETATM   12  C   UNL     1     -11.797  11.828  69.102  1.00  0.00    -0.326 C  
ENDROOT
BRANCH   4  13
HETATM   13  C   UNL     1      -8.768   8.030  70.231  1.00  0.00    -0.134 C  
BRANCH  13  14
HETATM   14  N   UNL     1      -9.207   6.599  70.113  1.00  0.00    -0.155 NA 
HETATM   15  C   UNL     1      -9.438   5.743  71.141  1.00  0.00    -0.158 A  
HETATM   16  C   UNL     1      -9.399   5.997  72.621  1.00  0.00    -0.147 C  
HETATM   17  C   UNL     1      -9.712   4.624  73.256  1.00  0.00    -0.154 C  
HETATM   18  C   UNL     1      -9.243   6.098  68.841  1.00  0.00    -0.125 A  
HETATM   19  C   UNL     1      -9.995   3.616  72.144  1.00  0.00    -0.238 C  
HETATM   20  C   UNL     1      -9.495   4.752  68.579  1.00  0.00    -0.200 A  
HETATM   21  C   UNL     1      -9.744   3.878  69.618  1.00  0.00    -0.208 A  
HETATM   22  C   UNL     1      -9.718   4.391  70.899  1.00  0.00    -0.267 A  
ENDBRANCH  13  14
ENDBRANCH   4  13
BRANCH   5  23
HETATM   23  N   UNL     1     -10.714  13.321  67.334  1.00  0.00    -0.256 N  
HETATM   24  C   UNL     1     -11.083  14.654  67.396  1.00  0.00    -0.326 C  
HETATM   25  O   UNL     1     -12.155  15.026  67.847  1.00  0.00    -0.218 OA 
HETATM   26  H   UNL     1      -9.743  13.111  67.105  1.00  0.00     0.000 HD 
BRANCH  24  27
HETATM   27  C   UNL     1     -10.018  15.643  66.829  1.00  0.00    -0.250 C  
BRANCH  27  28
HETATM   28  C   UNL     1     -10.166  17.086  67.059  1.00  0.00    -0.303 A  
HETATM   29  N   UNL     1     -10.052  17.628  68.336  1.00  0.00    -0.345 NA 
HETATM   30  N   UNL     1     -10.166  19.676  69.428  1.00  0.00    -0.607 NA 
HETATM   31  C   UNL     1     -10.381  18.037  66.076  1.00  0.00    -0.331 A  
HETATM   32  S   UNL     1     -10.465  19.603  66.763  1.00  0.00    -0.504 SA 
HETATM   33  H1  UNL     1     -10.014  19.273  70.353  1.00  0.00     0.000 HD 
HETATM   34  H2  UNL     1     -10.289  20.685  69.344  1.00  0.00     0.000 HD 
HETATM   35  C   UNL     1     -10.210  18.925  68.320  1.00  0.00    -0.380 A  
ENDBRANCH  27  28
BRANCH  27  36
HETATM   36  N   UNL     1      -8.937  15.310  66.180  1.00  0.00    -0.451 NA 
HETATM   37  H   UNL     1      -8.709  15.680  65.257  1.00  0.00     0.000 HD 
BRANCH  36  38
HETATM   38  O   UNL     1      -8.120  14.404  66.856  1.00  0.00    -0.131 OA 
HETATM   39  C   UNL     1      -7.083  15.151  67.491  1.00  0.00    -0.198 C  
ENDBRANCH  36  38
ENDBRANCH  27  36
ENDBRANCH  24  27
ENDBRANCH   5  23
TORSDOF 7
ENDMDL
MODEL       27
REMARK 921   NORMALIZED FREE ENERGY PREDICTED BY IDOCK:   -6.59 KCAL/MOL
REMARK 922        TOTAL FREE ENERGY PREDICTED BY IDOCK:  -10.49 KCAL/MOL
REMARK 923 INTER-LIGAND FREE ENERGY PREDICTED BY IDOCK:   -8.95 KCAL/MOL
REMARK 924 INTRA-LIGAND FREE ENERGY PREDICTED BY IDOCK:   -1.54 KCAL/MOL
REMARK 927      BINDING AFFINITY PREDICTED BY RF-SCORE:    0.00 PKD
ROOT
HETATM    1  C   UNL     1      -8.508   9.734  68.488  1.00  0.00    -0.115 C  
HETATM    2  S   UNL     1      -9.762  10.089  69.759  1.00  0.00    -0.197 SA 
HETATM    3  C   UNL     1     -10.121   8.379  70.115  1.00  0.00    -0.191 C  
HETATM    4  C   UNL     1     -10.412   7.520  68.914  1.00  0.00    -0.214 C  
HETATM    5  CA  UNL     1      -8.368  10.822  67.375  1.00  0.00    -0.119 C  
HETATM    6  CA  UNL     1      -9.846   7.744  67.698  1.00  0.00    -0.163 C  
HETATM    7  C   UNL     1      -9.966   6.673  66.540  1.00  0.00    -0.084 C  
HETATM    8  O   UNL     1      -9.471   9.735  65.328  1.00  0.00    -0.241 OA 
HETATM    9  N   UNL     1      -9.055   8.851  67.481  1.00  0.00    -0.133 N  
HETATM   10  OXT UNL     1     -11.022   5.958  66.595  1.00  0.00    -0.287 OA 
HETATM   11  O   UNL     1      -8.933   6.523  65.836  1.00  0.00    -0.151 OA 
HETATM   12  C   UNL     1      -8.989   9.720  66.441  1.00  0.00    -0.151 C  
ENDROOT
BRANCH   4  13
HETATM   13  C   UNL     1     -11.193   6.276  69.296  1.00  0.00    -0.389 C  
BRANCH  13  14
HETATM   14  N   UNL     1     -10.494   5.170  70.033  1.00  0.00    -0.283 NA 
HETATM   15  C   UNL     1     -10.536   4.948  71.371  1.00  0.00    -0.100 A  
HETATM   16  C   UNL     1     -11.318   5.665  72.435  1.00  0.00    -0.327 C  
HETATM   17  C   UNL     1     -10.906   4.970  73.751  1.00  0.00    -0.366 C  
HETATM   18  C   UNL     1      -9.642   4.409  69.283  1.00  0.00    -0.191 A  
HETATM   19  C   UNL     1      -9.951   3.823  73.429  1.00  0.00    -0.181 C  
HETATM   20  C   UNL     1      -8.818   3.437  69.849  1.00  0.00    -0.152 A  
HETATM   21  C   UNL     1      -8.863   3.196  71.208  1.00  0.00    -0.137 A  
HETATM   22  C   UNL     1      -9.734   3.958  71.959  1.00  0.00    -0.232 A  
ENDBRANCH  13  14
ENDBRANCH   4  13
BRANCH   5  23
HETATM   23  N   UNL     1      -9.230  12.030  67.505  1.00  0.00    -0.175 N  
HETATM   24  C   UNL     1      -8.767  13.330  67.629  1.00  0.00    -0.195 C  
HETATM   25  O   UNL     1      -7.599  13.638  67.450  1.00  0.00    -0.167 OA 
HETATM   26  H   UNL     1     -10.239  11.889  67.502  1.00  0.00     0.000 HD 
BRANCH  24  27
HETATM   27  C   UNL     1      -9.861  14.367  68.028  1.00  0.00    -0.221 C  
BRANCH  27  28
HETATM   28  C   UNL     1     -10.171  15.485  67.127  1.00  0.00    -0.260 A  
HETATM   29  N   UNL     1     -10.762  15.267  65.886  1.00  0.00    -0.322 NA 
HETATM   30  N   UNL     1     -11.496  16.444  64.021  1.00  0.00    -1.573 NA 
HETATM   31  C   UNL     1      -9.964  16.824  67.410  1.00  0.00    -0.267 A  
HETATM   32  S   UNL     1     -10.488  17.801  66.105  1.00  0.00    -0.218 SA 
HETATM   33  H1  UNL     1     -11.775  15.606  63.512  1.00  0.00     0.000 HD 
HETATM   34  H2  UNL     1     -11.630  17.355  63.582  1.00  0.00     0.000 HD 
HETATM   35  C   UNL     1     -10.959  16.390  65.247  1.00  0.00    -0.195 A  
ENDBRANCH  27  28
BRANCH  27  36
HETATM   36  N   UNL     1     -10.595  14.326  69.105  1.00  0.00    -0.340 NA 
HETATM   37  H   UNL     1     -10.492  14.990  69.872  1.00  0.00     0.000 HD 
BRANCH  36  38
HETATM   38  O   UNL     1     -11.533  13.293  69.119  1.00  0.00    -0.271 OA 
HETATM   39  C   UNL     1     -12.274  13.402  70.333  1.00  0.00    -0.345 C  
ENDBRANCH  36  38
ENDBRANCH  27  36
ENDBRANCH  24  27
ENDBRANCH   5  23
TORSDOF 7
ENDMDL
MODEL       28
REMARK 921   NORMALIZED FREE ENERGY PREDICTED BY IDOCK:   -6.59 KCAL/MOL
REMARK 922        TOTAL FREE ENERGY PREDICTED BY IDOCK:  -10.49 KCAL/MOL
REMARK 923 INTER-LIGAND FREE ENERGY PREDICTED BY IDOCK:   -9.26 KCAL/MOL
REMARK 924 INTRA-LIGAND FREE ENERGY PREDICTED BY IDOCK:   -1.23 KCAL/MOL
REMARK 927      BINDING AFFINITY PREDICTED BY RF-SCORE:    0.00 PKD
ROOT
HETATM    1  C   UNL     1      -8.974   7.186  67.379  1.00  0.00    -0.122 C  
HETATM    2  S   UNL     1     -10.284   8.377  67.800  1.00  0.00    -0.233 SA 
HETATM    3  C   UNL     1     -10.282   9.188  66.212  1.00  0.00    -0.187 C  
HETATM    4  C   UNL     1      -8.930   9.622  65.713  1.00  0.00    -0.207 C  
HETATM    5  CA  UNL     1      -8.106   6.703  68.587  1.00  0.00    -0.119 C  
HETATM    6  CA  UNL     1      -7.787   8.946  66.011  1.00  0.00    -0.102 C  
HETATM    7  C   UNL     1      -6.434   9.272  65.259  1.00  0.00    -0.069 C  
HETATM    8  O   UNL     1      -5.876   7.928  68.254  1.00  0.00    -0.034 OA 
HETATM    9  N   UNL     1      -7.805   7.883  66.888  1.00  0.00    -0.102 N  
HETATM   10  OXT UNL     1      -6.338  10.478  64.854  1.00  0.00    -0.111 OA 
HETATM   11  O   UNL     1      -5.720   8.274  64.980  1.00  0.00    -0.043 OA 
HETATM   12  C   UNL     1      -6.964   7.533  67.895  1.00  0.00    -0.076 C  
ENDROOT
BRANCH   4  13
HETATM   13  C   UNL     1      -9.046  10.719  64.672  1.00  0.00    -0.201 C  
BRANCH  13  14
HETATM   14  N   UNL     1     -10.250  11.617  64.684  1.00  0.00    -0.266 NA 
HETATM   15  C   UNL     1     -10.579  12.503  65.658  1.00  0.00    -0.269 A  
HETATM   16  C   UNL     1      -9.828  12.876  66.904  1.00  0.00    -0.235 C  
HETATM   17  C   UNL     1     -10.740  13.901  67.613  1.00  0.00    -0.255 C  
HETATM   18  C   UNL     1     -11.148  11.410  63.675  1.00  0.00    -0.325 A  
HETATM   19  C   UNL     1     -11.967  14.159  66.741  1.00  0.00    -0.475 C  
HETATM   20  C   UNL     1     -12.378  12.065  63.627  1.00  0.00    -0.648 A  
HETATM   21  C   UNL     1     -12.715  12.978  64.607  1.00  0.00    -0.367 A  
HETATM   22  C   UNL     1     -11.801  13.191  65.617  1.00  0.00    -0.430 A  
ENDBRANCH  13  14
ENDBRANCH   4  13
BRANCH   5  23
HETATM   23  N   UNL     1      -8.476   7.228  69.931  1.00  0.00    -0.138 N  
HETATM   24  C   UNL     1      -9.488   6.725  70.732  1.00  0.00    -0.165 C  
HETATM   25  O   UNL     1     -10.057   5.671  70.498  1.00  0.00    -0.191 OA 
HETATM   26  H   UNL     1      -7.941   8.019  70.289  1.00  0.00     0.000 HD 
BRANCH  24  27
HETATM   27  C   UNL     1      -9.847   7.625  71.954  1.00  0.00    -0.165 C  
BRANCH  27  28
HETATM   28  C   UNL     1     -11.034   8.489  71.901  1.00  0.00    -0.324 A  
HETATM   29  N   UNL     1     -12.189   8.170  72.610  1.00  0.00    -0.291 NA 
HETATM   30  N   UNL     1     -14.335   8.978  72.992  1.00  0.00    -1.139 NA 
HETATM   31  C   UNL     1     -11.126   9.685  71.209  1.00  0.00    -0.355 A  
HETATM   32  S   UNL     1     -12.669  10.390  71.432  1.00  0.00    -0.481 SA 
HETATM   33  H1  UNL     1     -14.603   8.193  73.585  1.00  0.00     0.000 HD 
HETATM   34  H2  UNL     1     -15.014   9.719  72.818  1.00  0.00     0.000 HD 
HETATM   35  C   UNL     1     -13.121   9.069  72.432  1.00  0.00    -0.423 A  
ENDBRANCH  27  28
BRANCH  27  36
HETATM   36  N   UNL     1      -9.204   7.666  73.088  1.00  0.00    -0.191 NA 
HETATM   37  H   UNL     1      -9.367   6.999  73.842  1.00  0.00     0.000 HD 
BRANCH  36  38
HETATM   38  O   UNL     1      -8.273   8.700  73.180  1.00  0.00    -0.409 OA 
HETATM   39  C   UNL     1      -6.981   8.106  73.303  1.00  0.00    -0.114 C  
ENDBRANCH  36  38
ENDBRANCH  27  36
ENDBRANCH  24  27
ENDBRANCH   5  23
TORSDOF 7
ENDMDL
MODEL       29
REMARK 921   NORMALIZED FREE ENERGY PREDICTED BY IDOCK:   -6.59 KCAL/MOL
REMARK 922        TOTAL FREE ENERGY PREDICTED BY IDOCK:  -10.49 KCAL/MOL
REMARK 923 INTER-LIGAND FREE ENERGY PREDICTED BY IDOCK:   -9.29 KCAL/MOL
REMARK 924 INTRA-LIGAND FREE ENERGY PREDICTED BY IDOCK:   -1.20 KCAL/MOL
REMARK 927      BINDING AFFINITY PREDICTED BY RF-SCORE:    0.00 PKD
ROOT
HETATM    1  C   UNL     1     -11.558  12.097  66.689  1.00  0.00    -0.350 C  
HETATM    2  S   UNL     1     -10.320  12.451  67.976  1.00  0.00    -0.222 SA 
HETATM    3  C   UNL     1     -10.822  14.145  68.222  1.00  0.00    -0.247 C  
HETATM    4  C   UNL     1     -10.939  14.969  66.969  1.00  0.00    -0.318 C  
HETATM    5  CA  UNL     1     -11.136  11.011  65.648  1.00  0.00     0.063 C  
HETATM    6  CA  UNL     1     -11.299  14.435  65.770  1.00  0.00    -0.330 C  
HETATM    7  C   UNL     1     -11.667  15.367  64.547  1.00  0.00    -0.277 C  
HETATM    8  O   UNL     1     -10.622  12.372  63.533  1.00  0.00    -0.438 OA 
HETATM    9  N   UNL     1     -11.466  13.075  65.626  1.00  0.00    -0.321 N  
HETATM   10  OXT UNL     1     -11.077  16.498  64.554  1.00  0.00    -0.821 OA 
HETATM   11  O   UNL     1     -12.629  14.970  63.838  1.00  0.00    -0.813 OA 
HETATM   12  C   UNL     1     -11.084  12.220  64.643  1.00  0.00    -0.313 C  
ENDROOT
BRANCH   4  13
HETATM   13  C   UNL     1     -10.850  16.454  67.269  1.00  0.00    -0.194 C  
BRANCH  13  14
HETATM   14  N   UNL     1      -9.534  17.157  67.104  1.00  0.00    -0.243 NA 
HETATM   15  C   UNL     1      -9.322  18.494  67.201  1.00  0.00    -0.277 A  
HETATM   16  C   UNL     1     -10.285  19.590  67.559  1.00  0.00    -0.546 C  
HETATM   17  C   UNL     1      -9.450  20.886  67.457  1.00  0.00    -0.336 C  
HETATM   18  C   UNL     1      -8.494  16.371  66.693  1.00  0.00    -0.271 A  
HETATM   19  C   UNL     1      -8.008  20.521  67.110  1.00  0.00    -0.361 C  
HETATM   20  C   UNL     1      -7.247  16.900  66.363  1.00  0.00    -0.269 A  
HETATM   21  C   UNL     1      -7.019  18.258  66.470  1.00  0.00    -0.250 A  
HETATM   22  C   UNL     1      -8.068  19.045  66.897  1.00  0.00    -0.277 A  
ENDBRANCH  13  14
ENDBRANCH   4  13
BRANCH   5  23
HETATM   23  N   UNL     1      -9.810  10.364  65.851  1.00  0.00    -0.221 N  
HETATM   24  C   UNL     1      -9.608   9.126  66.438  1.00  0.00    -0.245 C  
HETATM   25  O   UNL     1     -10.519   8.349  66.676  1.00  0.00    -0.294 OA 
HETATM   26  H   UNL     1      -8.986  10.874  65.533  1.00  0.00     0.000 HD 
BRANCH  24  27
HETATM   27  C   UNL     1      -8.119   8.812  66.781  1.00  0.00    -0.104 C  
BRANCH  27  28
HETATM   28  C   UNL     1      -7.720   8.608  68.180  1.00  0.00    -0.102 A  
HETATM   29  N   UNL     1      -7.258   9.665  68.959  1.00  0.00    -0.069 NA 
HETATM   30  N   UNL     1      -6.479  10.101  71.105  1.00  0.00    -0.328 NA 
HETATM   31  C   UNL     1      -7.792   7.409  68.868  1.00  0.00    -0.117 A  
HETATM   32  S   UNL     1      -7.257   7.609  70.482  1.00  0.00    -0.063 SA 
HETATM   33  H1  UNL     1      -6.304  11.088  70.919  1.00  0.00     0.000 HD 
HETATM   34  H2  UNL     1      -6.277   9.730  72.034  1.00  0.00     0.000 HD 
HETATM   35  C   UNL     1      -6.963   9.273  70.170  1.00  0.00    -0.067 A  
ENDBRANCH  27  28
BRANCH  27  36
HETATM   36  N   UNL     1      -7.153   8.662  65.919  1.00  0.00    -0.075 NA 
HETATM   37  H   UNL     1      -6.185   8.909  66.123  1.00  0.00     0.000 HD 
BRANCH  36  38
HETATM   38  O   UNL     1      -7.557   8.134  64.693  1.00  0.00    -0.096 OA 
HETATM   39  C   UNL     1      -7.138   9.041  63.675  1.00  0.00    -0.092 C  
ENDBRANCH  36  38
ENDBRANCH  27  36
ENDBRANCH  24  27
ENDBRANCH   5  23
TORSDOF 7
ENDMDL
MODEL       30
REMARK 921   NORMALIZED FREE ENERGY PREDICTED BY IDOCK:   -6.58 KCAL/MOL
REMARK 922        TOTAL FREE ENERGY PREDICTED BY IDOCK:  -10.49 KCAL/MOL
REMARK 923 INTER-LIGAND FREE ENERGY PREDICTED BY IDOCK:   -9.41 KCAL/MOL
REMARK 924 INTRA-LIGAND FREE ENERGY PREDICTED BY IDOCK:   -1.08 KCAL/MOL
REMARK 927      BINDING AFFINITY PREDICTED BY RF-SCORE:    0.00 PKD
ROOT
HETATM    1  C   UNL     1     -11.771  10.687  69.386  1.00  0.00    -0.273 C  
HETATM    2  S   UNL     1     -10.010  11.138  69.291  1.00  0.00     0.087 SA 
HETATM    3  C   UNL     1      -9.404   9.483  69.564  1.00  0.00    -0.190 C  
HETATM    4  C   UNL     1      -9.990   8.772  70.754  1.00  0.00    -0.263 C  
HETATM    5  CA  UNL     1     -12.717  11.819  69.901  1.00  0.00     0.260 C  
HETATM    6  CA  UNL     1     -11.260   8.994  71.189  1.00  0.00    -0.305 C  
HETATM    7  C   UNL     1     -11.924   8.045  72.266  1.00  0.00    -0.358 C  
HETATM    8  O   UNL     1     -13.308  11.074  72.284  1.00  0.00    -0.390 OA 
HETATM    9  N   UNL     1     -12.039   9.977  70.619  1.00  0.00    -0.292 N  
HETATM   10  OXT UNL     1     -11.094   7.502  73.068  1.00  0.00    -0.360 OA 
HETATM   11  O   UNL     1     -13.142   7.788  72.078  1.00  0.00    -0.285 OA 
HETATM   12  C   UNL     1     -12.868  10.901  71.168  1.00  0.00    -0.409 C  
ENDROOT
BRANCH   4  13
HETATM   13  C   UNL     1      -9.095   7.640  71.223  1.00  0.00    -0.137 C  
BRANCH  13  14
HETATM   14  N   UNL     1      -9.251   6.279  70.607  1.00  0.00    -0.157 NA 
HETATM   15  C   UNL     1      -9.422   5.111  71.276  1.00  0.00    -0.153 A  
HETATM   16  C   UNL     1      -9.575   4.869  72.751  1.00  0.00    -0.163 C  
HETATM   17  C   UNL     1      -9.693   3.335  72.880  1.00  0.00    -0.179 C  
HETATM   18  C   UNL     1      -9.071   6.222  69.253  1.00  0.00    -0.134 A  
HETATM   19  C   UNL     1      -9.677   2.717  71.484  1.00  0.00    -0.222 C  
HETATM   20  C   UNL     1      -9.045   5.015  68.556  1.00  0.00    -0.136 A  
HETATM   21  C   UNL     1      -9.231   3.823  69.228  1.00  0.00    -0.228 A  
HETATM   22  C   UNL     1      -9.425   3.887  70.593  1.00  0.00    -0.244 A  
ENDBRANCH  13  14
ENDBRANCH   4  13
BRANCH   5  23
HETATM   23  N   UNL     1     -12.086  13.134  70.205  1.00  0.00    -0.361 N  
HETATM   24  C   UNL     1     -12.742  14.226  70.750  1.00  0.00    -0.350 C  
HETATM   25  O   UNL     1     -13.867  14.157  71.219  1.00  0.00    -0.296 OA 
HETATM   26  H   UNL     1     -11.094  13.239  69.995  1.00  0.00     0.000 HD 
BRANCH  24  27
HETATM   27  C   UNL     1     -11.926  15.554  70.705  1.00  0.00    -0.378 C  
BRANCH  27  28
HETATM   28  C   UNL     1     -11.257  15.959  69.462  1.00  0.00    -0.325 A  
HETATM   29  N   UNL     1     -11.469  15.268  68.272  1.00  0.00    -0.337 NA 
HETATM   30  N   UNL     1     -10.807  15.295  66.044  1.00  0.00    -0.327 NA 
HETATM   31  C   UNL     1     -10.411  17.046  69.323  1.00  0.00    -0.293 A  
HETATM   32  S   UNL     1      -9.868  17.182  67.705  1.00  0.00    -0.284 SA 
HETATM   33  H1  UNL     1     -11.353  14.469  65.797  1.00  0.00     0.000 HD 
HETATM   34  H2  UNL     1     -10.257  15.757  65.321  1.00  0.00     0.000 HD 
HETATM   35  C   UNL     1     -10.787  15.792  67.288  1.00  0.00    -0.298 A  
ENDBRANCH  27  28
BRANCH  27  36
HETATM   36  N   UNL     1     -11.802  16.407  71.684  1.00  0.00    -0.674 NA 
HETATM   37  H   UNL     1     -11.808  17.417  71.543  1.00  0.00     0.000 HD 
BRANCH  36  38
HETATM   38  O   UNL     1     -11.662  15.819  72.941  1.00  0.00    -0.449 OA 
HETATM   39  C   UNL     1     -12.699  16.333  73.775  1.00  0.00    -0.506 C  
ENDBRANCH  36  38
ENDBRANCH  27  36
ENDBRANCH  24  27
ENDBRANCH   5  23
TORSDOF 7
ENDMDL
MODEL       31
REMARK 921   NORMALIZED FREE ENERGY PREDICTED BY IDOCK:   -6.57 KCAL/MOL
REMARK 922        TOTAL FREE ENERGY PREDICTED BY IDOCK:  -10.47 KCAL/MOL
REMARK 923 INTER-LIGAND FREE ENERGY PREDICTED BY IDOCK:   -9.16 KCAL/MOL
REMARK 924 INTRA-LIGAND FREE ENERGY PREDICTED BY IDOCK:   -1.31 KCAL/MOL
REMARK 927      BINDING AFFINITY PREDICTED BY RF-SCORE:    0.00 PKD
ROOT
HETATM    1  C   UNL     1     -11.799  12.182  68.156  1.00  0.00    -0.299 C  
HETATM    2  S   UNL     1     -10.112  11.781  67.603  1.00  0.00    -0.196 SA 
HETATM    3  C   UNL     1     -10.235  10.038  67.956  1.00  0.00    -0.181 C  
HETATM    4  C   UNL     1     -10.733   9.694  69.334  1.00  0.00    -0.248 C  
HETATM    5  CA  UNL     1     -11.987  13.630  68.712  1.00  0.00    -0.359 C  
HETATM    6  CA  UNL     1     -11.615  10.477  70.012  1.00  0.00    -0.313 C  
HETATM    7  C   UNL     1     -12.314   9.955  71.331  1.00  0.00    -0.404 C  
HETATM    8  O   UNL     1     -12.189  13.282  71.247  1.00  0.00    -0.250 OA 
HETATM    9  N   UNL     1     -12.011  11.695  69.503  1.00  0.00    -0.320 N  
HETATM   10  OXT UNL     1     -11.622   9.111  71.990  1.00  0.00    -0.361 OA 
HETATM   11  O   UNL     1     -13.524  10.276  71.461  1.00  0.00    -0.329 OA 
HETATM   12  C   UNL     1     -12.179  12.906  70.094  1.00  0.00    -0.266 C  
ENDROOT
BRANCH   4  13
HETATM   13  C   UNL     1     -10.328   8.289  69.738  1.00  0.00    -0.216 C  
BRANCH  13  14
HETATM   14  N   UNL     1      -9.336   7.541  68.895  1.00  0.00    -0.143 NA 
HETATM   15  C   UNL     1      -9.629   6.662  67.903  1.00  0.00    -0.119 A  
HETATM   16  C   UNL     1     -10.965   6.265  67.342  1.00  0.00    -0.447 C  
HETATM   17  C   UNL     1     -10.634   5.204  66.270  1.00  0.00    -0.325 C  
HETATM   18  C   UNL     1      -8.027   7.677  69.265  1.00  0.00    -0.126 A  
HETATM   19  C   UNL     1      -9.118   5.051  66.175  1.00  0.00    -0.138 C  
HETATM   20  C   UNL     1      -7.005   6.939  68.670  1.00  0.00    -0.076 A  
HETATM   21  C   UNL     1      -7.293   6.051  67.652  1.00  0.00    -0.077 A  
HETATM   22  C   UNL     1      -8.614   5.927  67.274  1.00  0.00    -0.106 A  
ENDBRANCH  13  14
ENDBRANCH   4  13
BRANCH   5  23
HETATM   23  N   UNL     1     -10.793  14.521  68.681  1.00  0.00    -0.243 N  
HETATM   24  C   UNL     1     -10.748  15.810  69.186  1.00  0.00    -0.246 C  
HETATM   25  O   UNL     1     -11.632  16.281  69.885  1.00  0.00    -0.277 OA 
HETATM   26  H   UNL     1      -9.944  14.152  68.255  1.00  0.00     0.000 HD 
BRANCH  24  27
HETATM   27  C   UNL     1      -9.477  16.616  68.777  1.00  0.00    -0.258 C  
BRANCH  27  28
HETATM   28  C   UNL     1      -9.613  17.834  67.967  1.00  0.00    -0.291 A  
HETATM   29  N   UNL     1      -8.694  18.874  68.069  1.00  0.00    -0.291 NA 
HETATM   30  N   UNL     1      -8.272  20.983  67.187  1.00  0.00    -0.541 NA 
HETATM   31  C   UNL     1     -10.598  18.061  67.021  1.00  0.00    -0.308 A  
HETATM   32  S   UNL     1     -10.380  19.590  66.283  1.00  0.00    -0.534 SA 
HETATM   33  H1  UNL     1      -7.448  21.140  67.768  1.00  0.00     0.000 HD 
HETATM   34  H2  UNL     1      -8.556  21.707  66.528  1.00  0.00     0.000 HD 
HETATM   35  C   UNL     1      -8.993  19.856  67.261  1.00  0.00    -0.334 A  
ENDBRANCH  27  28
BRANCH  27  36
HETATM   36  N   UNL     1      -8.252  16.339  69.128  1.00  0.00    -0.239 NA 
HETATM   37  H   UNL     1      -7.477  16.989  68.996  1.00  0.00     0.000 HD 
BRANCH  36  38
HETATM   38  O   UNL     1      -8.093  15.076  69.698  1.00  0.00    -0.177 OA 
HETATM   39  C   UNL     1      -6.876  14.527  69.195  1.00  0.00    -0.123 C  
ENDBRANCH  36  38
ENDBRANCH  27  36
ENDBRANCH  24  27
ENDBRANCH   5  23
TORSDOF 7
ENDMDL
MODEL       32
REMARK 921   NORMALIZED FREE ENERGY PREDICTED BY IDOCK:   -6.53 KCAL/MOL
REMARK 922        TOTAL FREE ENERGY PREDICTED BY IDOCK:  -10.41 KCAL/MOL
REMARK 923 INTER-LIGAND FREE ENERGY PREDICTED BY IDOCK:   -9.05 KCAL/MOL
REMARK 924 INTRA-LIGAND FREE ENERGY PREDICTED BY IDOCK:   -1.36 KCAL/MOL
REMARK 927      BINDING AFFINITY PREDICTED BY RF-SCORE:    0.00 PKD
ROOT
HETATM    1  C   UNL     1      -9.132  10.266  68.424  1.00  0.00    -0.136 C  
HETATM    2  S   UNL     1     -10.490  10.652  69.573  1.00  0.00    -0.167 SA 
HETATM    3  C   UNL     1     -10.737   8.968  70.103  1.00  0.00    -0.233 C  
HETATM    4  C   UNL     1     -10.882   7.960  68.996  1.00  0.00    -0.029 C  
HETATM    5  CA  UNL     1      -9.004  11.232  67.202  1.00  0.00    -0.155 C  
HETATM    6  CA  UNL     1     -10.257   8.094  67.795  1.00  0.00    -0.228 C  
HETATM    7  C   UNL     1     -10.218   6.895  66.764  1.00  0.00    -0.206 C  
HETATM    8  O   UNL     1      -9.884   9.836  65.236  1.00  0.00    -0.313 OA 
HETATM    9  N   UNL     1      -9.541   9.233  67.497  1.00  0.00    -0.145 N  
HETATM   10  OXT UNL     1     -11.216   6.105  66.842  1.00  0.00    -0.290 OA 
HETATM   11  O   UNL     1      -9.133   6.756  66.141  1.00  0.00    -0.154 OA 
HETATM   12  C   UNL     1      -9.476   9.985  66.368  1.00  0.00    -0.186 C  
ENDROOT
BRANCH   4  13
HETATM   13  C   UNL     1     -11.587   6.704  69.474  1.00  0.00    -0.195 C  
BRANCH  13  14
HETATM   14  N   UNL     1     -11.001   5.925  70.617  1.00  0.00    -0.299 NA 
HETATM   15  C   UNL     1     -10.040   4.971  70.527  1.00  0.00    -0.253 A  
HETATM   16  C   UNL     1      -9.271   4.500  69.326  1.00  0.00    -0.195 C  
HETATM   17  C   UNL     1      -8.361   3.376  69.867  1.00  0.00    -0.081 C  
HETATM   18  C   UNL     1     -11.598   6.122  71.831  1.00  0.00    -0.296 A  
HETATM   19  C   UNL     1      -8.563   3.257  71.376  1.00  0.00    -0.107 C  
HETATM   20  C   UNL     1     -11.261   5.372  72.956  1.00  0.00    -0.370 A  
HETATM   21  C   UNL     1     -10.276   4.407  72.876  1.00  0.00    -0.229 A  
HETATM   22  C   UNL     1      -9.668   4.221  71.652  1.00  0.00    -0.243 A  
ENDBRANCH  13  14
ENDBRANCH   4  13
BRANCH   5  23
HETATM   23  N   UNL     1      -9.964  12.370  67.143  1.00  0.00    -0.206 N  
HETATM   24  C   UNL     1      -9.614  13.710  67.169  1.00  0.00    -0.241 C  
HETATM   25  O   UNL     1      -8.462  14.097  67.048  1.00  0.00    -0.208 OA 
HETATM   26  H   UNL     1     -10.956  12.144  67.078  1.00  0.00     0.000 HD 
BRANCH  24  27
HETATM   27  C   UNL     1     -10.814  14.684  67.377  1.00  0.00    -0.298 C  
BRANCH  27  28
HETATM   28  C   UNL     1     -10.614  16.132  67.225  1.00  0.00    -0.305 A  
HETATM   29  N   UNL     1     -10.588  16.975  68.332  1.00  0.00    -0.361 NA 
HETATM   30  N   UNL     1     -10.347  19.225  68.862  1.00  0.00    -0.520 NA 
HETATM   31  C   UNL     1     -10.396  16.790  66.026  1.00  0.00    -0.335 A  
HETATM   32  S   UNL     1     -10.184  18.467  66.293  1.00  0.00    -0.406 SA 
HETATM   33  H1  UNL     1     -10.472  19.077  69.863  1.00  0.00     0.000 HD 
HETATM   34  H2  UNL     1     -10.183  20.172  68.520  1.00  0.00     0.000 HD 
HETATM   35  C   UNL     1     -10.393  18.219  67.980  1.00  0.00    -0.391 A  
ENDBRANCH  27  28
BRANCH  27  36
HETATM   36  N   UNL     1     -12.042  14.336  67.642  1.00  0.00    -0.576 NA 
HETATM   37  H   UNL     1     -12.848  14.744  67.169  1.00  0.00     0.000 HD 
BRANCH  36  38
HETATM   38  O   UNL     1     -12.158  13.358  68.630  1.00  0.00    -0.346 OA 
HETATM   39  C   UNL     1     -12.044  14.008  69.895  1.00  0.00    -0.345 C  
ENDBRANCH  36  38
ENDBRANCH  27  36
ENDBRANCH  24  27
ENDBRANCH   5  23
TORSDOF 7
ENDMDL
MODEL       33
REMARK 921   NORMALIZED FREE ENERGY PREDICTED BY IDOCK:   -6.52 KCAL/MOL
REMARK 922        TOTAL FREE ENERGY PREDICTED BY IDOCK:  -10.39 KCAL/MOL
REMARK 923 INTER-LIGAND FREE ENERGY PREDICTED BY IDOCK:   -9.29 KCAL/MOL
REMARK 924 INTRA-LIGAND FREE ENERGY PREDICTED BY IDOCK:   -1.11 KCAL/MOL
REMARK 927      BINDING AFFINITY PREDICTED BY RF-SCORE:    0.00 PKD
ROOT
HETATM    1  C   UNL     1      -9.664  12.728  66.873  1.00  0.00    -0.234 C  
HETATM    2  S   UNL     1     -11.255  13.108  67.671  1.00  0.00    -0.297 SA 
HETATM    3  C   UNL     1     -10.951  14.860  67.812  1.00  0.00    -0.293 C  
HETATM    4  C   UNL     1      -9.631  15.236  68.429  1.00  0.00    -0.206 C  
HETATM    5  CA  UNL     1      -9.112  11.293  67.151  1.00  0.00    -0.157 C  
HETATM    6  CA  UNL     1      -8.514  14.471  68.293  1.00  0.00    -0.161 C  
HETATM    7  C   UNL     1      -7.096  15.025  68.724  1.00  0.00    -0.114 C  
HETATM    8  O   UNL     1      -7.183  11.697  68.795  1.00  0.00    -0.103 OA 
HETATM    9  N   UNL     1      -8.571  13.244  67.668  1.00  0.00    -0.183 N  
HETATM   10  OXT UNL     1      -7.135  15.881  69.669  1.00  0.00    -0.199 OA 
HETATM   11  O   UNL     1      -6.143  14.713  67.964  1.00  0.00    -0.131 OA 
HETATM   12  C   UNL     1      -8.011  12.048  67.982  1.00  0.00    -0.149 C  
ENDROOT
BRANCH   4  13
HETATM   13  C   UNL     1      -9.658  16.648  68.983  1.00  0.00    -0.246 C  
BRANCH  13  14
HETATM   14  N   UNL     1      -9.561  17.809  68.035  1.00  0.00    -0.281 NA 
HETATM   15  C   UNL     1      -8.573  18.740  68.007  1.00  0.00    -0.297 A  
HETATM   16  C   UNL     1      -7.316  18.824  68.825  1.00  0.00    -0.342 C  
HETATM   17  C   UNL     1      -6.634  20.126  68.352  1.00  0.00    -0.337 C  
HETATM   18  C   UNL     1     -10.643  17.998  67.223  1.00  0.00    -0.346 A  
HETATM   19  C   UNL     1      -7.463  20.739  67.225  1.00  0.00    -0.381 C  
HETATM   20  C   UNL     1     -10.764  19.109  66.390  1.00  0.00    -0.450 A  
HETATM   21  C   UNL     1      -9.758  20.054  66.346  1.00  0.00    -0.557 A  
HETATM   22  C   UNL     1      -8.662  19.853  67.159  1.00  0.00    -0.397 A  
ENDBRANCH  13  14
ENDBRANCH   4  13
BRANCH   5  23
HETATM   23  N   UNL     1      -9.960  10.396  67.985  1.00  0.00    -0.153 N  
HETATM   24  C   UNL     1      -9.579   9.152  68.459  1.00  0.00    -0.148 C  
HETATM   25  O   UNL     1      -8.429   8.744  68.403  1.00  0.00    -0.128 OA 
HETATM   26  H   UNL     1     -10.895  10.725  68.224  1.00  0.00     0.000 HD 
BRANCH  24  27
HETATM   27  C   UNL     1     -10.744   8.309  69.063  1.00  0.00    -0.079 C  
BRANCH  27  28
HETATM   28  C   UNL     1     -11.531   8.846  70.181  1.00  0.00    -0.036 A  
HETATM   29  N   UNL     1     -11.867  10.196  70.242  1.00  0.00    -0.270 NA 
HETATM   30  N   UNL     1     -13.001  11.698  71.606  1.00  0.00    -0.427 NA 
HETATM   31  C   UNL     1     -12.045   8.103  71.230  1.00  0.00    -0.288 A  
HETATM   32  S   UNL     1     -12.925   9.107  72.302  1.00  0.00    -0.410 SA 
HETATM   33  H1  UNL     1     -12.792  12.503  71.016  1.00  0.00     0.000 HD 
HETATM   34  H2  UNL     1     -13.555  11.836  72.451  1.00  0.00     0.000 HD 
HETATM   35  C   UNL     1     -12.573  10.464  71.309  1.00  0.00    -0.419 A  
ENDBRANCH  27  28
BRANCH  27  36
HETATM   36  N   UNL     1     -11.142   7.143  68.637  1.00  0.00    -0.462 NA 
HETATM   37  H   UNL     1     -11.492   6.415  69.260  1.00  0.00     0.000 HD 
BRANCH  36  38
HETATM   38  O   UNL     1     -11.048   6.976  67.255  1.00  0.00    -0.318 OA 
HETATM   39  C   UNL     1     -10.643   5.630  67.011  1.00  0.00    -0.285 C  
ENDBRANCH  36  38
ENDBRANCH  27  36
ENDBRANCH  24  27
ENDBRANCH   5  23
TORSDOF 7
ENDMDL
MODEL       34
REMARK 921   NORMALIZED FREE ENERGY PREDICTED BY IDOCK:   -6.48 KCAL/MOL
REMARK 922        TOTAL FREE ENERGY PREDICTED BY IDOCK:  -10.33 KCAL/MOL
REMARK 923 INTER-LIGAND FREE ENERGY PREDICTED BY IDOCK:   -8.95 KCAL/MOL
REMARK 924 INTRA-LIGAND FREE ENERGY PREDICTED BY IDOCK:   -1.38 KCAL/MOL
REMARK 927      BINDING AFFINITY PREDICTED BY RF-SCORE:    0.00 PKD
ROOT
HETATM    1  C   UNL     1     -11.744  12.578  68.064  1.00  0.00    -0.355 C  
HETATM    2  S   UNL     1     -10.094  12.069  67.487  1.00  0.00    -0.197 SA 
HETATM    3  C   UNL     1     -10.321  10.339  67.854  1.00  0.00    -0.196 C  
HETATM    4  C   UNL     1     -10.817  10.035  69.241  1.00  0.00    -0.261 C  
HETATM    5  CA  UNL     1     -11.831  14.039  68.613  1.00  0.00    -0.361 C  
HETATM    6  CA  UNL     1     -11.637  10.877  69.928  1.00  0.00    -0.331 C  
HETATM    7  C   UNL     1     -12.346  10.407  71.261  1.00  0.00    -0.401 C  
HETATM    8  O   UNL     1     -12.012  13.719  71.153  1.00  0.00    -0.272 OA 
HETATM    9  N   UNL     1     -11.964  12.114  69.418  1.00  0.00    -0.295 N  
HETATM   10  OXT UNL     1     -11.698   9.524  71.915  1.00  0.00    -0.374 OA 
HETATM   11  O   UNL     1     -13.531  10.804  71.409  1.00  0.00    -0.216 OA 
HETATM   12  C   UNL     1     -12.046  13.336  70.003  1.00  0.00    -0.315 C  
ENDROOT
BRANCH   4  13
HETATM   13  C   UNL     1     -10.495   8.610  69.648  1.00  0.00    -0.220 C  
BRANCH  13  14
HETATM   14  N   UNL     1      -9.199   8.323  70.352  1.00  0.00    -0.150 NA 
HETATM   15  C   UNL     1      -8.972   7.317  71.234  1.00  0.00    -0.139 A  
HETATM   16  C   UNL     1      -9.886   6.211  71.677  1.00  0.00    -0.191 C  
HETATM   17  C   UNL     1      -9.060   5.421  72.716  1.00  0.00    -0.133 C  
HETATM   18  C   UNL     1      -8.212   9.251  70.168  1.00  0.00    -0.167 A  
HETATM   19  C   UNL     1      -7.664   6.034  72.811  1.00  0.00    -0.102 C  
HETATM   20  C   UNL     1      -7.005   9.199  70.862  1.00  0.00    -0.101 A  
HETATM   21  C   UNL     1      -6.760   8.172  71.752  1.00  0.00    -0.063 A  
HETATM   22  C   UNL     1      -7.754   7.232  71.925  1.00  0.00    -0.090 A  
ENDBRANCH  13  14
ENDBRANCH   4  13
BRANCH   5  23
HETATM   23  N   UNL     1     -10.584  14.852  68.557  1.00  0.00    -0.239 N  
HETATM   24  C   UNL     1     -10.438  16.125  69.085  1.00  0.00    -0.265 C  
HETATM   25  O   UNL     1     -11.266  16.636  69.823  1.00  0.00    -0.237 OA 
HETATM   26  H   UNL     1      -9.775  14.440  68.094  1.00  0.00     0.000 HD 
BRANCH  24  27
HETATM   27  C   UNL     1      -9.133  16.857  68.647  1.00  0.00    -0.265 C  
BRANCH  27  28
HETATM   28  C   UNL     1      -9.218  18.124  67.909  1.00  0.00    -0.269 A  
HETATM   29  N   UNL     1      -8.194  19.064  67.971  1.00  0.00    -0.290 NA 
HETATM   30  N   UNL     1      -7.643  21.168  67.149  1.00  0.00    -0.710 NA 
HETATM   31  C   UNL     1     -10.257  18.496  67.072  1.00  0.00    -0.380 A  
HETATM   32  S   UNL     1      -9.953  20.035  66.386  1.00  0.00    -0.470 SA 
HETATM   33  H1  UNL     1      -6.759  21.214  67.656  1.00  0.00     0.000 HD 
HETATM   34  H2  UNL     1      -7.911  21.951  66.554  1.00  0.00     0.000 HD 
HETATM   35  C   UNL     1      -8.464  20.113  67.239  1.00  0.00    -0.342 A  
ENDBRANCH  27  28
BRANCH  27  36
HETATM   36  N   UNL     1      -7.916  16.471  68.913  1.00  0.00    -0.234 NA 
HETATM   37  H   UNL     1      -7.173  17.121  69.170  1.00  0.00     0.000 HD 
BRANCH  36  38
HETATM   38  O   UNL     1      -7.718  15.094  68.814  1.00  0.00    -0.125 OA 
HETATM   39  C   UNL     1      -7.171  14.830  67.523  1.00  0.00    -0.197 C  
ENDBRANCH  36  38
ENDBRANCH  27  36
ENDBRANCH  24  27
ENDBRANCH   5  23
TORSDOF 7
ENDMDL
MODEL       35
REMARK 921   NORMALIZED FREE ENERGY PREDICTED BY IDOCK:   -6.41 KCAL/MOL
REMARK 922        TOTAL FREE ENERGY PREDICTED BY IDOCK:  -10.25 KCAL/MOL
REMARK 923 INTER-LIGAND FREE ENERGY PREDICTED BY IDOCK:   -8.69 KCAL/MOL
REMARK 924 INTRA-LIGAND FREE ENERGY PREDICTED BY IDOCK:   -1.56 KCAL/MOL
REMARK 927      BINDING AFFINITY PREDICTED BY RF-SCORE:    0.00 PKD
ROOT
HETATM    1  C   UNL     1      -9.356   8.274  71.293  1.00  0.00    -0.173 C  
HETATM    2  S   UNL     1      -8.993   8.650  69.549  1.00  0.00    -0.146 SA 
HETATM    3  C   UNL     1      -9.962  10.146  69.501  1.00  0.00    -0.235 C  
HETATM    4  C   UNL     1     -11.369  10.018  70.020  1.00  0.00    -0.334 C  
HETATM    5  CA  UNL     1      -9.339   6.755  71.658  1.00  0.00    -0.151 C  
HETATM    6  CA  UNL     1     -11.708   9.149  71.011  1.00  0.00    -0.301 C  
HETATM    7  C   UNL     1     -13.126   9.230  71.708  1.00  0.00    -0.400 C  
HETATM    8  O   UNL     1     -11.823   6.173  71.935  1.00  0.00    -0.314 OA 
HETATM    9  N   UNL     1     -10.787   8.255  71.511  1.00  0.00    -0.238 N  
HETATM   10  OXT UNL     1     -14.051   9.689  70.960  1.00  0.00    -0.082 OA 
HETATM   11  O   UNL     1     -13.126   9.026  72.950  1.00  0.00    -0.334 OA 
HETATM   12  C   UNL     1     -10.890   6.941  71.834  1.00  0.00    -0.229 C  
ENDROOT
BRANCH   4  13
HETATM   13  C   UNL     1     -12.262  11.121  69.486  1.00  0.00    -0.277 C  
BRANCH  13  14
HETATM   14  N   UNL     1     -11.892  12.554  69.745  1.00  0.00    -0.328 NA 
HETATM   15  C   UNL     1     -12.371  13.338  70.744  1.00  0.00    -0.344 A  
HETATM   16  C   UNL     1     -13.305  12.989  71.868  1.00  0.00    -0.539 C  
HETATM   17  C   UNL     1     -13.495  14.314  72.637  1.00  0.00    -0.623 C  
HETATM   18  C   UNL     1     -11.097  13.136  68.798  1.00  0.00    -0.269 A  
HETATM   19  C   UNL     1     -12.621  15.390  71.996  1.00  0.00    -0.448 C  
HETATM   20  C   UNL     1     -10.783  14.494  68.823  1.00  0.00    -0.257 A  
HETATM   21  C   UNL     1     -11.256  15.296  69.843  1.00  0.00    -0.305 A  
HETATM   22  C   UNL     1     -12.048  14.701  70.803  1.00  0.00    -0.387 A  
ENDBRANCH  13  14
ENDBRANCH   4  13
BRANCH   5  23
HETATM   23  N   UNL     1      -8.985   5.805  70.566  1.00  0.00    -0.142 N  
HETATM   24  C   UNL     1      -8.950   4.426  70.690  1.00  0.00    -0.107 C  
HETATM   25  O   UNL     1      -9.395   3.835  71.661  1.00  0.00    -0.113 OA 
HETATM   26  H   UNL     1      -8.751   6.202  69.657  1.00  0.00     0.000 HD 
BRANCH  24  27
HETATM   27  C   UNL     1      -8.283   3.689  69.488  1.00  0.00    -0.052 C  
BRANCH  27  28
HETATM   28  C   UNL     1      -8.591   4.106  68.114  1.00  0.00    -0.096 A  
HETATM   29  N   UNL     1      -9.869   4.527  67.758  1.00  0.00    -0.142 NA 
HETATM   30  N   UNL     1     -11.056   5.277  65.906  1.00  0.00    -0.800 NA 
HETATM   31  C   UNL     1      -7.681   4.168  67.071  1.00  0.00    -0.092 A  
HETATM   32  S   UNL     1      -8.442   4.731  65.645  1.00  0.00    -0.125 SA 
HETATM   33  H1  UNL     1     -11.938   5.352  66.412  1.00  0.00     0.000 HD 
HETATM   34  H2  UNL     1     -11.031   5.528  64.918  1.00  0.00     0.000 HD 
HETATM   35  C   UNL     1      -9.928   4.859  66.496  1.00  0.00    -0.232 A  
ENDBRANCH  27  28
BRANCH  27  36
HETATM   36  N   UNL     1      -7.407   2.726  69.574  1.00  0.00    -0.044 NA 
HETATM   37  H   UNL     1      -7.425   1.906  68.968  1.00  0.00     0.000 HD 
BRANCH  36  38
HETATM   38  O   UNL     1      -6.446   2.915  70.566  1.00  0.00    -0.026 OA 
HETATM   39  C   UNL     1      -5.349   3.610  69.975  1.00  0.00    -0.008 C  
ENDBRANCH  36  38
ENDBRANCH  27  36
ENDBRANCH  24  27
ENDBRANCH   5  23
TORSDOF 7
ENDMDL
MODEL       36
REMARK 921   NORMALIZED FREE ENERGY PREDICTED BY IDOCK:   -6.41 KCAL/MOL
REMARK 922        TOTAL FREE ENERGY PREDICTED BY IDOCK:  -10.25 KCAL/MOL
REMARK 923 INTER-LIGAND FREE ENERGY PREDICTED BY IDOCK:   -8.83 KCAL/MOL
REMARK 924 INTRA-LIGAND FREE ENERGY PREDICTED BY IDOCK:   -1.42 KCAL/MOL
REMARK 927      BINDING AFFINITY PREDICTED BY RF-SCORE:    0.00 PKD
ROOT
HETATM    1  C   UNL     1      -8.802   7.097  67.793  1.00  0.00    -0.124 C  
HETATM    2  S   UNL     1     -10.407   7.956  67.776  1.00  0.00    -0.220 SA 
HETATM    3  C   UNL     1     -10.031   8.975  66.362  1.00  0.00    -0.300 C  
HETATM    4  C   UNL     1      -8.723   9.716  66.433  1.00  0.00    -0.148 C  
HETATM    5  CA  UNL     1      -8.326   6.611  69.200  1.00  0.00    -0.124 C  
HETATM    6  CA  UNL     1      -7.636   9.224  67.087  1.00  0.00    -0.091 C  
HETATM    7  C   UNL     1      -6.215   9.896  66.916  1.00  0.00    -0.064 C  
HETATM    8  O   UNL     1      -6.453   8.257  69.805  1.00  0.00    -0.035 OA 
HETATM    9  N   UNL     1      -7.721   8.060  67.820  1.00  0.00    -0.108 N  
HETATM   10  OXT UNL     1      -6.255  11.145  66.660  1.00  0.00    -0.108 OA 
HETATM   11  O   UNL     1      -5.245   9.097  66.855  1.00  0.00    -0.038 OA 
HETATM   12  C   UNL     1      -7.230   7.726  69.041  1.00  0.00    -0.080 C  
ENDROOT
BRANCH   4  13
HETATM   13  C   UNL     1      -8.709  10.913  65.501  1.00  0.00    -0.171 C  
BRANCH  13  14
HETATM   14  N   UNL     1      -9.573  12.099  65.820  1.00  0.00    -0.230 NA 
HETATM   15  C   UNL     1     -10.562  12.603  65.039  1.00  0.00    -0.303 A  
HETATM   16  C   UNL     1     -11.100  12.095  63.731  1.00  0.00    -0.505 C  
HETATM   17  C   UNL     1     -12.181  13.122  63.333  1.00  0.00    -0.521 C  
HETATM   18  C   UNL     1      -9.227  12.795  66.944  1.00  0.00    -0.229 A  
HETATM   19  C   UNL     1     -12.304  14.168  64.439  1.00  0.00    -0.410 C  
HETATM   20  C   UNL     1      -9.843  13.995  67.296  1.00  0.00    -0.242 A  
HETATM   21  C   UNL     1     -10.858  14.508  66.513  1.00  0.00    -0.314 A  
HETATM   22  C   UNL     1     -11.212  13.796  65.386  1.00  0.00    -0.306 A  
ENDBRANCH  13  14
ENDBRANCH   4  13
BRANCH   5  23
HETATM   23  N   UNL     1      -9.249   6.858  70.343  1.00  0.00    -0.156 N  
HETATM   24  C   UNL     1     -10.422   6.164  70.585  1.00  0.00    -0.236 C  
HETATM   25  O   UNL     1     -10.724   5.142  69.989  1.00  0.00    -0.241 OA 
HETATM   26  H   UNL     1      -8.996   7.598  70.998  1.00  0.00     0.000 HD 
BRANCH  24  27
HETATM   27  C   UNL     1     -11.334   6.803  71.677  1.00  0.00    -0.266 C  
BRANCH  27  28
HETATM   28  C   UNL     1     -11.765   8.201  71.542  1.00  0.00    -0.286 A  
HETATM   29  N   UNL     1     -11.071   9.093  70.729  1.00  0.00    -0.257 NA 
HETATM   30  N   UNL     1     -11.127  11.317  70.057  1.00  0.00    -0.477 NA 
HETATM   31  C   UNL     1     -12.881   8.758  72.143  1.00  0.00    -0.400 A  
HETATM   32  S   UNL     1     -13.040  10.405  71.703  1.00  0.00    -0.441 SA 
HETATM   33  H1  UNL     1     -10.285  11.242  69.487  1.00  0.00     0.000 HD 
HETATM   34  H2  UNL     1     -11.610  12.214  70.106  1.00  0.00     0.000 HD 
HETATM   35  C   UNL     1     -11.621  10.279  70.744  1.00  0.00    -0.355 A  
ENDBRANCH  27  28
BRANCH  27  36
HETATM   36  N   UNL     1     -11.814   6.192  72.724  1.00  0.00    -0.516 NA 
HETATM   37  H   UNL     1     -12.805   6.196  72.963  1.00  0.00     0.000 HD 
BRANCH  36  38
HETATM   38  O   UNL     1     -10.853   5.533  73.491  1.00  0.00    -0.267 OA 
HETATM   39  C   UNL     1     -11.155   4.139  73.451  1.00  0.00    -0.262 C  
ENDBRANCH  36  38
ENDBRANCH  27  36
ENDBRANCH  24  27
ENDBRANCH   5  23
TORSDOF 7
ENDMDL
MODEL       37
REMARK 921   NORMALIZED FREE ENERGY PREDICTED BY IDOCK:   -6.40 KCAL/MOL
REMARK 922        TOTAL FREE ENERGY PREDICTED BY IDOCK:  -10.23 KCAL/MOL
REMARK 923 INTER-LIGAND FREE ENERGY PREDICTED BY IDOCK:   -8.70 KCAL/MOL
REMARK 924 INTRA-LIGAND FREE ENERGY PREDICTED BY IDOCK:   -1.53 KCAL/MOL
REMARK 927      BINDING AFFINITY PREDICTED BY RF-SCORE:    0.00 PKD
ROOT
HETATM    1  C   UNL     1      -8.597   9.534  68.527  1.00  0.00    -0.119 C  
HETATM    2  S   UNL     1      -9.744  10.015  69.856  1.00  0.00    -0.148 SA 
HETATM    3  C   UNL     1     -10.129   8.346  70.351  1.00  0.00    -0.187 C  
HETATM    4  C   UNL     1     -10.533   7.421  69.235  1.00  0.00    -0.222 C  
HETATM    5  CA  UNL     1      -8.505  10.541  67.336  1.00  0.00    -0.122 C  
HETATM    6  CA  UNL     1     -10.050   7.545  67.969  1.00  0.00    -0.183 C  
HETATM    7  C   UNL     1     -10.286   6.406  66.897  1.00  0.00    -0.241 C  
HETATM    8  O   UNL     1      -9.787   9.363  65.450  1.00  0.00    -0.270 OA 
HETATM    9  N   UNL     1      -9.243   8.606  67.623  1.00  0.00    -0.134 N  
HETATM   10  OXT UNL     1     -11.356   5.734  67.076  1.00  0.00     0.077 OA 
HETATM   11  O   UNL     1      -9.312   6.174  66.135  1.00  0.00    -0.158 OA 
HETATM   12  C   UNL     1      -9.226   9.404  66.524  1.00  0.00    -0.159 C  
ENDROOT
BRANCH   4  13
HETATM   13  C   UNL     1     -11.321   6.233  69.754  1.00  0.00    -0.436 C  
BRANCH  13  14
HETATM   14  N   UNL     1     -10.710   5.350  70.803  1.00  0.00    -0.224 NA 
HETATM   15  C   UNL     1      -9.894   4.288  70.582  1.00  0.00    -0.195 A  
HETATM   16  C   UNL     1      -9.336   3.766  69.288  1.00  0.00    -0.244 C  
HETATM   17  C   UNL     1      -8.520   2.520  69.695  1.00  0.00    -0.091 C  
HETATM   18  C   UNL     1     -11.132   5.578  72.083  1.00  0.00    -0.210 A  
HETATM   19  C   UNL     1      -8.558   2.377  71.215  1.00  0.00    -0.101 C  
HETATM   20  C   UNL     1     -10.764   4.755  73.146  1.00  0.00    -0.309 A  
HETATM   21  C   UNL     1      -9.925   3.679  72.931  1.00  0.00    -0.210 A  
HETATM   22  C   UNL     1      -9.492   3.460  71.640  1.00  0.00    -0.219 A  
ENDBRANCH  13  14
ENDBRANCH   4  13
BRANCH   5  23
HETATM   23  N   UNL     1      -9.318  11.785  67.444  1.00  0.00    -0.171 N  
HETATM   24  C   UNL     1      -8.803  13.067  67.550  1.00  0.00    -0.195 C  
HETATM   25  O   UNL     1      -7.623  13.325  67.370  1.00  0.00    -0.159 OA 
HETATM   26  H   UNL     1     -10.332  11.685  67.440  1.00  0.00     0.000 HD 
BRANCH  24  27
HETATM   27  C   UNL     1      -9.856  14.153  67.930  1.00  0.00    -0.224 C  
BRANCH  27  28
HETATM   28  C   UNL     1     -10.081  15.297  67.035  1.00  0.00    -0.248 A  
HETATM   29  N   UNL     1     -10.748  15.142  65.823  1.00  0.00    -0.333 NA 
HETATM   30  N   UNL     1     -11.431  16.389  63.984  1.00  0.00    -1.573 NA 
HETATM   31  C   UNL     1      -9.713  16.605  67.298  1.00  0.00    -0.245 A  
HETATM   32  S   UNL     1     -10.185  17.631  66.011  1.00  0.00    -0.227 SA 
HETATM   33  H1  UNL     1     -11.824  15.586  63.494  1.00  0.00     0.000 HD 
HETATM   34  H2  UNL     1     -11.482  17.308  63.545  1.00  0.00     0.000 HD 
HETATM   35  C   UNL     1     -10.848  16.278  65.185  1.00  0.00    -0.318 A  
ENDBRANCH  27  28
BRANCH  27  36
HETATM   36  N   UNL     1     -10.624  14.136  68.983  1.00  0.00    -0.321 NA 
HETATM   37  H   UNL     1     -10.491  14.763  69.776  1.00  0.00     0.000 HD 
BRANCH  36  38
HETATM   38  O   UNL     1     -11.644  13.186  68.931  1.00  0.00    -0.268 OA 
HETATM   39  C   UNL     1     -12.100  12.972  70.266  1.00  0.00    -0.314 C  
ENDBRANCH  36  38
ENDBRANCH  27  36
ENDBRANCH  24  27
ENDBRANCH   5  23
TORSDOF 7
ENDMDL
MODEL       38
REMARK 921   NORMALIZED FREE ENERGY PREDICTED BY IDOCK:   -6.40 KCAL/MOL
REMARK 922        TOTAL FREE ENERGY PREDICTED BY IDOCK:  -10.22 KCAL/MOL
REMARK 923 INTER-LIGAND FREE ENERGY PREDICTED BY IDOCK:   -8.78 KCAL/MOL
REMARK 924 INTRA-LIGAND FREE ENERGY PREDICTED BY IDOCK:   -1.44 KCAL/MOL
REMARK 927      BINDING AFFINITY PREDICTED BY RF-SCORE:    0.00 PKD
ROOT
HETATM    1  C   UNL     1     -11.936  13.060  67.218  1.00  0.00    -0.321 C  
HETATM    2  S   UNL     1     -10.440  12.598  66.290  1.00  0.00    -0.256 SA 
HETATM    3  C   UNL     1     -10.538  10.860  66.677  1.00  0.00    -0.249 C  
HETATM    4  C   UNL     1     -10.712  10.535  68.136  1.00  0.00    -0.273 C  
HETATM    5  CA  UNL     1     -11.937  14.514  67.789  1.00  0.00    -0.310 C  
HETATM    6  CA  UNL     1     -11.383  11.351  68.994  1.00  0.00    -0.280 C  
HETATM    7  C   UNL     1     -11.773  10.855  70.445  1.00  0.00    -0.350 C  
HETATM    8  O   UNL     1     -11.552  14.175  70.304  1.00  0.00    -0.263 OA 
HETATM    9  N   UNL     1     -11.844  12.582  68.582  1.00  0.00    -0.312 N  
HETATM   10  OXT UNL     1     -10.976   9.986  70.932  1.00  0.00    -0.327 OA 
HETATM   11  O   UNL     1     -12.906  11.220  70.852  1.00  0.00    -0.319 OA 
HETATM   12  C   UNL     1     -11.826  13.798  69.185  1.00  0.00    -0.354 C  
ENDROOT
BRANCH   4  13
HETATM   13  C   UNL     1     -10.274   9.117  68.447  1.00  0.00    -0.200 C  
BRANCH  13  14
HETATM   14  N   UNL     1      -8.864   8.701  68.139  1.00  0.00    -0.141 NA 
HETATM   15  C   UNL     1      -8.488   7.715  67.285  1.00  0.00    -0.121 A  
HETATM   16  C   UNL     1      -9.332   6.853  66.390  1.00  0.00    -0.183 C  
HETATM   17  C   UNL     1      -8.324   5.904  65.706  1.00  0.00    -0.140 C  
HETATM   18  C   UNL     1      -7.896   9.297  68.897  1.00  0.00    -0.087 A  
HETATM   19  C   UNL     1      -6.912   6.271  66.157  1.00  0.00    -0.066 C  
HETATM   20  C   UNL     1      -6.557   8.917  68.826  1.00  0.00    -0.054 A  
HETATM   21  C   UNL     1      -6.164   7.923  67.952  1.00  0.00    -0.050 A  
HETATM   22  C   UNL     1      -7.143   7.332  67.181  1.00  0.00    -0.087 A  
ENDBRANCH  13  14
ENDBRANCH   4  13
BRANCH   5  23
HETATM   23  N   UNL     1     -10.753  15.361  67.472  1.00  0.00    -0.288 N  
HETATM   24  C   UNL     1     -10.629  16.706  67.781  1.00  0.00    -0.342 C  
HETATM   25  O   UNL     1     -11.405  17.291  68.520  1.00  0.00    -0.014 OA 
HETATM   26  H   UNL     1      -9.973  14.915  66.991  1.00  0.00     0.000 HD 
BRANCH  24  27
HETATM   27  C   UNL     1      -9.421  17.414  67.095  1.00  0.00    -0.257 C  
BRANCH  27  28
HETATM   28  C   UNL     1      -8.193  17.670  67.860  1.00  0.00    -0.234 A  
HETATM   29  N   UNL     1      -7.959  18.906  68.454  1.00  0.00    -0.326 NA 
HETATM   30  N   UNL     1      -6.355  20.005  69.728  1.00  0.00    -0.355 NA 
HETATM   31  C   UNL     1      -7.194  16.743  68.105  1.00  0.00    -0.164 A  
HETATM   32  S   UNL     1      -5.953  17.437  69.059  1.00  0.00    -0.209 SA 
HETATM   33  H1  UNL     1      -6.868  20.886  69.746  1.00  0.00     0.000 HD 
HETATM   34  H2  UNL     1      -5.459  19.946  70.212  1.00  0.00     0.000 HD 
HETATM   35  C   UNL     1      -6.817  18.922  69.090  1.00  0.00    -0.296 A  
ENDBRANCH  27  28
BRANCH  27  36
HETATM   36  N   UNL     1      -9.363  17.785  65.846  1.00  0.00    -0.514 NA 
HETATM   37  H   UNL     1      -8.525  17.676  65.274  1.00  0.00     0.000 HD 
BRANCH  36  38
HETATM   38  O   UNL     1     -10.544  18.343  65.359  1.00  0.00    -0.595 OA 
HETATM   39  C   UNL     1     -10.589  19.701  65.793  1.00  0.00    -0.438 C  
ENDBRANCH  36  38
ENDBRANCH  27  36
ENDBRANCH  24  27
ENDBRANCH   5  23
TORSDOF 7
ENDMDL
MODEL       39
REMARK 921   NORMALIZED FREE ENERGY PREDICTED BY IDOCK:   -6.39 KCAL/MOL
REMARK 922        TOTAL FREE ENERGY PREDICTED BY IDOCK:  -10.21 KCAL/MOL
REMARK 923 INTER-LIGAND FREE ENERGY PREDICTED BY IDOCK:   -8.88 KCAL/MOL
REMARK 924 INTRA-LIGAND FREE ENERGY PREDICTED BY IDOCK:   -1.33 KCAL/MOL
REMARK 927      BINDING AFFINITY PREDICTED BY RF-SCORE:    0.00 PKD
ROOT
HETATM    1  C   UNL     1     -11.360  12.149  66.575  1.00  0.00    -0.350 C  
HETATM    2  S   UNL     1     -10.155  12.538  67.883  1.00  0.00    -0.219 SA 
HETATM    3  C   UNL     1     -10.736  14.203  68.148  1.00  0.00    -0.245 C  
HETATM    4  C   UNL     1     -10.875  15.041  66.907  1.00  0.00    -0.315 C  
HETATM    5  CA  UNL     1     -10.877  11.100  65.523  1.00  0.00    -0.136 C  
HETATM    6  CA  UNL     1     -11.196  14.511  65.696  1.00  0.00    -0.335 C  
HETATM    7  C   UNL     1     -11.592  15.444  64.482  1.00  0.00    -0.296 C  
HETATM    8  O   UNL     1     -10.401  12.515  63.436  1.00  0.00    -0.377 OA 
HETATM    9  N   UNL     1     -11.300  13.147  65.529  1.00  0.00    -0.296 N  
HETATM   10  OXT UNL     1     -11.053  16.600  64.514  1.00  0.00    -0.886 OA 
HETATM   11  O   UNL     1     -12.526  15.015  63.755  1.00  0.00    -0.745 OA 
HETATM   12  C   UNL     1     -10.869  12.325  64.538  1.00  0.00    -0.315 C  
ENDROOT
BRANCH   4  13
HETATM   13  C   UNL     1     -10.857  16.523  67.230  1.00  0.00    -0.173 C  
BRANCH  13  14
HETATM   14  N   UNL     1      -9.551  17.265  67.198  1.00  0.00    -0.250 NA 
HETATM   15  C   UNL     1      -9.390  18.610  67.284  1.00  0.00    -0.287 A  
HETATM   16  C   UNL     1     -10.419  19.682  67.501  1.00  0.00    -0.589 C  
HETATM   17  C   UNL     1      -9.617  21.001  67.460  1.00  0.00    -0.243 C  
HETATM   18  C   UNL     1      -8.448  16.503  66.928  1.00  0.00    -0.212 A  
HETATM   19  C   UNL     1      -8.135  20.675  67.289  1.00  0.00    -0.315 C  
HETATM   20  C   UNL     1      -7.188  17.064  66.728  1.00  0.00    -0.274 A  
HETATM   21  C   UNL     1      -7.014  18.430  66.826  1.00  0.00    -0.219 A  
HETATM   22  C   UNL     1      -8.127  19.193  67.110  1.00  0.00    -0.281 A  
ENDBRANCH  13  14
ENDBRANCH   4  13
BRANCH   5  23
HETATM   23  N   UNL     1      -9.526  10.510  65.733  1.00  0.00    -0.190 N  
HETATM   24  C   UNL     1      -9.214   9.546  66.677  1.00  0.00    -0.152 C  
HETATM   25  O   UNL     1     -10.064   8.937  67.308  1.00  0.00    -0.199 OA 
HETATM   26  H   UNL     1      -8.770  10.844  65.134  1.00  0.00     0.000 HD 
BRANCH  24  27
HETATM   27  C   UNL     1      -7.685   9.309  66.875  1.00  0.00    -0.094 C  
BRANCH  27  28
HETATM   28  C   UNL     1      -6.812   9.155  65.704  1.00  0.00    -0.077 A  
HETATM   29  N   UNL     1      -6.682  10.173  64.764  1.00  0.00    -0.127 NA 
HETATM   30  N   UNL     1      -5.578  10.640  62.772  1.00  0.00    -0.153 NA 
HETATM   31  C   UNL     1      -6.021   8.052  65.433  1.00  0.00    -0.041 A  
HETATM   32  S   UNL     1      -5.137   8.288  63.986  1.00  0.00    -0.041 SA 
HETATM   33  H1  UNL     1      -6.005  11.560  62.667  1.00  0.00     0.000 HD 
HETATM   34  H2  UNL     1      -4.917  10.319  62.065  1.00  0.00     0.000 HD 
HETATM   35  C   UNL     1      -5.856   9.837  63.808  1.00  0.00    -0.109 A  
ENDBRANCH  27  28
BRANCH  27  36
HETATM   36  N   UNL     1      -7.061   9.274  68.019  1.00  0.00    -0.077 NA 
HETATM   37  H   UNL     1      -6.447   8.507  68.292  1.00  0.00     0.000 HD 
BRANCH  36  38
HETATM   38  O   UNL     1      -7.306  10.376  68.838  1.00  0.00    -0.081 OA 
HETATM   39  C   UNL     1      -7.909   9.895  70.038  1.00  0.00    -0.180 C  
ENDBRANCH  36  38
ENDBRANCH  27  36
ENDBRANCH  24  27
ENDBRANCH   5  23
TORSDOF 7
ENDMDL
MODEL       40
REMARK 921   NORMALIZED FREE ENERGY PREDICTED BY IDOCK:   -6.39 KCAL/MOL
REMARK 922        TOTAL FREE ENERGY PREDICTED BY IDOCK:  -10.21 KCAL/MOL
REMARK 923 INTER-LIGAND FREE ENERGY PREDICTED BY IDOCK:   -8.88 KCAL/MOL
REMARK 924 INTRA-LIGAND FREE ENERGY PREDICTED BY IDOCK:   -1.33 KCAL/MOL
REMARK 927      BINDING AFFINITY PREDICTED BY RF-SCORE:    0.00 PKD
ROOT
HETATM    1  C   UNL     1     -10.970   9.611  67.721  1.00  0.00    -0.139 C  
HETATM    2  S   UNL     1      -9.311   9.497  66.978  1.00  0.00    -0.152 SA 
HETATM    3  C   UNL     1      -8.745   8.187  68.047  1.00  0.00    -0.128 C  
HETATM    4  C   UNL     1      -8.953   8.422  69.518  1.00  0.00    -0.149 C  
HETATM    5  CA  UNL     1     -11.632  11.025  67.647  1.00  0.00    -0.143 C  
HETATM    6  CA  UNL     1      -9.998   9.144  70.005  1.00  0.00    -0.199 C  
HETATM    7  C   UNL     1     -10.331   9.145  71.551  1.00  0.00    -0.344 C  
HETATM    8  O   UNL     1     -11.460  11.897  70.054  1.00  0.00    -0.243 OA 
HETATM    9  N   UNL     1     -10.863   9.795  69.152  1.00  0.00    -0.221 N  
HETATM   10  OXT UNL     1      -9.318   8.961  72.304  1.00  0.00    -0.360 OA 
HETATM   11  O   UNL     1     -11.557   9.127  71.838  1.00  0.00    -0.358 OA 
HETATM   12  C   UNL     1     -11.416  11.034  69.204  1.00  0.00    -0.301 C  
ENDROOT
BRANCH   4  13
HETATM   13  C   UNL     1      -8.020   7.568  70.356  1.00  0.00    -0.102 C  
BRANCH  13  14
HETATM   14  N   UNL     1      -8.095   6.072  70.242  1.00  0.00    -0.109 NA 
HETATM   15  C   UNL     1      -8.811   5.243  71.042  1.00  0.00    -0.134 A  
HETATM   16  C   UNL     1      -9.749   5.575  72.168  1.00  0.00    -0.186 C  
HETATM   17  C   UNL     1     -10.211   4.203  72.703  1.00  0.00    -0.231 C  
HETATM   18  C   UNL     1      -7.255   5.510  69.322  1.00  0.00    -0.065 A  
HETATM   19  C   UNL     1      -9.595   3.101  71.843  1.00  0.00    -0.222 C  
HETATM   20  C   UNL     1      -7.108   4.129  69.196  1.00  0.00    -0.050 A  
HETATM   21  C   UNL     1      -7.842   3.278  69.998  1.00  0.00    -0.050 A  
HETATM   22  C   UNL     1      -8.696   3.850  70.916  1.00  0.00    -0.117 A  
ENDBRANCH  13  14
ENDBRANCH   4  13
BRANCH   5  23
HETATM   23  N   UNL     1     -10.863  12.090  66.945  1.00  0.00    -0.247 N  
HETATM   24  C   UNL     1     -11.421  13.178  66.294  1.00  0.00    -0.334 C  
HETATM   25  O   UNL     1     -12.600  13.479  66.395  1.00  0.00    -0.333 OA 
HETATM   26  H   UNL     1      -9.847  12.012  66.943  1.00  0.00     0.000 HD 
BRANCH  24  27
HETATM   27  C   UNL     1     -10.419  13.983  65.410  1.00  0.00    -0.351 C  
BRANCH  27  28
HETATM   28  C   UNL     1      -9.834  15.230  65.919  1.00  0.00    -0.354 A  
HETATM   29  N   UNL     1     -10.395  16.467  65.612  1.00  0.00    -0.486 NA 
HETATM   30  N   UNL     1     -10.059  18.732  66.005  1.00  0.00    -0.535 NA 
HETATM   31  C   UNL     1      -8.737  15.318  66.759  1.00  0.00    -0.270 A  
HETATM   32  S   UNL     1      -8.400  16.953  67.138  1.00  0.00    -0.204 SA 
HETATM   33  H1  UNL     1     -10.848  19.024  65.429  1.00  0.00     0.000 HD 
HETATM   34  H2  UNL     1      -9.501  19.446  66.474  1.00  0.00     0.000 HD 
HETATM   35  C   UNL     1      -9.729  17.444  66.167  1.00  0.00    -0.217 A  
ENDBRANCH  27  28
BRANCH  27  36
HETATM   36  N   UNL     1      -9.990  13.631  64.230  1.00  0.00    -0.729 NA 
HETATM   37  H   UNL     1      -9.196  14.078  63.773  1.00  0.00     0.000 HD 
BRANCH  36  38
HETATM   38  O   UNL     1     -10.712  12.589  63.647  1.00  0.00    -0.430 OA 
HETATM   39  C   UNL     1      -9.776  11.588  63.250  1.00  0.00    -0.385 C  
ENDBRANCH  36  38
ENDBRANCH  27  36
ENDBRANCH  24  27
ENDBRANCH   5  23
TORSDOF 7
ENDMDL
MODEL       41
REMARK 921   NORMALIZED FREE ENERGY PREDICTED BY IDOCK:   -6.38 KCAL/MOL
REMARK 922        TOTAL FREE ENERGY PREDICTED BY IDOCK:  -10.21 KCAL/MOL
REMARK 923 INTER-LIGAND FREE ENERGY PREDICTED BY IDOCK:   -8.64 KCAL/MOL
REMARK 924 INTRA-LIGAND FREE ENERGY PREDICTED BY IDOCK:   -1.56 KCAL/MOL
REMARK 927      BINDING AFFINITY PREDICTED BY RF-SCORE:    0.00 PKD
ROOT
HETATM    1  C   UNL     1     -11.778  12.472  68.073  1.00  0.00    -0.355 C  
HETATM    2  S   UNL     1     -10.112  12.020  67.492  1.00  0.00    -0.197 SA 
HETATM    3  C   UNL     1     -10.291  10.278  67.829  1.00  0.00    -0.204 C  
HETATM    4  C   UNL     1     -10.782   9.936  69.209  1.00  0.00    -0.247 C  
HETATM    5  CA  UNL     1     -11.908  13.920  68.646  1.00  0.00    -0.372 C  
HETATM    6  CA  UNL     1     -11.628  10.742  69.907  1.00  0.00    -0.331 C  
HETATM    7  C   UNL     1     -12.328  10.229  71.229  1.00  0.00    -0.403 C  
HETATM    8  O   UNL     1     -12.088  13.551  71.179  1.00  0.00    -0.279 OA 
HETATM    9  N   UNL     1     -11.989  11.978  69.417  1.00  0.00    -0.296 N  
HETATM   10  OXT UNL     1     -11.656   9.354  71.871  1.00  0.00    -0.378 OA 
HETATM   11  O   UNL     1     -13.524  10.590  71.380  1.00  0.00    -0.276 OA 
HETATM   12  C   UNL     1     -12.107  13.187  70.023  1.00  0.00    -0.305 C  
ENDROOT
BRANCH   4  13
HETATM   13  C   UNL     1     -10.421   8.514  69.593  1.00  0.00    -0.221 C  
BRANCH  13  14
HETATM   14  N   UNL     1      -8.975   8.146  69.764  1.00  0.00    -0.143 NA 
HETATM   15  C   UNL     1      -8.308   7.179  69.085  1.00  0.00    -0.129 A  
HETATM   16  C   UNL     1      -8.784   6.296  67.966  1.00  0.00    -0.114 C  
HETATM   17  C   UNL     1      -7.577   5.386  67.653  1.00  0.00    -0.088 C  
HETATM   18  C   UNL     1      -8.328   8.768  70.795  1.00  0.00    -0.160 A  
HETATM   19  C   UNL     1      -6.403   5.795  68.540  1.00  0.00    -0.041 C  
HETATM   20  C   UNL     1      -7.028   8.431  71.168  1.00  0.00    -0.063 A  
HETATM   21  C   UNL     1      -6.338   7.457  70.474  1.00  0.00    -0.038 A  
HETATM   22  C   UNL     1      -6.991   6.841  69.427  1.00  0.00    -0.067 A  
ENDBRANCH  13  14
ENDBRANCH   4  13
BRANCH   5  23
HETATM   23  N   UNL     1     -10.685  14.770  68.609  1.00  0.00    -0.245 N  
HETATM   24  C   UNL     1     -10.565  16.020  69.192  1.00  0.00    -0.260 C  
HETATM   25  O   UNL     1     -11.394  16.473  69.966  1.00  0.00    -0.254 OA 
HETATM   26  H   UNL     1      -9.873  14.401  68.115  1.00  0.00     0.000 HD 
BRANCH  24  27
HETATM   27  C   UNL     1      -9.287  16.808  68.768  1.00  0.00    -0.254 C  
BRANCH  27  28
HETATM   28  C   UNL     1      -9.418  18.055  68.003  1.00  0.00    -0.284 A  
HETATM   29  N   UNL     1      -8.400  19.004  67.994  1.00  0.00    -0.291 NA 
HETATM   30  N   UNL     1      -7.906  21.090  67.096  1.00  0.00    -0.611 NA 
HETATM   31  C   UNL     1     -10.496  18.396  67.204  1.00  0.00    -0.404 A  
HETATM   32  S   UNL     1     -10.238  19.919  66.467  1.00  0.00    -0.500 SA 
HETATM   33  H1  UNL     1      -7.001  21.156  67.561  1.00  0.00     0.000 HD 
HETATM   34  H2  UNL     1      -8.208  21.856  66.493  1.00  0.00     0.000 HD 
HETATM   35  C   UNL     1      -8.713  20.032  67.250  1.00  0.00    -0.343 A  
ENDBRANCH  27  28
BRANCH  27  36
HETATM   36  N   UNL     1      -8.059  16.488  69.069  1.00  0.00    -0.235 NA 
HETATM   37  H   UNL     1      -7.505  17.002  69.755  1.00  0.00     0.000 HD 
BRANCH  36  38
HETATM   38  O   UNL     1      -7.569  15.383  68.373  1.00  0.00    -0.111 OA 
HETATM   39  C   UNL     1      -6.913  14.537  69.317  1.00  0.00    -0.141 C  
ENDBRANCH  36  38
ENDBRANCH  27  36
ENDBRANCH  24  27
ENDBRANCH   5  23
TORSDOF 7
ENDMDL
MODEL       42
REMARK 921   NORMALIZED FREE ENERGY PREDICTED BY IDOCK:   -6.37 KCAL/MOL
REMARK 922        TOTAL FREE ENERGY PREDICTED BY IDOCK:  -10.19 KCAL/MOL
REMARK 923 INTER-LIGAND FREE ENERGY PREDICTED BY IDOCK:   -9.28 KCAL/MOL
REMARK 924 INTRA-LIGAND FREE ENERGY PREDICTED BY IDOCK:   -0.91 KCAL/MOL
REMARK 927      BINDING AFFINITY PREDICTED BY RF-SCORE:    0.00 PKD
ROOT
HETATM    1  C   UNL     1      -8.597  12.476  67.312  1.00  0.00    -0.191 C  
HETATM    2  S   UNL     1      -8.335  11.000  68.345  1.00  0.00    -0.145 SA 
HETATM    3  C   UNL     1      -7.542  10.045  67.065  1.00  0.00    -0.092 C  
HETATM    4  C   UNL     1      -8.279   9.989  65.754  1.00  0.00    -0.130 C  
HETATM    5  CA  UNL     1      -9.839  13.341  67.699  1.00  0.00    -0.230 C  
HETATM    6  CA  UNL     1      -9.056  11.012  65.306  1.00  0.00    -0.189 C  
HETATM    7  C   UNL     1      -9.594  11.028  63.818  1.00  0.00    -0.286 C  
HETATM    8  O   UNL     1     -11.534  12.827  65.841  1.00  0.00    -0.322 OA 
HETATM    9  N   UNL     1      -9.294  12.116  66.096  1.00  0.00    -0.222 N  
HETATM   10  OXT UNL     1      -9.764   9.870  63.311  1.00  0.00    -0.091 OA 
HETATM   11  O   UNL     1      -9.597  12.156  63.259  1.00  0.00    -0.327 OA 
HETATM   12  C   UNL     1     -10.427  12.824  66.335  1.00  0.00    -0.250 C  
ENDROOT
BRANCH   4  13
HETATM   13  C   UNL     1      -7.852   8.792  64.925  1.00  0.00    -0.120 C  
BRANCH  13  14
HETATM   14  N   UNL     1      -7.905   7.421  65.536  1.00  0.00    -0.107 NA 
HETATM   15  C   UNL     1      -8.930   6.906  66.262  1.00  0.00    -0.151 A  
HETATM   16  C   UNL     1     -10.270   7.505  66.580  1.00  0.00    -0.261 C  
HETATM   17  C   UNL     1     -10.962   6.450  67.470  1.00  0.00    -0.454 C  
HETATM   18  C   UNL     1      -6.752   6.693  65.448  1.00  0.00    -0.050 A  
HETATM   19  C   UNL     1     -10.049   5.233  67.599  1.00  0.00    -0.216 C  
HETATM   20  C   UNL     1      -6.598   5.463  66.085  1.00  0.00    -0.048 A  
HETATM   21  C   UNL     1      -7.640   4.926  66.815  1.00  0.00    -0.088 A  
HETATM   22  C   UNL     1      -8.806   5.659  66.891  1.00  0.00    -0.113 A  
ENDBRANCH  13  14
ENDBRANCH   4  13
BRANCH   5  23
HETATM   23  N   UNL     1     -10.628  12.894  68.881  1.00  0.00    -0.400 N  
HETATM   24  C   UNL     1     -11.832  13.443  69.290  1.00  0.00    -0.334 C  
HETATM   25  O   UNL     1     -12.470  14.228  68.606  1.00  0.00    -0.136 OA 
HETATM   26  H   UNL     1     -10.251  12.123  69.432  1.00  0.00     0.000 HD 
BRANCH  24  27
HETATM   27  C   UNL     1     -12.302  12.982  70.704  1.00  0.00    -0.310 C  
BRANCH  27  28
HETATM   28  C   UNL     1     -12.395  11.549  71.012  1.00  0.00    -0.329 A  
HETATM   29  N   UNL     1     -13.272  11.077  71.984  1.00  0.00    -0.459 NA 
HETATM   30  N   UNL     1     -13.937   9.084  72.979  1.00  0.00    -1.141 NA 
HETATM   31  C   UNL     1     -11.688  10.544  70.374  1.00  0.00    -0.344 A  
HETATM   32  S   UNL     1     -12.111   9.014  71.014  1.00  0.00    -0.206 SA 
HETATM   33  H1  UNL     1     -14.586   9.538  73.622  1.00  0.00     0.000 HD 
HETATM   34  H2  UNL     1     -13.841   8.069  73.009  1.00  0.00     0.000 HD 
HETATM   35  C   UNL     1     -13.205   9.777  72.097  1.00  0.00    -0.436 A  
ENDBRANCH  27  28
BRANCH  27  36
HETATM   36  N   UNL     1     -12.594  13.767  71.704  1.00  0.00    -0.314 NA 
HETATM   37  H   UNL     1     -13.431  13.649  72.274  1.00  0.00     0.000 HD 
BRANCH  36  38
HETATM   38  O   UNL     1     -11.662  14.781  71.926  1.00  0.00    -0.348 OA 
HETATM   39  C   UNL     1     -12.350  16.026  71.823  1.00  0.00    -0.435 C  
ENDBRANCH  36  38
ENDBRANCH  27  36
ENDBRANCH  24  27
ENDBRANCH   5  23
TORSDOF 7
ENDMDL
MODEL       43
REMARK 921   NORMALIZED FREE ENERGY PREDICTED BY IDOCK:   -6.36 KCAL/MOL
REMARK 922        TOTAL FREE ENERGY PREDICTED BY IDOCK:  -10.17 KCAL/MOL
REMARK 923 INTER-LIGAND FREE ENERGY PREDICTED BY IDOCK:   -9.10 KCAL/MOL
REMARK 924 INTRA-LIGAND FREE ENERGY PREDICTED BY IDOCK:   -1.07 KCAL/MOL
REMARK 927      BINDING AFFINITY PREDICTED BY RF-SCORE:    0.00 PKD
ROOT
HETATM    1  C   UNL     1     -10.311  11.693  67.111  1.00  0.00    -0.217 C  
HETATM    2  S   UNL     1      -8.569  11.771  67.635  1.00  0.00    -0.161 SA 
HETATM    3  C   UNL     1      -8.634  10.295  68.633  1.00  0.00    -0.128 C  
HETATM    4  C   UNL     1      -9.769  10.234  69.619  1.00  0.00    -0.216 C  
HETATM    5  CA  UNL     1     -10.971  13.075  66.802  1.00  0.00    -0.276 C  
HETATM    6  CA  UNL     1     -10.975  10.819  69.386  1.00  0.00    -0.254 C  
HETATM    7  C   UNL     1     -12.217  10.511  70.315  1.00  0.00    -0.311 C  
HETATM    8  O   UNL     1     -12.515  13.469  68.814  1.00  0.00    -0.104 OA 
HETATM    9  N   UNL     1     -11.176  11.599  68.268  1.00  0.00    -0.238 N  
HETATM   10  OXT UNL     1     -11.910  10.212  71.517  1.00  0.00    -0.362 OA 
HETATM   11  O   UNL     1     -13.321  10.404  69.720  1.00  0.00     0.122 OA 
HETATM   12  C   UNL     1     -11.809  12.789  68.102  1.00  0.00    -0.324 C  
ENDROOT
BRANCH   4  13
HETATM   13  C   UNL     1      -9.477   9.260  70.745  1.00  0.00    -0.271 C  
BRANCH  13  14
HETATM   14  N   UNL     1      -9.892   7.824  70.597  1.00  0.00    -0.182 NA 
HETATM   15  C   UNL     1     -10.154   6.958  71.609  1.00  0.00    -0.190 A  
HETATM   16  C   UNL     1     -10.176   7.199  73.091  1.00  0.00    -0.317 C  
HETATM   17  C   UNL     1     -10.497   5.818  73.702  1.00  0.00    -0.286 C  
HETATM   18  C   UNL     1      -9.872   7.334  69.322  1.00  0.00    -0.166 A  
HETATM   19  C   UNL     1     -10.723   4.816  72.572  1.00  0.00    -0.240 C  
HETATM   20  C   UNL     1     -10.095   5.987  69.039  1.00  0.00    -0.223 A  
HETATM   21  C   UNL     1     -10.374   5.101  70.061  1.00  0.00    -0.347 A  
HETATM   22  C   UNL     1     -10.405   5.604  71.345  1.00  0.00    -0.287 A  
ENDBRANCH  13  14
ENDBRANCH   4  13
BRANCH   5  23
HETATM   23  N   UNL     1     -10.100  14.278  66.923  1.00  0.00    -0.260 N  
HETATM   24  C   UNL     1      -9.694  15.077  65.867  1.00  0.00    -0.342 C  
HETATM   25  O   UNL     1     -10.169  14.987  64.746  1.00  0.00    -0.308 OA 
HETATM   26  H   UNL     1      -9.778  14.532  67.856  1.00  0.00     0.000 HD 
BRANCH  24  27
HETATM   27  C   UNL     1      -8.568  16.095  66.227  1.00  0.00    -0.338 C  
BRANCH  27  28
HETATM   28  C   UNL     1      -8.886  17.524  66.347  1.00  0.00    -0.241 A  
HETATM   29  N   UNL     1      -7.886  18.491  66.292  1.00  0.00    -0.340 NA 
HETATM   30  N   UNL     1      -7.619  20.797  66.411  1.00  0.00    -0.521 NA 
HETATM   31  C   UNL     1     -10.158  18.054  66.477  1.00  0.00    -0.379 A  
HETATM   32  S   UNL     1     -10.091  19.763  66.556  1.00  0.00    -0.514 SA 
HETATM   33  H1  UNL     1      -6.604  20.756  66.325  1.00  0.00     0.000 HD 
HETATM   34  H2  UNL     1      -8.070  21.707  66.500  1.00  0.00     0.000 HD 
HETATM   35  C   UNL     1      -8.381  19.695  66.411  1.00  0.00    -0.353 A  
ENDBRANCH  27  28
BRANCH  27  36
HETATM   36  N   UNL     1      -7.325  15.797  66.487  1.00  0.00    -0.212 NA 
HETATM   37  H   UNL     1      -6.539  16.342  66.131  1.00  0.00     0.000 HD 
BRANCH  36  38
HETATM   38  O   UNL     1      -7.163  14.670  67.292  1.00  0.00    -0.185 OA 
HETATM   39  C   UNL     1      -5.856  14.731  67.859  1.00  0.00    -0.133 C  
ENDBRANCH  36  38
ENDBRANCH  27  36
ENDBRANCH  24  27
ENDBRANCH   5  23
TORSDOF 7
ENDMDL
MODEL       44
REMARK 921   NORMALIZED FREE ENERGY PREDICTED BY IDOCK:   -6.36 KCAL/MOL
REMARK 922        TOTAL FREE ENERGY PREDICTED BY IDOCK:  -10.17 KCAL/MOL
REMARK 923 INTER-LIGAND FREE ENERGY PREDICTED BY IDOCK:   -9.33 KCAL/MOL
REMARK 924 INTRA-LIGAND FREE ENERGY PREDICTED BY IDOCK:   -0.83 KCAL/MOL
REMARK 927      BINDING AFFINITY PREDICTED BY RF-SCORE:    0.00 PKD
ROOT
HETATM    1  C   UNL     1      -8.054  15.900  69.406  1.00  0.00    -0.178 C  
HETATM    2  S   UNL     1      -9.627  16.556  68.766  1.00  0.00    -0.256 SA 
HETATM    3  C   UNL     1     -10.514  15.015  68.906  1.00  0.00    -0.241 C  
HETATM    4  C   UNL     1      -9.832  13.822  68.294  1.00  0.00    -0.232 C  
HETATM    5  CA  UNL     1      -6.772  16.609  68.863  1.00  0.00    -0.184 C  
HETATM    6  CA  UNL     1      -8.477  13.699  68.242  1.00  0.00    -0.170 C  
HETATM    7  C   UNL     1      -7.805  12.325  67.838  1.00  0.00    -0.146 C  
HETATM    8  O   UNL     1      -5.792  14.905  67.213  1.00  0.00    -0.310 OA 
HETATM    9  N   UNL     1      -7.659  14.728  68.653  1.00  0.00    -0.119 N  
HETATM   10  OXT UNL     1      -8.510  11.608  67.053  1.00  0.00    -0.155 OA 
HETATM   11  O   UNL     1      -6.768  12.024  68.484  1.00  0.00    -0.057 OA 
HETATM   12  C   UNL     1      -6.527  15.248  68.115  1.00  0.00    -0.125 C  
ENDROOT
BRANCH   4  13
HETATM   13  C   UNL     1     -10.819  12.712  67.986  1.00  0.00    -0.225 C  
BRANCH  13  14
HETATM   14  N   UNL     1     -11.352  11.873  69.112  1.00  0.00    -0.259 NA 
HETATM   15  C   UNL     1     -12.159  12.300  70.117  1.00  0.00    -0.287 A  
HETATM   16  C   UNL     1     -12.779  13.651  70.336  1.00  0.00    -0.210 C  
HETATM   17  C   UNL     1     -13.547  13.511  71.668  1.00  0.00    -0.342 C  
HETATM   18  C   UNL     1     -10.863  10.599  69.180  1.00  0.00    -0.237 A  
HETATM   19  C   UNL     1     -13.420  12.073  72.166  1.00  0.00    -0.338 C  
HETATM   20  C   UNL     1     -11.154   9.746  70.243  1.00  0.00    -0.349 A  
HETATM   21  C   UNL     1     -11.983  10.168  71.263  1.00  0.00    -0.473 A  
HETATM   22  C   UNL     1     -12.484  11.450  71.185  1.00  0.00    -0.465 A  
ENDBRANCH  13  14
ENDBRANCH   4  13
BRANCH   5  23
HETATM   23  N   UNL     1      -6.981  17.756  67.935  1.00  0.00    -0.190 N  
HETATM   24  C   UNL     1      -7.143  19.076  68.322  1.00  0.00    -0.268 C  
HETATM   25  O   UNL     1      -6.938  19.463  69.462  1.00  0.00    -0.319 OA 
HETATM   26  H   UNL     1      -7.007  17.552  66.936  1.00  0.00     0.000 HD 
BRANCH  24  27
HETATM   27  C   UNL     1      -7.622  20.027  67.183  1.00  0.00    -0.287 C  
BRANCH  27  28
HETATM   28  C   UNL     1      -6.765  20.253  66.011  1.00  0.00    -0.244 A  
HETATM   29  N   UNL     1      -6.719  19.336  64.965  1.00  0.00    -0.453 NA 
HETATM   30  N   UNL     1      -5.669  19.009  62.917  1.00  0.00    -0.348 NA 
HETATM   31  C   UNL     1      -5.973  21.369  65.800  1.00  0.00    -0.094 A  
HETATM   32  S   UNL     1      -5.157  21.251  64.300  1.00  0.00    -0.131 SA 
HETATM   33  H1  UNL     1      -6.112  18.105  62.752  1.00  0.00     0.000 HD 
HETATM   34  H2  UNL     1      -5.026  19.378  62.217  1.00  0.00     0.000 HD 
HETATM   35  C   UNL     1      -5.903  19.728  64.022  1.00  0.00    -0.272 A  
ENDBRANCH  27  28
BRANCH  27  36
HETATM   36  N   UNL     1      -8.773  20.639  67.132  1.00  0.00    -0.544 NA 
HETATM   37  H   UNL     1      -8.866  21.623  66.883  1.00  0.00     0.000 HD 
BRANCH  36  38
HETATM   38  O   UNL     1      -9.864  19.831  67.450  1.00  0.00    -0.345 OA 
HETATM   39  C   UNL     1     -10.629  19.654  66.258  1.00  0.00    -0.482 C  
ENDBRANCH  36  38
ENDBRANCH  27  36
ENDBRANCH  24  27
ENDBRANCH   5  23
TORSDOF 7
ENDMDL
MODEL       45
REMARK 921   NORMALIZED FREE ENERGY PREDICTED BY IDOCK:   -6.35 KCAL/MOL
REMARK 922        TOTAL FREE ENERGY PREDICTED BY IDOCK:  -10.16 KCAL/MOL
REMARK 923 INTER-LIGAND FREE ENERGY PREDICTED BY IDOCK:   -8.65 KCAL/MOL
REMARK 924 INTRA-LIGAND FREE ENERGY PREDICTED BY IDOCK:   -1.51 KCAL/MOL
REMARK 927      BINDING AFFINITY PREDICTED BY RF-SCORE:    0.00 PKD
ROOT
HETATM    1  C   UNL     1      -8.866   8.539  68.514  1.00  0.00    -0.139 C  
HETATM    2  S   UNL     1     -10.646   8.910  68.586  1.00  0.00    -0.093 SA 
HETATM    3  C   UNL     1     -10.591  10.204  67.359  1.00  0.00    -0.272 C  
HETATM    4  C   UNL     1      -9.540  11.257  67.583  1.00  0.00    -0.180 C  
HETATM    5  CA  UNL     1      -8.252   7.988  69.842  1.00  0.00    -0.119 C  
HETATM    6  CA  UNL     1      -8.349  10.989  68.184  1.00  0.00    -0.130 C  
HETATM    7  C   UNL     1      -7.174  12.047  68.161  1.00  0.00    -0.090 C  
HETATM    8  O   UNL     1      -6.901   9.971  70.751  1.00  0.00    -0.286 OA 
HETATM    9  N   UNL     1      -8.096   9.746  68.723  1.00  0.00    -0.099 N  
HETATM   10  OXT UNL     1      -7.564  13.261  68.102  1.00  0.00    -0.116 OA 
HETATM   11  O   UNL     1      -6.021  11.568  68.004  1.00  0.00    -0.046 OA 
HETATM   12  C   UNL     1      -7.511   9.374  69.891  1.00  0.00    -0.100 C  
ENDROOT
BRANCH   4  13
HETATM   13  C   UNL     1      -9.875  12.542  66.850  1.00  0.00    -0.227 C  
BRANCH  13  14
HETATM   14  N   UNL     1     -10.540  13.661  67.599  1.00  0.00    -0.240 NA 
HETATM   15  C   UNL     1     -10.369  14.989  67.375  1.00  0.00    -0.238 A  
HETATM   16  C   UNL     1      -9.563  15.682  66.313  1.00  0.00    -0.337 C  
HETATM   17  C   UNL     1      -9.740  17.186  66.615  1.00  0.00    -0.285 C  
HETATM   18  C   UNL     1     -11.280  13.284  68.684  1.00  0.00    -0.274 A  
HETATM   19  C   UNL     1     -10.694  17.346  67.797  1.00  0.00    -0.332 C  
HETATM   20  C   UNL     1     -11.843  14.212  69.559  1.00  0.00    -0.373 A  
HETATM   21  C   UNL     1     -11.684  15.565  69.332  1.00  0.00    -0.382 A  
HETATM   22  C   UNL     1     -10.946  15.940  68.228  1.00  0.00    -0.329 A  
ENDBRANCH  13  14
ENDBRANCH   4  13
BRANCH   5  23
HETATM   23  N   UNL     1      -9.189   7.786  70.982  1.00  0.00    -0.150 N  
HETATM   24  C   UNL     1      -9.786   6.583  71.320  1.00  0.00    -0.181 C  
HETATM   25  O   UNL     1      -9.452   5.516  70.830  1.00  0.00    -0.158 OA 
HETATM   26  H   UNL     1      -9.407   8.598  71.559  1.00  0.00     0.000 HD 
BRANCH  24  27
HETATM   27  C   UNL     1     -10.930   6.706  72.373  1.00  0.00    -0.244 C  
BRANCH  27  28
HETATM   28  C   UNL     1     -12.096   7.555  72.089  1.00  0.00    -0.269 A  
HETATM   29  N   UNL     1     -12.050   8.931  72.291  1.00  0.00    -0.349 NA 
HETATM   30  N   UNL     1     -13.400  10.814  72.097  1.00  0.00    -0.579 NA 
HETATM   31  C   UNL     1     -13.302   7.114  71.572  1.00  0.00    -0.344 A  
HETATM   32  S   UNL     1     -14.381   8.426  71.365  1.00  0.00    -0.247 SA 
HETATM   33  H1  UNL     1     -12.689  11.450  72.458  1.00  0.00     0.000 HD 
HETATM   34  H2  UNL     1     -14.306  11.192  71.823  1.00  0.00     0.000 HD 
HETATM   35  C   UNL     1     -13.184   9.498  71.972  1.00  0.00    -0.452 A  
ENDBRANCH  27  28
BRANCH  27  36
HETATM   36  N   UNL     1     -10.989   6.076  73.513  1.00  0.00    -0.438 NA 
HETATM   37  H   UNL     1     -10.740   6.513  74.401  1.00  0.00     0.000 HD 
BRANCH  36  38
HETATM   38  O   UNL     1     -11.422   4.754  73.414  1.00  0.00    -0.338 OA 
HETATM   39  C   UNL     1     -10.541   3.954  74.201  1.00  0.00    -0.215 C  
ENDBRANCH  36  38
ENDBRANCH  27  36
ENDBRANCH  24  27
ENDBRANCH   5  23
TORSDOF 7
ENDMDL
MODEL       46
REMARK 921   NORMALIZED FREE ENERGY PREDICTED BY IDOCK:   -6.35 KCAL/MOL
REMARK 922        TOTAL FREE ENERGY PREDICTED BY IDOCK:  -10.15 KCAL/MOL
REMARK 923 INTER-LIGAND FREE ENERGY PREDICTED BY IDOCK:   -8.58 KCAL/MOL
REMARK 924 INTRA-LIGAND FREE ENERGY PREDICTED BY IDOCK:   -1.57 KCAL/MOL
REMARK 927      BINDING AFFINITY PREDICTED BY RF-SCORE:    0.00 PKD
ROOT
HETATM    1  C   UNL     1      -8.963   9.087  70.881  1.00  0.00    -0.243 C  
HETATM    2  S   UNL     1      -7.935   8.822  69.402  1.00  0.00    -0.102 SA 
HETATM    3  C   UNL     1      -8.097  10.490  68.792  1.00  0.00    -0.131 C  
HETATM    4  C   UNL     1      -9.506  11.010  68.709  1.00  0.00    -0.190 C  
HETATM    5  CA  UNL     1      -9.717   7.819  71.397  1.00  0.00    -0.166 C  
HETATM    6  CA  UNL     1     -10.484  10.620  69.572  1.00  0.00    -0.204 C  
HETATM    7  C   UNL     1     -11.870  11.381  69.623  1.00  0.00    -0.362 C  
HETATM    8  O   UNL     1     -12.153   8.246  70.711  1.00  0.00    -0.206 OA 
HETATM    9  N   UNL     1     -10.249   9.632  70.503  1.00  0.00    -0.281 N  
HETATM   10  OXT UNL     1     -12.215  11.914  68.516  1.00  0.00    -0.391 OA 
HETATM   11  O   UNL     1     -12.357  11.536  70.773  1.00  0.00    -0.374 OA 
HETATM   12  C   UNL     1     -11.004   8.579  70.908  1.00  0.00    -0.251 C  
ENDROOT
BRANCH   4  13
HETATM   13  C   UNL     1      -9.617  12.168  67.735  1.00  0.00    -0.195 C  
BRANCH  13  14
HETATM   14  N   UNL     1      -9.919  11.884  66.291  1.00  0.00    -0.215 NA 
HETATM   15  C   UNL     1     -10.742  12.604  65.488  1.00  0.00    -0.274 A  
HETATM   16  C   UNL     1     -11.490  13.874  65.780  1.00  0.00    -0.324 C  
HETATM   17  C   UNL     1     -12.276  14.166  64.483  1.00  0.00    -0.468 C  
HETATM   18  C   UNL     1      -9.406  10.716  65.802  1.00  0.00    -0.186 A  
HETATM   19  C   UNL     1     -11.923  13.107  63.440  1.00  0.00    -0.552 C  
HETATM   20  C   UNL     1      -9.713  10.246  64.526  1.00  0.00    -0.395 A  
HETATM   21  C   UNL     1     -10.540  10.978  63.698  1.00  0.00    -0.338 A  
HETATM   22  C   UNL     1     -11.045  12.163  64.192  1.00  0.00    -0.424 A  
ENDBRANCH  13  14
ENDBRANCH   4  13
BRANCH   5  23
HETATM   23  N   UNL     1      -9.475   6.547  70.660  1.00  0.00    -0.165 N  
HETATM   24  C   UNL     1      -9.999   5.313  71.007  1.00  0.00    -0.201 C  
HETATM   25  O   UNL     1     -10.875   5.176  71.847  1.00  0.00    -0.193 OA 
HETATM   26  H   UNL     1      -8.876   6.589  69.836  1.00  0.00     0.000 HD 
BRANCH  24  27
HETATM   27  C   UNL     1      -9.368   4.108  70.243  1.00  0.00    -0.161 C  
BRANCH  27  28
HETATM   28  C   UNL     1      -9.405   4.075  68.775  1.00  0.00    -0.163 A  
HETATM   29  N   UNL     1     -10.294   4.871  68.058  1.00  0.00    -0.036 NA 
HETATM   30  N   UNL     1     -10.916   5.334  65.867  1.00  0.00    -0.769 NA 
HETATM   31  C   UNL     1      -8.572   3.318  67.968  1.00  0.00    -0.096 A  
HETATM   32  S   UNL     1      -8.926   3.592  66.316  1.00  0.00    -0.152 SA 
HETATM   33  H1  UNL     1     -11.649   5.990  66.137  1.00  0.00     0.000 HD 
HETATM   34  H2  UNL     1     -10.754   5.158  64.876  1.00  0.00     0.000 HD 
HETATM   35  C   UNL     1     -10.160   4.696  66.770  1.00  0.00    -0.213 A  
ENDBRANCH  27  28
BRANCH  27  36
HETATM   36  N   UNL     1      -8.745   3.101  70.788  1.00  0.00    -0.071 NA 
HETATM   37  H   UNL     1      -8.843   2.142  70.453  1.00  0.00     0.000 HD 
BRANCH  36  38
HETATM   38  O   UNL     1      -7.934   3.447  71.868  1.00  0.00    -0.060 OA 
HETATM   39  C   UNL     1      -6.637   3.745  71.353  1.00  0.00    -0.026 C  
ENDBRANCH  36  38
ENDBRANCH  27  36
ENDBRANCH  24  27
ENDBRANCH   5  23
TORSDOF 7
ENDMDL
MODEL       47
REMARK 921   NORMALIZED FREE ENERGY PREDICTED BY IDOCK:   -6.31 KCAL/MOL
REMARK 922        TOTAL FREE ENERGY PREDICTED BY IDOCK:  -10.10 KCAL/MOL
REMARK 923 INTER-LIGAND FREE ENERGY PREDICTED BY IDOCK:   -9.21 KCAL/MOL
REMARK 924 INTRA-LIGAND FREE ENERGY PREDICTED BY IDOCK:   -0.89 KCAL/MOL
REMARK 927      BINDING AFFINITY PREDICTED BY RF-SCORE:    0.00 PKD
ROOT
HETATM    1  C   UNL     1      -9.297  12.866  66.541  1.00  0.00    -0.222 C  
HETATM    2  S   UNL     1     -10.890  13.094  67.392  1.00  0.00    -0.259 SA 
HETATM    3  C   UNL     1     -10.650  14.830  67.723  1.00  0.00    -0.257 C  
HETATM    4  C   UNL     1      -9.337  15.186  68.365  1.00  0.00    -0.197 C  
HETATM    5  CA  UNL     1      -8.687  11.431  66.653  1.00  0.00    -0.178 C  
HETATM    6  CA  UNL     1      -8.194  14.485  68.135  1.00  0.00    -0.146 C  
HETATM    7  C   UNL     1      -6.792  15.043  68.611  1.00  0.00    -0.109 C  
HETATM    8  O   UNL     1      -6.753  11.726  68.313  1.00  0.00    -0.060 OA 
HETATM    9  N   UNL     1      -8.213  13.334  67.379  1.00  0.00    -0.179 N  
HETATM   10  OXT UNL     1      -6.850  15.787  69.646  1.00  0.00    -0.189 OA 
HETATM   11  O   UNL     1      -5.838  14.854  67.812  1.00  0.00    -0.198 OA 
HETATM   12  C   UNL     1      -7.605  12.132  67.553  1.00  0.00    -0.151 C  
ENDROOT
BRANCH   4  13
HETATM   13  C   UNL     1      -9.409  16.526  69.073  1.00  0.00    -0.239 C  
BRANCH  13  14
HETATM   14  N   UNL     1      -9.392  17.788  68.258  1.00  0.00    -0.280 NA 
HETATM   15  C   UNL     1      -8.338  18.631  68.108  1.00  0.00    -0.307 A  
HETATM   16  C   UNL     1      -6.935  18.507  68.629  1.00  0.00    -0.289 C  
HETATM   17  C   UNL     1      -6.233  19.799  68.157  1.00  0.00    -0.267 C  
HETATM   18  C   UNL     1     -10.596  18.166  67.733  1.00  0.00    -0.389 A  
HETATM   19  C   UNL     1      -7.212  20.617  67.316  1.00  0.00    -0.388 C  
HETATM   20  C   UNL     1     -10.770  19.381  67.072  1.00  0.00    -0.582 A  
HETATM   21  C   UNL     1      -9.701  20.239  66.905  1.00  0.00    -0.584 A  
HETATM   22  C   UNL     1      -8.486  19.847  67.426  1.00  0.00    -0.377 A  
ENDBRANCH  13  14
ENDBRANCH   4  13
BRANCH   5  23
HETATM   23  N   UNL     1      -9.490  10.416  67.390  1.00  0.00    -0.149 N  
HETATM   24  C   UNL     1      -9.052   9.147  67.730  1.00  0.00    -0.126 C  
HETATM   25  O   UNL     1      -7.886   8.798  67.627  1.00  0.00    -0.100 OA 
HETATM   26  H   UNL     1     -10.436  10.676  67.667  1.00  0.00     0.000 HD 
BRANCH  24  27
HETATM   27  C   UNL     1     -10.175   8.195  68.245  1.00  0.00    -0.206 C  
BRANCH  27  28
HETATM   28  C   UNL     1     -10.216   6.799  67.788  1.00  0.00    -0.171 A  
HETATM   29  N   UNL     1     -10.824   6.453  66.584  1.00  0.00    -0.259 NA 
HETATM   30  N   UNL     1     -11.274   4.584  65.279  1.00  0.00    -1.016 NA 
HETATM   31  C   UNL     1      -9.645   5.723  68.445  1.00  0.00    -0.125 A  
HETATM   32  S   UNL     1      -9.896   4.278  67.561  1.00  0.00    -0.050 SA 
HETATM   33  H1  UNL     1     -11.778   5.112  64.567  1.00  0.00     0.000 HD 
HETATM   34  H2  UNL     1     -11.169   3.576  65.162  1.00  0.00     0.000 HD 
HETATM   35  C   UNL     1     -10.745   5.168  66.362  1.00  0.00    -0.210 A  
ENDBRANCH  27  28
BRANCH  27  36
HETATM   36  N   UNL     1     -11.100   8.504  69.110  1.00  0.00    -0.423 NA 
HETATM   37  H   UNL     1     -11.989   8.008  69.172  1.00  0.00     0.000 HD 
BRANCH  36  38
HETATM   38  O   UNL     1     -10.770   9.573  69.943  1.00  0.00    -0.216 OA 
HETATM   39  C   UNL     1     -10.434   9.035  71.220  1.00  0.00    -0.311 C  
ENDBRANCH  36  38
ENDBRANCH  27  36
ENDBRANCH  24  27
ENDBRANCH   5  23
TORSDOF 7
ENDMDL
MODEL       48
REMARK 921   NORMALIZED FREE ENERGY PREDICTED BY IDOCK:   -6.31 KCAL/MOL
REMARK 922        TOTAL FREE ENERGY PREDICTED BY IDOCK:  -10.10 KCAL/MOL
REMARK 923 INTER-LIGAND FREE ENERGY PREDICTED BY IDOCK:   -9.15 KCAL/MOL
REMARK 924 INTRA-LIGAND FREE ENERGY PREDICTED BY IDOCK:   -0.95 KCAL/MOL
REMARK 927      BINDING AFFINITY PREDICTED BY RF-SCORE:    0.00 PKD
ROOT
HETATM    1  C   UNL     1      -9.741  12.287  65.857  1.00  0.00    -0.235 C  
HETATM    2  S   UNL     1     -11.399  11.728  66.360  1.00  0.00    -0.230 SA 
HETATM    3  C   UNL     1     -11.928  13.319  66.969  1.00  0.00    -0.365 C  
HETATM    4  C   UNL     1     -10.980  13.988  67.926  1.00  0.00    -0.261 C  
HETATM    5  CA  UNL     1      -8.631  11.188  65.903  1.00  0.00    -0.135 C  
HETATM    6  CA  UNL     1      -9.631  13.822  67.859  1.00  0.00    -0.222 C  
HETATM    7  C   UNL     1      -8.659  14.742  68.703  1.00  0.00    -0.169 C  
HETATM    8  O   UNL     1      -7.248  11.815  67.972  1.00  0.00    -0.075 OA 
HETATM    9  N   UNL     1      -9.074  12.932  66.968  1.00  0.00    -0.222 N  
HETATM   10  OXT UNL     1      -9.164  15.176  69.791  1.00  0.00    -0.152 OA 
HETATM   11  O   UNL     1      -7.602  15.090  68.115  1.00  0.00    -0.101 OA 
HETATM   12  C   UNL     1      -8.068  12.031  67.106  1.00  0.00    -0.177 C  
ENDROOT
BRANCH   4  13
HETATM   13  C   UNL     1     -11.688  15.026  68.777  1.00  0.00    -0.334 C  
BRANCH  13  14
HETATM   14  N   UNL     1     -12.335  14.601  70.064  1.00  0.00    -0.325 NA 
HETATM   15  C   UNL     1     -12.441  13.329  70.526  1.00  0.00    -0.260 A  
HETATM   16  C   UNL     1     -11.900  12.054  69.945  1.00  0.00    -0.405 C  
HETATM   17  C   UNL     1     -12.391  10.952  70.909  1.00  0.00    -0.501 C  
HETATM   18  C   UNL     1     -12.980  15.589  70.753  1.00  0.00    -0.434 A  
HETATM   19  C   UNL     1     -13.146  11.605  72.065  1.00  0.00    -0.433 C  
HETATM   20  C   UNL     1     -13.744  15.328  71.889  1.00  0.00    -0.601 A  
HETATM   21  C   UNL     1     -13.847  14.038  72.373  1.00  0.00    -0.653 A  
HETATM   22  C   UNL     1     -13.184  13.046  71.681  1.00  0.00    -0.426 A  
ENDBRANCH  13  14
ENDBRANCH   4  13
BRANCH   5  23
HETATM   23  N   UNL     1      -9.059   9.818  66.301  1.00  0.00    -0.152 N  
HETATM   24  C   UNL     1      -8.343   8.657  66.056  1.00  0.00    -0.131 C  
HETATM   25  O   UNL     1      -7.189   8.660  65.657  1.00  0.00    -0.081 OA 
HETATM   26  H   UNL     1      -9.948   9.728  66.792  1.00  0.00     0.000 HD 
BRANCH  24  27
HETATM   27  C   UNL     1      -9.139   7.343  66.323  1.00  0.00    -0.156 C  
BRANCH  27  28
HETATM   28  C   UNL     1      -9.811   7.144  67.614  1.00  0.00    -0.147 A  
HETATM   29  N   UNL     1      -9.509   7.944  68.713  1.00  0.00    -0.147 NA 
HETATM   30  N   UNL     1     -10.098   8.215  70.945  1.00  0.00    -0.187 NA 
HETATM   31  C   UNL     1     -10.805   6.215  67.867  1.00  0.00    -0.319 A  
HETATM   32  S   UNL     1     -11.338   6.332  69.489  1.00  0.00    -0.293 SA 
HETATM   33  H1  UNL     1      -9.434   8.973  71.103  1.00  0.00     0.000 HD 
HETATM   34  H2  UNL     1     -10.690   7.909  71.717  1.00  0.00     0.000 HD 
HETATM   35  C   UNL     1     -10.220   7.608  69.757  1.00  0.00    -0.210 A  
ENDBRANCH  27  28
BRANCH  27  36
HETATM   36  N   UNL     1      -9.318   6.373  65.470  1.00  0.00    -0.356 NA 
HETATM   37  H   UNL     1     -10.133   6.315  64.859  1.00  0.00     0.000 HD 
BRANCH  36  38
HETATM   38  O   UNL     1      -8.300   5.420  65.465  1.00  0.00    -0.121 OA 
HETATM   39  C   UNL     1      -8.905   4.145  65.256  1.00  0.00    -0.129 C  
ENDBRANCH  36  38
ENDBRANCH  27  36
ENDBRANCH  24  27
ENDBRANCH   5  23
TORSDOF 7
ENDMDL
MODEL       49
REMARK 921   NORMALIZED FREE ENERGY PREDICTED BY IDOCK:   -6.31 KCAL/MOL
REMARK 922        TOTAL FREE ENERGY PREDICTED BY IDOCK:  -10.10 KCAL/MOL
REMARK 923 INTER-LIGAND FREE ENERGY PREDICTED BY IDOCK:   -8.52 KCAL/MOL
REMARK 924 INTRA-LIGAND FREE ENERGY PREDICTED BY IDOCK:   -1.58 KCAL/MOL
REMARK 927      BINDING AFFINITY PREDICTED BY RF-SCORE:    0.00 PKD
ROOT
HETATM    1  C   UNL     1     -10.987   6.782  71.914  1.00  0.00    -0.239 C  
HETATM    2  S   UNL     1     -11.247   6.860  70.114  1.00  0.00    -0.313 SA 
HETATM    3  C   UNL     1     -10.313   5.385  69.752  1.00  0.00    -0.305 C  
HETATM    4  C   UNL     1      -8.940   5.326  70.364  1.00  0.00    -0.154 C  
HETATM    5  CA  UNL     1     -10.990   8.165  72.643  1.00  0.00    -0.370 C  
HETATM    6  CA  UNL     1      -8.643   5.911  71.556  1.00  0.00    -0.132 C  
HETATM    7  C   UNL     1      -7.276   5.605  72.291  1.00  0.00    -0.089 C  
HETATM    8  O   UNL     1      -8.514   8.562  73.193  1.00  0.00    -0.365 OA 
HETATM    9  N   UNL     1      -9.573   6.690  72.210  1.00  0.00    -0.147 N  
HETATM   10  OXT UNL     1      -6.316   5.307  71.505  1.00  0.00    -0.031 OA 
HETATM   11  O   UNL     1      -7.350   5.498  73.542  1.00  0.00    -0.089 OA 
HETATM   12  C   UNL     1      -9.458   7.880  72.854  1.00  0.00    -0.257 C  
ENDROOT
BRANCH   4  13
HETATM   13  C   UNL     1      -8.041   4.353  69.625  1.00  0.00    -0.060 C  
BRANCH  13  14
HETATM   14  N   UNL     1      -7.715   4.609  68.181  1.00  0.00    -0.080 NA 
HETATM   15  C   UNL     1      -8.092   3.842  67.127  1.00  0.00    -0.095 A  
HETATM   16  C   UNL     1      -8.966   2.621  67.098  1.00  0.00    -0.178 C  
HETATM   17  C   UNL     1      -8.980   2.191  65.615  1.00  0.00    -0.116 C  
HETATM   18  C   UNL     1      -6.851   5.641  67.947  1.00  0.00    -0.064 A  
HETATM   19  C   UNL     1      -8.176   3.201  64.798  1.00  0.00    -0.090 C  
HETATM   20  C   UNL     1      -6.345   5.914  66.677  1.00  0.00    -0.041 A  
HETATM   21  C   UNL     1      -6.733   5.147  65.597  1.00  0.00    -0.052 A  
HETATM   22  C   UNL     1      -7.615   4.114  65.836  1.00  0.00    -0.089 A  
ENDBRANCH  13  14
ENDBRANCH   4  13
BRANCH   5  23
HETATM   23  N   UNL     1     -11.249   9.367  71.802  1.00  0.00    -0.360 N  
HETATM   24  C   UNL     1     -12.484   9.974  71.638  1.00  0.00    -0.418 C  
HETATM   25  O   UNL     1     -13.455   9.697  72.325  1.00  0.00    -0.441 OA 
HETATM   26  H   UNL     1     -10.456   9.774  71.308  1.00  0.00     0.000 HD 
BRANCH  24  27
HETATM   27  C   UNL     1     -12.533  11.033  70.495  1.00  0.00    -0.344 C  
BRANCH  27  28
HETATM   28  C   UNL     1     -12.614  12.462  70.826  1.00  0.00    -0.211 A  
HETATM   29  N   UNL     1     -13.231  12.896  71.996  1.00  0.00    -0.460 NA 
HETATM   30  N   UNL     1     -13.733  14.861  73.131  1.00  0.00    -0.555 NA 
HETATM   31  C   UNL     1     -12.074  13.492  70.074  1.00  0.00    -0.341 A  
HETATM   32  S   UNL     1     -12.366  15.001  70.826  1.00  0.00    -0.377 SA 
HETATM   33  H1  UNL     1     -14.221  14.384  73.889  1.00  0.00     0.000 HD 
HETATM   34  H2  UNL     1     -13.657  15.878  73.157  1.00  0.00     0.000 HD 
HETATM   35  C   UNL     1     -13.188  14.198  72.103  1.00  0.00    -0.420 A  
ENDBRANCH  27  28
BRANCH  27  36
HETATM   36  N   UNL     1     -12.464  10.781  69.218  1.00  0.00    -0.684 NA 
HETATM   37  H   UNL     1     -13.244  10.938  68.579  1.00  0.00     0.000 HD 
BRANCH  36  38
HETATM   38  O   UNL     1     -11.233  10.276  68.800  1.00  0.00    -0.240 OA 
HETATM   39  C   UNL     1     -10.966  10.813  67.505  1.00  0.00    -0.312 C  
ENDBRANCH  36  38
ENDBRANCH  27  36
ENDBRANCH  24  27
ENDBRANCH   5  23
TORSDOF 7
ENDMDL
MODEL       50
REMARK 921   NORMALIZED FREE ENERGY PREDICTED BY IDOCK:   -6.30 KCAL/MOL
REMARK 922        TOTAL FREE ENERGY PREDICTED BY IDOCK:  -10.09 KCAL/MOL
REMARK 923 INTER-LIGAND FREE ENERGY PREDICTED BY IDOCK:   -9.05 KCAL/MOL
REMARK 924 INTRA-LIGAND FREE ENERGY PREDICTED BY IDOCK:   -1.04 KCAL/MOL
REMARK 927      BINDING AFFINITY PREDICTED BY RF-SCORE:    0.00 PKD
ROOT
HETATM    1  C   UNL     1      -9.423  10.009  68.822  1.00  0.00    -0.162 C  
HETATM    2  S   UNL     1     -10.933  10.290  69.800  1.00  0.00    -0.307 SA 
HETATM    3  C   UNL     1     -11.019   8.631  70.447  1.00  0.00    -0.235 C  
HETATM    4  C   UNL     1     -10.918   7.535  69.421  1.00  0.00    -0.099 C  
HETATM    5  CA  UNL     1      -9.292  10.892  67.540  1.00  0.00    -0.154 C  
HETATM    6  CA  UNL     1     -10.191   7.665  68.278  1.00  0.00    -0.195 C  
HETATM    7  C   UNL     1      -9.892   6.411  67.361  1.00  0.00    -0.131 C  
HETATM    8  O   UNL     1      -9.776   9.251  65.626  1.00  0.00    -0.284 OA 
HETATM    9  N   UNL     1      -9.599   8.865  67.952  1.00  0.00    -0.145 N  
HETATM   10  OXT UNL     1     -10.785   5.501  67.412  1.00  0.00    -0.228 OA 
HETATM   11  O   UNL     1      -8.739   6.375  66.858  1.00  0.00    -0.112 OA 
HETATM   12  C   UNL     1      -9.511   9.536  66.774  1.00  0.00    -0.167 C  
ENDROOT
BRANCH   4  13
HETATM   13  C   UNL     1     -11.504   6.234  69.936  1.00  0.00    -0.389 C  
BRANCH  13  14
HETATM   14  N   UNL     1     -10.894   5.583  71.145  1.00  0.00    -0.214 NA 
HETATM   15  C   UNL     1     -10.025   4.540  71.141  1.00  0.00    -0.187 A  
HETATM   16  C   UNL     1      -9.397   3.825  69.979  1.00  0.00    -0.250 C  
HETATM   17  C   UNL     1      -8.542   2.713  70.626  1.00  0.00    -0.104 C  
HETATM   18  C   UNL     1     -11.372   6.014  72.350  1.00  0.00    -0.301 A  
HETATM   19  C   UNL     1      -8.630   2.841  72.145  1.00  0.00    -0.085 C  
HETATM   20  C   UNL     1     -11.008   5.412  73.553  1.00  0.00    -0.323 A  
HETATM   21  C   UNL     1     -10.116   4.359  73.559  1.00  0.00    -0.195 A  
HETATM   22  C   UNL     1      -9.626   3.935  72.341  1.00  0.00    -0.195 A  
ENDBRANCH  13  14
ENDBRANCH   4  13
BRANCH   5  23
HETATM   23  N   UNL     1     -10.377  11.883  67.292  1.00  0.00    -0.203 N  
HETATM   24  C   UNL     1     -10.389  12.812  66.265  1.00  0.00    -0.258 C  
HETATM   25  O   UNL     1      -9.596  12.784  65.337  1.00  0.00    -0.103 OA 
HETATM   26  H   UNL     1     -11.172  11.876  67.930  1.00  0.00     0.000 HD 
BRANCH  24  27
HETATM   27  C   UNL     1     -11.493  13.905  66.399  1.00  0.00    -0.344 C  
BRANCH  27  28
HETATM   28  C   UNL     1     -11.308  15.019  67.339  1.00  0.00    -0.332 A  
HETATM   29  N   UNL     1     -11.788  14.947  68.644  1.00  0.00    -0.320 NA 
HETATM   30  N   UNL     1     -11.888  16.220  70.586  1.00  0.00    -0.488 NA 
HETATM   31  C   UNL     1     -10.630  16.194  67.065  1.00  0.00    -0.292 A  
HETATM   32  S   UNL     1     -10.621  17.215  68.440  1.00  0.00    -0.355 SA 
HETATM   33  H1  UNL     1     -12.418  15.520  71.104  1.00  0.00     0.000 HD 
HETATM   34  H2  UNL     1     -11.634  17.091  71.052  1.00  0.00     0.000 HD 
HETATM   35  C   UNL     1     -11.514  16.036  69.313  1.00  0.00    -0.350 A  
ENDBRANCH  27  28
BRANCH  27  36
HETATM   36  N   UNL     1     -12.596  13.964  65.706  1.00  0.00    -0.504 NA 
HETATM   37  H   UNL     1     -13.160  14.811  65.633  1.00  0.00     0.000 HD 
BRANCH  36  38
HETATM   38  O   UNL     1     -12.938  12.770  65.073  1.00  0.00    -0.811 OA 
HETATM   39  C   UNL     1     -12.624  12.912  63.688  1.00  0.00    -0.232 C  
ENDBRANCH  36  38
ENDBRANCH  27  36
ENDBRANCH  24  27
ENDBRANCH   5  23
TORSDOF 7
ENDMDL
MODEL       51
REMARK 921   NORMALIZED FREE ENERGY PREDICTED BY IDOCK:   -6.30 KCAL/MOL
REMARK 922        TOTAL FREE ENERGY PREDICTED BY IDOCK:  -10.09 KCAL/MOL
REMARK 923 INTER-LIGAND FREE ENERGY PREDICTED BY IDOCK:   -8.78 KCAL/MOL
REMARK 924 INTRA-LIGAND FREE ENERGY PREDICTED BY IDOCK:   -1.31 KCAL/MOL
REMARK 927      BINDING AFFINITY PREDICTED BY RF-SCORE:    0.00 PKD
ROOT
HETATM    1  C   UNL     1      -9.712  10.444  67.796  1.00  0.00    -0.160 C  
HETATM    2  S   UNL     1     -11.314  10.657  68.635  1.00  0.00    -0.267 SA 
HETATM    3  C   UNL     1     -11.507  12.371  68.182  1.00  0.00    -0.318 C  
HETATM    4  C   UNL     1     -10.323  13.251  68.474  1.00  0.00    -0.244 C  
HETATM    5  CA  UNL     1      -8.769   9.373  68.433  1.00  0.00    -0.124 C  
HETATM    6  CA  UNL     1      -9.042  12.792  68.439  1.00  0.00    -0.129 C  
HETATM    7  C   UNL     1      -7.821  13.796  68.488  1.00  0.00    -0.132 C  
HETATM    8  O   UNL     1      -6.967  10.777  69.603  1.00  0.00    -0.112 OA 
HETATM    9  N   UNL     1      -8.777  11.455  68.241  1.00  0.00    -0.154 N  
HETATM   10  OXT UNL     1      -8.060  14.881  69.116  1.00  0.00    -0.167 OA 
HETATM   11  O   UNL     1      -6.849  13.498  67.746  1.00  0.00    -0.132 OA 
HETATM   12  C   UNL     1      -7.893  10.614  68.837  1.00  0.00    -0.129 C  
ENDROOT
BRANCH   4  13
HETATM   13  C   UNL     1     -10.722  14.712  68.560  1.00  0.00    -0.247 C  
BRANCH  13  14
HETATM   14  N   UNL     1     -10.668  15.560  67.321  1.00  0.00    -0.304 NA 
HETATM   15  C   UNL     1     -10.559  16.912  67.280  1.00  0.00    -0.270 A  
HETATM   16  C   UNL     1     -10.392  17.892  68.406  1.00  0.00    -0.380 C  
HETATM   17  C   UNL     1     -10.371  19.273  67.716  1.00  0.00    -0.531 C  
HETATM   18  C   UNL     1     -10.880  14.897  66.144  1.00  0.00    -0.327 A  
HETATM   19  C   UNL     1     -10.457  19.074  66.204  1.00  0.00    -0.541 C  
HETATM   20  C   UNL     1     -10.998  15.564  64.926  1.00  0.00    -0.452 A  
HETATM   21  C   UNL     1     -10.877  16.938  64.873  1.00  0.00    -0.012 A  
HETATM   22  C   UNL     1     -10.651  17.601  66.062  1.00  0.00    -0.220 A  
ENDBRANCH  13  14
ENDBRANCH   4  13
BRANCH   5  23
HETATM   23  N   UNL     1      -9.299   8.625  69.607  1.00  0.00    -0.160 N  
HETATM   24  C   UNL     1      -9.916   7.387  69.552  1.00  0.00    -0.179 C  
HETATM   25  O   UNL     1      -9.917   6.690  68.548  1.00  0.00    -0.143 OA 
HETATM   26  H   UNL     1      -9.198   9.060  70.524  1.00  0.00     0.000 HD 
BRANCH  24  27
HETATM   27  C   UNL     1     -10.622   6.960  70.875  1.00  0.00    -0.218 C  
BRANCH  27  28
HETATM   28  C   UNL     1     -11.870   7.619  71.283  1.00  0.00    -0.292 A  
HETATM   29  N   UNL     1     -11.874   8.935  71.736  1.00  0.00    -0.334 NA 
HETATM   30  N   UNL     1     -13.348  10.553  72.520  1.00  0.00    -0.429 NA 
HETATM   31  C   UNL     1     -13.132   7.052  71.226  1.00  0.00    -0.262 A  
HETATM   32  S   UNL     1     -14.315   8.165  71.766  1.00  0.00    -0.491 SA 
HETATM   33  H1  UNL     1     -12.616  11.244  72.682  1.00  0.00     0.000 HD 
HETATM   34  H2  UNL     1     -14.315  10.800  72.729  1.00  0.00     0.000 HD 
HETATM   35  C   UNL     1     -13.082   9.330  72.040  1.00  0.00    -0.436 A  
ENDBRANCH  27  28
BRANCH  27  36
HETATM   36  N   UNL     1     -10.230   6.008  71.676  1.00  0.00    -0.197 NA 
HETATM   37  H   UNL     1      -9.820   6.189  72.593  1.00  0.00     0.000 HD 
BRANCH  36  38
HETATM   38  O   UNL     1     -10.419   4.722  71.171  1.00  0.00    -0.163 OA 
HETATM   39  C   UNL     1      -9.137   4.101  71.087  1.00  0.00    -0.124 C  
ENDBRANCH  36  38
ENDBRANCH  27  36
ENDBRANCH  24  27
ENDBRANCH   5  23
TORSDOF 7
ENDMDL
MODEL       52
REMARK 921   NORMALIZED FREE ENERGY PREDICTED BY IDOCK:   -6.30 KCAL/MOL
REMARK 922        TOTAL FREE ENERGY PREDICTED BY IDOCK:  -10.09 KCAL/MOL
REMARK 923 INTER-LIGAND FREE ENERGY PREDICTED BY IDOCK:   -8.57 KCAL/MOL
REMARK 924 INTRA-LIGAND FREE ENERGY PREDICTED BY IDOCK:   -1.51 KCAL/MOL
REMARK 927      BINDING AFFINITY PREDICTED BY RF-SCORE:    0.00 PKD
ROOT
HETATM    1  C   UNL     1      -8.725   9.158  70.157  1.00  0.00    -0.181 C  
HETATM    2  S   UNL     1      -8.668   9.813  68.459  1.00  0.00    -0.122 SA 
HETATM    3  C   UNL     1      -9.822  11.139  68.758  1.00  0.00    -0.192 C  
HETATM    4  C   UNL     1     -11.111  10.732  69.420  1.00  0.00    -0.324 C  
HETATM    5  CA  UNL     1      -8.457   7.624  70.282  1.00  0.00    -0.134 C  
HETATM    6  CA  UNL     1     -11.188   9.698  70.301  1.00  0.00    -0.271 C  
HETATM    7  C   UNL     1     -12.489   9.472  71.172  1.00  0.00    -0.315 C  
HETATM    8  O   UNL     1     -10.778   6.643  70.770  1.00  0.00    -0.223 OA 
HETATM    9  N   UNL     1     -10.095   8.896  70.544  1.00  0.00    -0.194 N  
HETATM   10  OXT UNL     1     -13.565   9.882  70.621  1.00  0.00    -0.183 OA 
HETATM   11  O   UNL     1     -12.286   9.107  72.359  1.00  0.00    -0.307 OA 
HETATM   12  C   UNL     1      -9.978   7.549  70.673  1.00  0.00    -0.183 C  
ENDROOT
BRANCH   4  13
HETATM   13  C   UNL     1     -12.209  11.750  69.174  1.00  0.00    -0.108 C  
BRANCH  13  14
HETATM   14  N   UNL     1     -11.991  13.177  69.586  1.00  0.00    -0.317 NA 
HETATM   15  C   UNL     1     -12.401  13.747  70.748  1.00  0.00    -0.379 A  
HETATM   16  C   UNL     1     -13.088  13.122  71.928  1.00  0.00    -0.482 C  
HETATM   17  C   UNL     1     -13.322  14.295  72.905  1.00  0.00    -0.561 C  
HETATM   18  C   UNL     1     -11.442  13.988  68.633  1.00  0.00    -0.302 A  
HETATM   19  C   UNL     1     -12.711  15.563  72.312  1.00  0.00    -0.487 C  
HETATM   20  C   UNL     1     -11.307  15.364  68.814  1.00  0.00    -0.328 A  
HETATM   21  C   UNL     1     -11.710  15.950  69.998  1.00  0.00    -0.340 A  
HETATM   22  C   UNL     1     -12.252  15.125  70.961  1.00  0.00    -0.393 A  
ENDBRANCH  13  14
ENDBRANCH   4  13
BRANCH   5  23
HETATM   23  N   UNL     1      -8.141   6.891  69.024  1.00  0.00    -0.116 N  
HETATM   24  C   UNL     1      -7.857   5.538  68.939  1.00  0.00    -0.095 C  
HETATM   25  O   UNL     1      -8.026   4.765  69.869  1.00  0.00    -0.067 OA 
HETATM   26  H   UNL     1      -8.134   7.429  68.158  1.00  0.00     0.000 HD 
BRANCH  24  27
HETATM   27  C   UNL     1      -7.290   5.086  67.558  1.00  0.00    -0.079 C  
BRANCH  27  28
HETATM   28  C   UNL     1      -8.186   4.478  66.565  1.00  0.00    -0.103 A  
HETATM   29  N   UNL     1      -9.486   4.943  66.388  1.00  0.00    -0.143 NA 
HETATM   30  N   UNL     1     -11.381   4.516  65.111  1.00  0.00    -1.113 NA 
HETATM   31  C   UNL     1      -7.846   3.452  65.700  1.00  0.00    -0.085 A  
HETATM   32  S   UNL     1      -9.168   3.058  64.687  1.00  0.00    -0.147 SA 
HETATM   33  H1  UNL     1     -11.939   5.237  65.568  1.00  0.00     0.000 HD 
HETATM   34  H2  UNL     1     -11.805   3.961  64.368  1.00  0.00     0.000 HD 
HETATM   35  C   UNL     1     -10.109   4.273  65.455  1.00  0.00    -0.225 A  
ENDBRANCH  27  28
BRANCH  27  36
HETATM   36  N   UNL     1      -6.060   5.233  67.153  1.00  0.00    -0.029 NA 
HETATM   37  H   UNL     1      -5.502   4.463  66.784  1.00  0.00     0.000 HD 
BRANCH  36  38
HETATM   38  O   UNL     1      -5.572   6.535  67.268  1.00  0.00    -0.012 OA 
HETATM   39  C   UNL     1      -6.058   7.277  66.151  1.00  0.00    -0.037 C  
ENDBRANCH  36  38
ENDBRANCH  27  36
ENDBRANCH  24  27
ENDBRANCH   5  23
TORSDOF 7
ENDMDL
MODEL       53
REMARK 921   NORMALIZED FREE ENERGY PREDICTED BY IDOCK:   -6.29 KCAL/MOL
REMARK 922        TOTAL FREE ENERGY PREDICTED BY IDOCK:  -10.07 KCAL/MOL
REMARK 923 INTER-LIGAND FREE ENERGY PREDICTED BY IDOCK:   -8.46 KCAL/MOL
REMARK 924 INTRA-LIGAND FREE ENERGY PREDICTED BY IDOCK:   -1.61 KCAL/MOL
REMARK 927      BINDING AFFINITY PREDICTED BY RF-SCORE:    0.00 PKD
ROOT
HETATM    1  C   UNL     1      -8.067  10.805  68.093  1.00  0.00    -0.117 C  
HETATM    2  S   UNL     1      -9.789  11.112  68.597  1.00  0.00    -0.193 SA 
HETATM    3  C   UNL     1     -10.163   9.403  68.944  1.00  0.00    -0.200 C  
HETATM    4  C   UNL     1      -9.805   8.432  67.852  1.00  0.00    -0.208 C  
HETATM    5  CA  UNL     1      -7.493  11.818  67.050  1.00  0.00    -0.137 C  
HETATM    6  CA  UNL     1      -8.752   8.627  67.014  1.00  0.00    -0.127 C  
HETATM    7  C   UNL     1      -8.249   7.468  66.062  1.00  0.00    -0.130 C  
HETATM    8  O   UNL     1      -7.441  10.470  64.867  1.00  0.00    -0.104 OA 
HETATM    9  N   UNL     1      -8.023   9.796  67.057  1.00  0.00    -0.105 N  
HETATM   10  OXT UNL     1      -9.161   6.648  65.710  1.00  0.00    -0.093 OA 
HETATM   11  O   UNL     1      -7.000   7.382  65.932  1.00  0.00    -0.059 OA 
HETATM   12  C   UNL     1      -7.534  10.589  66.070  1.00  0.00    -0.137 C  
ENDROOT
BRANCH   4  13
HETATM   13  C   UNL     1     -10.593   7.141  67.975  1.00  0.00    -0.196 C  
BRANCH  13  14
HETATM   14  N   UNL     1     -10.283   6.198  69.102  1.00  0.00    -0.178 NA 
HETATM   15  C   UNL     1     -10.905   6.159  70.308  1.00  0.00    -0.319 A  
HETATM   16  C   UNL     1     -12.075   6.959  70.806  1.00  0.00    -0.400 C  
HETATM   17  C   UNL     1     -12.277   6.482  72.260  1.00  0.00    -0.201 C  
HETATM   18  C   UNL     1      -9.186   5.403  68.920  1.00  0.00    -0.120 A  
HETATM   19  C   UNL     1     -11.274   5.371  72.562  1.00  0.00    -0.305 C  
HETATM   20  C   UNL     1      -8.690   4.577  69.927  1.00  0.00    -0.108 A  
HETATM   21  C   UNL     1      -9.324   4.523  71.153  1.00  0.00    -0.212 A  
HETATM   22  C   UNL     1     -10.437   5.318  71.328  1.00  0.00    -0.274 A  
ENDBRANCH  13  14
ENDBRANCH   4  13
BRANCH   5  23
HETATM   23  N   UNL     1      -8.390  12.930  66.630  1.00  0.00    -0.418 N  
HETATM   24  C   UNL     1      -8.213  14.265  66.957  1.00  0.00    -0.089 C  
HETATM   25  O   UNL     1      -7.188  14.692  67.466  1.00  0.00    -0.178 OA 
HETATM   26  H   UNL     1      -9.199  12.690  66.057  1.00  0.00     0.000 HD 
BRANCH  24  27
HETATM   27  C   UNL     1      -9.436  15.175  66.631  1.00  0.00    -0.263 C  
BRANCH  27  28
HETATM   28  C   UNL     1     -10.637  14.593  66.016  1.00  0.00    -0.309 A  
HETATM   29  N   UNL     1     -10.727  14.418  64.638  1.00  0.00    -0.388 NA 
HETATM   30  N   UNL     1     -12.206  13.631  63.027  1.00  0.00    -0.963 NA 
HETATM   31  C   UNL     1     -11.746  14.131  66.703  1.00  0.00    -0.403 A  
HETATM   32  S   UNL     1     -12.908  13.504  65.613  1.00  0.00    -0.157 SA 
HETATM   33  H1  UNL     1     -11.589  13.855  62.246  1.00  0.00     0.000 HD 
HETATM   34  H2  UNL     1     -13.111  13.202  62.832  1.00  0.00     0.000 HD 
HETATM   35  C   UNL     1     -11.869  13.881  64.299  1.00  0.00    -0.412 A  
ENDBRANCH  27  28
BRANCH  27  36
HETATM   36  N   UNL     1      -9.532  16.448  66.895  1.00  0.00    -0.228 NA 
HETATM   37  H   UNL     1      -9.780  16.806  67.817  1.00  0.00     0.000 HD 
BRANCH  36  38
HETATM   38  O   UNL     1      -9.265  17.279  65.807  1.00  0.00    -0.517 OA 
HETATM   39  C   UNL     1      -8.248  18.197  66.206  1.00  0.00    -0.212 C  
ENDBRANCH  36  38
ENDBRANCH  27  36
ENDBRANCH  24  27
ENDBRANCH   5  23
TORSDOF 7
ENDMDL
MODEL       54
REMARK 921   NORMALIZED FREE ENERGY PREDICTED BY IDOCK:   -6.28 KCAL/MOL
REMARK 922        TOTAL FREE ENERGY PREDICTED BY IDOCK:  -10.06 KCAL/MOL
REMARK 923 INTER-LIGAND FREE ENERGY PREDICTED BY IDOCK:   -8.58 KCAL/MOL
REMARK 924 INTRA-LIGAND FREE ENERGY PREDICTED BY IDOCK:   -1.48 KCAL/MOL
REMARK 927      BINDING AFFINITY PREDICTED BY RF-SCORE:    0.00 PKD
ROOT
HETATM    1  C   UNL     1      -8.525  11.127  68.140  1.00  0.00    -0.138 C  
HETATM    2  S   UNL     1     -10.297  11.261  68.536  1.00  0.00    -0.209 SA 
HETATM    3  C   UNL     1     -10.507   9.534  68.927  1.00  0.00    -0.216 C  
HETATM    4  C   UNL     1      -9.984   8.573  67.894  1.00  0.00    -0.225 C  
HETATM    5  CA  UNL     1      -8.001  12.162  67.093  1.00  0.00    -0.170 C  
HETATM    6  CA  UNL     1      -8.909   8.854  67.108  1.00  0.00    -0.123 C  
HETATM    7  C   UNL     1      -8.231   7.726  66.231  1.00  0.00    -0.122 C  
HETATM    8  O   UNL     1      -7.678  10.758  64.969  1.00  0.00    -0.022 OA 
HETATM    9  N   UNL     1      -8.313  10.095  67.147  1.00  0.00    -0.124 N  
HETATM   10  OXT UNL     1      -9.028   6.801  65.861  1.00  0.00    -0.147 OA 
HETATM   11  O   UNL     1      -6.975   7.771  66.174  1.00  0.00    -0.060 OA 
HETATM   12  C   UNL     1      -7.854  10.905  66.159  1.00  0.00    -0.144 C  
ENDROOT
BRANCH   4  13
HETATM   13  C   UNL     1     -10.635   7.209  68.023  1.00  0.00    -0.196 C  
BRANCH  13  14
HETATM   14  N   UNL     1     -10.292   6.340  69.199  1.00  0.00    -0.195 NA 
HETATM   15  C   UNL     1     -10.989   6.251  70.360  1.00  0.00    -0.322 A  
HETATM   16  C   UNL     1     -12.284   6.907  70.750  1.00  0.00    -0.364 C  
HETATM   17  C   UNL     1     -12.529   6.443  72.202  1.00  0.00    -0.173 C  
HETATM   18  C   UNL     1      -9.094   5.687  69.119  1.00  0.00    -0.112 A  
HETATM   19  C   UNL     1     -11.419   5.477  72.608  1.00  0.00    -0.331 C  
HETATM   20  C   UNL     1      -8.573   4.956  70.185  1.00  0.00    -0.107 A  
HETATM   21  C   UNL     1      -9.281   4.850  71.365  1.00  0.00    -0.188 A  
HETATM   22  C   UNL     1     -10.495   5.501  71.437  1.00  0.00    -0.305 A  
ENDBRANCH  13  14
ENDBRANCH   4  13
BRANCH   5  23
HETATM   23  N   UNL     1      -8.985  13.156  66.581  1.00  0.00    -0.403 N  
HETATM   24  C   UNL     1      -8.897  14.527  66.756  1.00  0.00    -0.220 C  
HETATM   25  O   UNL     1      -7.895  15.078  67.185  1.00  0.00    -0.199 OA 
HETATM   26  H   UNL     1      -9.787  12.799  66.062  1.00  0.00     0.000 HD 
BRANCH  24  27
HETATM   27  C   UNL     1     -10.190  15.310  66.370  1.00  0.00    -0.277 C  
BRANCH  27  28
HETATM   28  C   UNL     1     -10.297  16.742  66.680  1.00  0.00    -0.297 A  
HETATM   29  N   UNL     1     -10.144  17.707  65.689  1.00  0.00    -0.583 NA 
HETATM   30  N   UNL     1     -10.160  20.015  65.421  1.00  0.00    -0.357 NA 
HETATM   31  C   UNL     1     -10.592  17.273  67.924  1.00  0.00    -0.384 A  
HETATM   32  S   UNL     1     -10.651  18.982  67.849  1.00  0.00    -0.301 SA 
HETATM   33  H1  UNL     1      -9.942  19.974  64.426  1.00  0.00     0.000 HD 
HETATM   34  H2  UNL     1     -10.289  20.927  65.860  1.00  0.00     0.000 HD 
HETATM   35  C   UNL     1     -10.283  18.913  66.172  1.00  0.00    -0.433 A  
ENDBRANCH  27  28
BRANCH  27  36
HETATM   36  N   UNL     1     -11.217  14.819  65.734  1.00  0.00    -0.334 NA 
HETATM   37  H   UNL     1     -12.181  15.027  65.995  1.00  0.00     0.000 HD 
BRANCH  36  38
HETATM   38  O   UNL     1     -10.884  13.986  64.667  1.00  0.00    -0.401 OA 
HETATM   39  C   UNL     1     -12.021  13.172  64.386  1.00  0.00    -0.397 C  
ENDBRANCH  36  38
ENDBRANCH  27  36
ENDBRANCH  24  27
ENDBRANCH   5  23
TORSDOF 7
ENDMDL
MODEL       55
REMARK 921   NORMALIZED FREE ENERGY PREDICTED BY IDOCK:   -6.28 KCAL/MOL
REMARK 922        TOTAL FREE ENERGY PREDICTED BY IDOCK:  -10.06 KCAL/MOL
REMARK 923 INTER-LIGAND FREE ENERGY PREDICTED BY IDOCK:   -8.46 KCAL/MOL
REMARK 924 INTRA-LIGAND FREE ENERGY PREDICTED BY IDOCK:   -1.60 KCAL/MOL
REMARK 927      BINDING AFFINITY PREDICTED BY RF-SCORE:    0.00 PKD
ROOT
HETATM    1  C   UNL     1      -7.792  10.753  67.477  1.00  0.00    -0.109 C  
HETATM    2  S   UNL     1      -8.353  10.985  69.193  1.00  0.00     0.049 SA 
HETATM    3  C   UNL     1      -8.042   9.302  69.694  1.00  0.00    -0.116 C  
HETATM    4  C   UNL     1      -8.621   8.245  68.793  1.00  0.00    -0.133 C  
HETATM    5  CA  UNL     1      -8.478  11.684  66.426  1.00  0.00    -0.114 C  
HETATM    6  CA  UNL     1      -8.768   8.424  67.452  1.00  0.00    -0.135 C  
HETATM    7  C   UNL     1      -9.128   7.208  66.507  1.00  0.00    -0.154 C  
HETATM    8  O   UNL     1     -10.078  10.111  65.180  1.00  0.00    -0.326 OA 
HETATM    9  N   UNL     1      -8.491   9.641  66.869  1.00  0.00    -0.120 N  
HETATM   10  OXT UNL     1      -9.806   6.288  67.074  1.00  0.00    -0.134 OA 
HETATM   11  O   UNL     1      -8.543   7.201  65.393  1.00  0.00    -0.123 OA 
HETATM   12  C   UNL     1      -9.148  10.355  65.919  1.00  0.00    -0.165 C  
ENDROOT
BRANCH   4  13
HETATM   13  C   UNL     1      -8.777   6.921  69.516  1.00  0.00    -0.133 C  
BRANCH  13  14
HETATM   14  N   UNL     1      -9.902   6.748  70.496  1.00  0.00    -0.176 NA 
HETATM   15  C   UNL     1      -9.862   6.022  71.642  1.00  0.00    -0.170 A  
HETATM   16  C   UNL     1      -8.712   5.283  72.265  1.00  0.00    -0.129 C  
HETATM   17  C   UNL     1      -9.312   4.630  73.529  1.00  0.00    -0.127 C  
HETATM   18  C   UNL     1     -11.103   7.274  70.111  1.00  0.00    -0.258 A  
HETATM   19  C   UNL     1     -10.775   5.051  73.658  1.00  0.00    -0.350 C  
HETATM   20  C   UNL     1     -12.271   7.075  70.846  1.00  0.00    -0.388 A  
HETATM   21  C   UNL     1     -12.237   6.348  72.019  1.00  0.00    -0.320 A  
HETATM   22  C   UNL     1     -11.020   5.830  72.410  1.00  0.00    -0.308 A  
ENDBRANCH  13  14
ENDBRANCH   4  13
BRANCH   5  23
HETATM   23  N   UNL     1      -9.463  12.673  66.946  1.00  0.00    -0.222 N  
HETATM   24  C   UNL     1     -10.188  13.561  66.168  1.00  0.00    -0.302 C  
HETATM   25  O   UNL     1     -10.235  13.490  64.950  1.00  0.00    -0.360 OA 
HETATM   26  H   UNL     1      -9.615  12.699  67.954  1.00  0.00     0.000 HD 
BRANCH  24  27
HETATM   27  C   UNL     1     -10.931  14.667  66.978  1.00  0.00    -0.317 C  
BRANCH  27  28
HETATM   28  C   UNL     1     -10.365  16.021  67.054  1.00  0.00    -0.292 A  
HETATM   29  N   UNL     1      -9.268  16.388  66.280  1.00  0.00    -0.292 NA 
HETATM   30  N   UNL     1      -7.889  18.216  65.882  1.00  0.00    -0.532 NA 
HETATM   31  C   UNL     1     -10.859  17.054  67.833  1.00  0.00    -0.302 A  
HETATM   32  S   UNL     1      -9.928  18.473  67.608  1.00  0.00    -0.357 SA 
HETATM   33  H1  UNL     1      -7.296  17.716  65.220  1.00  0.00     0.000 HD 
HETATM   34  H2  UNL     1      -7.684  19.194  66.088  1.00  0.00     0.000 HD 
HETATM   35  C   UNL     1      -8.929  17.632  66.492  1.00  0.00    -0.262 A  
ENDBRANCH  27  28
BRANCH  27  36
HETATM   36  N   UNL     1     -12.074  14.528  67.589  1.00  0.00    -0.588 NA 
HETATM   37  H   UNL     1     -12.881  15.121  67.397  1.00  0.00     0.000 HD 
BRANCH  36  38
HETATM   38  O   UNL     1     -12.099  13.497  68.528  1.00  0.00    -0.359 OA 
HETATM   39  C   UNL     1     -11.972  14.089  69.819  1.00  0.00    -0.334 C  
ENDBRANCH  36  38
ENDBRANCH  27  36
ENDBRANCH  24  27
ENDBRANCH   5  23
TORSDOF 7
ENDMDL
MODEL       56
REMARK 921   NORMALIZED FREE ENERGY PREDICTED BY IDOCK:   -6.26 KCAL/MOL
REMARK 922        TOTAL FREE ENERGY PREDICTED BY IDOCK:  -10.03 KCAL/MOL
REMARK 923 INTER-LIGAND FREE ENERGY PREDICTED BY IDOCK:   -8.63 KCAL/MOL
REMARK 924 INTRA-LIGAND FREE ENERGY PREDICTED BY IDOCK:   -1.41 KCAL/MOL
REMARK 927      BINDING AFFINITY PREDICTED BY RF-SCORE:    0.00 PKD
ROOT
HETATM    1  C   UNL     1      -8.265  12.009  67.230  1.00  0.00    -0.173 C  
HETATM    2  S   UNL     1      -8.093  12.240  69.028  1.00  0.00     0.406 SA 
HETATM    3  C   UNL     1      -7.670  10.542  69.370  1.00  0.00    -0.155 C  
HETATM    4  C   UNL     1      -8.597   9.516  68.775  1.00  0.00    -0.123 C  
HETATM    5  CA  UNL     1      -9.276  12.975  66.533  1.00  0.00    -0.181 C  
HETATM    6  CA  UNL     1      -9.255   9.715  67.601  1.00  0.00    -0.130 C  
HETATM    7  C   UNL     1     -10.003   8.523  66.880  1.00  0.00    -0.265 C  
HETATM    8  O   UNL     1     -11.294  11.472  66.027  1.00  0.00    -0.253 OA 
HETATM    9  N   UNL     1      -9.187  10.929  66.952  1.00  0.00    -0.159 N  
HETATM   10  OXT UNL     1     -10.435   7.621  67.672  1.00  0.00    -0.225 OA 
HETATM   11  O   UNL     1      -9.908   8.508  65.625  1.00  0.00     0.036 OA 
HETATM   12  C   UNL     1     -10.140  11.676  66.338  1.00  0.00    -0.214 C  
ENDROOT
BRANCH   4  13
HETATM   13  C   UNL     1      -8.502   8.190  69.505  1.00  0.00    -0.127 C  
BRANCH  13  14
HETATM   14  N   UNL     1      -9.451   7.904  70.633  1.00  0.00    -0.162 NA 
HETATM   15  C   UNL     1      -9.762   6.679  71.129  1.00  0.00    -0.174 A  
HETATM   16  C   UNL     1      -9.212   5.331  70.757  1.00  0.00    -0.191 C  
HETATM   17  C   UNL     1      -9.994   4.338  71.644  1.00  0.00    -0.250 C  
HETATM   18  C   UNL     1     -10.150   8.981  71.102  1.00  0.00    -0.295 A  
HETATM   19  C   UNL     1     -10.931   5.123  72.561  1.00  0.00    -0.276 C  
HETATM   20  C   UNL     1     -11.165   8.855  72.048  1.00  0.00    -0.422 A  
HETATM   21  C   UNL     1     -11.479   7.614  72.566  1.00  0.00    -0.405 A  
HETATM   22  C   UNL     1     -10.763   6.532  72.099  1.00  0.00    -0.249 A  
ENDBRANCH  13  14
ENDBRANCH   4  13
BRANCH   5  23
HETATM   23  N   UNL     1      -9.939  13.992  67.397  1.00  0.00    -0.241 N  
HETATM   24  C   UNL     1     -10.840  14.947  66.957  1.00  0.00    -0.315 C  
HETATM   25  O   UNL     1     -11.333  14.928  65.840  1.00  0.00    -0.340 OA 
HETATM   26  H   UNL     1      -9.710  13.983  68.391  1.00  0.00     0.000 HD 
BRANCH  24  27
HETATM   27  C   UNL     1     -11.165  16.056  68.004  1.00  0.00    -0.303 C  
BRANCH  27  28
HETATM   28  C   UNL     1     -10.508  17.366  67.907  1.00  0.00    -0.383 A  
HETATM   29  N   UNL     1     -10.514  18.089  66.717  1.00  0.00    -0.350 NA 
HETATM   30  N   UNL     1      -9.733  20.092  65.835  1.00  0.00    -0.593 NA 
HETATM   31  C   UNL     1      -9.875  18.025  68.947  1.00  0.00    -0.314 A  
HETATM   32  S   UNL     1      -9.269  19.537  68.419  1.00  0.00    -0.343 SA 
HETATM   33  H1  UNL     1     -10.098  19.907  64.901  1.00  0.00     0.000 HD 
HETATM   34  H2  UNL     1      -9.236  20.967  66.006  1.00  0.00     0.000 HD 
HETATM   35  C   UNL     1      -9.883  19.226  66.846  1.00  0.00    -0.342 A  
ENDBRANCH  27  28
BRANCH  27  36
HETATM   36  N   UNL     1     -12.027  15.958  68.977  1.00  0.00    -0.492 NA 
HETATM   37  H   UNL     1     -12.522  16.762  69.362  1.00  0.00     0.000 HD 
BRANCH  36  38
HETATM   38  O   UNL     1     -12.213  14.658  69.446  1.00  0.00    -0.298 OA 
HETATM   39  C   UNL     1     -12.011  14.677  70.858  1.00  0.00    -0.326 C  
ENDBRANCH  36  38
ENDBRANCH  27  36
ENDBRANCH  24  27
ENDBRANCH   5  23
TORSDOF 7
ENDMDL
MODEL       57
REMARK 921   NORMALIZED FREE ENERGY PREDICTED BY IDOCK:   -6.26 KCAL/MOL
REMARK 922        TOTAL FREE ENERGY PREDICTED BY IDOCK:  -10.03 KCAL/MOL
REMARK 923 INTER-LIGAND FREE ENERGY PREDICTED BY IDOCK:   -8.50 KCAL/MOL
REMARK 924 INTRA-LIGAND FREE ENERGY PREDICTED BY IDOCK:   -1.52 KCAL/MOL
REMARK 927      BINDING AFFINITY PREDICTED BY RF-SCORE:    0.00 PKD
ROOT
HETATM    1  C   UNL     1     -11.403  12.218  66.681  1.00  0.00    -0.343 C  
HETATM    2  S   UNL     1      -9.839  12.095  65.758  1.00  0.00    -0.228 SA 
HETATM    3  C   UNL     1      -9.501  10.411  66.236  1.00  0.00    -0.171 C  
HETATM    4  C   UNL     1      -9.588  10.131  67.712  1.00  0.00    -0.168 C  
HETATM    5  CA  UNL     1     -11.768  13.654  67.176  1.00  0.00    -0.383 C  
HETATM    6  CA  UNL     1     -10.442  10.798  68.535  1.00  0.00    -0.187 C  
HETATM    7  C   UNL     1     -10.696  10.298  70.014  1.00  0.00    -0.292 C  
HETATM    8  O   UNL     1     -11.312  13.556  69.700  1.00  0.00    -0.234 OA 
HETATM    9  N   UNL     1     -11.196  11.851  68.066  1.00  0.00    -0.237 N  
HETATM   10  OXT UNL     1      -9.708   9.682  70.535  1.00  0.00    -0.259 OA 
HETATM   11  O   UNL     1     -11.885  10.390  70.416  1.00  0.00    -0.278 OA 
HETATM   12  C   UNL     1     -11.483  13.064  68.605  1.00  0.00    -0.307 C  
ENDROOT
BRANCH   4  13
HETATM   13  C   UNL     1      -8.810   8.885  68.090  1.00  0.00    -0.134 C  
BRANCH  13  14
HETATM   14  N   UNL     1      -9.256   7.553  67.558  1.00  0.00    -0.127 NA 
HETATM   15  C   UNL     1      -8.706   6.881  66.515  1.00  0.00    -0.133 A  
HETATM   16  C   UNL     1      -7.503   7.227  65.684  1.00  0.00    -0.085 C  
HETATM   17  C   UNL     1      -7.419   6.095  64.637  1.00  0.00    -0.085 C  
HETATM   18  C   UNL     1     -10.402   7.053  68.110  1.00  0.00    -0.191 A  
HETATM   19  C   UNL     1      -8.524   5.079  64.915  1.00  0.00    -0.147 C  
HETATM   20  C   UNL     1     -11.018   5.899  67.628  1.00  0.00    -0.247 A  
HETATM   21  C   UNL     1     -10.458   5.203  66.575  1.00  0.00    -0.346 A  
HETATM   22  C   UNL     1      -9.295   5.705  66.029  1.00  0.00    -0.150 A  
ENDBRANCH  13  14
ENDBRANCH   4  13
BRANCH   5  23
HETATM   23  N   UNL     1     -10.833  14.752  66.801  1.00  0.00    -0.310 N  
HETATM   24  C   UNL     1     -10.863  16.036  67.319  1.00  0.00    -0.255 C  
HETATM   25  O   UNL     1     -11.543  16.347  68.284  1.00  0.00    -0.255 OA 
HETATM   26  H   UNL     1     -10.114  14.540  66.109  1.00  0.00     0.000 HD 
BRANCH  24  27
HETATM   27  C   UNL     1      -9.962  17.057  66.557  1.00  0.00    -0.310 C  
BRANCH  27  28
HETATM   28  C   UNL     1      -8.500  16.952  66.649  1.00  0.00    -0.250 A  
HETATM   29  N   UNL     1      -7.891  15.810  67.161  1.00  0.00    -0.191 NA 
HETATM   30  N   UNL     1      -5.776  14.957  67.609  1.00  0.00    -0.332 NA 
HETATM   31  C   UNL     1      -7.598  17.909  66.217  1.00  0.00    -0.280 A  
HETATM   32  S   UNL     1      -5.991  17.382  66.480  1.00  0.00    -0.217 SA 
HETATM   33  H1  UNL     1      -6.131  14.087  68.006  1.00  0.00     0.000 HD 
HETATM   34  H2  UNL     1      -4.767  15.102  67.562  1.00  0.00     0.000 HD 
HETATM   35  C   UNL     1      -6.589  15.917  67.148  1.00  0.00    -0.097 A  
ENDBRANCH  27  28
BRANCH  27  36
HETATM   36  N   UNL     1     -10.384  18.014  65.778  1.00  0.00    -0.618 NA 
HETATM   37  H   UNL     1     -10.346  17.957  64.761  1.00  0.00     0.000 HD 
BRANCH  36  38
HETATM   38  O   UNL     1     -10.893  19.121  66.456  1.00  0.00    -0.382 OA 
HETATM   39  C   UNL     1     -10.183  20.270  65.997  1.00  0.00    -0.277 C  
ENDBRANCH  36  38
ENDBRANCH  27  36
ENDBRANCH  24  27
ENDBRANCH   5  23
TORSDOF 7
ENDMDL
MODEL       58
REMARK 921   NORMALIZED FREE ENERGY PREDICTED BY IDOCK:   -6.25 KCAL/MOL
REMARK 922        TOTAL FREE ENERGY PREDICTED BY IDOCK:  -10.01 KCAL/MOL
REMARK 923 INTER-LIGAND FREE ENERGY PREDICTED BY IDOCK:   -9.29 KCAL/MOL
REMARK 924 INTRA-LIGAND FREE ENERGY PREDICTED BY IDOCK:   -0.72 KCAL/MOL
REMARK 927      BINDING AFFINITY PREDICTED BY RF-SCORE:    0.00 PKD
ROOT
HETATM    1  C   UNL     1      -8.900  15.661  69.395  1.00  0.00    -0.257 C  
HETATM    2  S   UNL     1     -10.172  15.870  68.109  1.00  0.00    -0.237 SA 
HETATM    3  C   UNL     1     -10.665  14.157  68.089  1.00  0.00    -0.245 C  
HETATM    4  C   UNL     1      -9.541  13.166  67.954  1.00  0.00    -0.218 C  
HETATM    5  CA  UNL     1      -7.705  16.664  69.312  1.00  0.00    -0.110 C  
HETATM    6  CA  UNL     1      -8.296  13.396  68.455  1.00  0.00    -0.137 C  
HETATM    7  C   UNL     1      -7.226  12.234  68.529  1.00  0.00    -0.103 C  
HETATM    8  O   UNL     1      -5.775  15.230  68.416  1.00  0.00    -0.094 OA 
HETATM    9  N   UNL     1      -7.977  14.613  69.017  1.00  0.00    -0.141 N  
HETATM   10  OXT UNL     1      -7.362  11.339  67.631  1.00  0.00    -0.092 OA 
HETATM   11  O   UNL     1      -6.510  12.228  69.564  1.00  0.00    -0.116 OA 
HETATM   12  C   UNL     1      -6.872  15.394  68.904  1.00  0.00    -0.124 C  
ENDROOT
BRANCH   4  13
HETATM   13  C   UNL     1     -10.034  11.830  67.431  1.00  0.00    -0.184 C  
BRANCH  13  14
HETATM   14  N   UNL     1     -10.636  11.759  66.057  1.00  0.00    -0.251 NA 
HETATM   15  C   UNL     1     -10.044  11.245  64.948  1.00  0.00    -0.281 A  
HETATM   16  C   UNL     1      -8.712  10.565  64.805  1.00  0.00    -0.196 C  
HETATM   17  C   UNL     1      -8.600  10.251  63.298  1.00  0.00    -0.194 C  
HETATM   18  C   UNL     1     -11.838  12.392  65.907  1.00  0.00    -0.405 A  
HETATM   19  C   UNL     1      -9.887  10.688  62.602  1.00  0.00    -0.149 C  
HETATM   20  C   UNL     1     -12.454  12.533  64.664  1.00  0.00    -0.539 A  
HETATM   21  C   UNL     1     -11.865  12.003  63.534  1.00  0.00    -0.587 A  
HETATM   22  C   UNL     1     -10.658  11.355  63.692  1.00  0.00    -0.476 A  
ENDBRANCH  13  14
ENDBRANCH   4  13
BRANCH   5  23
HETATM   23  N   UNL     1      -7.765  17.693  68.236  1.00  0.00    -0.243 N  
HETATM   24  C   UNL     1      -7.434  19.029  68.392  1.00  0.00    -0.300 C  
HETATM   25  O   UNL     1      -6.872  19.462  69.385  1.00  0.00    -0.323 OA 
HETATM   26  H   UNL     1      -8.074  17.389  67.313  1.00  0.00     0.000 HD 
BRANCH  24  27
HETATM   27  C   UNL     1      -7.851  19.938  67.195  1.00  0.00    -0.290 C  
BRANCH  27  28
HETATM   28  C   UNL     1      -6.901  20.189  66.103  1.00  0.00    -0.246 A  
HETATM   29  N   UNL     1      -6.805  19.322  65.018  1.00  0.00    -0.429 NA 
HETATM   30  N   UNL     1      -5.615  19.055  63.040  1.00  0.00    -0.330 NA 
HETATM   31  C   UNL     1      -6.061  21.286  66.006  1.00  0.00    -0.203 A  
HETATM   32  S   UNL     1      -5.138  21.210  64.567  1.00  0.00    -0.168 SA 
HETATM   33  H1  UNL     1      -6.072  18.177  62.798  1.00  0.00     0.000 HD 
HETATM   34  H2  UNL     1      -4.909  19.434  62.408  1.00  0.00     0.000 HD 
HETATM   35  C   UNL     1      -5.908  19.730  64.159  1.00  0.00    -0.267 A  
ENDBRANCH  27  28
BRANCH  27  36
HETATM   36  N   UNL     1      -9.019  20.492  67.028  1.00  0.00    -0.545 NA 
HETATM   37  H   UNL     1      -9.337  21.292  67.576  1.00  0.00     0.000 HD 
BRANCH  36  38
HETATM   38  O   UNL     1      -9.798  19.897  66.036  1.00  0.00    -0.430 OA 
HETATM   39  C   UNL     1     -10.784  19.097  66.686  1.00  0.00    -0.377 C  
ENDBRANCH  36  38
ENDBRANCH  27  36
ENDBRANCH  24  27
ENDBRANCH   5  23
TORSDOF 7
ENDMDL
MODEL       59
REMARK 921   NORMALIZED FREE ENERGY PREDICTED BY IDOCK:   -6.24 KCAL/MOL
REMARK 922        TOTAL FREE ENERGY PREDICTED BY IDOCK:  -10.00 KCAL/MOL
REMARK 923 INTER-LIGAND FREE ENERGY PREDICTED BY IDOCK:   -8.37 KCAL/MOL
REMARK 924 INTRA-LIGAND FREE ENERGY PREDICTED BY IDOCK:   -1.63 KCAL/MOL
REMARK 927      BINDING AFFINITY PREDICTED BY RF-SCORE:    0.00 PKD
ROOT
HETATM    1  C   UNL     1      -8.452  12.268  67.118  1.00  0.00    -0.184 C  
HETATM    2  S   UNL     1      -7.568  12.410  68.703  1.00  0.00    -0.040 SA 
HETATM    3  C   UNL     1      -6.828  10.789  68.621  1.00  0.00    -0.060 C  
HETATM    4  C   UNL     1      -7.781   9.662  68.330  1.00  0.00    -0.082 C  
HETATM    5  CA  UNL     1      -9.777  13.091  67.024  1.00  0.00    -0.235 C  
HETATM    6  CA  UNL     1      -8.893   9.821  67.562  1.00  0.00    -0.125 C  
HETATM    7  C   UNL     1      -9.717   8.568  67.061  1.00  0.00    -0.204 C  
HETATM    8  O   UNL     1     -11.611  11.304  67.196  1.00  0.00    -0.513 OA 
HETATM    9  N   UNL     1      -9.260  11.067  67.103  1.00  0.00    -0.152 N  
HETATM   10  OXT UNL     1      -9.656   7.557  67.838  1.00  0.00    -0.140 OA 
HETATM   11  O   UNL     1     -10.160   8.649  65.886  1.00  0.00    -0.102 OA 
HETATM   12  C   UNL     1     -10.470  11.680  67.032  1.00  0.00    -0.224 C  
ENDROOT
BRANCH   4  13
HETATM   13  C   UNL     1      -7.218   8.327  68.780  1.00  0.00    -0.079 C  
BRANCH  13  14
HETATM   14  N   UNL     1      -7.007   8.077  70.246  1.00  0.00    -0.044 NA 
HETATM   15  C   UNL     1      -7.963   8.106  71.210  1.00  0.00    -0.099 A  
HETATM   16  C   UNL     1      -9.446   8.309  71.078  1.00  0.00    -0.197 C  
HETATM   17  C   UNL     1      -9.970   8.275  72.530  1.00  0.00    -0.373 C  
HETATM   18  C   UNL     1      -5.705   7.939  70.639  1.00  0.00    -0.029 A  
HETATM   19  C   UNL     1      -8.803   7.986  73.473  1.00  0.00    -0.333 C  
HETATM   20  C   UNL     1      -5.339   7.842  71.980  1.00  0.00    -0.035 A  
HETATM   21  C   UNL     1      -6.306   7.857  72.965  1.00  0.00    -0.070 A  
HETATM   22  C   UNL     1      -7.619   7.985  72.564  1.00  0.00    -0.144 A  
ENDBRANCH  13  14
ENDBRANCH   4  13
BRANCH   5  23
HETATM   23  N   UNL     1     -10.135  13.924  68.206  1.00  0.00    -0.235 N  
HETATM   24  C   UNL     1     -11.318  14.629  68.355  1.00  0.00    -0.292 C  
HETATM   25  O   UNL     1     -12.276  14.483  67.611  1.00  0.00    -0.298 OA 
HETATM   26  H   UNL     1      -9.456  13.980  68.964  1.00  0.00     0.000 HD 
BRANCH  24  27
HETATM   27  C   UNL     1     -11.321  15.635  69.547  1.00  0.00    -0.327 C  
BRANCH  27  28
HETATM   28  C   UNL     1     -11.973  15.268  70.811  1.00  0.00    -0.339 A  
HETATM   29  N   UNL     1     -12.595  14.033  70.968  1.00  0.00    -0.346 NA 
HETATM   30  N   UNL     1     -13.773  12.811  72.556  1.00  0.00    -0.659 NA 
HETATM   31  C   UNL     1     -12.007  16.050  71.953  1.00  0.00    -0.525 A  
HETATM   32  S   UNL     1     -12.840  15.241  73.210  1.00  0.00    -0.560 SA 
HETATM   33  H1  UNL     1     -13.930  12.018  71.935  1.00  0.00     0.000 HD 
HETATM   34  H2  UNL     1     -14.138  12.772  73.508  1.00  0.00     0.000 HD 
HETATM   35  C   UNL     1     -13.104  13.904  72.165  1.00  0.00    -0.406 A  
ENDBRANCH  27  28
BRANCH  27  36
HETATM   36  N   UNL     1     -10.745  16.805  69.559  1.00  0.00    -0.324 NA 
HETATM   37  H   UNL     1     -10.614  17.349  70.412  1.00  0.00     0.000 HD 
BRANCH  36  38
HETATM   38  O   UNL     1     -10.324  17.248  68.305  1.00  0.00    -0.319 OA 
HETATM   39  C   UNL     1      -8.954  17.627  68.421  1.00  0.00    -0.280 C  
ENDBRANCH  36  38
ENDBRANCH  27  36
ENDBRANCH  24  27
ENDBRANCH   5  23
TORSDOF 7
ENDMDL
MODEL       60
REMARK 921   NORMALIZED FREE ENERGY PREDICTED BY IDOCK:   -6.21 KCAL/MOL
REMARK 922        TOTAL FREE ENERGY PREDICTED BY IDOCK:   -9.96 KCAL/MOL
REMARK 923 INTER-LIGAND FREE ENERGY PREDICTED BY IDOCK:   -9.81 KCAL/MOL
REMARK 924 INTRA-LIGAND FREE ENERGY PREDICTED BY IDOCK:   -0.15 KCAL/MOL
REMARK 927      BINDING AFFINITY PREDICTED BY RF-SCORE:    0.00 PKD
ROOT
HETATM    1  C   UNL     1      -8.442  14.480  66.606  1.00  0.00     0.029 C  
HETATM    2  S   UNL     1      -8.717  14.435  68.405  1.00  0.00    -0.182 SA 
HETATM    3  C   UNL     1      -9.449  12.809  68.417  1.00  0.00    -0.162 C  
HETATM    4  C   UNL     1     -10.563  12.599  67.427  1.00  0.00    -0.240 C  
HETATM    5  CA  UNL     1      -8.470  15.907  65.968  1.00  0.00     0.023 C  
HETATM    6  CA  UNL     1     -10.607  13.236  66.226  1.00  0.00    -0.289 C  
HETATM    7  C   UNL     1     -11.639  12.794  65.112  1.00  0.00    -0.338 C  
HETATM    8  O   UNL     1     -10.719  15.972  64.735  1.00  0.00    -0.611 OA 
HETATM    9  N   UNL     1      -9.678  14.202  65.906  1.00  0.00    -0.275 N  
HETATM   10  OXT UNL     1     -12.716  12.285  65.569  1.00  0.00    -0.438 OA 
HETATM   11  O   UNL     1     -11.198  12.811  63.933  1.00  0.00    -0.386 OA 
HETATM   12  C   UNL     1      -9.808  15.413  65.307  1.00  0.00    -0.204 C  
ENDROOT
BRANCH   4  13
HETATM   13  C   UNL     1     -11.454  11.439  67.830  1.00  0.00    -0.281 C  
BRANCH  13  14
HETATM   14  N   UNL     1     -12.162  11.484  69.153  1.00  0.00    -0.332 NA 
HETATM   15  C   UNL     1     -12.423  12.597  69.885  1.00  0.00     0.069 A  
HETATM   16  C   UNL     1     -12.159  14.039  69.557  1.00  0.00    -0.397 C  
HETATM   17  C   UNL     1     -12.644  14.813  70.802  1.00  0.00    -0.412 C  
HETATM   18  C   UNL     1     -12.445  10.269  69.712  1.00  0.00     0.100 A  
HETATM   19  C   UNL     1     -13.242  13.823  71.800  1.00  0.00    -0.467 C  
HETATM   20  C   UNL     1     -12.973  10.145  70.996  1.00  0.00    -0.473 A  
HETATM   21  C   UNL     1     -13.253  11.273  71.742  1.00  0.00    -0.480 A  
HETATM   22  C   UNL     1     -12.977  12.497  71.170  1.00  0.00    -0.237 A  
ENDBRANCH  13  14
ENDBRANCH   4  13
BRANCH   5  23
HETATM   23  N   UNL     1      -8.666  17.054  66.898  1.00  0.00    -0.216 N  
HETATM   24  C   UNL     1      -8.046  18.287  66.784  1.00  0.00    -0.250 C  
HETATM   25  O   UNL     1      -7.417  18.625  65.793  1.00  0.00    -0.459 OA 
HETATM   26  H   UNL     1      -9.308  16.921  67.679  1.00  0.00     0.000 HD 
BRANCH  24  27
HETATM   27  C   UNL     1      -8.208  19.206  68.034  1.00  0.00    -0.304 C  
BRANCH  27  28
HETATM   28  C   UNL     1      -7.138  19.267  69.039  1.00  0.00    -0.356 A  
HETATM   29  N   UNL     1      -6.721  20.483  69.573  1.00  0.00    -0.016 NA 
HETATM   30  N   UNL     1      -5.183  21.336  71.093  1.00  0.00    -0.467 NA 
HETATM   31  C   UNL     1      -6.481  18.175  69.579  1.00  0.00    -0.186 A  
HETATM   32  S   UNL     1      -5.326  18.681  70.736  1.00  0.00    -0.233 SA 
HETATM   33  H1  UNL     1      -5.445  22.307  70.924  1.00  0.00     0.000 HD 
HETATM   34  H2  UNL     1      -4.450  21.135  71.773  1.00  0.00     0.000 HD 
HETATM   35  C   UNL     1      -5.768  20.316  70.452  1.00  0.00    -0.336 A  
ENDBRANCH  27  28
BRANCH  27  36
HETATM   36  N   UNL     1      -9.217  19.996  68.275  1.00  0.00    -0.244 NA 
HETATM   37  H   UNL     1      -9.578  20.163  69.214  1.00  0.00     0.000 HD 
BRANCH  36  38
HETATM   38  O   UNL     1      -9.762  20.591  67.138  1.00  0.00    -0.441 OA 
HETATM   39  C   UNL     1     -10.878  19.800  66.731  1.00  0.00    -0.321 C  
ENDBRANCH  36  38
ENDBRANCH  27  36
ENDBRANCH  24  27
ENDBRANCH   5  23
TORSDOF 7
ENDMDL
MODEL       61
REMARK 921   NORMALIZED FREE ENERGY PREDICTED BY IDOCK:   -6.21 KCAL/MOL
REMARK 922        TOTAL FREE ENERGY PREDICTED BY IDOCK:   -9.95 KCAL/MOL
REMARK 923 INTER-LIGAND FREE ENERGY PREDICTED BY IDOCK:   -8.70 KCAL/MOL
REMARK 924 INTRA-LIGAND FREE ENERGY PREDICTED BY IDOCK:   -1.26 KCAL/MOL
REMARK 927      BINDING AFFINITY PREDICTED BY RF-SCORE:    0.00 PKD
ROOT
HETATM    1  C   UNL     1      -8.118  12.293  66.960  1.00  0.00    -0.141 C  
HETATM    2  S   UNL     1      -8.154  12.514  68.767  1.00  0.00     0.179 SA 
HETATM    3  C   UNL     1      -7.822  10.804  69.146  1.00  0.00    -0.142 C  
HETATM    4  C   UNL     1      -8.700   9.806  68.440  1.00  0.00    -0.120 C  
HETATM    5  CA  UNL     1      -9.013  13.289  66.154  1.00  0.00     0.239 C  
HETATM    6  CA  UNL     1      -9.209  10.027  67.198  1.00  0.00    -0.141 C  
HETATM    7  C   UNL     1      -9.900   8.858  66.386  1.00  0.00    -0.283 C  
HETATM    8  O   UNL     1     -10.998  11.846  65.405  1.00  0.00    -0.289 OA 
HETATM    9  N   UNL     1      -9.031  11.240  66.569  1.00  0.00    -0.178 N  
HETATM   10  OXT UNL     1     -10.447   7.967  67.116  1.00  0.00    -0.298 OA 
HETATM   11  O   UNL     1      -9.657   8.845  65.151  1.00  0.00     0.001 OA 
HETATM   12  C   UNL     1      -9.884  12.015  65.851  1.00  0.00    -0.238 C  
ENDROOT
BRANCH   4  13
HETATM   13  C   UNL     1      -8.729   8.476  69.168  1.00  0.00    -0.134 C  
BRANCH  13  14
HETATM   14  N   UNL     1      -9.624   8.313  70.363  1.00  0.00    -0.167 NA 
HETATM   15  C   UNL     1     -10.727   9.052  70.645  1.00  0.00    -0.239 A  
HETATM   16  C   UNL     1     -11.379  10.139  69.839  1.00  0.00    -0.335 C  
HETATM   17  C   UNL     1     -12.563  10.609  70.712  1.00  0.00    -0.479 C  
HETATM   18  C   UNL     1      -9.194   7.419  71.304  1.00  0.00    -0.150 A  
HETATM   19  C   UNL     1     -12.623   9.748  71.972  1.00  0.00    -0.432 C  
HETATM   20  C   UNL     1      -9.840   7.259  72.528  1.00  0.00    -0.195 A  
HETATM   21  C   UNL     1     -10.970   7.998  72.818  1.00  0.00    -0.449 A  
HETATM   22  C   UNL     1     -11.407   8.890  71.861  1.00  0.00    -0.446 A  
ENDBRANCH  13  14
ENDBRANCH   4  13
BRANCH   5  23
HETATM   23  N   UNL     1      -9.744  14.322  66.940  1.00  0.00    -0.255 N  
HETATM   24  C   UNL     1     -10.089  15.580  66.476  1.00  0.00    -0.279 C  
HETATM   25  O   UNL     1      -9.997  15.903  65.302  1.00  0.00    -0.424 OA 
HETATM   26  H   UNL     1     -10.011  14.083  67.895  1.00  0.00     0.000 HD 
BRANCH  24  27
HETATM   27  C   UNL     1     -10.595  16.557  67.582  1.00  0.00    -0.321 C  
BRANCH  27  28
HETATM   28  C   UNL     1     -10.036  17.913  67.670  1.00  0.00    -0.348 A  
HETATM   29  N   UNL     1      -8.878  18.169  68.398  1.00  0.00    -0.289 NA 
HETATM   30  N   UNL     1      -7.482  19.934  68.980  1.00  0.00    -0.234 NA 
HETATM   31  C   UNL     1     -10.545  19.033  67.035  1.00  0.00    -0.461 A  
HETATM   32  S   UNL     1      -9.581  20.406  67.376  1.00  0.00    -0.431 SA 
HETATM   33  H1  UNL     1      -6.869  19.355  69.554  1.00  0.00     0.000 HD 
HETATM   34  H2  UNL     1      -7.277  20.929  68.887  1.00  0.00     0.000 HD 
HETATM   35  C   UNL     1      -8.548  19.432  68.343  1.00  0.00    -0.360 A  
ENDBRANCH  27  28
BRANCH  27  36
HETATM   36  N   UNL     1     -11.534  16.305  68.451  1.00  0.00    -0.318 NA 
HETATM   37  H   UNL     1     -12.466  16.715  68.395  1.00  0.00     0.000 HD 
BRANCH  36  38
HETATM   38  O   UNL     1     -11.153  15.427  69.466  1.00  0.00    -0.247 OA 
HETATM   39  C   UNL     1     -12.200  14.472  69.623  1.00  0.00    -0.292 C  
ENDBRANCH  36  38
ENDBRANCH  27  36
ENDBRANCH  24  27
ENDBRANCH   5  23
TORSDOF 7
ENDMDL
MODEL       62
REMARK 921   NORMALIZED FREE ENERGY PREDICTED BY IDOCK:   -6.20 KCAL/MOL
REMARK 922        TOTAL FREE ENERGY PREDICTED BY IDOCK:   -9.94 KCAL/MOL
REMARK 923 INTER-LIGAND FREE ENERGY PREDICTED BY IDOCK:   -8.47 KCAL/MOL
REMARK 924 INTRA-LIGAND FREE ENERGY PREDICTED BY IDOCK:   -1.47 KCAL/MOL
REMARK 927      BINDING AFFINITY PREDICTED BY RF-SCORE:    0.00 PKD
ROOT
HETATM    1  C   UNL     1     -11.446  10.682  68.732  1.00  0.00    -0.262 C  
HETATM    2  S   UNL     1      -9.645  10.420  68.698  1.00  0.00    -0.173 SA 
HETATM    3  C   UNL     1      -9.713   8.741  69.293  1.00  0.00    -0.172 C  
HETATM    4  C   UNL     1     -10.533   8.532  70.537  1.00  0.00    -0.230 C  
HETATM    5  CA  UNL     1     -11.896  12.159  68.974  1.00  0.00    -0.306 C  
HETATM    6  CA  UNL     1     -11.627   9.286  70.830  1.00  0.00    -0.285 C  
HETATM    7  C   UNL     1     -12.609   8.869  71.997  1.00  0.00    -0.394 C  
HETATM    8  O   UNL     1     -12.742  12.142  71.397  1.00  0.00    -0.358 OA 
HETATM    9  N   UNL     1     -11.971  10.364  70.043  1.00  0.00    -0.264 N  
HETATM   10  OXT UNL     1     -12.052   8.216  72.941  1.00  0.00    -0.278 OA 
HETATM   11  O   UNL     1     -13.832   9.053  71.763  1.00  0.00    -0.397 OA 
HETATM   12  C   UNL     1     -12.392  11.614  70.363  1.00  0.00    -0.288 C  
ENDROOT
BRANCH   4  13
HETATM   13  C   UNL     1     -10.136   7.257  71.258  1.00  0.00    -0.189 C  
BRANCH  13  14
HETATM   14  N   UNL     1      -8.844   7.219  72.022  1.00  0.00    -0.124 NA 
HETATM   15  C   UNL     1      -7.851   6.306  71.872  1.00  0.00    -0.101 A  
HETATM   16  C   UNL     1      -7.734   5.174  70.891  1.00  0.00    -0.088 C  
HETATM   17  C   UNL     1      -6.402   4.484  71.255  1.00  0.00    -0.019 C  
HETATM   18  C   UNL     1      -8.739   8.119  73.045  1.00  0.00    -0.243 A  
HETATM   19  C   UNL     1      -5.734   5.260  72.388  1.00  0.00    -0.018 C  
HETATM   20  C   UNL     1      -7.663   8.115  73.932  1.00  0.00    -0.245 A  
HETATM   21  C   UNL     1      -6.642   7.198  73.778  1.00  0.00    -0.065 A  
HETATM   22  C   UNL     1      -6.747   6.299  72.737  1.00  0.00    -0.066 A  
ENDBRANCH  13  14
ENDBRANCH   4  13
BRANCH   5  23
HETATM   23  N   UNL     1     -10.816  13.177  69.099  1.00  0.00    -0.428 N  
HETATM   24  C   UNL     1     -11.018  14.541  69.233  1.00  0.00    -0.260 C  
HETATM   25  O   UNL     1     -12.115  15.030  69.457  1.00  0.00    -0.302 OA 
HETATM   26  H   UNL     1      -9.853  12.844  69.084  1.00  0.00     0.000 HD 
BRANCH  24  27
HETATM   27  C   UNL     1      -9.730  15.403  69.061  1.00  0.00    -0.239 C  
BRANCH  27  28
HETATM   28  C   UNL     1      -9.804  16.699  68.374  1.00  0.00    -0.252 A  
HETATM   29  N   UNL     1     -10.062  17.873  69.077  1.00  0.00    -0.340 NA 
HETATM   30  N   UNL     1     -10.327  20.153  68.715  1.00  0.00    -0.441 NA 
HETATM   31  C   UNL     1      -9.593  16.903  67.021  1.00  0.00    -0.248 A  
HETATM   32  S   UNL     1      -9.745  18.563  66.633  1.00  0.00    -0.357 SA 
HETATM   33  H1  UNL     1     -10.525  20.359  69.694  1.00  0.00     0.000 HD 
HETATM   34  H2  UNL     1     -10.317  20.920  68.043  1.00  0.00     0.000 HD 
HETATM   35  C   UNL     1     -10.079  18.910  68.282  1.00  0.00    -0.388 A  
ENDBRANCH  27  28
BRANCH  27  36
HETATM   36  N   UNL     1      -8.546  15.104  69.519  1.00  0.00    -0.407 NA 
HETATM   37  H   UNL     1      -8.199  15.439  70.418  1.00  0.00     0.000 HD 
BRANCH  36  38
HETATM   38  O   UNL     1      -7.795  14.287  68.674  1.00  0.00    -0.133 OA 
HETATM   39  C   UNL     1      -6.606  13.923  69.372  1.00  0.00    -0.114 C  
ENDBRANCH  36  38
ENDBRANCH  27  36
ENDBRANCH  24  27
ENDBRANCH   5  23
TORSDOF 7
ENDMDL
MODEL       63
REMARK 921   NORMALIZED FREE ENERGY PREDICTED BY IDOCK:   -6.18 KCAL/MOL
REMARK 922        TOTAL FREE ENERGY PREDICTED BY IDOCK:   -9.92 KCAL/MOL
REMARK 923 INTER-LIGAND FREE ENERGY PREDICTED BY IDOCK:   -8.55 KCAL/MOL
REMARK 924 INTRA-LIGAND FREE ENERGY PREDICTED BY IDOCK:   -1.37 KCAL/MOL
REMARK 927      BINDING AFFINITY PREDICTED BY RF-SCORE:    0.00 PKD
ROOT
HETATM    1  C   UNL     1     -11.098  10.228  69.008  1.00  0.00    -0.230 C  
HETATM    2  S   UNL     1      -9.286  10.361  69.123  1.00  0.00    -0.174 SA 
HETATM    3  C   UNL     1      -9.048   8.739  69.823  1.00  0.00    -0.151 C  
HETATM    4  C   UNL     1      -9.908   8.420  71.015  1.00  0.00    -0.232 C  
HETATM    5  CA  UNL     1     -11.869  11.582  69.116  1.00  0.00    -0.340 C  
HETATM    6  CA  UNL     1     -11.158   8.933  71.176  1.00  0.00    -0.285 C  
HETATM    7  C   UNL     1     -12.126   8.372  72.293  1.00  0.00    -0.392 C  
HETATM    8  O   UNL     1     -12.898  11.505  71.466  1.00  0.00    -0.410 OA 
HETATM    9  N   UNL     1     -11.654   9.870  70.295  1.00  0.00    -0.259 N  
HETATM   10  OXT UNL     1     -11.527   7.903  73.317  1.00  0.00    -0.290 OA 
HETATM   11  O   UNL     1     -13.336   8.274  71.958  1.00  0.00    -0.330 OA 
HETATM   12  C   UNL     1     -12.356  11.014  70.499  1.00  0.00    -0.373 C  
ENDROOT
BRANCH   4  13
HETATM   13  C   UNL     1      -9.314   7.299  71.847  1.00  0.00    -0.137 C  
BRANCH  13  14
HETATM   14  N   UNL     1      -9.579   5.874  71.452  1.00  0.00    -0.163 NA 
HETATM   15  C   UNL     1      -9.742   4.825  72.298  1.00  0.00    -0.159 A  
HETATM   16  C   UNL     1      -9.779   4.806  73.800  1.00  0.00    -0.151 C  
HETATM   17  C   UNL     1      -9.950   3.315  74.162  1.00  0.00    -0.174 C  
HETATM   18  C   UNL     1      -9.517   5.613  70.112  1.00  0.00    -0.159 A  
HETATM   19  C   UNL     1     -10.079   2.503  72.875  1.00  0.00    -0.213 C  
HETATM   20  C   UNL     1      -9.602   4.319  69.601  1.00  0.00    -0.275 A  
HETATM   21  C   UNL     1      -9.780   3.248  70.454  1.00  0.00    -0.125 A  
HETATM   22  C   UNL     1      -9.854   3.517  71.804  1.00  0.00    -0.230 A  
ENDBRANCH  13  14
ENDBRANCH   4  13
BRANCH   5  23
HETATM   23  N   UNL     1     -11.045  12.816  69.250  1.00  0.00    -0.425 N  
HETATM   24  C   UNL     1     -11.545  14.106  69.315  1.00  0.00    -0.304 C  
HETATM   25  O   UNL     1     -12.732  14.351  69.462  1.00  0.00    -0.123 OA 
HETATM   26  H   UNL     1     -10.032  12.701  69.298  1.00  0.00     0.000 HD 
BRANCH  24  27
HETATM   27  C   UNL     1     -10.465  15.222  69.171  1.00  0.00    -0.247 C  
BRANCH  27  28
HETATM   28  C   UNL     1      -9.083  14.862  68.826  1.00  0.00    -0.189 A  
HETATM   29  N   UNL     1      -8.810  13.933  67.825  1.00  0.00    -0.178 NA 
HETATM   30  N   UNL     1      -7.005  12.903  66.784  1.00  0.00    -0.287 NA 
HETATM   31  C   UNL     1      -7.946  15.408  69.395  1.00  0.00    -0.234 A  
HETATM   32  S   UNL     1      -6.539  14.734  68.690  1.00  0.00    -0.090 SA 
HETATM   33  H1  UNL     1      -7.590  12.326  66.181  1.00  0.00     0.000 HD 
HETATM   34  H2  UNL     1      -5.991  12.824  66.711  1.00  0.00     0.000 HD 
HETATM   35  C   UNL     1      -7.523  13.762  67.672  1.00  0.00    -0.178 A  
ENDBRANCH  27  28
BRANCH  27  36
HETATM   36  N   UNL     1     -10.673  16.504  69.288  1.00  0.00    -0.316 NA 
HETATM   37  H   UNL     1     -10.632  16.993  70.182  1.00  0.00     0.000 HD 
BRANCH  36  38
HETATM   38  O   UNL     1     -10.955  17.149  68.084  1.00  0.00    -0.361 OA 
HETATM   39  C   UNL     1     -10.091  18.281  67.989  1.00  0.00    -0.364 C  
ENDBRANCH  36  38
ENDBRANCH  27  36
ENDBRANCH  24  27
ENDBRANCH   5  23
TORSDOF 7
ENDMDL
MODEL       64
REMARK 921   NORMALIZED FREE ENERGY PREDICTED BY IDOCK:   -6.14 KCAL/MOL
REMARK 922        TOTAL FREE ENERGY PREDICTED BY IDOCK:   -9.86 KCAL/MOL
REMARK 923 INTER-LIGAND FREE ENERGY PREDICTED BY IDOCK:   -8.26 KCAL/MOL
REMARK 924 INTRA-LIGAND FREE ENERGY PREDICTED BY IDOCK:   -1.60 KCAL/MOL
REMARK 927      BINDING AFFINITY PREDICTED BY RF-SCORE:    0.00 PKD
ROOT
HETATM    1  C   UNL     1     -11.554  10.433  68.488  1.00  0.00    -0.078 C  
HETATM    2  S   UNL     1     -10.261  11.466  67.729  1.00  0.00    -0.185 SA 
HETATM    3  C   UNL     1      -9.279  10.096  67.147  1.00  0.00    -0.138 C  
HETATM    4  C   UNL     1      -8.967   9.045  68.178  1.00  0.00    -0.133 C  
HETATM    5  CA  UNL     1     -12.280  11.076  69.713  1.00  0.00    -0.318 C  
HETATM    6  CA  UNL     1      -9.813   8.748  69.202  1.00  0.00    -0.181 C  
HETATM    7  C   UNL     1      -9.577   7.468  70.101  1.00  0.00    -0.168 C  
HETATM    8  O   UNL     1     -11.319   9.798  71.721  1.00  0.00    -0.298 OA 
HETATM    9  N   UNL     1     -10.959   9.485  69.406  1.00  0.00    -0.208 N  
HETATM   10  OXT UNL     1      -8.355   7.118  70.203  1.00  0.00    -0.133 OA 
HETATM   11  O   UNL     1     -10.619   6.845  70.434  1.00  0.00    -0.208 OA 
HETATM   12  C   UNL     1     -11.528   9.969  70.539  1.00  0.00    -0.330 C  
ENDROOT
BRANCH   4  13
HETATM   13  C   UNL     1      -7.751   8.227  67.789  1.00  0.00    -0.103 C  
BRANCH  13  14
HETATM   14  N   UNL     1      -7.826   7.329  66.587  1.00  0.00    -0.100 NA 
HETATM   15  C   UNL     1      -7.421   7.638  65.329  1.00  0.00    -0.083 A  
HETATM   16  C   UNL     1      -6.745   8.880  64.821  1.00  0.00    -0.069 C  
HETATM   17  C   UNL     1      -6.585   8.639  63.305  1.00  0.00    -0.089 C  
HETATM   18  C   UNL     1      -8.483   6.146  66.777  1.00  0.00    -0.111 A  
HETATM   19  C   UNL     1      -7.104   7.243  62.966  1.00  0.00    -0.069 C  
HETATM   20  C   UNL     1      -8.756   5.270  65.727  1.00  0.00    -0.143 A  
HETATM   21  C   UNL     1      -8.337   5.571  64.446  1.00  0.00    -0.115 A  
HETATM   22  C   UNL     1      -7.664   6.761  64.262  1.00  0.00    -0.109 A  
ENDBRANCH  13  14
ENDBRANCH   4  13
BRANCH   5  23
HETATM   23  N   UNL     1     -11.872  12.459  70.085  1.00  0.00    -0.502 N  
HETATM   24  C   UNL     1     -12.548  13.278  70.975  1.00  0.00    -0.324 C  
HETATM   25  O   UNL     1     -13.447  12.874  71.696  1.00  0.00    -0.336 OA 
HETATM   26  H   UNL     1     -11.028  12.833  69.651  1.00  0.00     0.000 HD 
BRANCH  24  27
HETATM   27  C   UNL     1     -12.072  14.763  70.971  1.00  0.00    -0.330 C  
BRANCH  27  28
HETATM   28  C   UNL     1     -11.503  15.345  69.748  1.00  0.00    -0.324 A  
HETATM   29  N   UNL     1     -11.730  14.767  68.503  1.00  0.00    -0.318 NA 
HETATM   30  N   UNL     1     -11.195  15.075  66.262  1.00  0.00    -0.336 NA 
HETATM   31  C   UNL     1     -10.747  16.503  69.688  1.00  0.00    -0.323 A  
HETATM   32  S   UNL     1     -10.305  16.847  68.070  1.00  0.00    -0.350 SA 
HETATM   33  H1  UNL     1     -11.692  14.240  65.953  1.00  0.00     0.000 HD 
HETATM   34  H2  UNL     1     -10.720  15.651  65.567  1.00  0.00     0.000 HD 
HETATM   35  C   UNL     1     -11.143  15.441  67.550  1.00  0.00    -0.315 A  
ENDBRANCH  27  28
BRANCH  27  36
HETATM   36  N   UNL     1     -12.168  15.597  71.969  1.00  0.00    -0.390 NA 
HETATM   37  H   UNL     1     -12.550  16.538  71.870  1.00  0.00     0.000 HD 
BRANCH  36  38
HETATM   38  O   UNL     1     -11.702  15.092  73.183  1.00  0.00    -0.389 OA 
HETATM   39  C   UNL     1     -12.484  15.681  74.221  1.00  0.00    -0.654 C  
ENDBRANCH  36  38
ENDBRANCH  27  36
ENDBRANCH  24  27
ENDBRANCH   5  23
TORSDOF 7
ENDMDL
MODEL       65
REMARK 921   NORMALIZED FREE ENERGY PREDICTED BY IDOCK:   -6.14 KCAL/MOL
REMARK 922        TOTAL FREE ENERGY PREDICTED BY IDOCK:   -9.86 KCAL/MOL
REMARK 923 INTER-LIGAND FREE ENERGY PREDICTED BY IDOCK:   -8.55 KCAL/MOL
REMARK 924 INTRA-LIGAND FREE ENERGY PREDICTED BY IDOCK:   -1.31 KCAL/MOL
REMARK 927      BINDING AFFINITY PREDICTED BY RF-SCORE:    0.00 PKD
ROOT
HETATM    1  C   UNL     1      -8.428  14.437  66.614  1.00  0.00     0.071 C  
HETATM    2  S   UNL     1      -8.676  14.536  68.415  1.00  0.00    -0.178 SA 
HETATM    3  C   UNL     1      -9.426  12.925  68.564  1.00  0.00    -0.096 C  
HETATM    4  C   UNL     1     -10.556  12.651  67.611  1.00  0.00    -0.232 C  
HETATM    5  CA  UNL     1      -8.450  15.809  65.867  1.00  0.00     0.377 C  
HETATM    6  CA  UNL     1     -10.612  13.193  66.364  1.00  0.00    -0.286 C  
HETATM    7  C   UNL     1     -11.666  12.677  65.303  1.00  0.00    -0.378 C  
HETATM    8  O   UNL     1     -10.717  15.805  64.665  1.00  0.00    -0.497 OA 
HETATM    9  N   UNL     1      -9.677  14.119  65.955  1.00  0.00    -0.296 N  
HETATM   10  OXT UNL     1     -12.741  12.220  65.814  1.00  0.00    -0.294 OA 
HETATM   11  O   UNL     1     -11.243  12.597  64.120  1.00  0.00    -0.336 OA 
HETATM   12  C   UNL     1      -9.804  15.282  65.265  1.00  0.00    -0.215 C  
ENDROOT
BRANCH   4  13
HETATM   13  C   UNL     1     -11.454  11.537  68.116  1.00  0.00    -0.315 C  
BRANCH  13  14
HETATM   14  N   UNL     1     -11.987  11.606  69.518  1.00  0.00    -0.320 NA 
HETATM   15  C   UNL     1     -12.131  10.561  70.373  1.00  0.00    -0.329 A  
HETATM   16  C   UNL     1     -11.743   9.121  70.194  1.00  0.00     0.037 C  
HETATM   17  C   UNL     1     -12.202   8.433  71.498  1.00  0.00    -0.340 C  
HETATM   18  C   UNL     1     -12.487  12.819  69.900  1.00  0.00     0.050 A  
HETATM   19  C   UNL     1     -12.784   9.487  72.437  1.00  0.00    -0.313 C  
HETATM   20  C   UNL     1     -13.141  13.005  71.116  1.00  0.00    -0.185 A  
HETATM   21  C   UNL     1     -13.281  11.951  71.997  1.00  0.00    -0.461 A  
HETATM   22  C   UNL     1     -12.764  10.731  71.613  1.00  0.00    -0.520 A  
ENDBRANCH  13  14
ENDBRANCH   4  13
BRANCH   5  23
HETATM   23  N   UNL     1      -8.619  17.028  66.706  1.00  0.00    -0.221 N  
HETATM   24  C   UNL     1      -7.953  18.227  66.514  1.00  0.00    -0.268 C  
HETATM   25  O   UNL     1      -7.297  18.468  65.512  1.00  0.00    -0.524 OA 
HETATM   26  H   UNL     1      -9.278  16.975  67.483  1.00  0.00     0.000 HD 
BRANCH  24  27
HETATM   27  C   UNL     1      -8.101  19.241  67.690  1.00  0.00    -0.277 C  
BRANCH  27  28
HETATM   28  C   UNL     1      -7.097  19.267  68.762  1.00  0.00    -0.340 A  
HETATM   29  N   UNL     1      -6.648  18.092  69.358  1.00  0.00    -0.237 NA 
HETATM   30  N   UNL     1      -5.185  17.370  71.013  1.00  0.00    -0.295 NA 
HETATM   31  C   UNL     1      -6.476  20.404  69.251  1.00  0.00    -0.202 A  
HETATM   32  S   UNL     1      -5.351  19.994  70.474  1.00  0.00    -0.269 SA 
HETATM   33  H1  UNL     1      -5.425  16.386  70.897  1.00  0.00     0.000 HD 
HETATM   34  H2  UNL     1      -4.488  17.629  71.711  1.00  0.00     0.000 HD 
HETATM   35  C   UNL     1      -5.755  18.336  70.280  1.00  0.00    -0.198 A  
ENDBRANCH  27  28
BRANCH  27  36
HETATM   36  N   UNL     1      -9.039  20.138  67.810  1.00  0.00    -0.325 NA 
HETATM   37  H   UNL     1      -8.853  21.141  67.793  1.00  0.00     0.000 HD 
BRANCH  36  38
HETATM   38  O   UNL     1     -10.320  19.608  67.965  1.00  0.00    -0.426 OA 
HETATM   39  C   UNL     1     -11.064  19.932  66.791  1.00  0.00     0.092 C  
ENDBRANCH  36  38
ENDBRANCH  27  36
ENDBRANCH  24  27
ENDBRANCH   5  23
TORSDOF 7
ENDMDL
MODEL       66
REMARK 921   NORMALIZED FREE ENERGY PREDICTED BY IDOCK:   -6.13 KCAL/MOL
REMARK 922        TOTAL FREE ENERGY PREDICTED BY IDOCK:   -9.84 KCAL/MOL
REMARK 923 INTER-LIGAND FREE ENERGY PREDICTED BY IDOCK:   -8.24 KCAL/MOL
REMARK 924 INTRA-LIGAND FREE ENERGY PREDICTED BY IDOCK:   -1.60 KCAL/MOL
REMARK 927      BINDING AFFINITY PREDICTED BY RF-SCORE:    0.00 PKD
ROOT
HETATM    1  C   UNL     1      -8.353   9.617  69.715  1.00  0.00    -0.174 C  
HETATM    2  S   UNL     1      -8.135  10.222  68.012  1.00  0.00    -0.106 SA 
HETATM    3  C   UNL     1      -9.130  11.685  68.231  1.00  0.00    -0.187 C  
HETATM    4  C   UNL     1     -10.489  11.455  68.835  1.00  0.00    -0.219 C  
HETATM    5  CA  UNL     1      -8.283   8.065  69.880  1.00  0.00    -0.119 C  
HETATM    6  CA  UNL     1     -10.735  10.459  69.728  1.00  0.00    -0.278 C  
HETATM    7  C   UNL     1     -12.093  10.414  70.537  1.00  0.00    -0.332 C  
HETATM    8  O   UNL     1     -10.728   7.388  70.268  1.00  0.00    -0.227 OA 
HETATM    9  N   UNL     1      -9.762   9.534  70.038  1.00  0.00    -0.220 N  
HETATM   10  OXT UNL     1     -13.083  10.940  69.927  1.00  0.00    -0.049 OA 
HETATM   11  O   UNL     1     -11.993  10.054  71.739  1.00  0.00    -0.354 OA 
HETATM   12  C   UNL     1      -9.818   8.186  70.196  1.00  0.00    -0.184 C  
ENDROOT
BRANCH   4  13
HETATM   13  C   UNL     1     -11.440  12.594  68.517  1.00  0.00    -0.311 C  
BRANCH  13  14
HETATM   14  N   UNL     1     -11.458  13.168  67.129  1.00  0.00    -0.316 NA 
HETATM   15  C   UNL     1     -11.091  14.426  66.778  1.00  0.00    -0.323 A  
HETATM   16  C   UNL     1     -10.516  15.525  67.625  1.00  0.00    -0.279 C  
HETATM   17  C   UNL     1     -10.353  16.715  66.654  1.00  0.00    -0.296 C  
HETATM   18  C   UNL     1     -12.022  12.373  66.171  1.00  0.00    -0.327 A  
HETATM   19  C   UNL     1     -10.768  16.273  65.253  1.00  0.00    -0.349 C  
HETATM   20  C   UNL     1     -12.239  12.817  64.868  1.00  0.00    -0.519 A  
HETATM   21  C   UNL     1     -11.857  14.092  64.499  1.00  0.00    -0.451 A  
HETATM   22  C   UNL     1     -11.277  14.886  65.466  1.00  0.00    -0.348 A  
ENDBRANCH  13  14
ENDBRANCH   4  13
BRANCH   5  23
HETATM   23  N   UNL     1      -8.001   7.271  68.651  1.00  0.00    -0.122 N  
HETATM   24  C   UNL     1      -7.852   5.895  68.608  1.00  0.00    -0.102 C  
HETATM   25  O   UNL     1      -8.129   5.168  69.549  1.00  0.00    -0.081 OA 
HETATM   26  H   UNL     1      -7.911   7.782  67.773  1.00  0.00     0.000 HD 
BRANCH  24  27
HETATM   27  C   UNL     1      -7.289   5.351  67.259  1.00  0.00    -0.083 C  
BRANCH  27  28
HETATM   28  C   UNL     1      -8.174   4.629  66.336  1.00  0.00    -0.107 A  
HETATM   29  N   UNL     1      -9.500   5.017  66.159  1.00  0.00    -0.151 NA 
HETATM   30  N   UNL     1     -11.398   4.407  64.965  1.00  0.00    -1.102 NA 
HETATM   31  C   UNL     1      -7.803   3.560  65.539  1.00  0.00    -0.089 A  
HETATM   32  S   UNL     1      -9.126   3.030  64.591  1.00  0.00    -0.140 SA 
HETATM   33  H1  UNL     1     -11.982   5.132  65.382  1.00  0.00     0.000 HD 
HETATM   34  H2  UNL     1     -11.810   3.779  64.275  1.00  0.00     0.000 HD 
HETATM   35  C   UNL     1     -10.109   4.251  65.292  1.00  0.00    -0.218 A  
ENDBRANCH  27  28
BRANCH  27  36
HETATM   36  N   UNL     1      -6.071   5.510  66.821  1.00  0.00    -0.025 NA 
HETATM   37  H   UNL     1      -5.514   4.745  66.442  1.00  0.00     0.000 HD 
BRANCH  36  38
HETATM   38  O   UNL     1      -5.595   6.818  66.917  1.00  0.00    -0.016 OA 
HETATM   39  C   UNL     1      -5.722   7.417  65.629  1.00  0.00    -0.037 C  
ENDBRANCH  36  38
ENDBRANCH  27  36
ENDBRANCH  24  27
ENDBRANCH   5  23
TORSDOF 7
ENDMDL
MODEL       67
REMARK 921   NORMALIZED FREE ENERGY PREDICTED BY IDOCK:   -6.12 KCAL/MOL
REMARK 922        TOTAL FREE ENERGY PREDICTED BY IDOCK:   -9.83 KCAL/MOL
REMARK 923 INTER-LIGAND FREE ENERGY PREDICTED BY IDOCK:   -8.06 KCAL/MOL
REMARK 924 INTRA-LIGAND FREE ENERGY PREDICTED BY IDOCK:   -1.77 KCAL/MOL
REMARK 927      BINDING AFFINITY PREDICTED BY RF-SCORE:    0.00 PKD
ROOT
HETATM    1  C   UNL     1     -10.598   6.715  67.303  1.00  0.00    -0.317 C  
HETATM    2  S   UNL     1     -10.735   7.933  68.649  1.00  0.00     0.046 SA 
HETATM    3  C   UNL     1     -10.569   9.361  67.593  1.00  0.00    -0.271 C  
HETATM    4  C   UNL     1      -9.396   9.331  66.651  1.00  0.00    -0.219 C  
HETATM    5  CA  UNL     1      -9.991   5.336  67.718  1.00  0.00    -0.162 C  
HETATM    6  CA  UNL     1      -8.903   8.175  66.129  1.00  0.00    -0.162 C  
HETATM    7  C   UNL     1      -7.853   8.203  64.947  1.00  0.00    -0.128 C  
HETATM    8  O   UNL     1      -7.629   5.391  66.717  1.00  0.00    -0.087 OA 
HETATM    9  N   UNL     1      -9.394   6.953  66.535  1.00  0.00    -0.163 N  
HETATM   10  OXT UNL     1      -7.110   9.241  64.932  1.00  0.00    -0.097 OA 
HETATM   11  O   UNL     1      -8.008   7.316  64.068  1.00  0.00    -0.135 OA 
HETATM   12  C   UNL     1      -8.768   5.788  66.840  1.00  0.00    -0.110 C  
ENDROOT
BRANCH   4  13
HETATM   13  C   UNL     1      -9.019  10.726  66.187  1.00  0.00    -0.177 C  
BRANCH  13  14
HETATM   14  N   UNL     1      -9.996  11.512  65.361  1.00  0.00    -0.238 NA 
HETATM   15  C   UNL     1     -10.833  12.479  65.815  1.00  0.00    -0.276 A  
HETATM   16  C   UNL     1     -10.959  13.064  67.193  1.00  0.00    -0.293 C  
HETATM   17  C   UNL     1     -12.110  14.086  67.075  1.00  0.00    -0.455 C  
HETATM   18  C   UNL     1     -10.126  11.110  64.061  1.00  0.00    -0.336 A  
HETATM   19  C   UNL     1     -12.587  14.131  65.624  1.00  0.00    -0.495 C  
HETATM   20  C   UNL     1     -11.089  11.647  63.209  1.00  0.00    -0.333 A  
HETATM   21  C   UNL     1     -11.937  12.640  63.659  1.00  0.00    -0.615 A  
HETATM   22  C   UNL     1     -11.793  13.052  64.968  1.00  0.00    -0.401 A  
ENDBRANCH  13  14
ENDBRANCH   4  13
BRANCH   5  23
HETATM   23  N   UNL     1      -9.644   5.161  69.156  1.00  0.00    -0.133 N  
HETATM   24  C   UNL     1      -9.597   3.947  69.822  1.00  0.00    -0.201 C  
HETATM   25  O   UNL     1      -9.648   2.872  69.246  1.00  0.00    -0.132 OA 
HETATM   26  H   UNL     1      -9.424   6.000  69.691  1.00  0.00     0.000 HD 
BRANCH  24  27
HETATM   27  C   UNL     1      -9.484   4.069  71.373  1.00  0.00    -0.160 C  
BRANCH  27  28
HETATM   28  C   UNL     1      -9.787   5.348  72.029  1.00  0.00    -0.168 A  
HETATM   29  N   UNL     1     -11.061   5.906  71.967  1.00  0.00    -0.265 NA 
HETATM   30  N   UNL     1     -12.232   7.778  72.691  1.00  0.00    -0.581 NA 
HETATM   31  C   UNL     1      -8.897   6.092  72.786  1.00  0.00    -0.123 A  
HETATM   32  S   UNL     1      -9.658   7.500  73.394  1.00  0.00    -0.290 SA 
HETATM   33  H1  UNL     1     -13.100   7.503  72.231  1.00  0.00     0.000 HD 
HETATM   34  H2  UNL     1     -12.211   8.648  73.224  1.00  0.00     0.000 HD 
HETATM   35  C   UNL     1     -11.119   7.037  72.619  1.00  0.00    -0.281 A  
ENDBRANCH  27  28
BRANCH  27  36
HETATM   36  N   UNL     1      -9.178   3.104  72.194  1.00  0.00    -0.101 NA 
HETATM   37  H   UNL     1      -8.250   2.682  72.231  1.00  0.00     0.000 HD 
BRANCH  36  38
HETATM   38  O   UNL     1     -10.228   2.697  73.017  1.00  0.00    -0.125 OA 
HETATM   39  C   UNL     1      -9.657   2.107  74.183  1.00  0.00    -0.077 C  
ENDBRANCH  36  38
ENDBRANCH  27  36
ENDBRANCH  24  27
ENDBRANCH   5  23
TORSDOF 7
ENDMDL
MODEL       68
REMARK 921   NORMALIZED FREE ENERGY PREDICTED BY IDOCK:   -6.10 KCAL/MOL
REMARK 922        TOTAL FREE ENERGY PREDICTED BY IDOCK:   -9.81 KCAL/MOL
REMARK 923 INTER-LIGAND FREE ENERGY PREDICTED BY IDOCK:   -8.26 KCAL/MOL
REMARK 924 INTRA-LIGAND FREE ENERGY PREDICTED BY IDOCK:   -1.54 KCAL/MOL
REMARK 927      BINDING AFFINITY PREDICTED BY RF-SCORE:    0.00 PKD
ROOT
HETATM    1  C   UNL     1     -10.441   9.076  68.353  1.00  0.00    -0.192 C  
HETATM    2  S   UNL     1     -10.063   9.550  66.636  1.00  0.00    -0.246 SA 
HETATM    3  C   UNL     1      -9.367   7.973  66.182  1.00  0.00    -0.147 C  
HETATM    4  C   UNL     1      -8.318   7.439  67.118  1.00  0.00    -0.118 C  
HETATM    5  CA  UNL     1     -10.419  10.250  69.383  1.00  0.00    -0.236 C  
HETATM    6  CA  UNL     1      -8.329   7.694  68.455  1.00  0.00    -0.125 C  
HETATM    7  C   UNL     1      -7.374   6.905  69.438  1.00  0.00    -0.091 C  
HETATM    8  O   UNL     1      -8.244   9.866  70.690  1.00  0.00    -0.210 OA 
HETATM    9  N   UNL     1      -9.254   8.557  69.000  1.00  0.00    -0.146 N  
HETATM   10  OXT UNL     1      -6.284   6.512  68.905  1.00  0.00    -0.028 OA 
HETATM   11  O   UNL     1      -7.882   6.592  70.546  1.00  0.00    -0.102 OA 
HETATM   12  C   UNL     1      -9.132   9.534  69.935  1.00  0.00    -0.216 C  
ENDROOT
BRANCH   4  13
HETATM   13  C   UNL     1      -7.430   6.415  66.436  1.00  0.00    -0.086 C  
BRANCH  13  14
HETATM   14  N   UNL     1      -8.025   5.109  65.993  1.00  0.00    -0.106 NA 
HETATM   15  C   UNL     1      -8.380   4.778  64.725  1.00  0.00    -0.132 A  
HETATM   16  C   UNL     1      -8.215   5.560  63.453  1.00  0.00    -0.110 C  
HETATM   17  C   UNL     1      -8.851   4.667  62.366  1.00  0.00    -0.122 C  
HETATM   18  C   UNL     1      -8.347   4.238  66.996  1.00  0.00    -0.101 A  
HETATM   19  C   UNL     1      -9.311   3.358  63.006  1.00  0.00    -0.098 C  
HETATM   20  C   UNL     1      -9.031   3.048  66.757  1.00  0.00    -0.174 A  
HETATM   21  C   UNL     1      -9.386   2.699  65.469  1.00  0.00    -0.041 A  
HETATM   22  C   UNL     1      -9.048   3.574  64.458  1.00  0.00    -0.130 A  
ENDBRANCH  13  14
ENDBRANCH   4  13
BRANCH   5  23
HETATM   23  N   UNL     1     -10.143  11.612  68.845  1.00  0.00    -0.373 N  
HETATM   24  C   UNL     1     -11.062  12.647  68.785  1.00  0.00    -0.263 C  
HETATM   25  O   UNL     1     -12.144  12.606  69.349  1.00  0.00    -0.264 OA 
HETATM   26  H   UNL     1      -9.204  11.795  68.492  1.00  0.00     0.000 HD 
BRANCH  24  27
HETATM   27  C   UNL     1     -10.604  13.865  67.927  1.00  0.00    -0.245 C  
BRANCH  27  28
HETATM   28  C   UNL     1     -11.117  14.031  66.560  1.00  0.00    -0.314 A  
HETATM   29  N   UNL     1     -11.050  15.259  65.909  1.00  0.00    -0.320 NA 
HETATM   30  N   UNL     1     -11.623  16.245  63.884  1.00  0.00    -1.573 NA 
HETATM   31  C   UNL     1     -11.663  13.024  65.781  1.00  0.00    -0.382 A  
HETATM   32  S   UNL     1     -12.110  13.631  64.244  1.00  0.00    -0.416 SA 
HETATM   33  H1  UNL     1     -11.292  17.170  64.158  1.00  0.00     0.000 HD 
HETATM   34  H2  UNL     1     -12.021  16.120  62.954  1.00  0.00     0.000 HD 
HETATM   35  C   UNL     1     -11.553  15.189  64.705  1.00  0.00    -0.364 A  
ENDBRANCH  27  28
BRANCH  27  36
HETATM   36  N   UNL     1      -9.810  14.821  68.321  1.00  0.00    -0.216 NA 
HETATM   37  H   UNL     1      -9.077  15.213  67.730  1.00  0.00     0.000 HD 
BRANCH  36  38
HETATM   38  O   UNL     1     -10.049  15.262  69.623  1.00  0.00    -0.246 OA 
HETATM   39  C   UNL     1     -11.053  16.274  69.556  1.00  0.00    -0.330 C  
ENDBRANCH  36  38
ENDBRANCH  27  36
ENDBRANCH  24  27
ENDBRANCH   5  23
TORSDOF 7
ENDMDL
MODEL       69
REMARK 921   NORMALIZED FREE ENERGY PREDICTED BY IDOCK:   -6.09 KCAL/MOL
REMARK 922        TOTAL FREE ENERGY PREDICTED BY IDOCK:   -9.80 KCAL/MOL
REMARK 923 INTER-LIGAND FREE ENERGY PREDICTED BY IDOCK:   -8.38 KCAL/MOL
REMARK 924 INTRA-LIGAND FREE ENERGY PREDICTED BY IDOCK:   -1.42 KCAL/MOL
REMARK 927      BINDING AFFINITY PREDICTED BY RF-SCORE:    0.00 PKD
ROOT
HETATM    1  C   UNL     1      -8.744  11.906  67.280  1.00  0.00    -0.171 C  
HETATM    2  S   UNL     1     -10.374  12.576  67.737  1.00  0.00    -0.227 SA 
HETATM    3  C   UNL     1      -9.833  14.272  67.827  1.00  0.00    -0.223 C  
HETATM    4  C   UNL     1      -8.603  14.512  68.660  1.00  0.00    -0.168 C  
HETATM    5  CA  UNL     1      -8.478  10.438  67.744  1.00  0.00    -0.114 C  
HETATM    6  CA  UNL     1      -7.611  13.589  68.785  1.00  0.00    -0.066 C  
HETATM    7  C   UNL     1      -6.225  13.974  69.443  1.00  0.00    -0.108 C  
HETATM    8  O   UNL     1      -6.836  10.710  69.697  1.00  0.00    -0.093 OA 
HETATM    9  N   UNL     1      -7.744  12.332  68.237  1.00  0.00    -0.135 N  
HETATM   10  OXT UNL     1      -6.299  14.907  70.311  1.00  0.00    -0.163 OA 
HETATM   11  O   UNL     1      -5.211  13.465  68.899  1.00  0.00    -0.072 OA 
HETATM   12  C   UNL     1      -7.441  11.101  68.723  1.00  0.00    -0.118 C  
ENDROOT
BRANCH   4  13
HETATM   13  C   UNL     1      -8.510  15.957  69.113  1.00  0.00    -0.254 C  
BRANCH  13  14
HETATM   14  N   UNL     1      -8.160  17.018  68.110  1.00  0.00    -0.204 NA 
HETATM   15  C   UNL     1      -8.964  18.034  67.705  1.00  0.00    -0.251 A  
HETATM   16  C   UNL     1     -10.339  18.412  68.179  1.00  0.00    -0.393 C  
HETATM   17  C   UNL     1     -10.729  19.623  67.306  1.00  0.00    -0.583 C  
HETATM   18  C   UNL     1      -6.966  16.850  67.466  1.00  0.00    -0.142 A  
HETATM   19  C   UNL     1      -9.557  19.974  66.391  1.00  0.00    -0.536 C  
HETATM   20  C   UNL     1      -6.567  17.671  66.413  1.00  0.00    -0.278 A  
HETATM   21  C   UNL     1      -7.373  18.714  66.002  1.00  0.00    -0.276 A  
HETATM   22  C   UNL     1      -8.571  18.887  66.663  1.00  0.00    -0.312 A  
ENDBRANCH  13  14
ENDBRANCH   4  13
BRANCH   5  23
HETATM   23  N   UNL     1      -9.590   9.746  68.454  1.00  0.00    -0.146 N  
HETATM   24  C   UNL     1      -9.472   8.557  69.154  1.00  0.00    -0.154 C  
HETATM   25  O   UNL     1      -8.394   8.050  69.423  1.00  0.00    -0.127 OA 
HETATM   26  H   UNL     1     -10.511  10.183  68.422  1.00  0.00     0.000 HD 
BRANCH  24  27
HETATM   27  C   UNL     1     -10.832   7.911  69.560  1.00  0.00    -0.136 C  
BRANCH  27  28
HETATM   28  C   UNL     1     -11.687   8.572  70.555  1.00  0.00    -0.072 A  
HETATM   29  N   UNL     1     -11.761   9.960  70.632  1.00  0.00    -0.303 NA 
HETATM   30  N   UNL     1     -12.808  11.631  71.863  1.00  0.00    -0.327 NA 
HETATM   31  C   UNL     1     -12.511   7.926  71.461  1.00  0.00    -0.318 A  
HETATM   32  S   UNL     1     -13.357   9.064  72.420  1.00  0.00    -0.421 SA 
HETATM   33  H1  UNL     1     -12.346  12.390  71.361  1.00  0.00     0.000 HD 
HETATM   34  H2  UNL     1     -13.465  11.861  72.608  1.00  0.00     0.000 HD 
HETATM   35  C   UNL     1     -12.579  10.343  71.576  1.00  0.00    -0.439 A  
ENDBRANCH  27  28
BRANCH  27  36
HETATM   36  N   UNL     1     -11.338   6.819  69.058  1.00  0.00    -0.558 NA 
HETATM   37  H   UNL     1     -12.321   6.730  68.802  1.00  0.00     0.000 HD 
BRANCH  36  38
HETATM   38  O   UNL     1     -10.419   5.782  68.904  1.00  0.00    -0.212 OA 
HETATM   39  C   UNL     1     -10.260   5.154  70.175  1.00  0.00    -0.278 C  
ENDBRANCH  36  38
ENDBRANCH  27  36
ENDBRANCH  24  27
ENDBRANCH   5  23
TORSDOF 7
ENDMDL
MODEL       70
REMARK 921   NORMALIZED FREE ENERGY PREDICTED BY IDOCK:   -6.09 KCAL/MOL
REMARK 922        TOTAL FREE ENERGY PREDICTED BY IDOCK:   -9.79 KCAL/MOL
REMARK 923 INTER-LIGAND FREE ENERGY PREDICTED BY IDOCK:   -8.88 KCAL/MOL
REMARK 924 INTRA-LIGAND FREE ENERGY PREDICTED BY IDOCK:   -0.91 KCAL/MOL
REMARK 927      BINDING AFFINITY PREDICTED BY RF-SCORE:    0.00 PKD
ROOT
HETATM    1  C   UNL     1     -11.918  13.190  67.651  1.00  0.00    -0.315 C  
HETATM    2  S   UNL     1     -10.564  13.864  68.664  1.00  0.00    -0.252 SA 
HETATM    3  C   UNL     1     -10.881  15.568  68.246  1.00  0.00    -0.292 C  
HETATM    4  C   UNL     1     -11.006  15.857  66.775  1.00  0.00    -0.151 C  
HETATM    5  CA  UNL     1     -11.677  11.747  67.102  1.00  0.00    -0.188 C  
HETATM    6  CA  UNL     1     -11.499  14.951  65.888  1.00  0.00    -0.276 C  
HETATM    7  C   UNL     1     -11.862  15.379  64.409  1.00  0.00    -0.256 C  
HETATM    8  O   UNL     1     -11.185  12.124  64.611  1.00  0.00    -0.305 OA 
HETATM    9  N   UNL     1     -11.807  13.669  66.289  1.00  0.00    -0.370 N  
HETATM   10  OXT UNL     1     -11.166  16.349  63.961  1.00  0.00    -0.849 OA 
HETATM   11  O   UNL     1     -12.904  14.855  63.938  1.00  0.00    -0.697 OA 
HETATM   12  C   UNL     1     -11.580  12.464  65.705  1.00  0.00    -0.398 C  
ENDROOT
BRANCH   4  13
HETATM   13  C   UNL     1     -10.753  17.322  66.472  1.00  0.00    -0.078 C  
BRANCH  13  14
HETATM   14  N   UNL     1      -9.667  18.047  67.213  1.00  0.00    -0.289 NA 
HETATM   15  C   UNL     1      -8.336  17.791  67.137  1.00  0.00    -0.223 A  
HETATM   16  C   UNL     1      -7.601  16.807  66.272  1.00  0.00    -0.275 C  
HETATM   17  C   UNL     1      -6.120  16.967  66.679  1.00  0.00    -0.231 C  
HETATM   18  C   UNL     1     -10.093  18.957  68.139  1.00  0.00    -0.388 A  
HETATM   19  C   UNL     1      -6.008  18.082  67.717  1.00  0.00    -0.157 C  
HETATM   20  C   UNL     1      -9.213  19.608  69.002  1.00  0.00    -0.246 A  
HETATM   21  C   UNL     1      -7.856  19.362  68.923  1.00  0.00    -0.370 A  
HETATM   22  C   UNL     1      -7.430  18.452  67.979  1.00  0.00    -0.263 A  
ENDBRANCH  13  14
ENDBRANCH   4  13
BRANCH   5  23
HETATM   23  N   UNL     1     -10.408  11.078  67.503  1.00  0.00    -0.191 N  
HETATM   24  C   UNL     1     -10.126  10.600  68.773  1.00  0.00    -0.191 C  
HETATM   25  O   UNL     1     -10.971  10.507  69.649  1.00  0.00    -0.245 OA 
HETATM   26  H   UNL     1      -9.692  10.963  66.787  1.00  0.00     0.000 HD 
BRANCH  24  27
HETATM   27  C   UNL     1      -8.634  10.203  68.993  1.00  0.00    -0.156 C  
BRANCH  27  28
HETATM   28  C   UNL     1      -8.037   9.132  68.185  1.00  0.00    -0.104 A  
HETATM   29  N   UNL     1      -7.171   9.420  67.134  1.00  0.00    -0.086 NA 
HETATM   30  N   UNL     1      -5.920   8.342  65.498  1.00  0.00    -0.044 NA 
HETATM   31  C   UNL     1      -8.220   7.775  68.390  1.00  0.00    -0.124 A  
HETATM   32  S   UNL     1      -7.324   6.869  67.247  1.00  0.00    -0.093 SA 
HETATM   33  H1  UNL     1      -5.578   9.210  65.086  1.00  0.00     0.000 HD 
HETATM   34  H2  UNL     1      -5.622   7.454  65.096  1.00  0.00     0.000 HD 
HETATM   35  C   UNL     1      -6.748   8.330  66.551  1.00  0.00    -0.063 A  
ENDBRANCH  27  28
BRANCH  27  36
HETATM   36  N   UNL     1      -7.808  10.772  69.826  1.00  0.00    -0.368 NA 
HETATM   37  H   UNL     1      -7.543  11.755  69.759  1.00  0.00     0.000 HD 
BRANCH  36  38
HETATM   38  O   UNL     1      -7.319   9.921  70.817  1.00  0.00    -0.312 OA 
HETATM   39  C   UNL     1      -5.924  10.185  70.959  1.00  0.00    -0.034 C  
ENDBRANCH  36  38
ENDBRANCH  27  36
ENDBRANCH  24  27
ENDBRANCH   5  23
TORSDOF 7
ENDMDL
MODEL       71
REMARK 921   NORMALIZED FREE ENERGY PREDICTED BY IDOCK:   -6.08 KCAL/MOL
REMARK 922        TOTAL FREE ENERGY PREDICTED BY IDOCK:   -9.78 KCAL/MOL
REMARK 923 INTER-LIGAND FREE ENERGY PREDICTED BY IDOCK:   -8.36 KCAL/MOL
REMARK 924 INTRA-LIGAND FREE ENERGY PREDICTED BY IDOCK:   -1.42 KCAL/MOL
REMARK 927      BINDING AFFINITY PREDICTED BY RF-SCORE:    0.00 PKD
ROOT
HETATM    1  C   UNL     1      -7.481  15.435  69.570  1.00  0.00    -0.211 C  
HETATM    2  S   UNL     1      -9.183  15.775  69.019  1.00  0.00    -0.258 SA 
HETATM    3  C   UNL     1      -9.702  14.069  69.033  1.00  0.00     0.056 C  
HETATM    4  C   UNL     1      -8.795  13.115  68.303  1.00  0.00    -0.175 C  
HETATM    5  CA  UNL     1      -6.409  16.457  69.072  1.00  0.00    -0.164 C  
HETATM    6  CA  UNL     1      -7.450  13.303  68.216  1.00  0.00    -0.126 C  
HETATM    7  C   UNL     1      -6.506  12.154  67.677  1.00  0.00    -0.110 C  
HETATM    8  O   UNL     1      -5.139  15.162  67.256  1.00  0.00    -0.321 OA 
HETATM    9  N   UNL     1      -6.865  14.450  68.706  1.00  0.00    -0.090 N  
HETATM   10  OXT UNL     1      -7.064  11.367  66.842  1.00  0.00    -0.128 OA 
HETATM   11  O   UNL     1      -5.405  12.038  68.275  1.00  0.00    -0.049 OA 
HETATM   12  C   UNL     1      -5.897  15.254  68.198  1.00  0.00    -0.131 C  
ENDROOT
BRANCH   4  13
HETATM   13  C   UNL     1      -9.523  11.843  67.912  1.00  0.00    -0.194 C  
BRANCH  13  14
HETATM   14  N   UNL     1      -9.794  10.803  68.961  1.00  0.00    -0.203 NA 
HETATM   15  C   UNL     1     -10.848  10.782  69.816  1.00  0.00    -0.226 A  
HETATM   16  C   UNL     1     -12.028  11.709  69.901  1.00  0.00    -0.414 C  
HETATM   17  C   UNL     1     -12.847  11.182  71.099  1.00  0.00    -0.473 C  
HETATM   18  C   UNL     1      -8.808   9.873  69.136  1.00  0.00    -0.164 A  
HETATM   19  C   UNL     1     -12.173   9.925  71.646  1.00  0.00    -0.482 C  
HETATM   20  C   UNL     1      -8.849   8.929  70.161  1.00  0.00    -0.172 A  
HETATM   21  C   UNL     1      -9.923   8.893  71.028  1.00  0.00    -0.324 A  
HETATM   22  C   UNL     1     -10.922   9.826  70.840  1.00  0.00    -0.411 A  
ENDBRANCH  13  14
ENDBRANCH   4  13
BRANCH   5  23
HETATM   23  N   UNL     1      -6.901  17.603  68.256  1.00  0.00    -0.206 N  
HETATM   24  C   UNL     1      -6.441  18.906  68.353  1.00  0.00    -0.230 C  
HETATM   25  O   UNL     1      -5.443  19.212  68.987  1.00  0.00    -0.196 OA 
HETATM   26  H   UNL     1      -7.634  17.412  67.573  1.00  0.00     0.000 HD 
BRANCH  24  27
HETATM   27  C   UNL     1      -7.311  19.953  67.593  1.00  0.00    -0.281 C  
BRANCH  27  28
HETATM   28  C   UNL     1      -8.678  19.607  67.183  1.00  0.00    -0.312 A  
HETATM   29  N   UNL     1      -8.922  18.551  66.309  1.00  0.00    -0.453 NA 
HETATM   30  N   UNL     1     -10.690  17.472  65.254  1.00  0.00    -0.608 NA 
HETATM   31  C   UNL     1      -9.832  20.230  67.628  1.00  0.00    -0.423 A  
HETATM   32  S   UNL     1     -11.215  19.503  66.928  1.00  0.00     0.361 SA 
HETATM   33  H1  UNL     1     -10.087  16.822  64.750  1.00  0.00     0.000 HD 
HETATM   34  H2  UNL     1     -11.700  17.409  65.125  1.00  0.00     0.000 HD 
HETATM   35  C   UNL     1     -10.200  18.407  66.079  1.00  0.00    -0.336 A  
ENDBRANCH  27  28
BRANCH  27  36
HETATM   36  N   UNL     1      -6.957  21.175  67.306  1.00  0.00    -0.565 NA 
HETATM   37  H   UNL     1      -7.531  21.987  67.536  1.00  0.00     0.000 HD 
BRANCH  36  38
HETATM   38  O   UNL     1      -5.727  21.276  66.657  1.00  0.00    -0.239 OA 
HETATM   39  C   UNL     1      -5.979  21.258  65.253  1.00  0.00    -0.101 C  
ENDBRANCH  36  38
ENDBRANCH  27  36
ENDBRANCH  24  27
ENDBRANCH   5  23
TORSDOF 7
ENDMDL
MODEL       72
REMARK 921   NORMALIZED FREE ENERGY PREDICTED BY IDOCK:   -6.08 KCAL/MOL
REMARK 922        TOTAL FREE ENERGY PREDICTED BY IDOCK:   -9.77 KCAL/MOL
REMARK 923 INTER-LIGAND FREE ENERGY PREDICTED BY IDOCK:   -8.02 KCAL/MOL
REMARK 924 INTRA-LIGAND FREE ENERGY PREDICTED BY IDOCK:   -1.75 KCAL/MOL
REMARK 927      BINDING AFFINITY PREDICTED BY RF-SCORE:    0.00 PKD
ROOT
HETATM    1  C   UNL     1     -11.495  10.563  68.281  1.00  0.00    -0.199 C  
HETATM    2  S   UNL     1     -10.210  11.559  67.460  1.00  0.00    -0.188 SA 
HETATM    3  C   UNL     1      -9.201  10.166  66.991  1.00  0.00    -0.146 C  
HETATM    4  C   UNL     1      -8.883   9.199  68.099  1.00  0.00    -0.129 C  
HETATM    5  CA  UNL     1     -12.243  11.283  69.449  1.00  0.00    -0.247 C  
HETATM    6  CA  UNL     1      -9.735   8.964  69.134  1.00  0.00    -0.168 C  
HETATM    7  C   UNL     1      -9.490   7.758  70.127  1.00  0.00    -0.160 C  
HETATM    8  O   UNL     1     -11.285  10.173  71.555  1.00  0.00    -0.157 OA 
HETATM    9  N   UNL     1     -10.895   9.695  69.272  1.00  0.00    -0.222 N  
HETATM   10  OXT UNL     1      -8.263   7.437  70.266  1.00  0.00    -0.127 OA 
HETATM   11  O   UNL     1     -10.525   7.145  70.495  1.00  0.00    -0.208 OA 
HETATM   12  C   UNL     1     -11.484  10.252  70.362  1.00  0.00    -0.335 C  
ENDROOT
BRANCH   4  13
HETATM   13  C   UNL     1      -7.650   8.374  67.783  1.00  0.00    -0.102 C  
BRANCH  13  14
HETATM   14  N   UNL     1      -7.619   7.556  66.524  1.00  0.00    -0.087 NA 
HETATM   15  C   UNL     1      -8.225   6.357  66.332  1.00  0.00    -0.115 A  
HETATM   16  C   UNL     1      -9.120   5.580  67.256  1.00  0.00    -0.110 C  
HETATM   17  C   UNL     1      -9.448   4.287  66.478  1.00  0.00    -0.196 C  
HETATM   18  C   UNL     1      -6.793   8.022  65.539  1.00  0.00    -0.059 A  
HETATM   19  C   UNL     1      -8.800   4.361  65.097  1.00  0.00    -0.138 C  
HETATM   20  C   UNL     1      -6.550   7.303  64.370  1.00  0.00    -0.040 A  
HETATM   21  C   UNL     1      -7.172   6.088  64.162  1.00  0.00    -0.057 A  
HETATM   22  C   UNL     1      -8.014   5.628  65.153  1.00  0.00    -0.113 A  
ENDBRANCH  13  14
ENDBRANCH   4  13
BRANCH   5  23
HETATM   23  N   UNL     1     -11.861  12.697  69.722  1.00  0.00    -0.376 N  
HETATM   24  C   UNL     1     -12.481  13.527  70.641  1.00  0.00    -0.333 C  
HETATM   25  O   UNL     1     -13.286  13.121  71.464  1.00  0.00    -0.350 OA 
HETATM   26  H   UNL     1     -11.082  13.083  69.190  1.00  0.00     0.000 HD 
BRANCH  24  27
HETATM   27  C   UNL     1     -12.073  15.028  70.530  1.00  0.00    -0.326 C  
BRANCH  27  28
HETATM   28  C   UNL     1     -11.314  15.494  69.361  1.00  0.00    -0.316 A  
HETATM   29  N   UNL     1     -11.657  15.093  68.073  1.00  0.00    -0.341 NA 
HETATM   30  N   UNL     1     -10.975  15.375  65.869  1.00  0.00    -0.318 NA 
HETATM   31  C   UNL     1     -10.248  16.377  69.397  1.00  0.00    -0.273 A  
HETATM   32  S   UNL     1      -9.667  16.680  67.815  1.00  0.00    -0.244 SA 
HETATM   33  H1  UNL     1     -11.685  14.748  65.493  1.00  0.00     0.000 HD 
HETATM   34  H2  UNL     1     -10.327  15.829  65.225  1.00  0.00     0.000 HD 
HETATM   35  C   UNL     1     -10.863  15.624  67.181  1.00  0.00    -0.297 A  
ENDBRANCH  27  28
BRANCH  27  36
HETATM   36  N   UNL     1     -12.382  15.968  71.379  1.00  0.00    -0.572 NA 
HETATM   37  H   UNL     1     -13.112  16.657  71.201  1.00  0.00     0.000 HD 
BRANCH  36  38
HETATM   38  O   UNL     1     -11.627  15.950  72.552  1.00  0.00    -0.426 OA 
HETATM   39  C   UNL     1     -12.498  16.294  73.628  1.00  0.00    -0.545 C  
ENDBRANCH  36  38
ENDBRANCH  27  36
ENDBRANCH  24  27
ENDBRANCH   5  23
TORSDOF 7
ENDMDL
MODEL       73
REMARK 921   NORMALIZED FREE ENERGY PREDICTED BY IDOCK:   -6.07 KCAL/MOL
REMARK 922        TOTAL FREE ENERGY PREDICTED BY IDOCK:   -9.77 KCAL/MOL
REMARK 923 INTER-LIGAND FREE ENERGY PREDICTED BY IDOCK:   -9.09 KCAL/MOL
REMARK 924 INTRA-LIGAND FREE ENERGY PREDICTED BY IDOCK:   -0.68 KCAL/MOL
REMARK 927      BINDING AFFINITY PREDICTED BY RF-SCORE:    0.00 PKD
ROOT
HETATM    1  C   UNL     1      -9.478  12.205  65.946  1.00  0.00    -0.179 C  
HETATM    2  S   UNL     1     -11.121  11.553  66.381  1.00  0.00    -0.223 SA 
HETATM    3  C   UNL     1     -11.781  13.120  66.915  1.00  0.00    -0.387 C  
HETATM    4  C   UNL     1     -10.929  13.876  67.898  1.00  0.00    -0.265 C  
HETATM    5  CA  UNL     1      -8.304  11.183  66.080  1.00  0.00    -0.144 C  
HETATM    6  CA  UNL     1      -9.571  13.797  67.904  1.00  0.00    -0.222 C  
HETATM    7  C   UNL     1      -8.705  14.801  68.767  1.00  0.00    -0.178 C  
HETATM    8  O   UNL     1      -7.073  11.954  68.196  1.00  0.00    -0.071 OA 
HETATM    9  N   UNL     1      -8.912  12.922  67.069  1.00  0.00    -0.220 N  
HETATM   10  OXT UNL     1      -9.292  15.230  69.815  1.00  0.00    -0.216 OA 
HETATM   11  O   UNL     1      -7.643  15.201  68.223  1.00  0.00    -0.103 OA 
HETATM   12  C   UNL     1      -7.859  12.092  67.284  1.00  0.00    -0.176 C  
ENDROOT
BRANCH   4  13
HETATM   13  C   UNL     1     -11.745  14.888  68.681  1.00  0.00    -0.330 C  
BRANCH  13  14
HETATM   14  N   UNL     1     -12.324  14.492  70.009  1.00  0.00    -0.330 NA 
HETATM   15  C   UNL     1     -12.461  13.226  70.479  1.00  0.00    -0.260 A  
HETATM   16  C   UNL     1     -12.022  11.927  69.865  1.00  0.00    -0.398 C  
HETATM   17  C   UNL     1     -12.500  10.849  70.861  1.00  0.00    -0.507 C  
HETATM   18  C   UNL     1     -12.873  15.510  70.738  1.00  0.00    -0.458 A  
HETATM   19  C   UNL     1     -13.143  11.535  72.065  1.00  0.00    -0.430 C  
HETATM   20  C   UNL     1     -13.570  15.283  71.924  1.00  0.00    -0.575 A  
HETATM   21  C   UNL     1     -13.703  13.999  72.415  1.00  0.00    -0.669 A  
HETATM   22  C   UNL     1     -13.137  12.977  71.682  1.00  0.00    -0.440 A  
ENDBRANCH  13  14
ENDBRANCH   4  13
BRANCH   5  23
HETATM   23  N   UNL     1      -8.662   9.799  66.497  1.00  0.00    -0.127 N  
HETATM   24  C   UNL     1      -8.871   8.735  65.634  1.00  0.00    -0.199 C  
HETATM   25  O   UNL     1      -8.591   8.780  64.447  1.00  0.00    -0.164 OA 
HETATM   26  H   UNL     1      -8.763   9.620  67.496  1.00  0.00     0.000 HD 
BRANCH  24  27
HETATM   27  C   UNL     1      -9.505   7.478  66.305  1.00  0.00    -0.096 C  
BRANCH  27  28
HETATM   28  C   UNL     1      -8.883   6.160  66.120  1.00  0.00    -0.152 A  
HETATM   29  N   UNL     1      -9.642   4.993  66.166  1.00  0.00    -0.157 NA 
HETATM   30  N   UNL     1      -9.393   2.689  65.989  1.00  0.00    -0.350 NA 
HETATM   31  C   UNL     1      -7.545   5.935  65.847  1.00  0.00    -0.086 A  
HETATM   32  S   UNL     1      -7.240   4.259  65.675  1.00  0.00    -0.073 SA 
HETATM   33  H1  UNL     1     -10.379   2.496  66.164  1.00  0.00     0.000 HD 
HETATM   34  H2  UNL     1      -8.760   1.907  65.821  1.00  0.00     0.000 HD 
HETATM   35  C   UNL     1      -8.901   3.934  65.971  1.00  0.00    -0.123 A  
ENDBRANCH  27  28
BRANCH  27  36
HETATM   36  N   UNL     1     -10.551   7.474  67.083  1.00  0.00    -0.357 NA 
HETATM   37  H   UNL     1     -11.337   6.837  66.952  1.00  0.00     0.000 HD 
BRANCH  36  38
HETATM   38  O   UNL     1     -10.503   8.416  68.110  1.00  0.00    -0.212 OA 
HETATM   39  C   UNL     1     -10.169   7.724  69.312  1.00  0.00    -0.211 C  
ENDBRANCH  36  38
ENDBRANCH  27  36
ENDBRANCH  24  27
ENDBRANCH   5  23
TORSDOF 7
ENDMDL
MODEL       74
REMARK 921   NORMALIZED FREE ENERGY PREDICTED BY IDOCK:   -6.04 KCAL/MOL
REMARK 922        TOTAL FREE ENERGY PREDICTED BY IDOCK:   -9.72 KCAL/MOL
REMARK 923 INTER-LIGAND FREE ENERGY PREDICTED BY IDOCK:   -8.34 KCAL/MOL
REMARK 924 INTRA-LIGAND FREE ENERGY PREDICTED BY IDOCK:   -1.38 KCAL/MOL
REMARK 927      BINDING AFFINITY PREDICTED BY RF-SCORE:    0.00 PKD
ROOT
HETATM    1  C   UNL     1     -11.322   6.483  71.782  1.00  0.00    -0.281 C  
HETATM    2  S   UNL     1     -11.547   6.754  69.995  1.00  0.00    -0.263 SA 
HETATM    3  C   UNL     1     -10.623   5.312  69.496  1.00  0.00    -0.173 C  
HETATM    4  C   UNL     1      -9.263   5.170  70.123  1.00  0.00    -0.188 C  
HETATM    5  CA  UNL     1     -11.323   7.780  72.652  1.00  0.00    -0.393 C  
HETATM    6  CA  UNL     1      -8.983   5.622  71.375  1.00  0.00    -0.140 C  
HETATM    7  C   UNL     1      -7.633   5.221  72.097  1.00  0.00    -0.099 C  
HETATM    8  O   UNL     1      -8.854   8.083  73.286  1.00  0.00    -0.216 OA 
HETATM    9  N   UNL     1      -9.915   6.340  72.091  1.00  0.00    -0.167 N  
HETATM   10  OXT UNL     1      -6.662   4.995  71.302  1.00  0.00    -0.037 OA 
HETATM   11  O   UNL     1      -7.732   4.984  73.329  1.00  0.00    -0.091 OA 
HETATM   12  C   UNL     1      -9.799   7.454  72.859  1.00  0.00    -0.204 C  
ENDROOT
BRANCH   4  13
HETATM   13  C   UNL     1      -8.362   4.269  69.301  1.00  0.00    -0.073 C  
BRANCH  13  14
HETATM   14  N   UNL     1      -8.471   4.292  67.803  1.00  0.00    -0.098 NA 
HETATM   15  C   UNL     1      -8.178   5.343  66.995  1.00  0.00    -0.104 A  
HETATM   16  C   UNL     1      -7.615   6.691  67.347  1.00  0.00    -0.104 C  
HETATM   17  C   UNL     1      -7.552   7.445  66.001  1.00  0.00    -0.088 C  
HETATM   18  C   UNL     1      -9.041   3.187  67.237  1.00  0.00    -0.174 A  
HETATM   19  C   UNL     1      -8.011   6.509  64.885  1.00  0.00    -0.124 C  
HETATM   20  C   UNL     1      -9.337   3.117  65.877  1.00  0.00    -0.104 A  
HETATM   21  C   UNL     1      -9.032   4.176  65.045  1.00  0.00    -0.137 A  
HETATM   22  C   UNL     1      -8.445   5.285  65.619  1.00  0.00    -0.135 A  
ENDBRANCH  13  14
ENDBRANCH   4  13
BRANCH   5  23
HETATM   23  N   UNL     1     -11.552   9.068  71.939  1.00  0.00    -0.365 N  
HETATM   24  C   UNL     1     -12.788   9.661  71.742  1.00  0.00    -0.421 C  
HETATM   25  O   UNL     1     -13.803   9.282  72.306  1.00  0.00    -0.453 OA 
HETATM   26  H   UNL     1     -10.735   9.550  71.566  1.00  0.00     0.000 HD 
BRANCH  24  27
HETATM   27  C   UNL     1     -12.778  10.848  70.731  1.00  0.00    -0.340 C  
BRANCH  27  28
HETATM   28  C   UNL     1     -12.891  12.228  71.223  1.00  0.00    -0.239 A  
HETATM   29  N   UNL     1     -12.303  13.287  70.537  1.00  0.00    -0.339 NA 
HETATM   30  N   UNL     1     -12.049  15.593  70.683  1.00  0.00    -0.381 NA 
HETATM   31  C   UNL     1     -13.596  12.624  72.346  1.00  0.00    -0.333 A  
HETATM   32  S   UNL     1     -13.497  14.321  72.550  1.00  0.00    -0.534 SA 
HETATM   33  H1  UNL     1     -11.473  15.655  69.844  1.00  0.00     0.000 HD 
HETATM   34  H2  UNL     1     -12.268  16.447  71.196  1.00  0.00     0.000 HD 
HETATM   35  C   UNL     1     -12.527  14.427  71.136  1.00  0.00    -0.359 A  
ENDBRANCH  27  28
BRANCH  27  36
HETATM   36  N   UNL     1     -12.632  10.749  69.439  1.00  0.00    -0.635 NA 
HETATM   37  H   UNL     1     -13.385  10.943  68.779  1.00  0.00     0.000 HD 
BRANCH  36  38
HETATM   38  O   UNL     1     -11.356  10.354  69.037  1.00  0.00    -0.242 OA 
HETATM   39  C   UNL     1     -11.101  10.952  67.767  1.00  0.00    -0.309 C  
ENDBRANCH  36  38
ENDBRANCH  27  36
ENDBRANCH  24  27
ENDBRANCH   5  23
TORSDOF 7
ENDMDL
MODEL       75
REMARK 921   NORMALIZED FREE ENERGY PREDICTED BY IDOCK:   -6.00 KCAL/MOL
REMARK 922        TOTAL FREE ENERGY PREDICTED BY IDOCK:   -9.66 KCAL/MOL
REMARK 923 INTER-LIGAND FREE ENERGY PREDICTED BY IDOCK:   -7.99 KCAL/MOL
REMARK 924 INTRA-LIGAND FREE ENERGY PREDICTED BY IDOCK:   -1.67 KCAL/MOL
REMARK 927      BINDING AFFINITY PREDICTED BY RF-SCORE:    0.00 PKD
ROOT
HETATM    1  C   UNL     1     -10.992   8.614  69.157  1.00  0.00     0.063 C  
HETATM    2  S   UNL     1     -10.592   9.503  67.619  1.00  0.00    -0.242 SA 
HETATM    3  C   UNL     1      -9.658   8.166  66.898  1.00  0.00    -0.208 C  
HETATM    4  C   UNL     1      -8.596   7.573  67.783  1.00  0.00    -0.120 C  
HETATM    5  CA  UNL     1     -11.192   9.522  70.413  1.00  0.00    -0.270 C  
HETATM    6  CA  UNL     1      -8.716   7.520  69.138  1.00  0.00    -0.136 C  
HETATM    7  C   UNL     1      -7.713   6.658  70.006  1.00  0.00    -0.102 C  
HETATM    8  O   UNL     1      -9.058   9.132  71.784  1.00  0.00    -0.346 OA 
HETATM    9  N   UNL     1      -9.781   8.117  69.775  1.00  0.00    -0.172 N  
HETATM   10  OXT UNL     1      -6.551   6.534  69.494  1.00  0.00    -0.045 OA 
HETATM   11  O   UNL     1      -8.231   6.045  70.975  1.00  0.00    -0.119 OA 
HETATM   12  C   UNL     1      -9.849   8.868  70.904  1.00  0.00    -0.242 C  
ENDROOT
BRANCH   4  13
HETATM   13  C   UNL     1      -7.538   6.847  66.974  1.00  0.00    -0.102 C  
BRANCH  13  14
HETATM   14  N   UNL     1      -7.944   5.690  66.107  1.00  0.00    -0.104 NA 
HETATM   15  C   UNL     1      -8.290   4.450  66.535  1.00  0.00    -0.105 A  
HETATM   16  C   UNL     1      -8.433   3.929  67.937  1.00  0.00    -0.105 C  
HETATM   17  C   UNL     1      -8.807   2.442  67.760  1.00  0.00    -0.165 C  
HETATM   18  C   UNL     1      -7.821   5.892  64.760  1.00  0.00    -0.113 A  
HETATM   19  C   UNL     1      -8.943   2.138  66.269  1.00  0.00    -0.105 C  
HETATM   20  C   UNL     1      -8.025   4.872  63.833  1.00  0.00    -0.098 A  
HETATM   21  C   UNL     1      -8.389   3.610  64.260  1.00  0.00    -0.090 A  
HETATM   22  C   UNL     1      -8.524   3.414  65.619  1.00  0.00    -0.109 A  
ENDBRANCH  13  14
ENDBRANCH   4  13
BRANCH   5  23
HETATM   23  N   UNL     1     -11.082  10.993  70.202  1.00  0.00    -0.473 N  
HETATM   24  C   UNL     1     -12.045  11.923  70.557  1.00  0.00    -0.331 C  
HETATM   25  O   UNL     1     -13.006  11.648  71.259  1.00  0.00    -0.366 OA 
HETATM   26  H   UNL     1     -10.231  11.341  69.762  1.00  0.00     0.000 HD 
BRANCH  24  27
HETATM   27  C   UNL     1     -11.806  13.350  69.976  1.00  0.00    -0.294 C  
BRANCH  27  28
HETATM   28  C   UNL     1     -11.662  13.534  68.526  1.00  0.00    -0.357 A  
HETATM   29  N   UNL     1     -12.214  12.625  67.627  1.00  0.00    -0.314 NA 
HETATM   30  N   UNL     1     -12.388  12.252  65.340  1.00  0.00    -0.563 NA 
HETATM   31  C   UNL     1     -11.031  14.601  67.911  1.00  0.00    -0.277 A  
HETATM   32  S   UNL     1     -11.111  14.446  66.208  1.00  0.00    -0.338 SA 
HETATM   33  H1  UNL     1     -12.903  11.378  65.448  1.00  0.00     0.000 HD 
HETATM   34  H2  UNL     1     -12.177  12.587  64.399  1.00  0.00     0.000 HD 
HETATM   35  C   UNL     1     -11.978  12.975  66.390  1.00  0.00    -0.402 A  
ENDBRANCH  27  28
BRANCH  27  36
HETATM   36  N   UNL     1     -11.759  14.456  70.665  1.00  0.00    -0.427 NA 
HETATM   37  H   UNL     1     -10.902  14.806  71.094  1.00  0.00     0.000 HD 
BRANCH  36  38
HETATM   38  O   UNL     1     -12.982  15.120  70.765  1.00  0.00    -0.393 OA 
HETATM   39  C   UNL     1     -13.232  15.353  72.150  1.00  0.00    -0.424 C  
ENDBRANCH  36  38
ENDBRANCH  27  36
ENDBRANCH  24  27
ENDBRANCH   5  23
TORSDOF 7
ENDMDL
MODEL       76
REMARK 921   NORMALIZED FREE ENERGY PREDICTED BY IDOCK:   -5.96 KCAL/MOL
REMARK 922        TOTAL FREE ENERGY PREDICTED BY IDOCK:   -9.61 KCAL/MOL
REMARK 923 INTER-LIGAND FREE ENERGY PREDICTED BY IDOCK:   -8.24 KCAL/MOL
REMARK 924 INTRA-LIGAND FREE ENERGY PREDICTED BY IDOCK:   -1.37 KCAL/MOL
REMARK 927      BINDING AFFINITY PREDICTED BY RF-SCORE:    0.00 PKD
ROOT
HETATM    1  C   UNL     1      -8.850   9.371  70.496  1.00  0.00    -0.239 C  
HETATM    2  S   UNL     1      -8.243   8.445  69.051  1.00  0.00    -0.119 SA 
HETATM    3  C   UNL     1      -8.447   9.791  67.899  1.00  0.00    -0.125 C  
HETATM    4  C   UNL     1      -9.796  10.457  67.920  1.00  0.00    -0.176 C  
HETATM    5  CA  UNL     1      -9.530   8.500  71.601  1.00  0.00    -0.246 C  
HETATM    6  CA  UNL     1     -10.549  10.553  69.049  1.00  0.00    -0.222 C  
HETATM    7  C   UNL     1     -11.827  11.483  69.093  1.00  0.00    -0.340 C  
HETATM    8  O   UNL     1     -12.028   9.022  71.328  1.00  0.00    -0.287 OA 
HETATM    9  N   UNL     1     -10.152   9.936  70.215  1.00  0.00    -0.266 N  
HETATM   10  OXT UNL     1     -12.403  11.635  67.965  1.00  0.00    -0.429 OA 
HETATM   11  O   UNL     1     -12.000  12.109  70.171  1.00  0.00    -0.339 OA 
HETATM   12  C   UNL     1     -10.847   9.223  71.138  1.00  0.00    -0.337 C  
ENDROOT
BRANCH   4  13
HETATM   13  C   UNL     1     -10.073  11.195  66.624  1.00  0.00    -0.217 C  
BRANCH  13  14
HETATM   14  N   UNL     1      -9.817  12.674  66.553  1.00  0.00    -0.250 NA 
HETATM   15  C   UNL     1     -10.496  13.569  65.793  1.00  0.00    -0.291 A  
HETATM   16  C   UNL     1     -11.690  13.358  64.905  1.00  0.00    -0.379 C  
HETATM   17  C   UNL     1     -11.962  14.746  64.288  1.00  0.00    -0.387 C  
HETATM   18  C   UNL     1      -8.712  13.112  67.227  1.00  0.00    -0.210 A  
HETATM   19  C   UNL     1     -10.973  15.753  64.873  1.00  0.00    -0.443 C  
HETATM   20  C   UNL     1      -8.264  14.430  67.144  1.00  0.00    -0.202 A  
HETATM   21  C   UNL     1      -8.956  15.350  66.382  1.00  0.00    -0.351 A  
HETATM   22  C   UNL     1     -10.077  14.905  65.713  1.00  0.00    -0.367 A  
ENDBRANCH  13  14
ENDBRANCH   4  13
BRANCH   5  23
HETATM   23  N   UNL     1      -9.561   7.029  71.372  1.00  0.00    -0.163 N  
HETATM   24  C   UNL     1     -10.088   6.096  72.250  1.00  0.00    -0.179 C  
HETATM   25  O   UNL     1     -10.758   6.405  73.223  1.00  0.00    -0.248 OA 
HETATM   26  H   UNL     1      -9.163   6.681  70.500  1.00  0.00     0.000 HD 
BRANCH  24  27
HETATM   27  C   UNL     1      -9.742   4.616  71.900  1.00  0.00    -0.165 C  
BRANCH  27  28
HETATM   28  C   UNL     1      -9.495   4.234  70.503  1.00  0.00    -0.174 A  
HETATM   29  N   UNL     1     -10.113   4.907  69.453  1.00  0.00    -0.219 NA 
HETATM   30  N   UNL     1     -10.226   4.881  67.132  1.00  0.00    -0.186 NA 
HETATM   31  C   UNL     1      -8.627   3.240  70.085  1.00  0.00    -0.059 A  
HETATM   32  S   UNL     1      -8.611   3.137  68.377  1.00  0.00    -0.099 SA 
HETATM   33  H1  UNL     1     -10.904   5.641  67.084  1.00  0.00     0.000 HD 
HETATM   34  H2  UNL     1      -9.898   4.458  66.263  1.00  0.00     0.000 HD 
HETATM   35  C   UNL     1      -9.753   4.417  68.296  1.00  0.00    -0.107 A  
ENDBRANCH  27  28
BRANCH  27  36
HETATM   36  N   UNL     1      -9.601   3.642  72.756  1.00  0.00    -0.124 NA 
HETATM   37  H   UNL     1      -8.769   3.530  73.335  1.00  0.00     0.000 HD 
BRANCH  36  38
HETATM   38  O   UNL     1     -10.686   2.768  72.811  1.00  0.00    -0.135 OA 
HETATM   39  C   UNL     1     -10.786   2.290  74.152  1.00  0.00    -0.160 C  
ENDBRANCH  36  38
ENDBRANCH  27  36
ENDBRANCH  24  27
ENDBRANCH   5  23
TORSDOF 7
ENDMDL
MODEL       77
REMARK 921   NORMALIZED FREE ENERGY PREDICTED BY IDOCK:   -5.96 KCAL/MOL
REMARK 922        TOTAL FREE ENERGY PREDICTED BY IDOCK:   -9.61 KCAL/MOL
REMARK 923 INTER-LIGAND FREE ENERGY PREDICTED BY IDOCK:   -8.17 KCAL/MOL
REMARK 924 INTRA-LIGAND FREE ENERGY PREDICTED BY IDOCK:   -1.44 KCAL/MOL
REMARK 927      BINDING AFFINITY PREDICTED BY RF-SCORE:    0.00 PKD
ROOT
HETATM    1  C   UNL     1      -8.870  10.914  65.474  1.00  0.00    -0.188 C  
HETATM    2  S   UNL     1     -10.388  10.136  66.111  1.00  0.00    -0.117 SA 
HETATM    3  C   UNL     1     -11.159  11.667  66.603  1.00  0.00    -0.307 C  
HETATM    4  C   UNL     1     -10.306  12.575  67.446  1.00  0.00    -0.222 C  
HETATM    5  CA  UNL     1      -7.587  10.026  65.560  1.00  0.00    -0.136 C  
HETATM    6  CA  UNL     1      -8.952  12.632  67.324  1.00  0.00    -0.194 C  
HETATM    7  C   UNL     1      -8.122  13.778  68.031  1.00  0.00    -0.163 C  
HETATM    8  O   UNL     1      -6.257  11.073  67.489  1.00  0.00    -0.051 OA 
HETATM    9  N   UNL     1      -8.283  11.765  66.487  1.00  0.00    -0.117 N  
HETATM   10  OXT UNL     1      -8.654  14.224  69.101  1.00  0.00    -0.008 OA 
HETATM   11  O   UNL     1      -7.163  14.240  67.360  1.00  0.00    -0.185 OA 
HETATM   12  C   UNL     1      -7.133  11.063  66.651  1.00  0.00    -0.139 C  
ENDROOT
BRANCH   4  13
HETATM   13  C   UNL     1     -11.150  13.556  68.238  1.00  0.00    -0.261 C  
BRANCH  13  14
HETATM   14  N   UNL     1     -11.903  13.070  69.443  1.00  0.00    -0.322 NA 
HETATM   15  C   UNL     1     -12.460  13.847  70.407  1.00  0.00    -0.334 A  
HETATM   16  C   UNL     1     -12.544  15.344  70.497  1.00  0.00    -0.471 C  
HETATM   17  C   UNL     1     -13.256  15.610  71.841  1.00  0.00    -0.537 C  
HETATM   18  C   UNL     1     -11.902  11.717  69.631  1.00  0.00    -0.352 A  
HETATM   19  C   UNL     1     -13.634  14.273  72.476  1.00  0.00    -0.620 C  
HETATM   20  C   UNL     1     -12.437  11.124  70.774  1.00  0.00    -0.479 A  
HETATM   21  C   UNL     1     -13.016  11.906  71.753  1.00  0.00    -0.455 A  
HETATM   22  C   UNL     1     -13.025  13.270  71.553  1.00  0.00    -0.426 A  
ENDBRANCH  13  14
ENDBRANCH   4  13
BRANCH   5  23
HETATM   23  N   UNL     1      -7.758   8.648  66.099  1.00  0.00    -0.096 N  
HETATM   24  C   UNL     1      -7.952   7.511  65.333  1.00  0.00    -0.124 C  
HETATM   25  O   UNL     1      -7.809   7.495  64.121  1.00  0.00    -0.129 OA 
HETATM   26  H   UNL     1      -7.729   8.534  67.112  1.00  0.00     0.000 HD 
BRANCH  24  27
HETATM   27  C   UNL     1      -8.380   6.252  66.148  1.00  0.00    -0.130 C  
BRANCH  27  28
HETATM   28  C   UNL     1      -8.838   6.401  67.536  1.00  0.00    -0.111 A  
HETATM   29  N   UNL     1      -9.980   7.136  67.842  1.00  0.00    -0.148 NA 
HETATM   30  N   UNL     1     -11.246   7.794  69.677  1.00  0.00    -0.449 NA 
HETATM   31  C   UNL     1      -8.243   5.822  68.644  1.00  0.00    -0.105 A  
HETATM   32  S   UNL     1      -9.106   6.223  70.067  1.00  0.00    -0.149 SA 
HETATM   33  H1  UNL     1     -11.905   8.338  69.119  1.00  0.00     0.000 HD 
HETATM   34  H2  UNL     1     -11.377   7.748  70.687  1.00  0.00     0.000 HD 
HETATM   35  C   UNL     1     -10.215   7.139  69.128  1.00  0.00    -0.194 A  
ENDBRANCH  27  28
BRANCH  27  36
HETATM   36  N   UNL     1      -8.418   5.028  65.699  1.00  0.00    -0.123 NA 
HETATM   37  H   UNL     1      -7.602   4.417  65.687  1.00  0.00     0.000 HD 
BRANCH  36  38
HETATM   38  O   UNL     1      -9.671   4.628  65.235  1.00  0.00    -0.169 OA 
HETATM   39  C   UNL     1      -9.492   4.080  63.930  1.00  0.00    -0.156 C  
ENDBRANCH  36  38
ENDBRANCH  27  36
ENDBRANCH  24  27
ENDBRANCH   5  23
TORSDOF 7
ENDMDL
MODEL       78
REMARK 921   NORMALIZED FREE ENERGY PREDICTED BY IDOCK:   -5.94 KCAL/MOL
REMARK 922        TOTAL FREE ENERGY PREDICTED BY IDOCK:   -9.57 KCAL/MOL
REMARK 923 INTER-LIGAND FREE ENERGY PREDICTED BY IDOCK:   -8.61 KCAL/MOL
REMARK 924 INTRA-LIGAND FREE ENERGY PREDICTED BY IDOCK:   -0.96 KCAL/MOL
REMARK 927      BINDING AFFINITY PREDICTED BY RF-SCORE:    0.00 PKD
ROOT
HETATM    1  C   UNL     1      -7.228   9.994  67.378  1.00  0.00    -0.085 C  
HETATM    2  S   UNL     1      -7.876  10.436  69.021  1.00  0.00    -0.131 SA 
HETATM    3  C   UNL     1      -7.788   8.781  69.680  1.00  0.00    -0.090 C  
HETATM    4  C   UNL     1      -8.419   7.715  68.827  1.00  0.00    -0.129 C  
HETATM    5  CA  UNL     1      -7.734  10.894  66.204  1.00  0.00    -0.133 C  
HETATM    6  CA  UNL     1      -8.453   7.787  67.468  1.00  0.00    -0.120 C  
HETATM    7  C   UNL     1      -8.881   6.535  66.601  1.00  0.00    -0.132 C  
HETATM    8  O   UNL     1      -9.410   9.391  64.972  1.00  0.00    -0.251 OA 
HETATM    9  N   UNL     1      -8.004   8.911  66.811  1.00  0.00    -0.106 N  
HETATM   10  OXT UNL     1      -9.694   5.746  67.188  1.00  0.00    -0.123 OA 
HETATM   11  O   UNL     1      -8.226   6.367  65.540  1.00  0.00    -0.130 OA 
HETATM   12  C   UNL     1      -8.512   9.602  65.758  1.00  0.00    -0.133 C  
ENDROOT
BRANCH   4  13
HETATM   13  C   UNL     1      -8.769   6.484  69.642  1.00  0.00    -0.139 C  
BRANCH  13  14
HETATM   14  N   UNL     1      -9.443   6.654  70.973  1.00  0.00    -0.164 NA 
HETATM   15  C   UNL     1     -10.502   7.460  71.238  1.00  0.00    -0.208 A  
HETATM   16  C   UNL     1     -11.310   8.314  70.303  1.00  0.00    -0.129 C  
HETATM   17  C   UNL     1     -12.340   9.016  71.214  1.00  0.00    -0.361 C  
HETATM   18  C   UNL     1      -8.836   6.026  72.025  1.00  0.00    -0.137 A  
HETATM   19  C   UNL     1     -12.162   8.512  72.644  1.00  0.00    -0.297 C  
HETATM   20  C   UNL     1      -9.259   6.201  73.341  1.00  0.00    -0.132 A  
HETATM   21  C   UNL     1     -10.343   7.011  73.618  1.00  0.00    -0.412 A  
HETATM   22  C   UNL     1     -10.960   7.632  72.552  1.00  0.00    -0.377 A  
ENDBRANCH  13  14
ENDBRANCH   4  13
BRANCH   5  23
HETATM   23  N   UNL     1      -8.636  12.023  66.564  1.00  0.00    -0.340 N  
HETATM   24  C   UNL     1      -8.242  13.184  67.209  1.00  0.00    -0.168 C  
HETATM   25  O   UNL     1      -7.071  13.484  67.377  1.00  0.00    -0.163 OA 
HETATM   26  H   UNL     1      -9.621  11.934  66.316  1.00  0.00     0.000 HD 
BRANCH  24  27
HETATM   27  C   UNL     1      -9.421  14.071  67.714  1.00  0.00    -0.209 C  
BRANCH  27  28
HETATM   28  C   UNL     1      -9.864  15.222  66.914  1.00  0.00    -0.235 A  
HETATM   29  N   UNL     1     -10.548  15.045  65.715  1.00  0.00    -0.319 NA 
HETATM   30  N   UNL     1     -11.499  16.289  63.997  1.00  0.00    -1.521 NA 
HETATM   31  C   UNL     1      -9.699  16.551  67.263  1.00  0.00    -0.247 A  
HETATM   32  S   UNL     1     -10.382  17.573  66.072  1.00  0.00    -0.225 SA 
HETATM   33  H1  UNL     1     -11.780  15.468  63.461  1.00  0.00     0.000 HD 
HETATM   34  H2  UNL     1     -11.715  17.215  63.630  1.00  0.00     0.000 HD 
HETATM   35  C   UNL     1     -10.855  16.191  65.168  1.00  0.00    -0.361 A  
ENDBRANCH  27  28
BRANCH  27  36
HETATM   36  N   UNL     1     -10.118  13.870  68.797  1.00  0.00    -0.348 NA 
HETATM   37  H   UNL     1      -9.695  13.791  69.722  1.00  0.00     0.000 HD 
BRANCH  36  38
HETATM   38  O   UNL     1     -11.493  13.771  68.583  1.00  0.00    -0.259 OA 
HETATM   39  C   UNL     1     -11.881  12.433  68.891  1.00  0.00    -0.301 C  
ENDBRANCH  36  38
ENDBRANCH  27  36
ENDBRANCH  24  27
ENDBRANCH   5  23
TORSDOF 7
ENDMDL
MODEL       79
REMARK 921   NORMALIZED FREE ENERGY PREDICTED BY IDOCK:   -5.93 KCAL/MOL
REMARK 922        TOTAL FREE ENERGY PREDICTED BY IDOCK:   -9.56 KCAL/MOL
REMARK 923 INTER-LIGAND FREE ENERGY PREDICTED BY IDOCK:   -9.01 KCAL/MOL
REMARK 924 INTRA-LIGAND FREE ENERGY PREDICTED BY IDOCK:   -0.55 KCAL/MOL
REMARK 927      BINDING AFFINITY PREDICTED BY RF-SCORE:    0.00 PKD
ROOT
HETATM    1  C   UNL     1     -11.696  15.224  68.124  1.00  0.00    -0.279 C  
HETATM    2  S   UNL     1     -10.483  14.086  67.383  1.00  0.00    -0.264 SA 
HETATM    3  C   UNL     1     -11.435  12.610  67.693  1.00  0.00    -0.334 C  
HETATM    4  C   UNL     1     -11.931  12.450  69.105  1.00  0.00    -0.291 C  
HETATM    5  CA  UNL     1     -11.090  16.525  68.741  1.00  0.00    -0.309 C  
HETATM    6  CA  UNL     1     -12.248  13.510  69.896  1.00  0.00    -0.292 C  
HETATM    7  C   UNL     1     -13.011  13.300  71.265  1.00  0.00    -0.270 C  
HETATM    8  O   UNL     1     -11.244  16.122  71.271  1.00  0.00    -0.323 OA 
HETATM    9  N   UNL     1     -12.019  14.801  69.470  1.00  0.00    -0.308 N  
HETATM   10  OXT UNL     1     -12.787  12.174  71.821  1.00  0.00    -0.339 OA 
HETATM   11  O   UNL     1     -13.884  14.166  71.533  1.00  0.00    -0.360 OA 
HETATM   12  C   UNL     1     -11.513  15.884  70.113  1.00  0.00    -0.361 C  
ENDROOT
BRANCH   4  13
HETATM   13  C   UNL     1     -12.255  11.001  69.420  1.00  0.00    -0.259 C  
BRANCH  13  14
HETATM   14  N   UNL     1     -11.137  10.002  69.503  1.00  0.00    -0.240 NA 
HETATM   15  C   UNL     1     -10.917   9.128  70.517  1.00  0.00    -0.258 A  
HETATM   16  C   UNL     1     -11.734   8.871  71.751  1.00  0.00    -0.432 C  
HETATM   17  C   UNL     1     -10.939   7.797  72.525  1.00  0.00    -0.395 C  
HETATM   18  C   UNL     1     -10.195  10.089  68.516  1.00  0.00    -0.175 A  
HETATM   19  C   UNL     1      -9.715   7.398  71.703  1.00  0.00    -0.169 C  
HETATM   20  C   UNL     1      -9.029   9.326  68.531  1.00  0.00    -0.129 A  
HETATM   21  C   UNL     1      -8.803   8.425  69.553  1.00  0.00    -0.145 A  
HETATM   22  C   UNL     1      -9.762   8.333  70.541  1.00  0.00    -0.185 A  
ENDBRANCH  13  14
ENDBRANCH   4  13
BRANCH   5  23
HETATM   23  N   UNL     1      -9.617  16.708  68.611  1.00  0.00    -0.240 N  
HETATM   24  C   UNL     1      -8.952  17.015  67.436  1.00  0.00    -0.211 C  
HETATM   25  O   UNL     1      -9.531  17.359  66.417  1.00  0.00    -0.262 OA 
HETATM   26  H   UNL     1      -9.055  16.597  69.455  1.00  0.00     0.000 HD 
BRANCH  24  27
HETATM   27  C   UNL     1      -7.401  16.873  67.518  1.00  0.00    -0.155 C  
BRANCH  27  28
HETATM   28  C   UNL     1      -6.620  17.836  68.305  1.00  0.00    -0.196 A  
HETATM   29  N   UNL     1      -6.534  19.173  67.926  1.00  0.00    -0.224 NA 
HETATM   30  N   UNL     1      -5.547  21.165  68.605  1.00  0.00    -0.331 NA 
HETATM   31  C   UNL     1      -5.947  17.553  69.481  1.00  0.00    -0.246 A  
HETATM   32  S   UNL     1      -5.188  18.960  70.092  1.00  0.00    -0.217 SA 
HETATM   33  H1  UNL     1      -5.910  21.698  67.815  1.00  0.00     0.000 HD 
HETATM   34  H2  UNL     1      -4.972  21.642  69.299  1.00  0.00     0.000 HD 
HETATM   35  C   UNL     1      -5.799  19.859  68.762  1.00  0.00    -0.240 A  
ENDBRANCH  27  28
BRANCH  27  36
HETATM   36  N   UNL     1      -6.692  15.923  66.974  1.00  0.00    -0.279 NA 
HETATM   37  H   UNL     1      -6.008  16.095  66.237  1.00  0.00     0.000 HD 
BRANCH  36  38
HETATM   38  O   UNL     1      -6.951  14.652  67.485  1.00  0.00    -0.177 OA 
HETATM   39  C   UNL     1      -5.806  14.249  68.235  1.00  0.00    -0.117 C  
ENDBRANCH  36  38
ENDBRANCH  27  36
ENDBRANCH  24  27
ENDBRANCH   5  23
TORSDOF 7
ENDMDL
MODEL       80
REMARK 921   NORMALIZED FREE ENERGY PREDICTED BY IDOCK:   -5.93 KCAL/MOL
REMARK 922        TOTAL FREE ENERGY PREDICTED BY IDOCK:   -9.56 KCAL/MOL
REMARK 923 INTER-LIGAND FREE ENERGY PREDICTED BY IDOCK:   -7.86 KCAL/MOL
REMARK 924 INTRA-LIGAND FREE ENERGY PREDICTED BY IDOCK:   -1.70 KCAL/MOL
REMARK 927      BINDING AFFINITY PREDICTED BY RF-SCORE:    0.00 PKD
ROOT
HETATM    1  C   UNL     1     -10.908  11.267  68.193  1.00  0.00    -0.217 C  
HETATM    2  S   UNL     1      -9.155  11.732  68.033  1.00  0.00    -0.185 SA 
HETATM    3  C   UNL     1      -8.519  10.174  68.622  1.00  0.00    -0.122 C  
HETATM    4  C   UNL     1      -9.107   9.688  69.918  1.00  0.00    -0.250 C  
HETATM    5  CA  UNL     1     -11.884  12.454  68.474  1.00  0.00    -0.304 C  
HETATM    6  CA  UNL     1     -10.387   9.959  70.291  1.00  0.00    -0.281 C  
HETATM    7  C   UNL     1     -11.047   9.216  71.521  1.00  0.00    -0.365 C  
HETATM    8  O   UNL     1     -12.494  12.161  70.949  1.00  0.00    -0.368 OA 
HETATM    9  N   UNL     1     -11.178  10.798  69.536  1.00  0.00    -0.259 N  
HETATM   10  OXT UNL     1     -10.218   8.855  72.420  1.00  0.00    -0.251 OA 
HETATM   11  O   UNL     1     -12.256   8.900  71.373  1.00  0.00    -0.299 OA 
HETATM   12  C   UNL     1     -12.034  11.790  69.891  1.00  0.00    -0.332 C  
ENDROOT
BRANCH   4  13
HETATM   13  C   UNL     1      -8.195   8.687  70.603  1.00  0.00    -0.137 C  
BRANCH  13  14
HETATM   14  N   UNL     1      -7.795   7.439  69.870  1.00  0.00    -0.112 NA 
HETATM   15  C   UNL     1      -8.540   6.312  69.741  1.00  0.00    -0.137 A  
HETATM   16  C   UNL     1      -9.940   6.034  70.208  1.00  0.00    -0.236 C  
HETATM   17  C   UNL     1     -10.200   4.568  69.798  1.00  0.00    -0.039 C  
HETATM   18  C   UNL     1      -6.509   7.414  69.408  1.00  0.00    -0.036 A  
HETATM   19  C   UNL     1      -8.982   4.041  69.043  1.00  0.00    -0.169 C  
HETATM   20  C   UNL     1      -5.947   6.276  68.832  1.00  0.00    -0.021 A  
HETATM   21  C   UNL     1      -6.702   5.128  68.686  1.00  0.00    -0.050 A  
HETATM   22  C   UNL     1      -8.003   5.163  69.143  1.00  0.00    -0.081 A  
ENDBRANCH  13  14
ENDBRANCH   4  13
BRANCH   5  23
HETATM   23  N   UNL     1     -11.286  13.817  68.529  1.00  0.00    -0.266 N  
HETATM   24  C   UNL     1     -11.229  14.706  67.468  1.00  0.00    -0.333 C  
HETATM   25  O   UNL     1     -11.839  14.534  66.425  1.00  0.00    -0.383 OA 
HETATM   26  H   UNL     1     -10.888  14.119  69.418  1.00  0.00     0.000 HD 
BRANCH  24  27
HETATM   27  C   UNL     1     -10.308  15.941  67.713  1.00  0.00    -0.278 C  
BRANCH  27  28
HETATM   28  C   UNL     1      -8.891  15.742  68.042  1.00  0.00    -0.176 A  
HETATM   29  N   UNL     1      -8.505  15.172  69.252  1.00  0.00    -0.219 NA 
HETATM   30  N   UNL     1      -6.585  14.583  70.422  1.00  0.00    -0.340 NA 
HETATM   31  C   UNL     1      -7.825  16.041  67.210  1.00  0.00    -0.181 A  
HETATM   32  S   UNL     1      -6.343  15.629  67.962  1.00  0.00    -0.147 SA 
HETATM   33  H1  UNL     1      -7.097  14.257  71.241  1.00  0.00     0.000 HD 
HETATM   34  H2  UNL     1      -5.566  14.531  70.424  1.00  0.00     0.000 HD 
HETATM   35  C   UNL     1      -7.205  15.079  69.343  1.00  0.00    -0.194 A  
ENDBRANCH  27  28
BRANCH  27  36
HETATM   36  N   UNL     1     -10.666  17.191  67.612  1.00  0.00    -0.336 NA 
HETATM   37  H   UNL     1     -11.078  17.583  66.765  1.00  0.00     0.000 HD 
BRANCH  36  38
HETATM   38  O   UNL     1     -10.436  17.946  68.762  1.00  0.00    -0.335 OA 
HETATM   39  C   UNL     1     -10.002  19.240  68.346  1.00  0.00    -0.419 C  
ENDBRANCH  36  38
ENDBRANCH  27  36
ENDBRANCH  24  27
ENDBRANCH   5  23
TORSDOF 7
ENDMDL
MODEL       81
REMARK 921   NORMALIZED FREE ENERGY PREDICTED BY IDOCK:   -5.92 KCAL/MOL
REMARK 922        TOTAL FREE ENERGY PREDICTED BY IDOCK:   -9.56 KCAL/MOL
REMARK 923 INTER-LIGAND FREE ENERGY PREDICTED BY IDOCK:   -8.13 KCAL/MOL
REMARK 924 INTRA-LIGAND FREE ENERGY PREDICTED BY IDOCK:   -1.42 KCAL/MOL
REMARK 927      BINDING AFFINITY PREDICTED BY RF-SCORE:    0.00 PKD
ROOT
HETATM    1  C   UNL     1      -8.496  13.035  66.752  1.00  0.00     0.003 C  
HETATM    2  S   UNL     1      -8.495  13.194  68.566  1.00  0.00     0.009 SA 
HETATM    3  C   UNL     1      -8.035  11.499  68.876  1.00  0.00    -0.057 C  
HETATM    4  C   UNL     1      -8.863  10.467  68.159  1.00  0.00    -0.132 C  
HETATM    5  CA  UNL     1      -9.480  13.993  66.006  1.00  0.00    -0.136 C  
HETATM    6  CA  UNL     1      -9.421  10.693  66.939  1.00  0.00    -0.165 C  
HETATM    7  C   UNL     1     -10.052   9.506  66.106  1.00  0.00    -0.256 C  
HETATM    8  O   UNL     1     -11.382  12.440  65.258  1.00  0.00    -0.310 OA 
HETATM    9  N   UNL     1      -9.345  11.935  66.348  1.00  0.00    -0.222 N  
HETATM   10  OXT UNL     1     -10.516   8.555  66.818  1.00  0.00    -0.303 OA 
HETATM   11  O   UNL     1      -9.845   9.550  64.865  1.00  0.00    -0.152 OA 
HETATM   12  C   UNL     1     -10.269  12.672  65.681  1.00  0.00    -0.273 C  
ENDROOT
BRANCH   4  13
HETATM   13  C   UNL     1      -8.778   9.114  68.841  1.00  0.00    -0.132 C  
BRANCH  13  14
HETATM   14  N   UNL     1      -9.772   8.771  69.914  1.00  0.00    -0.174 NA 
HETATM   15  C   UNL     1     -10.101   7.522  70.332  1.00  0.00    -0.196 A  
HETATM   16  C   UNL     1      -9.536   6.195  69.913  1.00  0.00    -0.170 C  
HETATM   17  C   UNL     1     -10.351   5.158  70.715  1.00  0.00    -0.294 C  
HETATM   18  C   UNL     1     -10.490   9.823  70.410  1.00  0.00    -0.297 A  
HETATM   19  C   UNL     1     -11.325   5.894  71.633  1.00  0.00    -0.272 C  
HETATM   20  C   UNL     1     -11.542   9.649  71.307  1.00  0.00    -0.466 A  
HETATM   21  C   UNL     1     -11.876   8.383  71.746  1.00  0.00    -0.374 A  
HETATM   22  C   UNL     1     -11.140   7.325  71.252  1.00  0.00    -0.270 A  
ENDBRANCH  13  14
ENDBRANCH   4  13
BRANCH   5  23
HETATM   23  N   UNL     1     -10.258  14.945  66.846  1.00  0.00    -0.251 N  
HETATM   24  C   UNL     1      -9.747  16.091  67.434  1.00  0.00    -0.232 C  
HETATM   25  O   UNL     1      -8.645  16.541  67.161  1.00  0.00    -0.175 OA 
HETATM   26  H   UNL     1     -11.244  14.737  67.001  1.00  0.00     0.000 HD 
BRANCH  24  27
HETATM   27  C   UNL     1     -10.693  16.753  68.483  1.00  0.00    -0.358 C  
BRANCH  27  28
HETATM   28  C   UNL     1     -11.260  15.942  69.568  1.00  0.00    -0.325 A  
HETATM   29  N   UNL     1     -11.814  14.690  69.318  1.00  0.00    -0.309 NA 
HETATM   30  N   UNL     1     -12.850  12.935  70.436  1.00  0.00     0.087 NA 
HETATM   31  C   UNL     1     -11.272  16.291  70.908  1.00  0.00    -0.232 A  
HETATM   32  S   UNL     1     -12.000  15.056  71.843  1.00  0.00    -0.383 SA 
HETATM   33  H1  UNL     1     -13.000  12.388  69.588  1.00  0.00     0.000 HD 
HETATM   34  H2  UNL     1     -13.163  12.556  71.330  1.00  0.00     0.000 HD 
HETATM   35  C   UNL     1     -12.254  14.135  70.416  1.00  0.00    -0.356 A  
ENDBRANCH  27  28
BRANCH  27  36
HETATM   36  N   UNL     1     -11.017  18.015  68.529  1.00  0.00    -0.148 NA 
HETATM   37  H   UNL     1     -11.970  18.348  68.384  1.00  0.00     0.000 HD 
BRANCH  36  38
HETATM   38  O   UNL     1      -9.947  18.870  68.792  1.00  0.00    -0.391 OA 
HETATM   39  C   UNL     1     -10.077  19.999  67.929  1.00  0.00    -0.420 C  
ENDBRANCH  36  38
ENDBRANCH  27  36
ENDBRANCH  24  27
ENDBRANCH   5  23
TORSDOF 7
ENDMDL
MODEL       82
REMARK 921   NORMALIZED FREE ENERGY PREDICTED BY IDOCK:   -5.92 KCAL/MOL
REMARK 922        TOTAL FREE ENERGY PREDICTED BY IDOCK:   -9.55 KCAL/MOL
REMARK 923 INTER-LIGAND FREE ENERGY PREDICTED BY IDOCK:   -8.51 KCAL/MOL
REMARK 924 INTRA-LIGAND FREE ENERGY PREDICTED BY IDOCK:   -1.04 KCAL/MOL
REMARK 927      BINDING AFFINITY PREDICTED BY RF-SCORE:    0.00 PKD
ROOT
HETATM    1  C   UNL     1      -8.923   8.962  68.772  1.00  0.00    -0.134 C  
HETATM    2  S   UNL     1      -9.223   9.712  67.141  1.00  0.00    -0.136 SA 
HETATM    3  C   UNL     1      -9.977  11.196  67.780  1.00  0.00    -0.175 C  
HETATM    4  C   UNL     1     -11.080  10.977  68.780  1.00  0.00    -0.293 C  
HETATM    5  CA  UNL     1      -8.923   7.400  68.792  1.00  0.00    -0.129 C  
HETATM    6  CA  UNL     1     -11.099   9.915  69.630  1.00  0.00    -0.241 C  
HETATM    7  C   UNL     1     -12.122   9.861  70.836  1.00  0.00    -0.341 C  
HETATM    8  O   UNL     1     -11.155   6.810  69.914  1.00  0.00    -0.279 OA 
HETATM    9  N   UNL     1     -10.153   8.918  69.534  1.00  0.00    -0.192 N  
HETATM   10  OXT UNL     1     -13.212  10.489  70.625  1.00  0.00    -0.316 OA 
HETATM   11  O   UNL     1     -11.666   9.385  71.908  1.00  0.00    -0.374 OA 
HETATM   12  C   UNL     1     -10.259   7.566  69.604  1.00  0.00    -0.205 C  
ENDROOT
BRANCH   4  13
HETATM   13  C   UNL     1     -11.992  12.186  68.877  1.00  0.00    -0.242 C  
BRANCH  13  14
HETATM   14  N   UNL     1     -11.582  13.468  68.211  1.00  0.00    -0.323 NA 
HETATM   15  C   UNL     1     -11.686  13.752  66.888  1.00  0.00    -0.395 A  
HETATM   16  C   UNL     1     -12.282  12.933  65.778  1.00  0.00    -0.498 C  
HETATM   17  C   UNL     1     -12.057  13.782  64.508  1.00  0.00    -0.463 C  
HETATM   18  C   UNL     1     -10.931  14.365  69.010  1.00  0.00    -0.256 A  
HETATM   19  C   UNL     1     -11.401  15.103  64.904  1.00  0.00    -0.402 C  
HETATM   20  C   UNL     1     -10.368  15.537  68.508  1.00  0.00    -0.225 A  
HETATM   21  C   UNL     1     -10.479  15.839  67.166  1.00  0.00    -0.309 A  
HETATM   22  C   UNL     1     -11.147  14.937  66.365  1.00  0.00    -0.342 A  
ENDBRANCH  13  14
ENDBRANCH   4  13
BRANCH   5  23
HETATM   23  N   UNL     1      -9.117   6.711  67.485  1.00  0.00    -0.116 N  
HETATM   24  C   UNL     1      -8.190   5.881  66.876  1.00  0.00    -0.105 C  
HETATM   25  O   UNL     1      -7.190   5.473  67.446  1.00  0.00    -0.072 OA 
HETATM   26  H   UNL     1     -10.001   6.864  67.001  1.00  0.00     0.000 HD 
BRANCH  24  27
HETATM   27  C   UNL     1      -8.525   5.519  65.397  1.00  0.00    -0.146 C  
BRANCH  27  28
HETATM   28  C   UNL     1      -8.928   4.149  65.053  1.00  0.00    -0.137 A  
HETATM   29  N   UNL     1     -10.113   3.897  64.367  1.00  0.00    -0.207 NA 
HETATM   30  N   UNL     1     -11.355   2.118  63.533  1.00  0.00    -0.596 NA 
HETATM   31  C   UNL     1      -8.192   3.006  65.318  1.00  0.00    -0.091 A  
HETATM   32  S   UNL     1      -9.004   1.619  64.728  1.00  0.00    -0.119 SA 
HETATM   33  H1  UNL     1     -12.112   2.712  63.194  1.00  0.00     0.000 HD 
HETATM   34  H2  UNL     1     -11.418   1.110  63.393  1.00  0.00     0.000 HD 
HETATM   35  C   UNL     1     -10.279   2.618  64.156  1.00  0.00    -0.022 A  
ENDBRANCH  27  28
BRANCH  27  36
HETATM   36  N   UNL     1      -8.528   6.348  64.390  1.00  0.00    -0.345 NA 
HETATM   37  H   UNL     1      -8.977   6.137  63.499  1.00  0.00     0.000 HD 
BRANCH  36  38
HETATM   38  O   UNL     1      -7.863   7.549  64.637  1.00  0.00    -0.118 OA 
HETATM   39  C   UNL     1      -8.027   8.376  63.486  1.00  0.00    -0.159 C  
ENDBRANCH  36  38
ENDBRANCH  27  36
ENDBRANCH  24  27
ENDBRANCH   5  23
TORSDOF 7
ENDMDL
MODEL       83
REMARK 921   NORMALIZED FREE ENERGY PREDICTED BY IDOCK:   -5.91 KCAL/MOL
REMARK 922        TOTAL FREE ENERGY PREDICTED BY IDOCK:   -9.54 KCAL/MOL
REMARK 923 INTER-LIGAND FREE ENERGY PREDICTED BY IDOCK:   -7.87 KCAL/MOL
REMARK 924 INTRA-LIGAND FREE ENERGY PREDICTED BY IDOCK:   -1.67 KCAL/MOL
REMARK 927      BINDING AFFINITY PREDICTED BY RF-SCORE:    0.00 PKD
ROOT
HETATM    1  C   UNL     1     -10.894   7.938  67.356  1.00  0.00    -0.102 C  
HETATM    2  S   UNL     1     -10.637   8.947  68.850  1.00  0.00    -0.115 SA 
HETATM    3  C   UNL     1     -10.290  10.457  67.968  1.00  0.00    -0.179 C  
HETATM    4  C   UNL     1      -9.252  10.346  66.884  1.00  0.00    -0.170 C  
HETATM    5  CA  UNL     1     -10.545   6.423  67.514  1.00  0.00    -0.283 C  
HETATM    6  CA  UNL     1      -9.065   9.207  66.163  1.00  0.00    -0.187 C  
HETATM    7  C   UNL     1      -8.159   9.210  64.866  1.00  0.00    -0.133 C  
HETATM    8  O   UNL     1      -8.338   6.176  66.227  1.00  0.00    -0.115 OA 
HETATM    9  N   UNL     1      -9.752   8.054  66.474  1.00  0.00    -0.233 N  
HETATM   10  OXT UNL     1      -7.225  10.078  64.883  1.00  0.00    -0.131 OA 
HETATM   11  O   UNL     1      -8.584   8.509  63.911  1.00  0.00    -0.087 OA 
HETATM   12  C   UNL     1      -9.352   6.759  66.546  1.00  0.00    -0.161 C  
ENDROOT
BRANCH   4  13
HETATM   13  C   UNL     1      -8.646  11.696  66.552  1.00  0.00    -0.164 C  
BRANCH  13  14
HETATM   14  N   UNL     1      -9.554  12.868  66.312  1.00  0.00    -0.263 NA 
HETATM   15  C   UNL     1     -10.483  12.974  65.329  1.00  0.00    -0.304 A  
HETATM   16  C   UNL     1     -10.901  11.966  64.297  1.00  0.00    -0.396 C  
HETATM   17  C   UNL     1     -11.963  12.699  63.449  1.00  0.00    -0.613 C  
HETATM   18  C   UNL     1      -9.314  13.967  67.089  1.00  0.00    -0.243 A  
HETATM   19  C   UNL     1     -12.196  14.089  64.038  1.00  0.00    -0.395 C  
HETATM   20  C   UNL     1      -9.978  15.176  66.892  1.00  0.00    -0.243 A  
HETATM   21  C   UNL     1     -10.934  15.289  65.902  1.00  0.00    -0.325 A  
HETATM   22  C   UNL     1     -11.181  14.175  65.128  1.00  0.00    -0.337 A  
ENDBRANCH  13  14
ENDBRANCH   4  13
BRANCH   5  23
HETATM   23  N   UNL     1     -10.095   5.974  68.861  1.00  0.00    -0.162 N  
HETATM   24  C   UNL     1      -9.838   4.661  69.218  1.00  0.00    -0.190 C  
HETATM   25  O   UNL     1      -9.769   3.753  68.405  1.00  0.00    -0.131 OA 
HETATM   26  H   UNL     1      -9.966   6.690  69.575  1.00  0.00     0.000 HD 
BRANCH  24  27
HETATM   27  C   UNL     1      -9.656   4.435  70.751  1.00  0.00    -0.188 C  
BRANCH  27  28
HETATM   28  C   UNL     1     -10.092   5.470  71.698  1.00  0.00    -0.195 A  
HETATM   29  N   UNL     1     -11.262   6.194  71.485  1.00  0.00    -0.285 NA 
HETATM   30  N   UNL     1     -12.521   7.887  72.460  1.00  0.00    -0.566 NA 
HETATM   31  C   UNL     1      -9.447   5.801  72.878  1.00  0.00    -0.154 A  
HETATM   32  S   UNL     1     -10.300   7.036  73.702  1.00  0.00    -0.368 SA 
HETATM   33  H1  UNL     1     -13.216   7.898  71.714  1.00  0.00     0.000 HD 
HETATM   34  H2  UNL     1     -12.629   8.530  73.244  1.00  0.00     0.000 HD 
HETATM   35  C   UNL     1     -11.471   7.056  72.445  1.00  0.00    -0.261 A  
ENDBRANCH  27  28
BRANCH  27  36
HETATM   36  N   UNL     1      -9.174   3.361  71.312  1.00  0.00    -0.108 NA 
HETATM   37  H   UNL     1      -9.699   2.806  71.987  1.00  0.00     0.000 HD 
BRANCH  36  38
HETATM   38  O   UNL     1      -7.878   3.038  70.910  1.00  0.00    -0.046 OA 
HETATM   39  C   UNL     1      -7.138   2.697  72.081  1.00  0.00    -0.034 C  
ENDBRANCH  36  38
ENDBRANCH  27  36
ENDBRANCH  24  27
ENDBRANCH   5  23
TORSDOF 7
ENDMDL
MODEL       84
REMARK 921   NORMALIZED FREE ENERGY PREDICTED BY IDOCK:   -5.90 KCAL/MOL
REMARK 922        TOTAL FREE ENERGY PREDICTED BY IDOCK:   -9.52 KCAL/MOL
REMARK 923 INTER-LIGAND FREE ENERGY PREDICTED BY IDOCK:   -7.97 KCAL/MOL
REMARK 924 INTRA-LIGAND FREE ENERGY PREDICTED BY IDOCK:   -1.56 KCAL/MOL
REMARK 927      BINDING AFFINITY PREDICTED BY RF-SCORE:    0.00 PKD
ROOT
HETATM    1  C   UNL     1     -11.151  10.448  67.817  1.00  0.00    -0.299 C  
HETATM    2  S   UNL     1      -9.548  10.858  67.060  1.00  0.00    -0.175 SA 
HETATM    3  C   UNL     1      -9.073   9.165  66.759  1.00  0.00    -0.144 C  
HETATM    4  C   UNL     1      -9.191   8.244  67.943  1.00  0.00    -0.140 C  
HETATM    5  CA  UNL     1     -11.667  11.478  68.873  1.00  0.00    -0.339 C  
HETATM    6  CA  UNL     1     -10.135   8.409  68.909  1.00  0.00    -0.199 C  
HETATM    7  C   UNL     1     -10.398   7.280  69.985  1.00  0.00    -0.213 C  
HETATM    8  O   UNL     1     -11.302  10.281  71.113  1.00  0.00    -0.314 OA 
HETATM    9  N   UNL     1     -10.964   9.510  68.904  1.00  0.00    -0.142 N  
HETATM   10  OXT UNL     1      -9.377   6.562  70.250  1.00  0.00    -0.158 OA 
HETATM   11  O   UNL     1     -11.605   7.102  70.294  1.00  0.00    -0.277 OA 
HETATM   12  C   UNL     1     -11.383  10.326  69.905  1.00  0.00    -0.290 C  
ENDROOT
BRANCH   4  13
HETATM   13  C   UNL     1      -8.316   7.016  67.782  1.00  0.00    -0.117 C  
BRANCH  13  14
HETATM   14  N   UNL     1      -8.638   6.022  66.704  1.00  0.00    -0.111 NA 
HETATM   15  C   UNL     1      -8.028   5.925  65.495  1.00  0.00    -0.117 A  
HETATM   16  C   UNL     1      -6.862   6.698  64.949  1.00  0.00    -0.050 C  
HETATM   17  C   UNL     1      -6.674   6.153  63.516  1.00  0.00    -0.037 C  
HETATM   18  C   UNL     1      -9.734   5.238  66.933  1.00  0.00    -0.156 A  
HETATM   19  C   UNL     1      -7.682   5.031  63.276  1.00  0.00    -0.070 C  
HETATM   20  C   UNL     1     -10.241   4.368  65.970  1.00  0.00    -0.246 A  
HETATM   21  C   UNL     1      -9.620   4.254  64.742  1.00  0.00    -0.169 A  
HETATM   22  C   UNL     1      -8.507   5.038  64.520  1.00  0.00    -0.142 A  
ENDBRANCH  13  14
ENDBRANCH   4  13
BRANCH   5  23
HETATM   23  N   UNL     1     -10.824  12.685  69.100  1.00  0.00    -0.426 N  
HETATM   24  C   UNL     1     -11.075  13.943  68.578  1.00  0.00    -0.265 C  
HETATM   25  O   UNL     1     -12.127  14.236  68.030  1.00  0.00    -0.338 OA 
HETATM   26  H   UNL     1      -9.997  12.576  69.687  1.00  0.00     0.000 HD 
BRANCH  24  27
HETATM   27  C   UNL     1      -9.897  14.953  68.736  1.00  0.00    -0.225 C  
BRANCH  27  28
HETATM   28  C   UNL     1     -10.033  16.321  68.219  1.00  0.00    -0.236 A  
HETATM   29  N   UNL     1     -10.111  17.412  69.081  1.00  0.00    -0.283 NA 
HETATM   30  N   UNL     1     -10.333  19.725  69.024  1.00  0.00    -0.605 NA 
HETATM   31  C   UNL     1     -10.056  16.675  66.881  1.00  0.00    -0.280 A  
HETATM   32  S   UNL     1     -10.199  18.372  66.711  1.00  0.00    -0.407 SA 
HETATM   33  H1  UNL     1     -10.346  19.821  70.040  1.00  0.00     0.000 HD 
HETATM   34  H2  UNL     1     -10.408  20.563  68.449  1.00  0.00     0.000 HD 
HETATM   35  C   UNL     1     -10.221  18.534  68.421  1.00  0.00    -0.372 A  
ENDBRANCH  27  28
BRANCH  27  36
HETATM   36  N   UNL     1      -8.767  14.718  69.343  1.00  0.00    -0.408 NA 
HETATM   37  H   UNL     1      -8.471  15.222  70.178  1.00  0.00     0.000 HD 
BRANCH  36  38
HETATM   38  O   UNL     1      -7.998  13.716  68.751  1.00  0.00    -0.117 OA 
HETATM   39  C   UNL     1      -6.690  14.246  68.541  1.00  0.00    -0.099 C  
ENDBRANCH  36  38
ENDBRANCH  27  36
ENDBRANCH  24  27
ENDBRANCH   5  23
TORSDOF 7
ENDMDL
MODEL       85
REMARK 921   NORMALIZED FREE ENERGY PREDICTED BY IDOCK:   -5.86 KCAL/MOL
REMARK 922        TOTAL FREE ENERGY PREDICTED BY IDOCK:   -9.47 KCAL/MOL
REMARK 923 INTER-LIGAND FREE ENERGY PREDICTED BY IDOCK:   -8.17 KCAL/MOL
REMARK 924 INTRA-LIGAND FREE ENERGY PREDICTED BY IDOCK:   -1.30 KCAL/MOL
REMARK 927      BINDING AFFINITY PREDICTED BY RF-SCORE:    0.00 PKD
ROOT
HETATM    1  C   UNL     1      -8.549  11.153  67.921  1.00  0.00    -0.135 C  
HETATM    2  S   UNL     1      -7.786  11.253  69.570  1.00  0.00     0.344 SA 
HETATM    3  C   UNL     1      -7.378   9.520  69.666  1.00  0.00    -0.084 C  
HETATM    4  C   UNL     1      -8.508   8.575  69.358  1.00  0.00    -0.127 C  
HETATM    5  CA  UNL     1      -9.672  12.204  67.647  1.00  0.00    -0.188 C  
HETATM    6  CA  UNL     1      -9.500   8.881  68.479  1.00  0.00    -0.147 C  
HETATM    7  C   UNL     1     -10.513   7.771  67.984  1.00  0.00    -0.185 C  
HETATM    8  O   UNL     1     -11.832  10.821  67.758  1.00  0.00    -0.538 OA 
HETATM    9  N   UNL     1      -9.575  10.132  67.907  1.00  0.00    -0.148 N  
HETATM   10  OXT UNL     1     -10.716   6.835  68.826  1.00  0.00    -0.216 OA 
HETATM   11  O   UNL     1     -10.834   7.839  66.769  1.00  0.00    -0.254 OA 
HETATM   12  C   UNL     1     -10.630  10.957  67.681  1.00  0.00    -0.224 C  
ENDROOT
BRANCH   4  13
HETATM   13  C   UNL     1      -8.259   7.199  69.946  1.00  0.00    -0.133 C  
BRANCH  13  14
HETATM   14  N   UNL     1      -8.606   6.943  71.385  1.00  0.00    -0.120 NA 
HETATM   15  C   UNL     1      -8.132   5.932  72.156  1.00  0.00    -0.107 A  
HETATM   16  C   UNL     1      -7.115   4.876  71.827  1.00  0.00    -0.062 C  
HETATM   17  C   UNL     1      -7.041   4.002  73.098  1.00  0.00    -0.063 C  
HETATM   18  C   UNL     1      -9.588   7.739  71.904  1.00  0.00    -0.165 A  
HETATM   19  C   UNL     1      -7.957   4.599  74.164  1.00  0.00    -0.100 C  
HETATM   20  C   UNL     1     -10.116   7.534  73.178  1.00  0.00    -0.362 A  
HETATM   21  C   UNL     1      -9.631   6.515  73.973  1.00  0.00    -0.239 A  
HETATM   22  C   UNL     1      -8.632   5.722  73.449  1.00  0.00    -0.117 A  
ENDBRANCH  13  14
ENDBRANCH   4  13
BRANCH   5  23
HETATM   23  N   UNL     1      -9.954  13.185  68.733  1.00  0.00    -0.426 N  
HETATM   24  C   UNL     1     -10.857  14.231  68.647  1.00  0.00    -0.253 C  
HETATM   25  O   UNL     1     -11.661  14.340  67.735  1.00  0.00    -0.336 OA 
HETATM   26  H   UNL     1      -9.440  13.077  69.607  1.00  0.00     0.000 HD 
BRANCH  24  27
HETATM   27  C   UNL     1     -10.755  15.266  69.809  1.00  0.00    -0.283 C  
BRANCH  27  28
HETATM   28  C   UNL     1     -11.725  15.225  70.911  1.00  0.00    -0.344 A  
HETATM   29  N   UNL     1     -11.309  15.259  72.239  1.00  0.00    -0.406 NA 
HETATM   30  N   UNL     1     -12.186  15.221  74.391  1.00  0.00    -0.706 NA 
HETATM   31  C   UNL     1     -13.102  15.195  70.767  1.00  0.00    -0.397 A  
HETATM   32  S   UNL     1     -13.866  15.183  72.299  1.00  0.00    -0.554 SA 
HETATM   33  H1  UNL     1     -11.272  15.243  74.842  1.00  0.00     0.000 HD 
HETATM   34  H2  UNL     1     -13.023  15.197  74.974  1.00  0.00     0.000 HD 
HETATM   35  C   UNL     1     -12.326  15.220  73.059  1.00  0.00    -0.417 A  
ENDBRANCH  27  28
BRANCH  27  36
HETATM   36  N   UNL     1      -9.833  16.179  69.938  1.00  0.00    -0.047 NA 
HETATM   37  H   UNL     1      -9.474  16.481  70.844  1.00  0.00     0.000 HD 
BRANCH  36  38
HETATM   38  O   UNL     1      -9.381  16.710  68.730  1.00  0.00    -0.240 OA 
HETATM   39  C   UNL     1     -10.006  17.980  68.558  1.00  0.00    -0.390 C  
ENDBRANCH  36  38
ENDBRANCH  27  36
ENDBRANCH  24  27
ENDBRANCH   5  23
TORSDOF 7
ENDMDL
MODEL       86
REMARK 921   NORMALIZED FREE ENERGY PREDICTED BY IDOCK:   -5.84 KCAL/MOL
REMARK 922        TOTAL FREE ENERGY PREDICTED BY IDOCK:   -9.44 KCAL/MOL
REMARK 923 INTER-LIGAND FREE ENERGY PREDICTED BY IDOCK:   -8.54 KCAL/MOL
REMARK 924 INTRA-LIGAND FREE ENERGY PREDICTED BY IDOCK:   -0.90 KCAL/MOL
REMARK 927      BINDING AFFINITY PREDICTED BY RF-SCORE:    0.00 PKD
ROOT
HETATM    1  C   UNL     1      -9.002   9.917  69.826  1.00  0.00    -0.221 C  
HETATM    2  S   UNL     1     -10.755   9.957  70.316  1.00  0.00    -0.326 SA 
HETATM    3  C   UNL     1     -10.825   8.243  70.805  1.00  0.00    -0.227 C  
HETATM    4  C   UNL     1     -10.294   7.264  69.793  1.00  0.00    -0.227 C  
HETATM    5  CA  UNL     1      -8.607  10.926  68.700  1.00  0.00    -0.153 C  
HETATM    6  CA  UNL     1      -9.285   7.571  68.934  1.00  0.00    -0.142 C  
HETATM    7  C   UNL     1      -8.580   6.444  68.077  1.00  0.00    -0.117 C  
HETATM    8  O   UNL     1      -8.303   9.433  66.634  1.00  0.00    -0.117 OA 
HETATM    9  N   UNL     1      -8.773   8.849  68.876  1.00  0.00    -0.135 N  
HETATM   10  OXT UNL     1      -9.330   5.451  67.800  1.00  0.00    -0.112 OA 
HETATM   11  O   UNL     1      -7.334   6.568  67.946  1.00  0.00    -0.088 OA 
HETATM   12  C   UNL     1      -8.425   9.633  67.824  1.00  0.00    -0.125 C  
ENDROOT
BRANCH   4  13
HETATM   13  C   UNL     1     -10.843   5.869  70.027  1.00  0.00    -0.351 C  
BRANCH  13  14
HETATM   14  N   UNL     1     -10.523   5.161  71.313  1.00  0.00    -0.205 NA 
HETATM   15  C   UNL     1      -9.911   3.956  71.433  1.00  0.00    -0.127 A  
HETATM   16  C   UNL     1      -9.339   3.065  70.368  1.00  0.00    -0.226 C  
HETATM   17  C   UNL     1      -8.824   1.827  71.135  1.00  0.00    -0.114 C  
HETATM   18  C   UNL     1     -11.019   5.745  72.445  1.00  0.00    -0.259 A  
HETATM   19  C   UNL     1      -9.042   2.045  72.631  1.00  0.00    -0.098 C  
HETATM   20  C   UNL     1     -10.926   5.138  73.696  1.00  0.00    -0.350 A  
HETATM   21  C   UNL     1     -10.294   3.917  73.829  1.00  0.00    -0.242 A  
HETATM   22  C   UNL     1      -9.785   3.338  72.686  1.00  0.00    -0.196 A  
ENDBRANCH  13  14
ENDBRANCH   4  13
BRANCH   5  23
HETATM   23  N   UNL     1      -9.683  11.825  68.196  1.00  0.00    -0.186 N  
HETATM   24  C   UNL     1      -9.701  13.203  68.337  1.00  0.00    -0.196 C  
HETATM   25  O   UNL     1      -8.735  13.843  68.723  1.00  0.00    -0.115 OA 
HETATM   26  H   UNL     1     -10.467  11.391  67.710  1.00  0.00     0.000 HD 
BRANCH  24  27
HETATM   27  C   UNL     1     -11.063  13.868  67.973  1.00  0.00    -0.259 C  
BRANCH  27  28
HETATM   28  C   UNL     1     -11.531  13.860  66.580  1.00  0.00    -0.355 A  
HETATM   29  N   UNL     1     -12.245  12.781  66.067  1.00  0.00    -0.559 NA 
HETATM   30  N   UNL     1     -13.244  12.073  64.092  1.00  0.00    -0.682 NA 
HETATM   31  C   UNL     1     -11.364  14.891  65.672  1.00  0.00    -0.325 A  
HETATM   32  S   UNL     1     -12.082  14.490  64.171  1.00  0.00    -0.219 SA 
HETATM   33  H1  UNL     1     -13.534  11.173  64.476  1.00  0.00     0.000 HD 
HETATM   34  H2  UNL     1     -13.474  12.292  63.123  1.00  0.00     0.000 HD 
HETATM   35  C   UNL     1     -12.571  12.976  64.817  1.00  0.00    -0.397 A  
ENDBRANCH  27  28
BRANCH  27  36
HETATM   36  N   UNL     1     -11.892  14.421  68.815  1.00  0.00    -0.365 NA 
HETATM   37  H   UNL     1     -12.687  13.925  69.216  1.00  0.00     0.000 HD 
BRANCH  36  38
HETATM   38  O   UNL     1     -11.596  15.749  69.120  1.00  0.00    -0.351 OA 
HETATM   39  C   UNL     1     -11.185  15.796  70.485  1.00  0.00    -0.374 C  
ENDBRANCH  36  38
ENDBRANCH  27  36
ENDBRANCH  24  27
ENDBRANCH   5  23
TORSDOF 7
ENDMDL
MODEL       87
REMARK 921   NORMALIZED FREE ENERGY PREDICTED BY IDOCK:   -5.84 KCAL/MOL
REMARK 922        TOTAL FREE ENERGY PREDICTED BY IDOCK:   -9.44 KCAL/MOL
REMARK 923 INTER-LIGAND FREE ENERGY PREDICTED BY IDOCK:   -8.08 KCAL/MOL
REMARK 924 INTRA-LIGAND FREE ENERGY PREDICTED BY IDOCK:   -1.36 KCAL/MOL
REMARK 927      BINDING AFFINITY PREDICTED BY RF-SCORE:    0.00 PKD
ROOT
HETATM    1  C   UNL     1      -8.898  11.777  66.801  1.00  0.00    -0.191 C  
HETATM    2  S   UNL     1     -10.576  12.168  67.388  1.00  0.00    -0.231 SA 
HETATM    3  C   UNL     1     -10.270  13.911  67.607  1.00  0.00    -0.242 C  
HETATM    4  C   UNL     1      -9.039  14.252  68.403  1.00  0.00    -0.194 C  
HETATM    5  CA  UNL     1      -8.407  10.328  67.118  1.00  0.00    -0.122 C  
HETATM    6  CA  UNL     1      -7.924  13.472  68.401  1.00  0.00    -0.142 C  
HETATM    7  C   UNL     1      -6.570  13.994  69.029  1.00  0.00    -0.106 C  
HETATM    8  O   UNL     1      -6.711  10.667  69.014  1.00  0.00    -0.057 OA 
HETATM    9  N   UNL     1      -7.914  12.260  67.747  1.00  0.00    -0.141 N  
HETATM   10  OXT UNL     1      -6.723  14.831  69.980  1.00  0.00    -0.169 OA 
HETATM   11  O   UNL     1      -5.528  13.681  68.397  1.00  0.00    -0.083 OA 
HETATM   12  C   UNL     1      -7.418  11.048  68.106  1.00  0.00    -0.092 C  
ENDROOT
BRANCH   4  13
HETATM   13  C   UNL     1      -9.120  15.653  68.980  1.00  0.00    -0.241 C  
BRANCH  13  14
HETATM   14  N   UNL     1      -9.169  16.829  68.047  1.00  0.00    -0.224 NA 
HETATM   15  C   UNL     1      -8.138  17.304  67.303  1.00  0.00    -0.192 A  
HETATM   16  C   UNL     1      -6.743  16.768  67.150  1.00  0.00    -0.224 C  
HETATM   17  C   UNL     1      -6.045  17.771  66.207  1.00  0.00    -0.255 C  
HETATM   18  C   UNL     1     -10.332  17.546  68.064  1.00  0.00    -0.368 A  
HETATM   19  C   UNL     1      -7.057  18.830  65.772  1.00  0.00    -0.265 C  
HETATM   20  C   UNL     1     -10.480  18.740  67.360  1.00  0.00    -0.490 A  
HETATM   21  C   UNL     1      -9.440  19.225  66.591  1.00  0.00    -0.398 A  
HETATM   22  C   UNL     1      -8.273  18.491  66.567  1.00  0.00    -0.299 A  
ENDBRANCH  13  14
ENDBRANCH   4  13
BRANCH   5  23
HETATM   23  N   UNL     1      -9.372   9.429  67.811  1.00  0.00    -0.128 N  
HETATM   24  C   UNL     1      -9.104   8.131  68.215  1.00  0.00    -0.135 C  
HETATM   25  O   UNL     1      -7.979   7.655  68.215  1.00  0.00    -0.119 OA 
HETATM   26  H   UNL     1     -10.303   9.798  68.003  1.00  0.00     0.000 HD 
BRANCH  24  27
HETATM   27  C   UNL     1     -10.362   7.323  68.658  1.00  0.00    -0.193 C  
BRANCH  27  28
HETATM   28  C   UNL     1     -10.778   7.334  70.067  1.00  0.00    -0.245 A  
HETATM   29  N   UNL     1     -11.310   6.198  70.670  1.00  0.00    -0.324 NA 
HETATM   30  N   UNL     1     -12.154   5.486  72.715  1.00  0.00    -0.477 NA 
HETATM   31  C   UNL     1     -10.656   8.409  70.931  1.00  0.00    -0.204 A  
HETATM   32  S   UNL     1     -11.233   7.996  72.488  1.00  0.00    -0.396 SA 
HETATM   33  H1  UNL     1     -12.376   4.549  72.379  1.00  0.00     0.000 HD 
HETATM   34  H2  UNL     1     -12.354   5.722  73.687  1.00  0.00     0.000 HD 
HETATM   35  C   UNL     1     -11.608   6.418  71.923  1.00  0.00    -0.318 A  
ENDBRANCH  27  28
BRANCH  27  36
HETATM   36  N   UNL     1     -11.146   6.639  67.872  1.00  0.00    -0.518 NA 
HETATM   37  H   UNL     1     -12.162   6.643  67.963  1.00  0.00     0.000 HD 
BRANCH  36  38
HETATM   38  O   UNL     1     -10.476   5.903  66.895  1.00  0.00    -0.225 OA 
HETATM   39  C   UNL     1     -10.131   4.643  67.468  1.00  0.00    -0.075 C  
ENDBRANCH  36  38
ENDBRANCH  27  36
ENDBRANCH  24  27
ENDBRANCH   5  23
TORSDOF 7
ENDMDL
MODEL       88
REMARK 921   NORMALIZED FREE ENERGY PREDICTED BY IDOCK:   -5.84 KCAL/MOL
REMARK 922        TOTAL FREE ENERGY PREDICTED BY IDOCK:   -9.44 KCAL/MOL
REMARK 923 INTER-LIGAND FREE ENERGY PREDICTED BY IDOCK:   -7.92 KCAL/MOL
REMARK 924 INTRA-LIGAND FREE ENERGY PREDICTED BY IDOCK:   -1.52 KCAL/MOL
REMARK 927      BINDING AFFINITY PREDICTED BY RF-SCORE:    0.00 PKD
ROOT
HETATM    1  C   UNL     1      -7.918  11.004  67.305  1.00  0.00    -0.126 C  
HETATM    2  S   UNL     1      -8.595  11.417  68.944  1.00  0.00     0.064 SA 
HETATM    3  C   UNL     1      -7.705  10.140  69.814  1.00  0.00    -0.168 C  
HETATM    4  C   UNL     1      -7.817   8.761  69.222  1.00  0.00    -0.100 C  
HETATM    5  CA  UNL     1      -8.855  11.335  66.100  1.00  0.00    -0.190 C  
HETATM    6  CA  UNL     1      -7.964   8.546  67.886  1.00  0.00    -0.108 C  
HETATM    7  C   UNL     1      -7.810   7.094  67.278  1.00  0.00    -0.111 C  
HETATM    8  O   UNL     1      -9.709   9.034  65.349  1.00  0.00    -0.148 OA 
HETATM    9  N   UNL     1      -8.132   9.601  67.016  1.00  0.00    -0.112 N  
HETATM   10  OXT UNL     1      -8.124   6.154  68.082  1.00  0.00    -0.109 OA 
HETATM   11  O   UNL     1      -7.220   7.035  66.168  1.00  0.00    -0.071 OA 
HETATM   12  C   UNL     1      -8.967   9.773  65.960  1.00  0.00    -0.155 C  
ENDROOT
BRANCH   4  13
HETATM   13  C   UNL     1      -7.501   7.688  70.246  1.00  0.00    -0.083 C  
BRANCH  13  14
HETATM   14  N   UNL     1      -8.443   7.474  71.397  1.00  0.00    -0.111 NA 
HETATM   15  C   UNL     1      -9.767   7.193  71.307  1.00  0.00    -0.170 A  
HETATM   16  C   UNL     1     -10.612   6.950  70.089  1.00  0.00    -0.249 C  
HETATM   17  C   UNL     1     -12.035   6.725  70.644  1.00  0.00    -0.418 C  
HETATM   18  C   UNL     1      -7.921   7.718  72.637  1.00  0.00    -0.112 A  
HETATM   19  C   UNL     1     -11.985   6.771  72.170  1.00  0.00    -0.309 C  
HETATM   20  C   UNL     1      -8.704   7.698  73.790  1.00  0.00    -0.290 A  
HETATM   21  C   UNL     1     -10.050   7.401  73.709  1.00  0.00    -0.329 A  
HETATM   22  C   UNL     1     -10.569   7.144  72.457  1.00  0.00    -0.273 A  
ENDBRANCH  13  14
ENDBRANCH   4  13
BRANCH   5  23
HETATM   23  N   UNL     1     -10.156  11.987  66.420  1.00  0.00    -0.214 N  
HETATM   24  C   UNL     1     -10.329  13.336  66.683  1.00  0.00    -0.274 C  
HETATM   25  O   UNL     1      -9.455  14.167  66.488  1.00  0.00    -0.276 OA 
HETATM   26  H   UNL     1     -10.984  11.392  66.447  1.00  0.00     0.000 HD 
BRANCH  24  27
HETATM   27  C   UNL     1     -11.730  13.704  67.260  1.00  0.00    -0.380 C  
BRANCH  27  28
HETATM   28  C   UNL     1     -11.902  13.871  68.709  1.00  0.00    -0.361 A  
HETATM   29  N   UNL     1     -11.893  15.134  69.295  1.00  0.00    -0.319 NA 
HETATM   30  N   UNL     1     -12.079  16.140  71.382  1.00  0.00    -0.609 NA 
HETATM   31  C   UNL     1     -12.125  12.846  69.613  1.00  0.00    -0.226 A  
HETATM   32  S   UNL     1     -12.299  13.472  71.198  1.00  0.00    -0.199 SA 
HETATM   33  H1  UNL     1     -11.942  17.083  71.020  1.00  0.00     0.000 HD 
HETATM   34  H2  UNL     1     -12.228  16.013  72.383  1.00  0.00     0.000 HD 
HETATM   35  C   UNL     1     -12.068  15.061  70.588  1.00  0.00    -0.321 A  
ENDBRANCH  27  28
BRANCH  27  36
HETATM   36  N   UNL     1     -12.807  13.933  66.561  1.00  0.00    -0.334 NA 
HETATM   37  H   UNL     1     -13.618  14.424  66.938  1.00  0.00     0.000 HD 
BRANCH  36  38
HETATM   38  O   UNL     1     -12.754  13.448  65.255  1.00  0.00    -0.574 OA 
HETATM   39  C   UNL     1     -12.587  14.568  64.387  1.00  0.00    -0.153 C  
ENDBRANCH  36  38
ENDBRANCH  27  36
ENDBRANCH  24  27
ENDBRANCH   5  23
TORSDOF 7
ENDMDL
MODEL       89
REMARK 921   NORMALIZED FREE ENERGY PREDICTED BY IDOCK:   -5.84 KCAL/MOL
REMARK 922        TOTAL FREE ENERGY PREDICTED BY IDOCK:   -9.44 KCAL/MOL
REMARK 923 INTER-LIGAND FREE ENERGY PREDICTED BY IDOCK:   -7.90 KCAL/MOL
REMARK 924 INTRA-LIGAND FREE ENERGY PREDICTED BY IDOCK:   -1.54 KCAL/MOL
REMARK 927      BINDING AFFINITY PREDICTED BY RF-SCORE:    0.00 PKD
ROOT
HETATM    1  C   UNL     1     -11.161   8.512  69.720  1.00  0.00    -0.062 C  
HETATM    2  S   UNL     1     -10.628   9.336  68.186  1.00  0.00    -0.161 SA 
HETATM    3  C   UNL     1      -9.706   7.942  67.565  1.00  0.00    -0.159 C  
HETATM    4  C   UNL     1      -8.728   7.334  68.533  1.00  0.00    -0.123 C  
HETATM    5  CA  UNL     1     -11.401   9.466  70.934  1.00  0.00    -0.319 C  
HETATM    6  CA  UNL     1      -8.935   7.328  69.878  1.00  0.00    -0.142 C  
HETATM    7  C   UNL     1      -8.026   6.454  70.833  1.00  0.00    -0.112 C  
HETATM    8  O   UNL     1      -9.376   9.034  72.450  1.00  0.00    -0.288 OA 
HETATM    9  N   UNL     1     -10.013   7.987  70.428  1.00  0.00    -0.188 N  
HETATM   10  OXT UNL     1      -6.840   6.269  70.401  1.00  0.00    -0.051 OA 
HETATM   11  O   UNL     1      -8.629   5.893  71.784  1.00  0.00    -0.130 OA 
HETATM   12  C   UNL     1     -10.120   8.775  71.529  1.00  0.00    -0.301 C  
ENDROOT
BRANCH   4  13
HETATM   13  C   UNL     1      -7.652   6.542  67.815  1.00  0.00    -0.106 C  
BRANCH  13  14
HETATM   14  N   UNL     1      -8.033   5.290  67.078  1.00  0.00    -0.101 NA 
HETATM   15  C   UNL     1      -7.979   5.103  65.734  1.00  0.00    -0.108 A  
HETATM   16  C   UNL     1      -7.475   6.026  64.661  1.00  0.00    -0.080 C  
HETATM   17  C   UNL     1      -7.719   5.256  63.345  1.00  0.00    -0.079 C  
HETATM   18  C   UNL     1      -8.603   4.309  67.839  1.00  0.00    -0.099 A  
HETATM   19  C   UNL     1      -8.294   3.880  63.674  1.00  0.00    -0.092 C  
HETATM   20  C   UNL     1      -9.135   3.148  67.280  1.00  0.00    -0.201 A  
HETATM   21  C   UNL     1      -9.073   2.945  65.916  1.00  0.00    -0.132 A  
HETATM   22  C   UNL     1      -8.486   3.932  65.153  1.00  0.00    -0.112 A  
ENDBRANCH  13  14
ENDBRANCH   4  13
BRANCH   5  23
HETATM   23  N   UNL     1     -11.217  10.924  70.689  1.00  0.00    -0.371 N  
HETATM   24  C   UNL     1     -12.202  11.887  70.834  1.00  0.00    -0.249 C  
HETATM   25  O   UNL     1     -13.277  11.661  71.366  1.00  0.00    -0.307 OA 
HETATM   26  H   UNL     1     -10.293  11.237  70.391  1.00  0.00     0.000 HD 
BRANCH  24  27
HETATM   27  C   UNL     1     -11.827  13.283  70.248  1.00  0.00    -0.234 C  
BRANCH  27  28
HETATM   28  C   UNL     1     -11.779  13.476  68.793  1.00  0.00    -0.337 A  
HETATM   29  N   UNL     1     -12.020  12.420  67.918  1.00  0.00    -0.440 NA 
HETATM   30  N   UNL     1     -12.106  11.968  65.640  1.00  0.00    -0.467 NA 
HETATM   31  C   UNL     1     -11.544  14.680  68.151  1.00  0.00    -0.335 A  
HETATM   32  S   UNL     1     -11.602  14.475  66.452  1.00  0.00    -0.345 SA 
HETATM   33  H1  UNL     1     -12.305  10.976  65.771  1.00  0.00     0.000 HD 
HETATM   34  H2  UNL     1     -12.035  12.335  64.691  1.00  0.00     0.000 HD 
HETATM   35  C   UNL     1     -11.936  12.805  66.672  1.00  0.00    -0.341 A  
ENDBRANCH  27  28
BRANCH  27  36
HETATM   36  N   UNL     1     -11.581  14.360  70.942  1.00  0.00    -0.506 NA 
HETATM   37  H   UNL     1     -10.680  14.837  70.923  1.00  0.00     0.000 HD 
BRANCH  36  38
HETATM   38  O   UNL     1     -12.657  14.803  71.710  1.00  0.00    -0.308 OA 
HETATM   39  C   UNL     1     -12.259  16.016  72.347  1.00  0.00    -0.514 C  
ENDBRANCH  36  38
ENDBRANCH  27  36
ENDBRANCH  24  27
ENDBRANCH   5  23
TORSDOF 7
ENDMDL
MODEL       90
REMARK 921   NORMALIZED FREE ENERGY PREDICTED BY IDOCK:   -5.83 KCAL/MOL
REMARK 922        TOTAL FREE ENERGY PREDICTED BY IDOCK:   -9.43 KCAL/MOL
REMARK 923 INTER-LIGAND FREE ENERGY PREDICTED BY IDOCK:   -8.00 KCAL/MOL
REMARK 924 INTRA-LIGAND FREE ENERGY PREDICTED BY IDOCK:   -1.42 KCAL/MOL
REMARK 927      BINDING AFFINITY PREDICTED BY RF-SCORE:    0.00 PKD
ROOT
HETATM    1  C   UNL     1      -8.372   9.577  68.206  1.00  0.00    -0.118 C  
HETATM    2  S   UNL     1      -9.692  10.214  69.286  1.00  0.00    -0.233 SA 
HETATM    3  C   UNL     1     -10.179   8.614  69.907  1.00  0.00    -0.203 C  
HETATM    4  C   UNL     1     -10.434   7.567  68.857  1.00  0.00    -0.214 C  
HETATM    5  CA  UNL     1      -8.085  10.438  66.935  1.00  0.00    -0.118 C  
HETATM    6  CA  UNL     1      -9.767   7.541  67.671  1.00  0.00    -0.147 C  
HETATM    7  C   UNL     1      -9.867   6.285  66.714  1.00  0.00    -0.164 C  
HETATM    8  O   UNL     1      -9.099   9.053  65.027  1.00  0.00    -0.197 OA 
HETATM    9  N   UNL     1      -8.896   8.552  67.329  1.00  0.00    -0.129 N  
HETATM   10  OXT UNL     1     -10.965   5.643  66.807  1.00  0.00    -0.259 OA 
HETATM   11  O   UNL     1      -8.796   5.963  66.136  1.00  0.00    -0.138 OA 
HETATM   12  C   UNL     1      -8.702   9.216  66.160  1.00  0.00    -0.148 C  
ENDROOT
BRANCH   4  13
HETATM   13  C   UNL     1     -11.314   6.451  69.385  1.00  0.00    -0.377 C  
BRANCH  13  14
HETATM   14  N   UNL     1     -10.878   5.688  70.603  1.00  0.00    -0.263 NA 
HETATM   15  C   UNL     1     -10.125   4.558  70.614  1.00  0.00    -0.162 A  
HETATM   16  C   UNL     1      -9.480   3.829  69.470  1.00  0.00    -0.257 C  
HETATM   17  C   UNL     1      -8.803   2.605  70.125  1.00  0.00    -0.144 C  
HETATM   18  C   UNL     1     -11.407   6.117  71.788  1.00  0.00    -0.291 A  
HETATM   19  C   UNL     1      -9.003   2.678  71.638  1.00  0.00    -0.140 C  
HETATM   20  C   UNL     1     -11.209   5.430  72.984  1.00  0.00    -0.370 A  
HETATM   21  C   UNL     1     -10.435   4.286  73.006  1.00  0.00    -0.250 A  
HETATM   22  C   UNL     1      -9.893   3.864  71.810  1.00  0.00    -0.249 A  
ENDBRANCH  13  14
ENDBRANCH   4  13
BRANCH   5  23
HETATM   23  N   UNL     1      -8.879  11.689  66.777  1.00  0.00    -0.179 N  
HETATM   24  C   UNL     1      -8.391  12.972  66.966  1.00  0.00    -0.095 C  
HETATM   25  O   UNL     1      -7.202  13.217  67.094  1.00  0.00    -0.079 OA 
HETATM   26  H   UNL     1      -9.858  11.593  66.510  1.00  0.00     0.000 HD 
BRANCH  24  27
HETATM   27  C   UNL     1      -9.490  14.077  67.013  1.00  0.00    -0.250 C  
BRANCH  27  28
HETATM   28  C   UNL     1     -10.544  14.104  65.990  1.00  0.00    -0.297 A  
HETATM   29  N   UNL     1     -11.317  12.977  65.723  1.00  0.00    -0.294 NA 
HETATM   30  N   UNL     1     -13.048  12.282  64.337  1.00  0.00    -0.777 NA 
HETATM   31  C   UNL     1     -10.904  15.209  65.238  1.00  0.00    -0.400 A  
HETATM   32  S   UNL     1     -12.195  14.821  64.183  1.00  0.00    -0.096 SA 
HETATM   33  H1  UNL     1     -13.050  11.327  64.696  1.00  0.00     0.000 HD 
HETATM   34  H2  UNL     1     -13.717  12.536  63.609  1.00  0.00     0.000 HD 
HETATM   35  C   UNL     1     -12.198  13.214  64.787  1.00  0.00    -0.425 A  
ENDBRANCH  27  28
BRANCH  27  36
HETATM   36  N   UNL     1      -9.607  14.999  67.928  1.00  0.00    -0.202 NA 
HETATM   37  H   UNL     1     -10.004  15.919  67.740  1.00  0.00     0.000 HD 
BRANCH  36  38
HETATM   38  O   UNL     1      -9.141  14.617  69.186  1.00  0.00    -0.138 OA 
HETATM   39  C   UNL     1      -8.080  15.503  69.539  1.00  0.00    -0.202 C  
ENDBRANCH  36  38
ENDBRANCH  27  36
ENDBRANCH  24  27
ENDBRANCH   5  23
TORSDOF 7
ENDMDL
MODEL       91
REMARK 921   NORMALIZED FREE ENERGY PREDICTED BY IDOCK:   -5.83 KCAL/MOL
REMARK 922        TOTAL FREE ENERGY PREDICTED BY IDOCK:   -9.42 KCAL/MOL
REMARK 923 INTER-LIGAND FREE ENERGY PREDICTED BY IDOCK:   -7.65 KCAL/MOL
REMARK 924 INTRA-LIGAND FREE ENERGY PREDICTED BY IDOCK:   -1.78 KCAL/MOL
REMARK 927      BINDING AFFINITY PREDICTED BY RF-SCORE:    0.00 PKD
ROOT
HETATM    1  C   UNL     1     -11.873  13.529  68.032  1.00  0.00    -0.365 C  
HETATM    2  S   UNL     1     -10.354  12.901  67.248  1.00  0.00    -0.234 SA 
HETATM    3  C   UNL     1     -10.794  11.180  67.399  1.00  0.00    -0.266 C  
HETATM    4  C   UNL     1     -11.230  10.745  68.772  1.00  0.00    -0.331 C  
HETATM    5  CA  UNL     1     -11.716  14.894  68.776  1.00  0.00    -0.325 C  
HETATM    6  CA  UNL     1     -11.874  11.577  69.635  1.00  0.00    -0.354 C  
HETATM    7  C   UNL     1     -12.547  11.015  70.951  1.00  0.00    -0.391 C  
HETATM    8  O   UNL     1     -11.763  14.238  71.256  1.00  0.00    -0.251 OA 
HETATM    9  N   UNL     1     -12.060  12.907  69.325  1.00  0.00    -0.235 N  
HETATM   10  OXT UNL     1     -11.984   9.972  71.422  1.00  0.00    -0.365 OA 
HETATM   11  O   UNL     1     -13.652  11.536  71.255  1.00  0.00     0.215 OA 
HETATM   12  C   UNL     1     -11.930  14.032  70.073  1.00  0.00    -0.339 C  
ENDROOT
BRANCH   4  13
HETATM   13  C   UNL     1     -11.082   9.247  68.955  1.00  0.00     0.052 C  
BRANCH  13  14
HETATM   14  N   UNL     1      -9.708   8.641  68.960  1.00  0.00    -0.170 NA 
HETATM   15  C   UNL     1      -9.155   7.901  67.966  1.00  0.00    -0.132 A  
HETATM   16  C   UNL     1      -9.705   7.559  66.610  1.00  0.00    -0.273 C  
HETATM   17  C   UNL     1      -8.624   6.662  65.970  1.00  0.00    -0.152 C  
HETATM   18  C   UNL     1      -9.020   8.750  70.136  1.00  0.00    -0.166 A  
HETATM   19  C   UNL     1      -7.439   6.552  66.927  1.00  0.00    -0.084 C  
HETATM   20  C   UNL     1      -7.794   8.121  70.342  1.00  0.00    -0.090 A  
HETATM   21  C   UNL     1      -7.218   7.376  69.331  1.00  0.00    -0.083 A  
HETATM   22  C   UNL     1      -7.910   7.279  68.142  1.00  0.00    -0.118 A  
ENDBRANCH  13  14
ENDBRANCH   4  13
BRANCH   5  23
HETATM   23  N   UNL     1     -10.375  15.541  68.719  1.00  0.00    -0.211 N  
HETATM   24  C   UNL     1     -10.111  16.780  68.159  1.00  0.00    -0.282 C  
HETATM   25  O   UNL     1     -10.990  17.559  67.825  1.00  0.00    -0.314 OA 
HETATM   26  H   UNL     1      -9.591  15.030  69.123  1.00  0.00     0.000 HD 
BRANCH  24  27
HETATM   27  C   UNL     1      -8.594  17.094  67.980  1.00  0.00    -0.227 C  
BRANCH  27  28
HETATM   28  C   UNL     1      -7.595  16.049  68.243  1.00  0.00    -0.137 A  
HETATM   29  N   UNL     1      -7.475  14.943  67.407  1.00  0.00    -0.197 NA 
HETATM   30  N   UNL     1      -6.228  12.993  67.186  1.00  0.00    -0.481 NA 
HETATM   31  C   UNL     1      -6.673  16.062  69.275  1.00  0.00    -0.185 A  
HETATM   32  S   UNL     1      -5.676  14.672  69.206  1.00  0.00    -0.098 SA 
HETATM   33  H1  UNL     1      -6.733  12.678  66.358  1.00  0.00     0.000 HD 
HETATM   34  H2  UNL     1      -5.470  12.417  67.551  1.00  0.00     0.000 HD 
HETATM   35  C   UNL     1      -6.526  14.140  67.812  1.00  0.00    -0.168 A  
ENDBRANCH  27  28
BRANCH  27  36
HETATM   36  N   UNL     1      -8.092  18.223  67.563  1.00  0.00    -0.238 NA 
HETATM   37  H   UNL     1      -7.571  18.856  68.170  1.00  0.00     0.000 HD 
BRANCH  36  38
HETATM   38  O   UNL     1      -8.331  18.492  66.216  1.00  0.00    -0.354 OA 
HETATM   39  C   UNL     1      -7.467  19.560  65.830  1.00  0.00    -0.300 C  
ENDBRANCH  36  38
ENDBRANCH  27  36
ENDBRANCH  24  27
ENDBRANCH   5  23
TORSDOF 7
ENDMDL
MODEL       92
REMARK 921   NORMALIZED FREE ENERGY PREDICTED BY IDOCK:   -5.83 KCAL/MOL
REMARK 922        TOTAL FREE ENERGY PREDICTED BY IDOCK:   -9.42 KCAL/MOL
REMARK 923 INTER-LIGAND FREE ENERGY PREDICTED BY IDOCK:   -8.24 KCAL/MOL
REMARK 924 INTRA-LIGAND FREE ENERGY PREDICTED BY IDOCK:   -1.18 KCAL/MOL
REMARK 927      BINDING AFFINITY PREDICTED BY RF-SCORE:    0.00 PKD
ROOT
HETATM    1  C   UNL     1     -10.350  10.181  69.521  1.00  0.00    -0.240 C  
HETATM    2  S   UNL     1     -10.905   8.887  68.366  1.00  0.00     0.100 SA 
HETATM    3  C   UNL     1     -10.184   7.535  69.279  1.00  0.00    -0.201 C  
HETATM    4  C   UNL     1      -8.737   7.712  69.654  1.00  0.00    -0.136 C  
HETATM    5  CA  UNL     1     -10.103  11.582  68.874  1.00  0.00    -0.127 C  
HETATM    6  CA  UNL     1      -8.190   8.931  69.911  1.00  0.00    -0.118 C  
HETATM    7  C   UNL     1      -6.751   9.052  70.557  1.00  0.00    -0.058 C  
HETATM    8  O   UNL     1      -7.545  11.777  68.815  1.00  0.00    -0.125 OA 
HETATM    9  N   UNL     1      -8.920  10.085  69.728  1.00  0.00    -0.206 N  
HETATM   10  OXT UNL     1      -5.970   8.083  70.279  1.00  0.00    -0.029 OA 
HETATM   11  O   UNL     1      -6.620   9.968  71.410  1.00  0.00    -0.317 OA 
HETATM   12  C   UNL     1      -8.590  11.281  69.177  1.00  0.00     0.120 C  
ENDROOT
BRANCH   4  13
HETATM   13  C   UNL     1      -8.070   6.380  69.940  1.00  0.00    -0.121 C  
BRANCH  13  14
HETATM   14  N   UNL     1      -8.814   5.342  70.730  1.00  0.00    -0.131 NA 
HETATM   15  C   UNL     1      -9.336   5.502  71.973  1.00  0.00    -0.147 A  
HETATM   16  C   UNL     1      -9.383   6.730  72.838  1.00  0.00    -0.151 C  
HETATM   17  C   UNL     1     -10.065   6.258  74.140  1.00  0.00    -0.327 C  
HETATM   18  C   UNL     1      -8.842   4.091  70.179  1.00  0.00    -0.083 A  
HETATM   19  C   UNL     1     -10.464   4.791  73.988  1.00  0.00    -0.328 C  
HETATM   20  C   UNL     1      -9.371   2.993  70.855  1.00  0.00    -0.221 A  
HETATM   21  C   UNL     1      -9.916   3.150  72.114  1.00  0.00    -0.232 A  
HETATM   22  C   UNL     1      -9.895   4.416  72.661  1.00  0.00    -0.205 A  
ENDBRANCH  13  14
ENDBRANCH   4  13
BRANCH   5  23
HETATM   23  N   UNL     1     -10.393  11.711  67.419  1.00  0.00    -0.202 N  
HETATM   24  C   UNL     1     -11.289  12.608  66.860  1.00  0.00    -0.320 C  
HETATM   25  O   UNL     1     -11.794  13.521  67.493  1.00  0.00    -0.343 OA 
HETATM   26  H   UNL     1      -9.891  11.090  66.784  1.00  0.00     0.000 HD 
BRANCH  24  27
HETATM   27  C   UNL     1     -11.608  12.345  65.357  1.00  0.00    -0.381 C  
BRANCH  27  28
HETATM   28  C   UNL     1     -10.622  11.662  64.509  1.00  0.00    -0.318 A  
HETATM   29  N   UNL     1     -10.185  10.375  64.808  1.00  0.00    -0.318 NA 
HETATM   30  N   UNL     1      -8.732   8.747  64.006  1.00  0.00    -0.419 NA 
HETATM   31  C   UNL     1     -10.072  12.174  63.346  1.00  0.00    -0.351 A  
HETATM   32  S   UNL     1      -8.989  11.047  62.648  1.00  0.00    -0.300 SA 
HETATM   33  H1  UNL     1      -8.927   8.096  64.767  1.00  0.00     0.000 HD 
HETATM   34  H2  UNL     1      -8.069   8.474  63.281  1.00  0.00     0.000 HD 
HETATM   35  C   UNL     1      -9.317   9.949  63.928  1.00  0.00    -0.207 A  
ENDBRANCH  27  28
BRANCH  27  36
HETATM   36  N   UNL     1     -12.724  12.642  64.751  1.00  0.00    -0.748 NA 
HETATM   37  H   UNL     1     -13.215  11.988  64.141  1.00  0.00     0.000 HD 
BRANCH  36  38
HETATM   38  O   UNL     1     -13.188  13.932  65.007  1.00  0.00    -0.729 OA 
HETATM   39  C   UNL     1     -12.364  14.839  64.277  1.00  0.00    -0.320 C  
ENDBRANCH  36  38
ENDBRANCH  27  36
ENDBRANCH  24  27
ENDBRANCH   5  23
TORSDOF 7
ENDMDL
MODEL       93
REMARK 921   NORMALIZED FREE ENERGY PREDICTED BY IDOCK:   -5.81 KCAL/MOL
REMARK 922        TOTAL FREE ENERGY PREDICTED BY IDOCK:   -9.40 KCAL/MOL
REMARK 923 INTER-LIGAND FREE ENERGY PREDICTED BY IDOCK:   -8.08 KCAL/MOL
REMARK 924 INTRA-LIGAND FREE ENERGY PREDICTED BY IDOCK:   -1.32 KCAL/MOL
REMARK 927      BINDING AFFINITY PREDICTED BY RF-SCORE:    0.00 PKD
ROOT
HETATM    1  C   UNL     1      -7.906   8.733  66.444  1.00  0.00    -0.099 C  
HETATM    2  S   UNL     1      -7.600   9.847  67.851  1.00  0.00    -0.089 SA 
HETATM    3  C   UNL     1      -6.545   8.710  68.731  1.00  0.00    -0.054 C  
HETATM    4  C   UNL     1      -7.100   7.323  68.908  1.00  0.00    -0.084 C  
HETATM    5  CA  UNL     1      -9.282   8.933  65.730  1.00  0.00    -0.221 C  
HETATM    6  CA  UNL     1      -7.932   6.744  68.000  1.00  0.00    -0.114 C  
HETATM    7  C   UNL     1      -8.278   5.203  68.085  1.00  0.00    -0.097 C  
HETATM    8  O   UNL     1     -10.658   6.905  66.494  1.00  0.00    -0.159 OA 
HETATM    9  N   UNL     1      -8.397   7.456  66.916  1.00  0.00    -0.119 N  
HETATM   10  OXT UNL     1      -8.244   4.724  69.267  1.00  0.00    -0.076 OA 
HETATM   11  O   UNL     1      -8.347   4.605  66.980  1.00  0.00    -0.106 OA 
HETATM   12  C   UNL     1      -9.628   7.529  66.348  1.00  0.00    -0.125 C  
ENDROOT
BRANCH   4  13
HETATM   13  C   UNL     1      -6.433   6.598  70.062  1.00  0.00    -0.040 C  
BRANCH  13  14
HETATM   14  N   UNL     1      -6.755   7.009  71.470  1.00  0.00    -0.052 NA 
HETATM   15  C   UNL     1      -7.980   6.977  72.053  1.00  0.00    -0.094 A  
HETATM   16  C   UNL     1      -9.285   6.474  71.507  1.00  0.00    -0.144 C  
HETATM   17  C   UNL     1     -10.306   6.749  72.632  1.00  0.00    -0.225 C  
HETATM   18  C   UNL     1      -5.728   7.585  72.165  1.00  0.00    -0.036 A  
HETATM   19  C   UNL     1      -9.573   7.341  73.834  1.00  0.00    -0.322 C  
HETATM   20  C   UNL     1      -5.907   8.143  73.429  1.00  0.00    -0.068 A  
HETATM   21  C   UNL     1      -7.147   8.104  74.036  1.00  0.00    -0.185 A  
HETATM   22  C   UNL     1      -8.177   7.511  73.335  1.00  0.00    -0.169 A  
ENDBRANCH  13  14
ENDBRANCH   4  13
BRANCH   5  23
HETATM   23  N   UNL     1     -10.153  10.027  66.244  1.00  0.00    -0.245 N  
HETATM   24  C   UNL     1     -10.654  11.071  65.484  1.00  0.00    -0.200 C  
HETATM   25  O   UNL     1     -10.589  11.095  64.265  1.00  0.00    -0.340 OA 
HETATM   26  H   UNL     1     -10.399  10.005  67.233  1.00  0.00     0.000 HD 
BRANCH  24  27
HETATM   27  C   UNL     1     -11.298  12.222  66.316  1.00  0.00    -0.345 C  
BRANCH  27  28
HETATM   28  C   UNL     1     -10.971  13.620  66.005  1.00  0.00    -0.286 A  
HETATM   29  N   UNL     1     -11.616  14.298  64.975  1.00  0.00    -0.350 NA 
HETATM   30  N   UNL     1     -11.635  16.379  63.939  1.00  0.00    -1.602 NA 
HETATM   31  C   UNL     1     -10.059  14.402  66.694  1.00  0.00    -0.274 A  
HETATM   32  S   UNL     1      -9.999  15.978  66.028  1.00  0.00    -0.363 SA 
HETATM   33  H1  UNL     1     -12.339  16.111  63.252  1.00  0.00     0.000 HD 
HETATM   34  H2  UNL     1     -11.261  17.328  63.918  1.00  0.00     0.000 HD 
HETATM   35  C   UNL     1     -11.184  15.527  64.870  1.00  0.00    -0.389 A  
ENDBRANCH  27  28
BRANCH  27  36
HETATM   36  N   UNL     1     -12.169  12.074  67.276  1.00  0.00    -0.364 NA 
HETATM   37  H   UNL     1     -13.035  12.610  67.325  1.00  0.00     0.000 HD 
BRANCH  36  38
HETATM   38  O   UNL     1     -11.812  11.121  68.230  1.00  0.00    -0.522 OA 
HETATM   39  C   UNL     1     -12.359  11.539  69.479  1.00  0.00    -0.124 C  
ENDBRANCH  36  38
ENDBRANCH  27  36
ENDBRANCH  24  27
ENDBRANCH   5  23
TORSDOF 7
ENDMDL
MODEL       94
REMARK 921   NORMALIZED FREE ENERGY PREDICTED BY IDOCK:   -5.81 KCAL/MOL
REMARK 922        TOTAL FREE ENERGY PREDICTED BY IDOCK:   -9.40 KCAL/MOL
REMARK 923 INTER-LIGAND FREE ENERGY PREDICTED BY IDOCK:   -8.04 KCAL/MOL
REMARK 924 INTRA-LIGAND FREE ENERGY PREDICTED BY IDOCK:   -1.36 KCAL/MOL
REMARK 927      BINDING AFFINITY PREDICTED BY RF-SCORE:    0.00 PKD
ROOT
HETATM    1  C   UNL     1      -8.202  10.734  67.375  1.00  0.00    -0.116 C  
HETATM    2  S   UNL     1      -9.228  10.862  68.873  1.00  0.00    -0.120 SA 
HETATM    3  C   UNL     1      -8.743   9.281  69.538  1.00  0.00    -0.146 C  
HETATM    4  C   UNL     1      -8.851   8.121  68.585  1.00  0.00    -0.134 C  
HETATM    5  CA  UNL     1      -8.753  11.498  66.128  1.00  0.00    -0.131 C  
HETATM    6  CA  UNL     1      -8.672   8.256  67.243  1.00  0.00    -0.123 C  
HETATM    7  C   UNL     1      -8.530   6.983  66.314  1.00  0.00    -0.134 C  
HETATM    8  O   UNL     1      -9.637   9.625  64.613  1.00  0.00    -0.247 OA 
HETATM    9  N   UNL     1      -8.490   9.499  66.677  1.00  0.00    -0.132 N  
HETATM   10  OXT UNL     1      -9.144   5.951  66.744  1.00  0.00    -0.122 OA 
HETATM   11  O   UNL     1      -7.684   7.085  65.389  1.00  0.00    -0.097 OA 
HETATM   12  C   UNL     1      -8.999  10.057  65.549  1.00  0.00    -0.174 C  
ENDROOT
BRANCH   4  13
HETATM   13  C   UNL     1      -8.934   6.799  69.324  1.00  0.00    -0.137 C  
BRANCH  13  14
HETATM   14  N   UNL     1      -9.776   6.703  70.564  1.00  0.00    -0.175 NA 
HETATM   15  C   UNL     1      -9.330   6.428  71.816  1.00  0.00    -0.150 A  
HETATM   16  C   UNL     1      -7.925   6.225  72.307  1.00  0.00    -0.104 C  
HETATM   17  C   UNL     1      -8.083   5.905  73.809  1.00  0.00    -0.106 C  
HETATM   18  C   UNL     1     -11.126   6.778  70.366  1.00  0.00    -0.308 A  
HETATM   19  C   UNL     1      -9.561   5.994  74.182  1.00  0.00    -0.182 C  
HETATM   20  C   UNL     1     -12.042   6.568  71.396  1.00  0.00    -0.344 A  
HETATM   21  C   UNL     1     -11.597   6.298  72.675  1.00  0.00    -0.213 A  
HETATM   22  C   UNL     1     -10.233   6.236  72.872  1.00  0.00    -0.207 A  
ENDBRANCH  13  14
ENDBRANCH   4  13
BRANCH   5  23
HETATM   23  N   UNL     1     -10.011  12.274  66.318  1.00  0.00    -0.227 N  
HETATM   24  C   UNL     1     -10.083  13.572  66.796  1.00  0.00    -0.268 C  
HETATM   25  O   UNL     1      -9.101  14.285  66.930  1.00  0.00    -0.234 OA 
HETATM   26  H   UNL     1     -10.888  11.812  66.077  1.00  0.00     0.000 HD 
BRANCH  24  27
HETATM   27  C   UNL     1     -11.524  14.044  67.161  1.00  0.00    -0.352 C  
BRANCH  27  28
HETATM   28  C   UNL     1     -11.840  14.423  68.544  1.00  0.00    -0.334 A  
HETATM   29  N   UNL     1     -12.268  13.477  69.471  1.00  0.00    -0.280 NA 
HETATM   30  N   UNL     1     -12.926  13.319  71.694  1.00  0.00    -0.371 NA 
HETATM   31  C   UNL     1     -11.714  15.696  69.075  1.00  0.00    -0.395 A  
HETATM   32  S   UNL     1     -12.158  15.702  70.729  1.00  0.00    -0.427 SA 
HETATM   33  H1  UNL     1     -13.122  12.320  71.641  1.00  0.00     0.000 HD 
HETATM   34  H2  UNL     1     -13.070  13.803  72.581  1.00  0.00     0.000 HD 
HETATM   35  C   UNL     1     -12.488  14.019  70.640  1.00  0.00    -0.365 A  
ENDBRANCH  27  28
BRANCH  27  36
HETATM   36  N   UNL     1     -12.515  14.185  66.325  1.00  0.00    -0.480 NA 
HETATM   37  H   UNL     1     -13.468  14.391  66.625  1.00  0.00     0.000 HD 
BRANCH  36  38
HETATM   38  O   UNL     1     -12.160  14.031  64.985  1.00  0.00    -0.375 OA 
HETATM   39  C   UNL     1     -12.778  12.836  64.511  1.00  0.00    -0.328 C  
ENDBRANCH  36  38
ENDBRANCH  27  36
ENDBRANCH  24  27
ENDBRANCH   5  23
TORSDOF 7
ENDMDL
MODEL       95
REMARK 921   NORMALIZED FREE ENERGY PREDICTED BY IDOCK:   -5.80 KCAL/MOL
REMARK 922        TOTAL FREE ENERGY PREDICTED BY IDOCK:   -9.38 KCAL/MOL
REMARK 923 INTER-LIGAND FREE ENERGY PREDICTED BY IDOCK:   -8.30 KCAL/MOL
REMARK 924 INTRA-LIGAND FREE ENERGY PREDICTED BY IDOCK:   -1.08 KCAL/MOL
REMARK 927      BINDING AFFINITY PREDICTED BY RF-SCORE:    0.00 PKD
ROOT
HETATM    1  C   UNL     1     -11.887  11.766  67.493  1.00  0.00    -0.154 C  
HETATM    2  S   UNL     1     -10.987  12.247  69.000  1.00  0.00    -0.161 SA 
HETATM    3  C   UNL     1     -11.560  13.935  69.001  1.00  0.00    -0.310 C  
HETATM    4  C   UNL     1     -11.398  14.670  67.698  1.00  0.00    -0.350 C  
HETATM    5  CA  UNL     1     -11.217  10.628  66.657  1.00  0.00     0.148 C  
HETATM    6  CA  UNL     1     -11.461  14.045  66.490  1.00  0.00    -0.357 C  
HETATM    7  C   UNL     1     -11.552  14.881  65.150  1.00  0.00    -0.330 C  
HETATM    8  O   UNL     1     -10.250  11.861  64.624  1.00  0.00    -0.260 OA 
HETATM    9  N   UNL     1     -11.568  12.674  66.411  1.00  0.00    -0.363 N  
HETATM   10  OXT UNL     1     -10.999  16.029  65.211  1.00  0.00    -0.351 OA 
HETATM   11  O   UNL     1     -12.316  14.405  64.271  1.00  0.00    -0.602 OA 
HETATM   12  C   UNL     1     -10.954  11.768  65.607  1.00  0.00    -0.295 C  
ENDROOT
BRANCH   4  13
HETATM   13  C   UNL     1     -11.406  16.173  67.901  1.00  0.00    -0.182 C  
BRANCH  13  14
HETATM   14  N   UNL     1     -10.107  16.887  68.147  1.00  0.00    -0.284 NA 
HETATM   15  C   UNL     1      -9.824  18.173  67.817  1.00  0.00    -0.310 A  
HETATM   16  C   UNL     1     -10.713  19.221  67.211  1.00  0.00    -0.594 C  
HETATM   17  C   UNL     1      -9.799  20.454  67.045  1.00  0.00    -0.594 C  
HETATM   18  C   UNL     1      -9.091  16.110  68.630  1.00  0.00    -0.218 A  
HETATM   19  C   UNL     1      -8.419  20.129  67.615  1.00  0.00    -0.357 C  
HETATM   20  C   UNL     1      -7.792  16.593  68.778  1.00  0.00    -0.238 A  
HETATM   21  C   UNL     1      -7.498  17.903  68.457  1.00  0.00    -0.270 A  
HETATM   22  C   UNL     1      -8.529  18.686  67.980  1.00  0.00    -0.314 A  
ENDBRANCH  13  14
ENDBRANCH   4  13
BRANCH   5  23
HETATM   23  N   UNL     1      -9.963  10.041  67.207  1.00  0.00    -0.188 N  
HETATM   24  C   UNL     1      -9.711   8.686  67.345  1.00  0.00    -0.175 C  
HETATM   25  O   UNL     1     -10.420   7.825  66.848  1.00  0.00    -0.319 OA 
HETATM   26  H   UNL     1      -9.233  10.688  67.504  1.00  0.00     0.000 HD 
BRANCH  24  27
HETATM   27  C   UNL     1      -8.450   8.350  68.199  1.00  0.00    -0.132 C  
BRANCH  27  28
HETATM   28  C   UNL     1      -7.507   7.322  67.737  1.00  0.00    -0.102 A  
HETATM   29  N   UNL     1      -7.629   5.997  68.147  1.00  0.00    -0.092 NA 
HETATM   30  N   UNL     1      -6.588   3.937  67.875  1.00  0.00    -0.041 NA 
HETATM   31  C   UNL     1      -6.465   7.530  66.849  1.00  0.00    -0.056 A  
HETATM   32  S   UNL     1      -5.628   6.066  66.554  1.00  0.00    -0.013 SA 
HETATM   33  H1  UNL     1      -7.224   3.451  68.508  1.00  0.00     0.000 HD 
HETATM   34  H2  UNL     1      -5.843   3.408  67.423  1.00  0.00     0.000 HD 
HETATM   35  C   UNL     1      -6.698   5.247  67.619  1.00  0.00    -0.055 A  
ENDBRANCH  27  28
BRANCH  27  36
HETATM   36  N   UNL     1      -8.101   8.939  69.309  1.00  0.00    -0.107 NA 
HETATM   37  H   UNL     1      -7.698   8.436  70.100  1.00  0.00     0.000 HD 
BRANCH  36  38
HETATM   38  O   UNL     1      -8.327  10.315  69.321  1.00  0.00    -0.141 OA 
HETATM   39  C   UNL     1      -7.058  10.958  69.430  1.00  0.00    -0.131 C  
ENDBRANCH  36  38
ENDBRANCH  27  36
ENDBRANCH  24  27
ENDBRANCH   5  23
TORSDOF 7
ENDMDL
MODEL       96
REMARK 921   NORMALIZED FREE ENERGY PREDICTED BY IDOCK:   -5.76 KCAL/MOL
REMARK 922        TOTAL FREE ENERGY PREDICTED BY IDOCK:   -9.33 KCAL/MOL
REMARK 923 INTER-LIGAND FREE ENERGY PREDICTED BY IDOCK:   -8.56 KCAL/MOL
REMARK 924 INTRA-LIGAND FREE ENERGY PREDICTED BY IDOCK:   -0.76 KCAL/MOL
REMARK 927      BINDING AFFINITY PREDICTED BY RF-SCORE:    0.00 PKD
ROOT
HETATM    1  C   UNL     1     -10.951   9.989  69.017  1.00  0.00    -0.212 C  
HETATM    2  S   UNL     1      -9.233  10.571  69.177  1.00  0.00    -0.137 SA 
HETATM    3  C   UNL     1      -8.631   9.087  69.962  1.00  0.00    -0.151 C  
HETATM    4  C   UNL     1      -9.434   8.614  71.143  1.00  0.00    -0.274 C  
HETATM    5  CA  UNL     1     -12.035  11.114  69.037  1.00  0.00    -0.320 C  
HETATM    6  CA  UNL     1     -10.777   8.808  71.243  1.00  0.00    -0.269 C  
HETATM    7  C   UNL     1     -11.621   8.070  72.359  1.00  0.00    -0.390 C  
HETATM    8  O   UNL     1     -13.105  10.879  71.358  1.00  0.00    -0.389 OA 
HETATM    9  N   UNL     1     -11.453   9.556  70.304  1.00  0.00    -0.237 N  
HETATM   10  OXT UNL     1     -10.965   7.806  73.421  1.00  0.00    -0.327 OA 
HETATM   11  O   UNL     1     -12.754   7.663  71.995  1.00  0.00    -0.292 OA 
HETATM   12  C   UNL     1     -12.422  10.498  70.432  1.00  0.00    -0.310 C  
ENDROOT
BRANCH   4  13
HETATM   13  C   UNL     1      -8.616   7.709  72.046  1.00  0.00    -0.110 C  
BRANCH  13  14
HETATM   14  N   UNL     1      -8.786   6.221  71.940  1.00  0.00    -0.135 NA 
HETATM   15  C   UNL     1      -9.084   5.527  70.812  1.00  0.00    -0.146 A  
HETATM   16  C   UNL     1      -9.246   6.019  69.402  1.00  0.00    -0.140 C  
HETATM   17  C   UNL     1      -9.621   4.758  68.594  1.00  0.00    -0.223 C  
HETATM   18  C   UNL     1      -8.760   5.540  73.124  1.00  0.00    -0.120 A  
HETATM   19  C   UNL     1      -9.604   3.548  69.526  1.00  0.00    -0.179 C  
HETATM   20  C   UNL     1      -9.040   4.177  73.205  1.00  0.00    -0.120 A  
HETATM   21  C   UNL     1      -9.333   3.460  72.061  1.00  0.00    -0.186 A  
HETATM   22  C   UNL     1      -9.346   4.150  70.867  1.00  0.00    -0.217 A  
ENDBRANCH  13  14
ENDBRANCH   4  13
BRANCH   5  23
HETATM   23  N   UNL     1     -11.545  12.517  69.134  1.00  0.00    -0.301 N  
HETATM   24  C   UNL     1     -11.533  13.431  68.094  1.00  0.00    -0.304 C  
HETATM   25  O   UNL     1     -12.105  13.236  67.033  1.00  0.00    -0.375 OA 
HETATM   26  H   UNL     1     -11.191  12.829  70.038  1.00  0.00     0.000 HD 
BRANCH  24  27
HETATM   27  C   UNL     1     -10.716  14.727  68.385  1.00  0.00    -0.243 C  
BRANCH  27  28
HETATM   28  C   UNL     1      -9.268  14.749  68.138  1.00  0.00    -0.195 A  
HETATM   29  N   UNL     1      -8.608  13.635  67.629  1.00  0.00    -0.172 NA 
HETATM   30  N   UNL     1      -6.474  12.942  67.022  1.00  0.00    -0.474 NA 
HETATM   31  C   UNL     1      -8.438  15.841  68.331  1.00  0.00    -0.170 A  
HETATM   32  S   UNL     1      -6.828  15.454  67.896  1.00  0.00    -0.165 SA 
HETATM   33  H1  UNL     1      -6.772  11.999  66.774  1.00  0.00     0.000 HD 
HETATM   34  H2  UNL     1      -5.490  13.190  66.920  1.00  0.00     0.000 HD 
HETATM   35  C   UNL     1      -7.330  13.865  67.478  1.00  0.00    -0.166 A  
ENDBRANCH  27  28
BRANCH  27  36
HETATM   36  N   UNL     1     -11.207  15.860  68.805  1.00  0.00    -0.337 NA 
HETATM   37  H   UNL     1     -10.864  16.765  68.484  1.00  0.00     0.000 HD 
BRANCH  36  38
HETATM   38  O   UNL     1     -12.242  15.727  69.730  1.00  0.00    -0.344 OA 
HETATM   39  C   UNL     1     -11.681  15.904  71.030  1.00  0.00    -0.432 C  
ENDBRANCH  36  38
ENDBRANCH  27  36
ENDBRANCH  24  27
ENDBRANCH   5  23
TORSDOF 7
ENDMDL
MODEL       97
REMARK 921   NORMALIZED FREE ENERGY PREDICTED BY IDOCK:   -5.71 KCAL/MOL
REMARK 922        TOTAL FREE ENERGY PREDICTED BY IDOCK:   -9.26 KCAL/MOL
REMARK 923 INTER-LIGAND FREE ENERGY PREDICTED BY IDOCK:   -7.85 KCAL/MOL
REMARK 924 INTRA-LIGAND FREE ENERGY PREDICTED BY IDOCK:   -1.41 KCAL/MOL
REMARK 927      BINDING AFFINITY PREDICTED BY RF-SCORE:    0.00 PKD
ROOT
HETATM    1  C   UNL     1     -10.724   9.155  68.941  1.00  0.00    -0.141 C  
HETATM    2  S   UNL     1     -10.583   9.367  67.139  1.00  0.00    -0.170 SA 
HETATM    3  C   UNL     1     -10.239   7.650  66.800  1.00  0.00    -0.263 C  
HETATM    4  C   UNL     1      -9.141   7.039  67.627  1.00  0.00    -0.122 C  
HETATM    5  CA  UNL     1     -10.334  10.409  69.787  1.00  0.00    -0.208 C  
HETATM    6  CA  UNL     1      -8.876   7.433  68.902  1.00  0.00    -0.131 C  
HETATM    7  C   UNL     1      -7.902   6.594  69.823  1.00  0.00    -0.115 C  
HETATM    8  O   UNL     1      -8.053   9.781  70.782  1.00  0.00    -0.271 OA 
HETATM    9  N   UNL     1      -9.541   8.503  69.461  1.00  0.00    -0.169 N  
HETATM   10  OXT UNL     1      -6.999   5.957  69.186  1.00  0.00    -0.060 OA 
HETATM   11  O   UNL     1      -8.250   6.499  71.029  1.00  0.00    -0.118 OA 
HETATM   12  C   UNL     1      -9.102   9.536  70.225  1.00  0.00    -0.253 C  
ENDROOT
BRANCH   4  13
HETATM   13  C   UNL     1      -8.563   5.805  66.960  1.00  0.00    -0.110 C  
BRANCH  13  14
HETATM   14  N   UNL     1      -8.368   5.800  65.471  1.00  0.00    -0.135 NA 
HETATM   15  C   UNL     1      -9.071   5.064  64.573  1.00  0.00     0.002 A  
HETATM   16  C   UNL     1     -10.240   4.147  64.796  1.00  0.00    -0.210 C  
HETATM   17  C   UNL     1     -10.559   3.582  63.395  1.00  0.00    -0.257 C  
HETATM   18  C   UNL     1      -7.293   6.511  65.016  1.00  0.00    -0.078 A  
HETATM   19  C   UNL     1      -9.623   4.226  62.375  1.00  0.00    -0.131 C  
HETATM   20  C   UNL     1      -6.899   6.490  63.679  1.00  0.00    -0.049 A  
HETATM   21  C   UNL     1      -7.617   5.754  62.757  1.00  0.00    -0.076 A  
HETATM   22  C   UNL     1      -8.707   5.047  63.219  1.00  0.00    -0.080 A  
ENDBRANCH  13  14
ENDBRANCH   4  13
BRANCH   5  23
HETATM   23  N   UNL     1      -9.943  11.633  69.033  1.00  0.00    -0.413 N  
HETATM   24  C   UNL     1     -10.733  12.760  68.876  1.00  0.00    -0.163 C  
HETATM   25  O   UNL     1     -11.763  12.940  69.507  1.00  0.00    -0.303 OA 
HETATM   26  H   UNL     1      -9.021  11.641  68.598  1.00  0.00     0.000 HD 
BRANCH  24  27
HETATM   27  C   UNL     1     -10.205  13.774  67.816  1.00  0.00    -0.241 C  
BRANCH  27  28
HETATM   28  C   UNL     1     -10.881  13.892  66.517  1.00  0.00    -0.295 A  
HETATM   29  N   UNL     1     -10.921  15.104  65.834  1.00  0.00    -0.338 NA 
HETATM   30  N   UNL     1     -11.754  16.023  63.868  1.00  0.00    -1.328 NA 
HETATM   31  C   UNL     1     -11.489  12.854  65.833  1.00  0.00    -0.346 A  
HETATM   32  S   UNL     1     -12.130  13.410  64.346  1.00  0.00    -0.416 SA 
HETATM   33  H1  UNL     1     -11.416  16.962  64.079  1.00  0.00     0.000 HD 
HETATM   34  H2  UNL     1     -12.256  15.864  62.995  1.00  0.00     0.000 HD 
HETATM   35  C   UNL     1     -11.561  14.991  64.700  1.00  0.00    -0.386 A  
ENDBRANCH  27  28
BRANCH  27  36
HETATM   36  N   UNL     1      -9.207  14.598  67.980  1.00  0.00    -0.192 NA 
HETATM   37  H   UNL     1      -8.799  15.133  67.213  1.00  0.00     0.000 HD 
BRANCH  36  38
HETATM   38  O   UNL     1      -8.747  14.685  69.293  1.00  0.00    -0.092 OA 
HETATM   39  C   UNL     1      -7.416  15.198  69.249  1.00  0.00    -0.193 C  
ENDBRANCH  36  38
ENDBRANCH  27  36
ENDBRANCH  24  27
ENDBRANCH   5  23
TORSDOF 7
ENDMDL
MODEL       98
REMARK 921   NORMALIZED FREE ENERGY PREDICTED BY IDOCK:   -5.68 KCAL/MOL
REMARK 922        TOTAL FREE ENERGY PREDICTED BY IDOCK:   -9.21 KCAL/MOL
REMARK 923 INTER-LIGAND FREE ENERGY PREDICTED BY IDOCK:   -7.79 KCAL/MOL
REMARK 924 INTRA-LIGAND FREE ENERGY PREDICTED BY IDOCK:   -1.41 KCAL/MOL
REMARK 927      BINDING AFFINITY PREDICTED BY RF-SCORE:    0.00 PKD
ROOT
HETATM    1  C   UNL     1     -11.586  14.714  67.192  1.00  0.00    -0.378 C  
HETATM    2  S   UNL     1     -10.027  14.614  66.256  1.00  0.00    -0.304 SA 
HETATM    3  C   UNL     1     -10.260  12.925  65.735  1.00  0.00    -0.288 C  
HETATM    4  C   UNL     1     -10.604  11.954  66.832  1.00  0.00    -0.264 C  
HETATM    5  CA  UNL     1     -11.569  15.704  68.401  1.00  0.00    -0.350 C  
HETATM    6  CA  UNL     1     -11.317  12.315  67.933  1.00  0.00    -0.298 C  
HETATM    7  C   UNL     1     -11.884  11.221  68.925  1.00  0.00    -0.345 C  
HETATM    8  O   UNL     1     -11.470  14.155  70.445  1.00  0.00    -0.209 OA 
HETATM    9  N   UNL     1     -11.664  13.631  68.148  1.00  0.00    -0.338 N  
HETATM   10  OXT UNL     1     -11.191  10.151  68.975  1.00  0.00    -0.223 OA 
HETATM   11  O   UNL     1     -13.032  11.454  69.383  1.00  0.00     0.160 OA 
HETATM   12  C   UNL     1     -11.645  14.396  69.270  1.00  0.00    -0.304 C  
ENDROOT
BRANCH   4  13
HETATM   13  C   UNL     1     -10.279  10.527  66.435  1.00  0.00    -0.237 C  
BRANCH  13  14
HETATM   14  N   UNL     1      -8.844  10.130  66.236  1.00  0.00    -0.146 NA 
HETATM   15  C   UNL     1      -8.206  10.002  65.045  1.00  0.00    -0.148 A  
HETATM   16  C   UNL     1      -8.709  10.282  63.657  1.00  0.00    -0.211 C  
HETATM   17  C   UNL     1      -7.529   9.904  62.735  1.00  0.00    -0.128 C  
HETATM   18  C   UNL     1      -8.178   9.744  67.365  1.00  0.00    -0.114 A  
HETATM   19  C   UNL     1      -6.343   9.478  63.598  1.00  0.00    -0.099 C  
HETATM   20  C   UNL     1      -6.888   9.218  67.324  1.00  0.00    -0.080 A  
HETATM   21  C   UNL     1      -6.227   9.096  66.117  1.00  0.00    -0.064 A  
HETATM   22  C   UNL     1      -6.899   9.498  64.982  1.00  0.00    -0.097 A  
ENDBRANCH  13  14
ENDBRANCH   4  13
BRANCH   5  23
HETATM   23  N   UNL     1     -10.314  16.477  68.619  1.00  0.00    -0.268 N  
HETATM   24  C   UNL     1     -10.103  17.785  68.215  1.00  0.00    -0.371 C  
HETATM   25  O   UNL     1     -11.000  18.506  67.807  1.00  0.00    -0.329 OA 
HETATM   26  H   UNL     1      -9.550  16.005  69.103  1.00  0.00     0.000 HD 
BRANCH  24  27
HETATM   27  C   UNL     1      -8.620  18.257  68.314  1.00  0.00    -0.285 C  
BRANCH  27  28
HETATM   28  C   UNL     1      -7.541  17.264  68.408  1.00  0.00    -0.241 A  
HETATM   29  N   UNL     1      -7.582  16.085  67.669  1.00  0.00    -0.136 NA 
HETATM   30  N   UNL     1      -6.342  14.152  67.314  1.00  0.00    -0.378 NA 
HETATM   31  C   UNL     1      -6.394  17.396  69.171  1.00  0.00    -0.234 A  
HETATM   32  S   UNL     1      -5.383  16.028  68.975  1.00  0.00    -0.109 SA 
HETATM   33  H1  UNL     1      -7.022  13.747  66.670  1.00  0.00     0.000 HD 
HETATM   34  H2  UNL     1      -5.492  13.629  67.525  1.00  0.00     0.000 HD 
HETATM   35  C   UNL     1      -6.528  15.346  67.891  1.00  0.00    -0.151 A  
ENDBRANCH  27  28
BRANCH  27  36
HETATM   36  N   UNL     1      -8.209  19.494  68.279  1.00  0.00    -0.331 NA 
HETATM   37  H   UNL     1      -8.398  20.162  69.026  1.00  0.00     0.000 HD 
BRANCH  36  38
HETATM   38  O   UNL     1      -7.489  19.825  67.132  1.00  0.00    -0.235 OA 
HETATM   39  C   UNL     1      -8.422  19.952  66.060  1.00  0.00    -0.263 C  
ENDBRANCH  36  38
ENDBRANCH  27  36
ENDBRANCH  24  27
ENDBRANCH   5  23
TORSDOF 7
ENDMDL
MODEL       99
REMARK 921   NORMALIZED FREE ENERGY PREDICTED BY IDOCK:   -5.61 KCAL/MOL
REMARK 922        TOTAL FREE ENERGY PREDICTED BY IDOCK:   -9.12 KCAL/MOL
REMARK 923 INTER-LIGAND FREE ENERGY PREDICTED BY IDOCK:   -7.72 KCAL/MOL
REMARK 924 INTRA-LIGAND FREE ENERGY PREDICTED BY IDOCK:   -1.41 KCAL/MOL
REMARK 927      BINDING AFFINITY PREDICTED BY RF-SCORE:    0.00 PKD
ROOT
HETATM    1  C   UNL     1      -9.040  12.295  66.883  1.00  0.00    -0.208 C  
HETATM    2  S   UNL     1     -10.495  12.735  67.884  1.00  0.00    -0.225 SA 
HETATM    3  C   UNL     1     -10.122  14.478  67.955  1.00  0.00    -0.227 C  
HETATM    4  C   UNL     1      -8.720  14.818  68.380  1.00  0.00    -0.169 C  
HETATM    5  CA  UNL     1      -8.498  10.846  67.105  1.00  0.00    -0.128 C  
HETATM    6  CA  UNL     1      -7.655  14.017  68.105  1.00  0.00    -0.141 C  
HETATM    7  C   UNL     1      -6.176  14.531  68.330  1.00  0.00    -0.103 C  
HETATM    8  O   UNL     1      -6.351  11.208  68.464  1.00  0.00    -0.046 OA 
HETATM    9  N   UNL     1      -7.833  12.786  67.514  1.00  0.00    -0.159 N  
HETATM   10  OXT UNL     1      -6.059  15.398  69.258  1.00  0.00    -0.105 OA 
HETATM   11  O   UNL     1      -5.345  14.179  67.453  1.00  0.00    -0.335 OA 
HETATM   12  C   UNL     1      -7.272  11.576  67.767  1.00  0.00    -0.094 C  
ENDROOT
BRANCH   4  13
HETATM   13  C   UNL     1      -8.627  16.237  68.911  1.00  0.00    -0.260 C  
BRANCH  13  14
HETATM   14  N   UNL     1      -8.978  17.382  68.005  1.00  0.00    -0.249 NA 
HETATM   15  C   UNL     1      -8.136  18.012  67.147  1.00  0.00    -0.213 A  
HETATM   16  C   UNL     1      -6.702  17.706  66.819  1.00  0.00    -0.226 C  
HETATM   17  C   UNL     1      -6.295  18.801  65.809  1.00  0.00    -0.276 C  
HETATM   18  C   UNL     1     -10.230  17.903  68.173  1.00  0.00    -0.382 A  
HETATM   19  C   UNL     1      -7.509  19.680  65.514  1.00  0.00    -0.130 C  
HETATM   20  C   UNL     1     -10.653  19.053  67.507  1.00  0.00    -0.546 A  
HETATM   21  C   UNL     1      -9.807  19.692  66.623  1.00  0.00    -0.518 A  
HETATM   22  C   UNL     1      -8.548  19.156  66.448  1.00  0.00    -0.335 A  
ENDBRANCH  13  14
ENDBRANCH   4  13
BRANCH   5  23
HETATM   23  N   UNL     1      -9.251   9.987  68.061  1.00  0.00    -0.134 N  
HETATM   24  C   UNL     1      -8.954   8.665  68.348  1.00  0.00    -0.142 C  
HETATM   25  O   UNL     1      -7.921   8.123  67.987  1.00  0.00    -0.123 OA 
HETATM   26  H   UNL     1     -10.047  10.405  68.541  1.00  0.00     0.000 HD 
BRANCH  24  27
HETATM   27  C   UNL     1     -10.058   7.920  69.161  1.00  0.00    -0.197 C  
BRANCH  27  28
HETATM   28  C   UNL     1      -9.736   6.660  69.844  1.00  0.00    -0.157 A  
HETATM   29  N   UNL     1      -8.721   6.595  70.795  1.00  0.00    -0.142 NA 
HETATM   30  N   UNL     1      -7.683   5.065  72.202  1.00  0.00    -0.096 NA 
HETATM   31  C   UNL     1     -10.400   5.458  69.665  1.00  0.00    -0.291 A  
HETATM   32  S   UNL     1      -9.730   4.247  70.672  1.00  0.00    -0.197 SA 
HETATM   33  H1  UNL     1      -7.014   5.743  72.566  1.00  0.00     0.000 HD 
HETATM   34  H2  UNL     1      -7.650   4.106  72.549  1.00  0.00     0.000 HD 
HETATM   35  C   UNL     1      -8.603   5.389  71.285  1.00  0.00    -0.126 A  
ENDBRANCH  27  28
BRANCH  27  36
HETATM   36  N   UNL     1     -11.280   8.334  69.344  1.00  0.00    -0.425 NA 
HETATM   37  H   UNL     1     -12.097   7.770  69.110  1.00  0.00     0.000 HD 
BRANCH  36  38
HETATM   38  O   UNL     1     -11.375   9.614  69.888  1.00  0.00    -0.230 OA 
HETATM   39  C   UNL     1     -11.103   9.510  71.284  1.00  0.00    -0.379 C  
ENDBRANCH  36  38
ENDBRANCH  27  36
ENDBRANCH  24  27
ENDBRANCH   5  23
TORSDOF 7
ENDMDL
MODEL      100
REMARK 921   NORMALIZED FREE ENERGY PREDICTED BY IDOCK:   -5.61 KCAL/MOL
REMARK 922        TOTAL FREE ENERGY PREDICTED BY IDOCK:   -9.12 KCAL/MOL
REMARK 923 INTER-LIGAND FREE ENERGY PREDICTED BY IDOCK:   -7.72 KCAL/MOL
REMARK 924 INTRA-LIGAND FREE ENERGY PREDICTED BY IDOCK:   -1.40 KCAL/MOL
REMARK 927      BINDING AFFINITY PREDICTED BY RF-SCORE:    0.00 PKD
ROOT
HETATM    1  C   UNL     1     -10.697   9.016  69.116  1.00  0.00    -0.157 C  
HETATM    2  S   UNL     1     -10.550   9.039  67.302  1.00  0.00    -0.160 SA 
HETATM    3  C   UNL     1     -10.354   7.275  67.132  1.00  0.00    -0.297 C  
HETATM    4  C   UNL     1      -9.306   6.656  68.017  1.00  0.00    -0.113 C  
HETATM    5  CA  UNL     1     -10.198  10.309  69.837  1.00  0.00    -0.202 C  
HETATM    6  CA  UNL     1      -9.001   7.149  69.248  1.00  0.00    -0.138 C  
HETATM    7  C   UNL     1      -8.094   6.325  70.248  1.00  0.00    -0.116 C  
HETATM    8  O   UNL     1      -7.971   9.590  70.892  1.00  0.00    -0.297 OA 
HETATM    9  N   UNL     1      -9.570   8.320  69.699  1.00  0.00    -0.167 N  
HETATM   10  OXT UNL     1      -7.253   5.555  69.677  1.00  0.00    -0.061 OA 
HETATM   11  O   UNL     1      -8.442   6.377  71.456  1.00  0.00    -0.128 OA 
HETATM   12  C   UNL     1      -9.040   9.382  70.359  1.00  0.00    -0.256 C  
ENDROOT
BRANCH   4  13
HETATM   13  C   UNL     1      -8.838   5.319  67.474  1.00  0.00    -0.105 C  
BRANCH  13  14
HETATM   14  N   UNL     1      -8.617   5.164  65.996  1.00  0.00    -0.120 NA 
HETATM   15  C   UNL     1      -7.731   5.861  65.241  1.00  0.00    -0.095 A  
HETATM   16  C   UNL     1      -6.713   6.883  65.661  1.00  0.00    -0.052 C  
HETATM   17  C   UNL     1      -6.050   7.332  64.342  1.00  0.00    -0.037 C  
HETATM   18  C   UNL     1      -9.491   4.331  65.355  1.00  0.00    -0.177 A  
HETATM   19  C   UNL     1      -6.639   6.522  63.189  1.00  0.00    -0.038 C  
HETATM   20  C   UNL     1      -9.504   4.191  63.969  1.00  0.00    -0.152 A  
HETATM   21  C   UNL     1      -8.598   4.887  63.193  1.00  0.00    -0.116 A  
HETATM   22  C   UNL     1      -7.711   5.718  63.846  1.00  0.00    -0.094 A  
ENDBRANCH  13  14
ENDBRANCH   4  13
BRANCH   5  23
HETATM   23  N   UNL     1      -9.710  11.417  68.968  1.00  0.00    -0.408 N  
HETATM   24  C   UNL     1     -10.470  12.499  68.554  1.00  0.00    -0.231 C  
HETATM   25  O   UNL     1     -11.568  12.755  69.021  1.00  0.00    -0.276 OA 
HETATM   26  H   UNL     1      -8.741  11.374  68.653  1.00  0.00     0.000 HD 
BRANCH  24  27
HETATM   27  C   UNL     1      -9.809  13.357  67.432  1.00  0.00    -0.227 C  
BRANCH  27  28
HETATM   28  C   UNL     1     -10.554  13.648  66.200  1.00  0.00    -0.291 A  
HETATM   29  N   UNL     1     -10.759  14.957  65.774  1.00  0.00    -0.314 NA 
HETATM   30  N   UNL     1     -11.780  16.141  64.055  1.00  0.00    -1.351 NA 
HETATM   31  C   UNL     1     -11.078  12.701  65.337  1.00  0.00    -0.292 A  
HETATM   32  S   UNL     1     -11.846  13.459  64.008  1.00  0.00    -0.437 SA 
HETATM   33  H1  UNL     1     -11.537  17.053  64.441  1.00  0.00     0.000 HD 
HETATM   34  H2  UNL     1     -12.303  16.100  63.180  1.00  0.00     0.000 HD 
HETATM   35  C   UNL     1     -11.437  14.996  64.658  1.00  0.00    -0.381 A  
ENDBRANCH  27  28
BRANCH  27  36
HETATM   36  N   UNL     1      -8.627  13.906  67.487  1.00  0.00    -0.181 NA 
HETATM   37  H   UNL     1      -8.406  14.792  67.034  1.00  0.00     0.000 HD 
BRANCH  36  38
HETATM   38  O   UNL     1      -7.691  13.176  68.220  1.00  0.00    -0.125 OA 
HETATM   39  C   UNL     1      -6.897  12.440  67.290  1.00  0.00    -0.127 C  
ENDBRANCH  36  38
ENDBRANCH  27  36
ENDBRANCH  24  27
ENDBRANCH   5  23
TORSDOF 7
ENDMDL
MODEL      101
REMARK 921   NORMALIZED FREE ENERGY PREDICTED BY IDOCK:   -5.60 KCAL/MOL
REMARK 922        TOTAL FREE ENERGY PREDICTED BY IDOCK:   -9.10 KCAL/MOL
REMARK 923 INTER-LIGAND FREE ENERGY PREDICTED BY IDOCK:   -7.87 KCAL/MOL
REMARK 924 INTRA-LIGAND FREE ENERGY PREDICTED BY IDOCK:   -1.23 KCAL/MOL
REMARK 927      BINDING AFFINITY PREDICTED BY RF-SCORE:    0.00 PKD
ROOT
HETATM    1  C   UNL     1      -7.046  10.977  67.723  1.00  0.00    -0.086 C  
HETATM    2  S   UNL     1      -7.447  11.137  69.491  1.00  0.00     0.119 SA 
HETATM    3  C   UNL     1      -7.805   9.407  69.734  1.00  0.00    -0.115 C  
HETATM    4  C   UNL     1      -8.763   8.804  68.743  1.00  0.00    -0.137 C  
HETATM    5  CA  UNL     1      -7.333  12.248  66.861  1.00  0.00     0.033 C  
HETATM    6  CA  UNL     1      -8.850   9.229  67.454  1.00  0.00    -0.117 C  
HETATM    7  C   UNL     1      -9.668   8.403  66.382  1.00  0.00    -0.242 C  
HETATM    8  O   UNL     1      -9.437  11.616  65.535  1.00  0.00    -0.229 OA 
HETATM    9  N   UNL     1      -8.131  10.323  67.023  1.00  0.00    -0.120 N  
HETATM   10  OXT UNL     1     -10.641   7.736  66.867  1.00  0.00    -0.343 OA 
HETATM   11  O   UNL     1      -9.149   8.345  65.236  1.00  0.00    -0.080 OA 
HETATM   12  C   UNL     1      -8.475  11.370  66.230  1.00  0.00    -0.138 C  
ENDROOT
BRANCH   4  13
HETATM   13  C   UNL     1      -9.409   7.544  69.289  1.00  0.00    -0.151 C  
BRANCH  13  14
HETATM   14  N   UNL     1     -10.429   7.659  70.385  1.00  0.00    -0.216 NA 
HETATM   15  C   UNL     1     -11.230   8.729  70.625  1.00  0.00    -0.257 A  
HETATM   16  C   UNL     1     -11.371  10.009  69.852  1.00  0.00    -0.306 C  
HETATM   17  C   UNL     1     -12.405  10.831  70.652  1.00  0.00    -0.465 C  
HETATM   18  C   UNL     1     -10.443   6.632  71.287  1.00  0.00    -0.215 A  
HETATM   19  C   UNL     1     -12.898   9.995  71.831  1.00  0.00    -0.524 C  
HETATM   20  C   UNL     1     -11.234   6.660  72.434  1.00  0.00    -0.302 A  
HETATM   21  C   UNL     1     -12.061   7.739  72.679  1.00  0.00    -0.191 A  
HETATM   22  C   UNL     1     -12.053   8.767  71.760  1.00  0.00    -0.418 A  
ENDBRANCH  13  14
ENDBRANCH   4  13
BRANCH   5  23
HETATM   23  N   UNL     1      -7.849  13.446  67.583  1.00  0.00    -0.159 N  
HETATM   24  C   UNL     1      -7.116  14.588  67.858  1.00  0.00    -0.157 C  
HETATM   25  O   UNL     1      -6.021  14.808  67.364  1.00  0.00    -0.339 OA 
HETATM   26  H   UNL     1      -8.818  13.421  67.898  1.00  0.00     0.000 HD 
BRANCH  24  27
HETATM   27  C   UNL     1      -7.801  15.566  68.861  1.00  0.00    -0.182 C  
BRANCH  27  28
HETATM   28  C   UNL     1      -7.468  16.997  68.829  1.00  0.00    -0.242 A  
HETATM   29  N   UNL     1      -6.277  17.471  69.370  1.00  0.00    -0.241 NA 
HETATM   30  N   UNL     1      -5.126  19.465  69.691  1.00  0.00    -0.185 NA 
HETATM   31  C   UNL     1      -8.241  17.987  68.246  1.00  0.00    -0.292 A  
HETATM   32  S   UNL     1      -7.480  19.512  68.404  1.00  0.00    -0.332 SA 
HETATM   33  H1  UNL     1      -4.350  19.022  70.183  1.00  0.00     0.000 HD 
HETATM   34  H2  UNL     1      -5.104  20.474  69.543  1.00  0.00     0.000 HD 
HETATM   35  C   UNL     1      -6.173  18.767  69.233  1.00  0.00    -0.265 A  
ENDBRANCH  27  28
BRANCH  27  36
HETATM   36  N   UNL     1      -8.710  15.245  69.738  1.00  0.00    -0.398 NA 
HETATM   37  H   UNL     1      -8.505  15.123  70.730  1.00  0.00     0.000 HD 
BRANCH  36  38
HETATM   38  O   UNL     1      -9.989  15.084  69.204  1.00  0.00    -0.228 OA 
HETATM   39  C   UNL     1     -10.883  15.875  69.985  1.00  0.00    -0.353 C  
ENDBRANCH  36  38
ENDBRANCH  27  36
ENDBRANCH  24  27
ENDBRANCH   5  23
TORSDOF 7
ENDMDL
MODEL      102
REMARK 921   NORMALIZED FREE ENERGY PREDICTED BY IDOCK:   -5.59 KCAL/MOL
REMARK 922        TOTAL FREE ENERGY PREDICTED BY IDOCK:   -9.09 KCAL/MOL
REMARK 923 INTER-LIGAND FREE ENERGY PREDICTED BY IDOCK:   -8.09 KCAL/MOL
REMARK 924 INTRA-LIGAND FREE ENERGY PREDICTED BY IDOCK:   -1.00 KCAL/MOL
REMARK 927      BINDING AFFINITY PREDICTED BY RF-SCORE:    0.00 PKD
ROOT
HETATM    1  C   UNL     1     -10.079  13.307  68.686  1.00  0.00    -0.146 C  
HETATM    2  S   UNL     1      -8.306  13.637  68.432  1.00  0.00    -0.118 SA 
HETATM    3  C   UNL     1      -8.547  15.225  67.656  1.00  0.00    -0.169 C  
HETATM    4  C   UNL     1      -9.540  15.245  66.526  1.00  0.00    -0.294 C  
HETATM    5  CA  UNL     1     -10.476  11.796  68.689  1.00  0.00    -0.222 C  
HETATM    6  CA  UNL     1     -10.621  14.419  66.484  1.00  0.00    -0.296 C  
HETATM    7  C   UNL     1     -11.775  14.649  65.427  1.00  0.00    -0.330 C  
HETATM    8  O   UNL     1     -11.646  11.475  66.428  1.00  0.00    -0.412 OA 
HETATM    9  N   UNL     1     -10.795  13.438  67.435  1.00  0.00    -0.265 N  
HETATM   10  OXT UNL     1     -11.389  15.199  64.343  1.00  0.00    -0.304 OA 
HETATM   11  O   UNL     1     -12.942  14.451  65.854  1.00  0.00    -0.304 OA 
HETATM   12  C   UNL     1     -11.187  12.142  67.330  1.00  0.00    -0.302 C  
ENDROOT
BRANCH   4  13
HETATM   13  C   UNL     1      -9.316  16.432  65.608  1.00  0.00     0.041 C  
BRANCH  13  14
HETATM   14  N   UNL     1      -9.371  17.820  66.180  1.00  0.00    -0.496 NA 
HETATM   15  C   UNL     1      -8.327  18.678  66.303  1.00  0.00    -0.230 A  
HETATM   16  C   UNL     1      -6.902  18.520  65.853  1.00  0.00    -0.318 C  
HETATM   17  C   UNL     1      -6.205  19.817  66.318  1.00  0.00    -0.190 C  
HETATM   18  C   UNL     1     -10.566  18.180  66.738  1.00  0.00    -0.291 A  
HETATM   19  C   UNL     1      -7.241  20.733  66.965  1.00  0.00    -0.369 C  
HETATM   20  C   UNL     1     -10.733  19.378  67.430  1.00  0.00    -0.594 A  
HETATM   21  C   UNL     1      -9.679  20.263  67.549  1.00  0.00    -0.575 A  
HETATM   22  C   UNL     1      -8.479  19.901  66.974  1.00  0.00    -0.380 A  
ENDBRANCH  13  14
ENDBRANCH   4  13
BRANCH   5  23
HETATM   23  N   UNL     1      -9.369  10.810  68.535  1.00  0.00    -0.167 N  
HETATM   24  C   UNL     1      -9.519   9.508  68.088  1.00  0.00    -0.133 C  
HETATM   25  O   UNL     1     -10.553   9.092  67.589  1.00  0.00    -0.258 OA 
HETATM   26  H   UNL     1      -8.428  11.120  68.777  1.00  0.00     0.000 HD 
BRANCH  24  27
HETATM   27  C   UNL     1      -8.258   8.611  68.286  1.00  0.00    -0.122 C  
BRANCH  27  28
HETATM   28  C   UNL     1      -7.709   7.861  67.148  1.00  0.00    -0.101 A  
HETATM   29  N   UNL     1      -8.430   6.832  66.550  1.00  0.00    -0.119 NA 
HETATM   30  N   UNL     1      -8.241   5.278  64.831  1.00  0.00    -0.129 NA 
HETATM   31  C   UNL     1      -6.490   8.105  66.540  1.00  0.00    -0.055 A  
HETATM   32  S   UNL     1      -6.244   7.025  65.235  1.00  0.00    -0.037 SA 
HETATM   33  H1  UNL     1      -9.146   4.849  65.022  1.00  0.00     0.000 HD 
HETATM   34  H2  UNL     1      -7.676   4.917  64.063  1.00  0.00     0.000 HD 
HETATM   35  C   UNL     1      -7.768   6.301  65.555  1.00  0.00    -0.095 A  
ENDBRANCH  27  28
BRANCH  27  36
HETATM   36  N   UNL     1      -7.580   8.481  69.392  1.00  0.00    -0.088 NA 
HETATM   37  H   UNL     1      -6.570   8.341  69.410  1.00  0.00     0.000 HD 
BRANCH  36  38
HETATM   38  O   UNL     1      -8.356   8.551  70.549  1.00  0.00    -0.118 OA 
HETATM   39  C   UNL     1      -8.097   7.373  71.312  1.00  0.00    -0.100 C  
ENDBRANCH  36  38
ENDBRANCH  27  36
ENDBRANCH  24  27
ENDBRANCH   5  23
TORSDOF 7
ENDMDL
MODEL      103
REMARK 921   NORMALIZED FREE ENERGY PREDICTED BY IDOCK:   -5.58 KCAL/MOL
REMARK 922        TOTAL FREE ENERGY PREDICTED BY IDOCK:   -9.07 KCAL/MOL
REMARK 923 INTER-LIGAND FREE ENERGY PREDICTED BY IDOCK:   -7.94 KCAL/MOL
REMARK 924 INTRA-LIGAND FREE ENERGY PREDICTED BY IDOCK:   -1.13 KCAL/MOL
REMARK 927      BINDING AFFINITY PREDICTED BY RF-SCORE:    0.00 PKD
ROOT
HETATM    1  C   UNL     1      -9.036  11.625  65.958  1.00  0.00    -0.147 C  
HETATM    2  S   UNL     1     -10.418  10.697  66.695  1.00  0.00    -0.215 SA 
HETATM    3  C   UNL     1     -11.385  12.140  67.099  1.00  0.00    -0.331 C  
HETATM    4  C   UNL     1     -10.649  13.218  67.847  1.00  0.00    -0.246 C  
HETATM    5  CA  UNL     1      -7.640  10.930  66.069  1.00  0.00    -0.094 C  
HETATM    6  CA  UNL     1      -9.319  13.450  67.680  1.00  0.00    -0.217 C  
HETATM    7  C   UNL     1      -8.643  14.750  68.276  1.00  0.00    -0.164 C  
HETATM    8  O   UNL     1      -6.431  12.293  67.877  1.00  0.00    -0.069 OA 
HETATM    9  N   UNL     1      -8.553  12.623  66.889  1.00  0.00    -0.184 N  
HETATM   10  OXT UNL     1      -9.210  15.199  69.327  1.00  0.00    -0.220 OA 
HETATM   11  O   UNL     1      -7.770  15.286  67.545  1.00  0.00    -0.143 OA 
HETATM   12  C   UNL     1      -7.313  12.099  67.068  1.00  0.00    -0.072 C  
ENDROOT
BRANCH   4  13
HETATM   13  C   UNL     1     -11.606  14.132  68.590  1.00  0.00    -0.317 C  
BRANCH  13  14
HETATM   14  N   UNL     1     -12.194  13.673  69.894  1.00  0.00    -0.322 NA 
HETATM   15  C   UNL     1     -12.431  14.448  70.983  1.00  0.00    -0.355 A  
HETATM   16  C   UNL     1     -12.252  15.929  71.159  1.00  0.00    -0.447 C  
HETATM   17  C   UNL     1     -12.653  16.194  72.626  1.00  0.00    -0.499 C  
HETATM   18  C   UNL     1     -12.379  12.324  70.014  1.00  0.00    -0.089 A  
HETATM   19  C   UNL     1     -13.121  14.885  73.258  1.00  0.00    -0.585 C  
HETATM   20  C   UNL     1     -12.785  11.732  71.208  1.00  0.00    -0.420 A  
HETATM   21  C   UNL     1     -13.040  12.514  72.318  1.00  0.00    -0.335 A  
HETATM   22  C   UNL     1     -12.863  13.876  72.188  1.00  0.00    -0.392 A  
ENDBRANCH  13  14
ENDBRANCH   4  13
BRANCH   5  23
HETATM   23  N   UNL     1      -7.607   9.587  66.712  1.00  0.00    -0.097 N  
HETATM   24  C   UNL     1      -7.430   8.387  66.043  1.00  0.00    -0.084 C  
HETATM   25  O   UNL     1      -7.087   8.324  64.873  1.00  0.00    -0.076 OA 
HETATM   26  H   UNL     1      -7.725   9.548  67.724  1.00  0.00     0.000 HD 
BRANCH  24  27
HETATM   27  C   UNL     1      -7.715   7.120  66.907  1.00  0.00    -0.106 C  
BRANCH  27  28
HETATM   28  C   UNL     1      -8.275   5.917  66.277  1.00  0.00    -0.114 A  
HETATM   29  N   UNL     1      -9.642   5.796  66.043  1.00  0.00    -0.102 NA 
HETATM   30  N   UNL     1     -11.180   4.294  65.161  1.00  0.00    -0.975 NA 
HETATM   31  C   UNL     1      -7.541   4.834  65.824  1.00  0.00    -0.086 A  
HETATM   32  S   UNL     1      -8.574   3.658  65.129  1.00  0.00    -0.116 SA 
HETATM   33  H1  UNL     1     -11.985   4.887  65.364  1.00  0.00     0.000 HD 
HETATM   34  H2  UNL     1     -11.334   3.394  64.707  1.00  0.00     0.000 HD 
HETATM   35  C   UNL     1      -9.929   4.657  65.471  1.00  0.00    -0.183 A  
ENDBRANCH  27  28
BRANCH  27  36
HETATM   36  N   UNL     1      -7.461   6.992  68.180  1.00  0.00    -0.097 NA 
HETATM   37  H   UNL     1      -8.119   6.574  68.837  1.00  0.00     0.000 HD 
BRANCH  36  38
HETATM   38  O   UNL     1      -6.211   7.475  68.565  1.00  0.00    -0.030 OA 
HETATM   39  C   UNL     1      -5.246   6.473  68.246  1.00  0.00    -0.008 C  
ENDBRANCH  36  38
ENDBRANCH  27  36
ENDBRANCH  24  27
ENDBRANCH   5  23
TORSDOF 7
ENDMDL
MODEL      104
REMARK 921   NORMALIZED FREE ENERGY PREDICTED BY IDOCK:   -5.56 KCAL/MOL
REMARK 922        TOTAL FREE ENERGY PREDICTED BY IDOCK:   -9.04 KCAL/MOL
REMARK 923 INTER-LIGAND FREE ENERGY PREDICTED BY IDOCK:   -9.58 KCAL/MOL
REMARK 924 INTRA-LIGAND FREE ENERGY PREDICTED BY IDOCK:    0.54 KCAL/MOL
REMARK 927      BINDING AFFINITY PREDICTED BY RF-SCORE:    0.00 PKD
ROOT
HETATM    1  C   UNL     1      -8.947  12.318  68.454  1.00  0.00    -0.141 C  
HETATM    2  S   UNL     1      -8.017  13.411  67.334  1.00  0.00    -0.133 SA 
HETATM    3  C   UNL     1      -8.191  14.868  68.347  1.00  0.00    -0.151 C  
HETATM    4  C   UNL     1      -9.595  15.178  68.792  1.00  0.00    -0.219 C  
HETATM    5  CA  UNL     1      -9.688  11.132  67.757  1.00  0.00    -0.171 C  
HETATM    6  CA  UNL     1     -10.523  14.210  69.020  1.00  0.00    -0.183 C  
HETATM    7  C   UNL     1     -11.891  14.552  69.736  1.00  0.00    -0.315 C  
HETATM    8  O   UNL     1     -12.155  11.837  67.826  1.00  0.00    -0.595 OA 
HETATM    9  N   UNL     1     -10.246  12.889  68.742  1.00  0.00    -0.152 N  
HETATM   10  OXT UNL     1     -12.295  15.747  69.547  1.00  0.00    -0.281 OA 
HETATM   11  O   UNL     1     -12.303  13.686  70.551  1.00  0.00    -0.337 OA 
HETATM   12  C   UNL     1     -10.990  11.918  68.155  1.00  0.00    -0.227 C  
ENDROOT
BRANCH   4  13
HETATM   13  C   UNL     1      -9.747  16.638  69.176  1.00  0.00    -0.226 C  
BRANCH  13  14
HETATM   14  N   UNL     1      -9.538  17.697  68.132  1.00  0.00    -0.285 NA 
HETATM   15  C   UNL     1      -8.486  18.552  68.057  1.00  0.00    -0.283 A  
HETATM   16  C   UNL     1      -7.253  18.627  68.912  1.00  0.00    -0.311 C  
HETATM   17  C   UNL     1      -6.466  19.830  68.349  1.00  0.00    -0.304 C  
HETATM   18  C   UNL     1     -10.578  17.882  67.264  1.00  0.00    -0.332 A  
HETATM   19  C   UNL     1      -7.213  20.390  67.140  1.00  0.00    -0.347 C  
HETATM   20  C   UNL     1     -10.592  18.916  66.330  1.00  0.00    -0.460 A  
HETATM   21  C   UNL     1      -9.521  19.783  66.239  1.00  0.00    -0.493 A  
HETATM   22  C   UNL     1      -8.469  19.585  67.109  1.00  0.00    -0.329 A  
ENDBRANCH  13  14
ENDBRANCH   4  13
BRANCH   5  23
HETATM   23  N   UNL     1      -9.511  11.004  66.283  1.00  0.00    -0.187 N  
HETATM   24  C   UNL     1      -9.932  11.932  65.346  1.00  0.00    -0.252 C  
HETATM   25  O   UNL     1     -10.322  13.049  65.648  1.00  0.00    -0.277 OA 
HETATM   26  H   UNL     1      -9.044  10.166  65.938  1.00  0.00     0.000 HD 
BRANCH  24  27
HETATM   27  C   UNL     1      -9.877  11.428  63.871  1.00  0.00    -0.300 C  
BRANCH  27  28
HETATM   28  C   UNL     1      -8.878  10.425  63.478  1.00  0.00    -0.212 A  
HETATM   29  N   UNL     1      -7.667  10.312  64.155  1.00  0.00    -0.132 NA 
HETATM   30  N   UNL     1      -5.706   9.066  64.119  1.00  0.00    -0.068 NA 
HETATM   31  C   UNL     1      -9.032   9.492  62.468  1.00  0.00    -0.256 A  
HETATM   32  S   UNL     1      -7.646   8.494  62.356  1.00  0.00    -0.115 SA 
HETATM   33  H1  UNL     1      -5.279   9.579  64.890  1.00  0.00     0.000 HD 
HETATM   34  H2  UNL     1      -5.185   8.303  63.687  1.00  0.00     0.000 HD 
HETATM   35  C   UNL     1      -6.927   9.359  63.654  1.00  0.00    -0.095 A  
ENDBRANCH  27  28
BRANCH  27  36
HETATM   36  N   UNL     1     -10.687  11.784  62.913  1.00  0.00    -0.634 NA 
HETATM   37  H   UNL     1     -10.365  12.012  61.972  1.00  0.00     0.000 HD 
BRANCH  36  38
HETATM   38  O   UNL     1     -12.030  11.825  63.285  1.00  0.00    -0.422 OA 
HETATM   39  C   UNL     1     -12.400  13.198  63.406  1.00  0.00    -0.362 C  
ENDBRANCH  36  38
ENDBRANCH  27  36
ENDBRANCH  24  27
ENDBRANCH   5  23
TORSDOF 7
ENDMDL
MODEL      105
REMARK 921   NORMALIZED FREE ENERGY PREDICTED BY IDOCK:   -5.53 KCAL/MOL
REMARK 922        TOTAL FREE ENERGY PREDICTED BY IDOCK:   -9.00 KCAL/MOL
REMARK 923 INTER-LIGAND FREE ENERGY PREDICTED BY IDOCK:   -7.86 KCAL/MOL
REMARK 924 INTRA-LIGAND FREE ENERGY PREDICTED BY IDOCK:   -1.13 KCAL/MOL
REMARK 927      BINDING AFFINITY PREDICTED BY RF-SCORE:    0.00 PKD
ROOT
HETATM    1  C   UNL     1     -10.901   8.566  67.896  1.00  0.00     0.024 C  
HETATM    2  S   UNL     1     -10.736   9.732  69.285  1.00  0.00    -0.221 SA 
HETATM    3  C   UNL     1     -10.406  11.155  68.263  1.00  0.00    -0.180 C  
HETATM    4  C   UNL     1      -9.325  10.972  67.233  1.00  0.00    -0.167 C  
HETATM    5  CA  UNL     1     -10.508   7.089  68.222  1.00  0.00    -0.202 C  
HETATM    6  CA  UNL     1      -9.072   9.773  66.641  1.00  0.00    -0.147 C  
HETATM    7  C   UNL     1      -8.118   9.677  65.383  1.00  0.00    -0.127 C  
HETATM    8  O   UNL     1      -8.246   6.794  67.046  1.00  0.00    -0.111 OA 
HETATM    9  N   UNL     1      -9.732   8.633  67.046  1.00  0.00    -0.182 N  
HETATM   10  OXT UNL     1      -7.214  10.576  65.342  1.00  0.00    -0.138 OA 
HETATM   11  O   UNL     1      -8.482   8.866  64.492  1.00  0.00    -0.170 OA 
HETATM   12  C   UNL     1      -9.291   7.368  67.267  1.00  0.00    -0.133 C  
ENDROOT
BRANCH   4  13
HETATM   13  C   UNL     1      -8.752  12.302  66.784  1.00  0.00    -0.175 C  
BRANCH  13  14
HETATM   14  N   UNL     1      -9.664  13.321  66.162  1.00  0.00    -0.275 NA 
HETATM   15  C   UNL     1     -10.607  13.081  65.216  1.00  0.00    -0.304 A  
HETATM   16  C   UNL     1     -11.038  11.777  64.606  1.00  0.00    -0.363 C  
HETATM   17  C   UNL     1     -12.112  12.172  63.570  1.00  0.00    -0.649 C  
HETATM   18  C   UNL     1      -9.415  14.621  66.504  1.00  0.00    -0.297 A  
HETATM   19  C   UNL     1     -12.338  13.681  63.640  1.00  0.00    -0.328 C  
HETATM   20  C   UNL     1     -10.082  15.688  65.905  1.00  0.00    -0.378 A  
HETATM   21  C   UNL     1     -11.052  15.452  64.951  1.00  0.00    -0.435 A  
HETATM   22  C   UNL     1     -11.308  14.138  64.618  1.00  0.00    -0.374 A  
ENDBRANCH  13  14
ENDBRANCH   4  13
BRANCH   5  23
HETATM   23  N   UNL     1     -10.095   6.798  69.623  1.00  0.00    -0.179 N  
HETATM   24  C   UNL     1     -10.961   6.530  70.671  1.00  0.00    -0.287 C  
HETATM   25  O   UNL     1     -12.152   6.316  70.508  1.00  0.00    -0.186 OA 
HETATM   26  H   UNL     1      -9.096   6.795  69.827  1.00  0.00     0.000 HD 
BRANCH  24  27
HETATM   27  C   UNL     1     -10.290   6.538  72.079  1.00  0.00    -0.199 C  
BRANCH  27  28
HETATM   28  C   UNL     1      -8.838   6.725  72.194  1.00  0.00    -0.133 A  
HETATM   29  N   UNL     1      -8.286   7.992  72.368  1.00  0.00    -0.138 NA 
HETATM   30  N   UNL     1      -6.218   9.026  72.603  1.00  0.00    -0.274 NA 
HETATM   31  C   UNL     1      -7.896   5.711  72.189  1.00  0.00    -0.103 A  
HETATM   32  S   UNL     1      -6.320   6.354  72.376  1.00  0.00    -0.055 SA 
HETATM   33  H1  UNL     1      -6.613   9.966  72.649  1.00  0.00     0.000 HD 
HETATM   34  H2  UNL     1      -5.207   8.912  72.672  1.00  0.00     0.000 HD 
HETATM   35  C   UNL     1      -6.984   7.937  72.454  1.00  0.00    -0.075 A  
ENDBRANCH  27  28
BRANCH  27  36
HETATM   36  N   UNL     1     -10.911   6.434  73.220  1.00  0.00    -0.427 NA 
HETATM   37  H   UNL     1     -10.933   7.186  73.910  1.00  0.00     0.000 HD 
BRANCH  36  38
HETATM   38  O   UNL     1     -11.543   5.207  73.418  1.00  0.00    -0.256 OA 
HETATM   39  C   UNL     1     -10.714   4.432  74.283  1.00  0.00    -0.220 C  
ENDBRANCH  36  38
ENDBRANCH  27  36
ENDBRANCH  24  27
ENDBRANCH   5  23
TORSDOF 7
ENDMDL
MODEL      106
REMARK 921   NORMALIZED FREE ENERGY PREDICTED BY IDOCK:   -5.51 KCAL/MOL
REMARK 922        TOTAL FREE ENERGY PREDICTED BY IDOCK:   -8.98 KCAL/MOL
REMARK 923 INTER-LIGAND FREE ENERGY PREDICTED BY IDOCK:   -8.66 KCAL/MOL
REMARK 924 INTRA-LIGAND FREE ENERGY PREDICTED BY IDOCK:   -0.32 KCAL/MOL
REMARK 927      BINDING AFFINITY PREDICTED BY RF-SCORE:    0.00 PKD
ROOT
HETATM    1  C   UNL     1      -9.170  10.447  69.272  1.00  0.00    -0.184 C  
HETATM    2  S   UNL     1      -8.640   9.414  67.869  1.00  0.00    -0.119 SA 
HETATM    3  C   UNL     1      -8.757  10.715  66.656  1.00  0.00    -0.140 C  
HETATM    4  C   UNL     1     -10.055  11.475  66.650  1.00  0.00    -0.242 C  
HETATM    5  CA  UNL     1      -9.901   9.679  70.419  1.00  0.00    -0.256 C  
HETATM    6  CA  UNL     1     -10.792  11.677  67.777  1.00  0.00    -0.217 C  
HETATM    7  C   UNL     1     -12.001  12.697  67.782  1.00  0.00    -0.243 C  
HETATM    8  O   UNL     1     -12.358  10.364  70.131  1.00  0.00    -0.273 OA 
HETATM    9  N   UNL     1     -10.431  11.089  68.970  1.00  0.00    -0.212 N  
HETATM   10  OXT UNL     1     -12.573  12.836  66.650  1.00  0.00    -0.230 OA 
HETATM   11  O   UNL     1     -12.121  13.383  68.830  1.00  0.00    -0.337 OA 
HETATM   12  C   UNL     1     -11.168  10.471  69.928  1.00  0.00    -0.307 C  
ENDROOT
BRANCH   4  13
HETATM   13  C   UNL     1     -10.289  12.170  65.322  1.00  0.00    -0.277 C  
BRANCH  13  14
HETATM   14  N   UNL     1     -10.255  13.670  65.264  1.00  0.00    -0.332 NA 
HETATM   15  C   UNL     1      -9.466  14.484  66.010  1.00  0.00    -0.229 A  
HETATM   16  C   UNL     1      -8.398  14.128  67.005  1.00  0.00    -0.142 C  
HETATM   17  C   UNL     1      -7.900  15.488  67.540  1.00  0.00    -0.191 C  
HETATM   18  C   UNL     1     -11.206  14.250  64.471  1.00  0.00    -0.322 A  
HETATM   19  C   UNL     1      -8.632  16.609  66.804  1.00  0.00    -0.268 C  
HETATM   20  C   UNL     1     -11.392  15.630  64.421  1.00  0.00    -0.272 A  
HETATM   21  C   UNL     1     -10.585  16.466  65.169  1.00  0.00    -0.287 A  
HETATM   22  C   UNL     1      -9.619  15.877  65.957  1.00  0.00    -0.385 A  
ENDBRANCH  13  14
ENDBRANCH   4  13
BRANCH   5  23
HETATM   23  N   UNL     1     -10.038   8.204  70.260  1.00  0.00    -0.190 N  
HETATM   24  C   UNL     1     -10.710   7.367  71.135  1.00  0.00    -0.231 C  
HETATM   25  O   UNL     1     -11.428   7.782  72.032  1.00  0.00    -0.262 OA 
HETATM   26  H   UNL     1      -9.602   7.778  69.443  1.00  0.00     0.000 HD 
BRANCH  24  27
HETATM   27  C   UNL     1     -10.464   5.847  70.888  1.00  0.00    -0.244 C  
BRANCH  27  28
HETATM   28  C   UNL     1     -10.208   5.361  69.525  1.00  0.00    -0.266 A  
HETATM   29  N   UNL     1     -10.913   5.865  68.436  1.00  0.00    -0.251 NA 
HETATM   30  N   UNL     1     -11.072   5.607  66.132  1.00  0.00    -0.756 NA 
HETATM   31  C   UNL     1      -9.253   4.422  69.175  1.00  0.00    -0.140 A  
HETATM   32  S   UNL     1      -9.262   4.159  67.483  1.00  0.00    -0.170 SA 
HETATM   33  H1  UNL     1     -11.825   6.288  66.035  1.00  0.00     0.000 HD 
HETATM   34  H2  UNL     1     -10.720   5.139  65.297  1.00  0.00     0.000 HD 
HETATM   35  C   UNL     1     -10.530   5.306  67.319  1.00  0.00    -0.173 A  
ENDBRANCH  27  28
BRANCH  27  36
HETATM   36  N   UNL     1     -10.416   4.922  71.806  1.00  0.00    -0.180 NA 
HETATM   37  H   UNL     1     -10.930   4.044  71.735  1.00  0.00     0.000 HD 
BRANCH  36  38
HETATM   38  O   UNL     1      -9.602   5.238  72.893  1.00  0.00    -0.143 OA 
HETATM   39  C   UNL     1     -10.073   4.491  74.014  1.00  0.00    -0.185 C  
ENDBRANCH  36  38
ENDBRANCH  27  36
ENDBRANCH  24  27
ENDBRANCH   5  23
TORSDOF 7
ENDMDL
MODEL      107
REMARK 921   NORMALIZED FREE ENERGY PREDICTED BY IDOCK:   -5.51 KCAL/MOL
REMARK 922        TOTAL FREE ENERGY PREDICTED BY IDOCK:   -8.97 KCAL/MOL
REMARK 923 INTER-LIGAND FREE ENERGY PREDICTED BY IDOCK:   -8.04 KCAL/MOL
REMARK 924 INTRA-LIGAND FREE ENERGY PREDICTED BY IDOCK:   -0.93 KCAL/MOL
REMARK 927      BINDING AFFINITY PREDICTED BY RF-SCORE:    0.00 PKD
ROOT
HETATM    1  C   UNL     1      -8.955  10.062  68.243  1.00  0.00    -0.119 C  
HETATM    2  S   UNL     1     -10.304  10.187  69.459  1.00  0.00    -0.254 SA 
HETATM    3  C   UNL     1     -10.263   8.466  69.924  1.00  0.00    -0.201 C  
HETATM    4  C   UNL     1     -10.299   7.490  68.780  1.00  0.00    -0.212 C  
HETATM    5  CA  UNL     1      -9.035  11.081  67.061  1.00  0.00    -0.148 C  
HETATM    6  CA  UNL     1      -9.757   7.765  67.563  1.00  0.00    -0.158 C  
HETATM    7  C   UNL     1      -9.579   6.627  66.479  1.00  0.00    -0.140 C  
HETATM    8  O   UNL     1      -9.775   9.639  65.071  1.00  0.00    -0.289 OA 
HETATM    9  N   UNL     1      -9.241   9.013  67.287  1.00  0.00    -0.133 N  
HETATM   10  OXT UNL     1     -10.438   5.688  66.561  1.00  0.00    -0.242 OA 
HETATM   11  O   UNL     1      -8.515   6.684  65.809  1.00  0.00    -0.141 OA 
HETATM   12  C   UNL     1      -9.344   9.808  66.191  1.00  0.00    -0.191 C  
ENDROOT
BRANCH   4  13
HETATM   13  C   UNL     1     -10.778   6.122  69.229  1.00  0.00    -0.318 C  
BRANCH  13  14
HETATM   14  N   UNL     1      -9.873   5.269  70.071  1.00  0.00    -0.197 NA 
HETATM   15  C   UNL     1      -9.991   5.050  71.406  1.00  0.00    -0.193 A  
HETATM   16  C   UNL     1     -11.054   5.516  72.360  1.00  0.00    -0.312 C  
HETATM   17  C   UNL     1     -10.602   4.977  73.734  1.00  0.00    -0.330 C  
HETATM   18  C   UNL     1      -8.764   4.783  69.437  1.00  0.00    -0.083 A  
HETATM   19  C   UNL     1      -9.329   4.153  73.550  1.00  0.00    -0.113 C  
HETATM   20  C   UNL     1      -7.761   4.094  70.116  1.00  0.00    -0.049 A  
HETATM   21  C   UNL     1      -7.879   3.857  71.472  1.00  0.00    -0.061 A  
HETATM   22  C   UNL     1      -9.005   4.338  72.105  1.00  0.00    -0.142 A  
ENDBRANCH  13  14
ENDBRANCH   4  13
BRANCH   5  23
HETATM   23  N   UNL     1     -10.161  12.056  67.089  1.00  0.00    -0.201 N  
HETATM   24  C   UNL     1     -10.364  13.067  66.164  1.00  0.00    -0.278 C  
HETATM   25  O   UNL     1      -9.742  13.141  65.115  1.00  0.00    -0.100 OA 
HETATM   26  H   UNL     1     -10.835  11.972  67.849  1.00  0.00     0.000 HD 
BRANCH  24  27
HETATM   27  C   UNL     1     -11.446  14.111  66.578  1.00  0.00    -0.358 C  
BRANCH  27  28
HETATM   28  C   UNL     1     -11.034  15.428  67.081  1.00  0.00    -0.317 A  
HETATM   29  N   UNL     1     -10.822  16.496  66.214  1.00  0.00    -0.120 NA 
HETATM   30  N   UNL     1     -10.188  18.732  66.249  1.00  0.00    -0.406 NA 
HETATM   31  C   UNL     1     -10.861  15.760  68.414  1.00  0.00    -0.297 A  
HETATM   32  S   UNL     1     -10.407  17.403  68.570  1.00  0.00    -0.378 SA 
HETATM   33  H1  UNL     1     -10.225  18.833  65.235  1.00  0.00     0.000 HD 
HETATM   34  H2  UNL     1      -9.927  19.538  66.816  1.00  0.00     0.000 HD 
HETATM   35  C   UNL     1     -10.470  17.575  66.862  1.00  0.00    -0.285 A  
ENDBRANCH  27  28
BRANCH  27  36
HETATM   36  N   UNL     1     -12.736  13.950  66.484  1.00  0.00    -0.420 NA 
HETATM   37  H   UNL     1     -13.329  13.743  67.287  1.00  0.00     0.000 HD 
BRANCH  36  38
HETATM   38  O   UNL     1     -13.236  14.087  65.189  1.00  0.00    -0.768 OA 
HETATM   39  C   UNL     1     -12.961  12.874  64.491  1.00  0.00    -0.085 C  
ENDBRANCH  36  38
ENDBRANCH  27  36
ENDBRANCH  24  27
ENDBRANCH   5  23
TORSDOF 7
ENDMDL
MODEL      108
REMARK 921   NORMALIZED FREE ENERGY PREDICTED BY IDOCK:   -5.50 KCAL/MOL
REMARK 922        TOTAL FREE ENERGY PREDICTED BY IDOCK:   -8.96 KCAL/MOL
REMARK 923 INTER-LIGAND FREE ENERGY PREDICTED BY IDOCK:   -7.18 KCAL/MOL
REMARK 924 INTRA-LIGAND FREE ENERGY PREDICTED BY IDOCK:   -1.78 KCAL/MOL
REMARK 927      BINDING AFFINITY PREDICTED BY RF-SCORE:    0.00 PKD
ROOT
HETATM    1  C   UNL     1      -7.540  10.321  67.481  1.00  0.00    -0.094 C  
HETATM    2  S   UNL     1      -8.301  10.868  69.042  1.00  0.00    -0.068 SA 
HETATM    3  C   UNL     1      -7.648   9.526  70.019  1.00  0.00    -0.133 C  
HETATM    4  C   UNL     1      -7.873   8.150  69.454  1.00  0.00    -0.105 C  
HETATM    5  CA  UNL     1      -8.325  10.717  66.189  1.00  0.00    -0.166 C  
HETATM    6  CA  UNL     1      -7.930   7.907  68.116  1.00  0.00    -0.125 C  
HETATM    7  C   UNL     1      -7.899   6.427  67.560  1.00  0.00    -0.105 C  
HETATM    8  O   UNL     1      -9.380   8.507  65.422  1.00  0.00    -0.067 OA 
HETATM    9  N   UNL     1      -7.895   8.944  67.209  1.00  0.00    -0.096 N  
HETATM   10  OXT UNL     1      -8.391   5.559  68.356  1.00  0.00    -0.098 OA 
HETATM   11  O   UNL     1      -7.227   6.260  66.509  1.00  0.00    -0.070 OA 
HETATM   12  C   UNL     1      -8.610   9.175  66.078  1.00  0.00    -0.146 C  
ENDROOT
BRANCH   4  13
HETATM   13  C   UNL     1      -7.777   7.084  70.528  1.00  0.00    -0.095 C  
BRANCH  13  14
HETATM   14  N   UNL     1      -8.830   7.025  71.598  1.00  0.00    -0.131 NA 
HETATM   15  C   UNL     1     -10.171   6.952  71.400  1.00  0.00    -0.197 A  
HETATM   16  C   UNL     1     -10.942   6.837  70.115  1.00  0.00    -0.340 C  
HETATM   17  C   UNL     1     -12.422   6.839  70.552  1.00  0.00    -0.051 C  
HETATM   18  C   UNL     1      -8.379   7.191  72.877  1.00  0.00    -0.106 A  
HETATM   19  C   UNL     1     -12.490   6.884  72.078  1.00  0.00    -0.285 C  
HETATM   20  C   UNL     1      -9.246   7.300  73.963  1.00  0.00    -0.292 A  
HETATM   21  C   UNL     1     -10.611   7.215  73.772  1.00  0.00    -0.303 A  
HETATM   22  C   UNL     1     -11.061   7.035  72.480  1.00  0.00    -0.310 A  
ENDBRANCH  13  14
ENDBRANCH   4  13
BRANCH   5  23
HETATM   23  N   UNL     1      -9.561  11.527  66.376  1.00  0.00    -0.203 N  
HETATM   24  C   UNL     1      -9.591  12.879  66.675  1.00  0.00    -0.257 C  
HETATM   25  O   UNL     1      -8.600  13.591  66.627  1.00  0.00    -0.090 OA 
HETATM   26  H   UNL     1     -10.455  11.048  66.275  1.00  0.00     0.000 HD 
BRANCH  24  27
HETATM   27  C   UNL     1     -10.995  13.415  67.092  1.00  0.00    -0.280 C  
BRANCH  27  28
HETATM   28  C   UNL     1     -11.593  12.986  68.363  1.00  0.00    -0.335 A  
HETATM   29  N   UNL     1     -12.028  11.676  68.548  1.00  0.00    -0.493 NA 
HETATM   30  N   UNL     1     -13.024  10.332  70.162  1.00  0.00    -0.549 NA 
HETATM   31  C   UNL     1     -11.747  13.781  69.486  1.00  0.00    -0.323 A  
HETATM   32  S   UNL     1     -12.460  12.887  70.760  1.00  0.00    -0.196 SA 
HETATM   33  H1  UNL     1     -13.059   9.510  69.560  1.00  0.00     0.000 HD 
HETATM   34  H2  UNL     1     -13.384  10.262  71.113  1.00  0.00     0.000 HD 
HETATM   35  C   UNL     1     -12.520  11.502  69.746  1.00  0.00    -0.057 A  
ENDBRANCH  27  28
BRANCH  27  36
HETATM   36  N   UNL     1     -11.712  14.276  66.424  1.00  0.00    -0.377 NA 
HETATM   37  H   UNL     1     -12.537  14.011  65.886  1.00  0.00     0.000 HD 
BRANCH  36  38
HETATM   38  O   UNL     1     -11.253  15.590  66.510  1.00  0.00    -0.243 OA 
HETATM   39  C   UNL     1     -10.838  15.986  65.203  1.00  0.00    -0.395 C  
ENDBRANCH  36  38
ENDBRANCH  27  36
ENDBRANCH  24  27
ENDBRANCH   5  23
TORSDOF 7
ENDMDL
MODEL      109
REMARK 921   NORMALIZED FREE ENERGY PREDICTED BY IDOCK:   -5.46 KCAL/MOL
REMARK 922        TOTAL FREE ENERGY PREDICTED BY IDOCK:   -8.90 KCAL/MOL
REMARK 923 INTER-LIGAND FREE ENERGY PREDICTED BY IDOCK:   -7.69 KCAL/MOL
REMARK 924 INTRA-LIGAND FREE ENERGY PREDICTED BY IDOCK:   -1.21 KCAL/MOL
REMARK 927      BINDING AFFINITY PREDICTED BY RF-SCORE:    0.00 PKD
ROOT
HETATM    1  C   UNL     1      -9.875  11.189  66.975  1.00  0.00    -0.185 C  
HETATM    2  S   UNL     1      -9.868  11.520  65.185  1.00  0.00    -0.258 SA 
HETATM    3  C   UNL     1      -9.184   9.938  64.729  1.00  0.00    -0.254 C  
HETATM    4  C   UNL     1      -7.943   9.535  65.478  1.00  0.00    -0.112 C  
HETATM    5  CA  UNL     1      -9.721  12.452  67.881  1.00  0.00    -0.204 C  
HETATM    6  CA  UNL     1      -7.708   9.910  66.765  1.00  0.00    -0.099 C  
HETATM    7  C   UNL     1      -6.534   9.253  67.598  1.00  0.00    -0.063 C  
HETATM    8  O   UNL     1      -7.314  12.278  68.754  1.00  0.00    -0.109 OA 
HETATM    9  N   UNL     1      -8.557  10.781  67.411  1.00  0.00    -0.126 N  
HETATM   10  OXT UNL     1      -5.548   8.859  66.891  1.00  0.00    -0.040 OA 
HETATM   11  O   UNL     1      -6.797   9.022  68.807  1.00  0.00    -0.060 OA 
HETATM   12  C   UNL     1      -8.312  11.843  68.221  1.00  0.00    -0.159 C  
ENDROOT
BRANCH   4  13
HETATM   13  C   UNL     1      -7.148   8.491  64.717  1.00  0.00    -0.080 C  
BRANCH  13  14
HETATM   14  N   UNL     1      -7.824   7.218  64.296  1.00  0.00    -0.130 NA 
HETATM   15  C   UNL     1      -8.512   6.370  65.103  1.00  0.00    -0.068 A  
HETATM   16  C   UNL     1      -8.841   6.499  66.563  1.00  0.00    -0.142 C  
HETATM   17  C   UNL     1      -9.602   5.199  66.903  1.00  0.00    -0.157 C  
HETATM   18  C   UNL     1      -7.604   6.834  63.003  1.00  0.00    -0.088 A  
HETATM   19  C   UNL     1      -9.763   4.371  65.630  1.00  0.00    -0.211 C  
HETATM   20  C   UNL     1      -8.047   5.610  62.504  1.00  0.00    -0.104 A  
HETATM   21  C   UNL     1      -8.758   4.747  63.316  1.00  0.00    -0.124 A  
HETATM   22  C   UNL     1      -8.988   5.145  64.616  1.00  0.00    -0.034 A  
ENDBRANCH  13  14
ENDBRANCH   4  13
BRANCH   5  23
HETATM   23  N   UNL     1      -9.636  13.769  67.190  1.00  0.00    -0.236 N  
HETATM   24  C   UNL     1     -10.612  14.751  67.223  1.00  0.00    -0.273 C  
HETATM   25  O   UNL     1     -11.565  14.714  67.986  1.00  0.00    -0.311 OA 
HETATM   26  H   UNL     1      -8.793  13.962  66.650  1.00  0.00     0.000 HD 
BRANCH  24  27
HETATM   27  C   UNL     1     -10.398  15.905  66.196  1.00  0.00    -0.328 C  
BRANCH  27  28
HETATM   28  C   UNL     1     -10.020  17.244  66.668  1.00  0.00    -0.294 A  
HETATM   29  N   UNL     1      -9.106  18.023  65.966  1.00  0.00    -0.521 NA 
HETATM   30  N   UNL     1      -8.063  20.098  66.080  1.00  0.00    -0.529 NA 
HETATM   31  C   UNL     1     -10.536  17.874  67.788  1.00  0.00    -0.389 A  
HETATM   32  S   UNL     1      -9.851  19.433  67.967  1.00  0.00    -0.395 SA 
HETATM   33  H1  UNL     1      -7.507  19.945  65.239  1.00  0.00     0.000 HD 
HETATM   34  H2  UNL     1      -7.968  20.981  66.581  1.00  0.00     0.000 HD 
HETATM   35  C   UNL     1      -8.915  19.177  66.550  1.00  0.00    -0.341 A  
ENDBRANCH  27  28
BRANCH  27  36
HETATM   36  N   UNL     1     -10.481  15.797  64.899  1.00  0.00    -0.605 NA 
HETATM   37  H   UNL     1     -10.204  16.543  64.262  1.00  0.00     0.000 HD 
BRANCH  36  38
HETATM   38  O   UNL     1     -10.982  14.572  64.458  1.00  0.00    -0.347 OA 
HETATM   39  C   UNL     1     -12.376  14.743  64.206  1.00  0.00    -0.320 C  
ENDBRANCH  36  38
ENDBRANCH  27  36
ENDBRANCH  24  27
ENDBRANCH   5  23
TORSDOF 7
ENDMDL
MODEL      110
REMARK 921   NORMALIZED FREE ENERGY PREDICTED BY IDOCK:   -5.45 KCAL/MOL
REMARK 922        TOTAL FREE ENERGY PREDICTED BY IDOCK:   -8.89 KCAL/MOL
REMARK 923 INTER-LIGAND FREE ENERGY PREDICTED BY IDOCK:   -7.32 KCAL/MOL
REMARK 924 INTRA-LIGAND FREE ENERGY PREDICTED BY IDOCK:   -1.57 KCAL/MOL
REMARK 927      BINDING AFFINITY PREDICTED BY RF-SCORE:    0.00 PKD
ROOT
HETATM    1  C   UNL     1     -11.277   7.930  70.751  1.00  0.00    -0.266 C  
HETATM    2  S   UNL     1     -10.944   7.380  69.047  1.00  0.00     0.079 SA 
HETATM    3  C   UNL     1     -10.909   5.642  69.441  1.00  0.00    -0.264 C  
HETATM    4  C   UNL     1     -10.023   5.262  70.597  1.00  0.00    -0.287 C  
HETATM    5  CA  UNL     1     -10.726   9.348  71.108  1.00  0.00    -0.347 C  
HETATM    6  CA  UNL     1      -9.798   6.091  71.652  1.00  0.00    -0.170 C  
HETATM    7  C   UNL     1      -9.085   5.561  72.960  1.00  0.00    -0.125 C  
HETATM    8  O   UNL     1      -8.702   8.850  72.605  1.00  0.00    -0.373 OA 
HETATM    9  N   UNL     1     -10.289   7.378  71.654  1.00  0.00    -0.196 N  
HETATM   10  OXT UNL     1      -8.271   4.599  72.759  1.00  0.00    -0.098 OA 
HETATM   11  O   UNL     1      -9.547   6.006  74.043  1.00  0.00    -0.146 OA 
HETATM   12  C   UNL     1      -9.727   8.556  72.028  1.00  0.00    -0.307 C  
ENDROOT
BRANCH   4  13
HETATM   13  C   UNL     1      -9.639   3.795  70.545  1.00  0.00    -0.192 C  
BRANCH  13  14
HETATM   14  N   UNL     1      -8.851   3.285  69.372  1.00  0.00    -0.084 NA 
HETATM   15  C   UNL     1      -7.610   3.692  69.003  1.00  0.00    -0.053 A  
HETATM   16  C   UNL     1      -6.684   4.665  69.674  1.00  0.00    -0.044 C  
HETATM   17  C   UNL     1      -5.451   4.728  68.748  1.00  0.00    -0.011 C  
HETATM   18  C   UNL     1      -9.518   2.428  68.543  1.00  0.00    -0.145 A  
HETATM   19  C   UNL     1      -5.646   3.745  67.595  1.00  0.00    -0.021 C  
HETATM   20  C   UNL     1      -8.972   1.978  67.342  1.00  0.00    -0.174 A  
HETATM   21  C   UNL     1      -7.705   2.377  66.964  1.00  0.00    -0.070 A  
HETATM   22  C   UNL     1      -7.031   3.233  67.810  1.00  0.00    -0.050 A  
ENDBRANCH  13  14
ENDBRANCH   4  13
BRANCH   5  23
HETATM   23  N   UNL     1     -10.044  10.098  70.016  1.00  0.00    -0.379 N  
HETATM   24  C   UNL     1     -10.621  11.107  69.261  1.00  0.00    -0.175 C  
HETATM   25  O   UNL     1     -11.692  11.618  69.546  1.00  0.00    -0.289 OA 
HETATM   26  H   UNL     1      -9.078   9.849  69.808  1.00  0.00     0.000 HD 
BRANCH  24  27
HETATM   27  C   UNL     1      -9.791  11.527  68.009  1.00  0.00    -0.188 C  
BRANCH  27  28
HETATM   28  C   UNL     1     -10.422  12.325  66.950  1.00  0.00    -0.217 A  
HETATM   29  N   UNL     1     -11.565  11.877  66.294  1.00  0.00    -0.491 NA 
HETATM   30  N   UNL     1     -13.036  12.526  64.615  1.00  0.00    -0.844 NA 
HETATM   31  C   UNL     1     -10.001  13.575  66.529  1.00  0.00    -0.287 A  
HETATM   32  S   UNL     1     -11.027  14.170  65.295  1.00  0.00    -0.359 SA 
HETATM   33  H1  UNL     1     -13.593  11.674  64.675  1.00  0.00     0.000 HD 
HETATM   34  H2  UNL     1     -13.300  13.242  63.938  1.00  0.00     0.000 HD 
HETATM   35  C   UNL     1     -11.967  12.736  65.395  1.00  0.00    -0.436 A  
ENDBRANCH  27  28
BRANCH  27  36
HETATM   36  N   UNL     1      -8.528  11.272  67.810  1.00  0.00    -0.123 NA 
HETATM   37  H   UNL     1      -7.798  11.977  67.907  1.00  0.00     0.000 HD 
BRANCH  36  38
HETATM   38  O   UNL     1      -8.261   9.951  67.452  1.00  0.00    -0.117 OA 
HETATM   39  C   UNL     1      -7.132   9.519  68.209  1.00  0.00    -0.075 C  
ENDBRANCH  36  38
ENDBRANCH  27  36
ENDBRANCH  24  27
ENDBRANCH   5  23
TORSDOF 7
ENDMDL
MODEL      111
REMARK 921   NORMALIZED FREE ENERGY PREDICTED BY IDOCK:   -5.44 KCAL/MOL
REMARK 922        TOTAL FREE ENERGY PREDICTED BY IDOCK:   -8.87 KCAL/MOL
REMARK 923 INTER-LIGAND FREE ENERGY PREDICTED BY IDOCK:   -7.80 KCAL/MOL
REMARK 924 INTRA-LIGAND FREE ENERGY PREDICTED BY IDOCK:   -1.07 KCAL/MOL
REMARK 927      BINDING AFFINITY PREDICTED BY RF-SCORE:    0.00 PKD
ROOT
HETATM    1  C   UNL     1      -7.314   9.920  67.619  1.00  0.00    -0.090 C  
HETATM    2  S   UNL     1      -8.182  10.452  69.128  1.00  0.00    -0.156 SA 
HETATM    3  C   UNL     1      -7.553   9.133  70.150  1.00  0.00    -0.093 C  
HETATM    4  C   UNL     1      -7.706   7.749  69.579  1.00  0.00    -0.105 C  
HETATM    5  CA  UNL     1      -8.030  10.291  66.280  1.00  0.00    -0.124 C  
HETATM    6  CA  UNL     1      -7.676   7.500  68.242  1.00  0.00    -0.120 C  
HETATM    7  C   UNL     1      -7.572   6.018  67.696  1.00  0.00    -0.090 C  
HETATM    8  O   UNL     1      -8.977   8.050  65.462  1.00  0.00    -0.116 OA 
HETATM    9  N   UNL     1      -7.615   8.534  67.333  1.00  0.00    -0.096 N  
HETATM   10  OXT UNL     1      -8.087   5.141  68.466  1.00  0.00    -0.086 OA 
HETATM   11  O   UNL     1      -6.833   5.867  66.689  1.00  0.00    -0.056 OA 
HETATM   12  C   UNL     1      -8.266   8.741  66.160  1.00  0.00    -0.117 C  
ENDROOT
BRANCH   4  13
HETATM   13  C   UNL     1      -7.646   6.689  70.663  1.00  0.00    -0.095 C  
BRANCH  13  14
HETATM   14  N   UNL     1      -8.681   6.696  71.752  1.00  0.00    -0.130 NA 
HETATM   15  C   UNL     1      -9.989   7.030  71.613  1.00  0.00    -0.178 A  
HETATM   16  C   UNL     1     -10.755   7.395  70.373  1.00  0.00    -0.250 C  
HETATM   17  C   UNL     1     -12.181   7.705  70.877  1.00  0.00    -0.194 C  
HETATM   18  C   UNL     1      -8.209   6.467  73.014  1.00  0.00    -0.116 A  
HETATM   19  C   UNL     1     -12.241   7.450  72.382  1.00  0.00    -0.134 C  
HETATM   20  C   UNL     1      -9.019   6.578  74.143  1.00  0.00    -0.176 A  
HETATM   21  C   UNL     1     -10.354   6.905  74.009  1.00  0.00    -0.355 A  
HETATM   22  C   UNL     1     -10.828   7.124  72.733  1.00  0.00    -0.337 A  
ENDBRANCH  13  14
ENDBRANCH   4  13
BRANCH   5  23
HETATM   23  N   UNL     1      -9.296  11.067  66.387  1.00  0.00    -0.178 N  
HETATM   24  C   UNL     1      -9.981  11.628  65.322  1.00  0.00    -0.255 C  
HETATM   25  O   UNL     1      -9.715  11.376  64.157  1.00  0.00    -0.235 OA 
HETATM   26  H   UNL     1      -9.690  11.196  67.319  1.00  0.00     0.000 HD 
BRANCH  24  27
HETATM   27  C   UNL     1     -11.113  12.618  65.734  1.00  0.00    -0.297 C  
BRANCH  27  28
HETATM   28  C   UNL     1     -10.768  13.919  66.321  1.00  0.00    -0.285 A  
HETATM   29  N   UNL     1     -10.317  14.971  65.528  1.00  0.00    -0.343 NA 
HETATM   30  N   UNL     1      -9.608  17.177  65.714  1.00  0.00    -0.537 NA 
HETATM   31  C   UNL     1     -10.885  14.251  67.660  1.00  0.00    -0.268 A  
HETATM   32  S   UNL     1     -10.405  15.874  67.920  1.00  0.00    -0.276 SA 
HETATM   33  H1  UNL     1      -9.411  17.273  64.718  1.00  0.00     0.000 HD 
HETATM   34  H2  UNL     1      -9.446  17.975  66.328  1.00  0.00     0.000 HD 
HETATM   35  C   UNL     1     -10.072  16.037  66.243  1.00  0.00    -0.313 A  
ENDBRANCH  27  28
BRANCH  27  36
HETATM   36  N   UNL     1     -12.392  12.426  65.568  1.00  0.00    -0.624 NA 
HETATM   37  H   UNL     1     -12.960  11.883  66.218  1.00  0.00     0.000 HD 
BRANCH  36  38
HETATM   38  O   UNL     1     -12.916  13.028  64.424  1.00  0.00    -0.686 OA 
HETATM   39  C   UNL     1     -12.878  12.062  63.374  1.00  0.00    -0.291 C  
ENDBRANCH  36  38
ENDBRANCH  27  36
ENDBRANCH  24  27
ENDBRANCH   5  23
TORSDOF 7
ENDMDL
MODEL      112
REMARK 921   NORMALIZED FREE ENERGY PREDICTED BY IDOCK:   -5.42 KCAL/MOL
REMARK 922        TOTAL FREE ENERGY PREDICTED BY IDOCK:   -8.85 KCAL/MOL
REMARK 923 INTER-LIGAND FREE ENERGY PREDICTED BY IDOCK:   -7.17 KCAL/MOL
REMARK 924 INTRA-LIGAND FREE ENERGY PREDICTED BY IDOCK:   -1.68 KCAL/MOL
REMARK 927      BINDING AFFINITY PREDICTED BY RF-SCORE:    0.00 PKD
ROOT
HETATM    1  C   UNL     1     -11.216   7.667  71.308  1.00  0.00    -0.254 C  
HETATM    2  S   UNL     1     -11.154   7.218  69.544  1.00  0.00    -0.041 SA 
HETATM    3  C   UNL     1     -10.766   5.501  69.828  1.00  0.00    -0.285 C  
HETATM    4  C   UNL     1      -9.615   5.248  70.764  1.00  0.00    -0.234 C  
HETATM    5  CA  UNL     1     -10.836   9.149  71.627  1.00  0.00    -0.372 C  
HETATM    6  CA  UNL     1      -9.314   6.079  71.798  1.00  0.00    -0.148 C  
HETATM    7  C   UNL     1      -8.276   5.646  72.910  1.00  0.00    -0.119 C  
HETATM    8  O   UNL     1      -8.497   8.960  72.667  1.00  0.00    -0.388 OA 
HETATM    9  N   UNL     1      -9.992   7.267  71.968  1.00  0.00    -0.162 N  
HETATM   10  OXT UNL     1      -7.378   4.838  72.500  1.00  0.00    -0.079 OA 
HETATM   11  O   UNL     1      -8.573   5.985  74.085  1.00  0.00    -0.118 OA 
HETATM   12  C   UNL     1      -9.558   8.513  72.287  1.00  0.00    -0.307 C  
ENDROOT
BRANCH   4  13
HETATM   13  C   UNL     1      -9.022   3.867  70.557  1.00  0.00    -0.096 C  
BRANCH  13  14
HETATM   14  N   UNL     1      -8.682   3.417  69.165  1.00  0.00    -0.082 NA 
HETATM   15  C   UNL     1      -8.014   4.139  68.230  1.00  0.00    -0.077 A  
HETATM   16  C   UNL     1      -7.388   5.500  68.342  1.00  0.00    -0.076 C  
HETATM   17  C   UNL     1      -6.822   5.781  66.933  1.00  0.00    -0.063 C  
HETATM   18  C   UNL     1      -9.216   2.217  68.788  1.00  0.00    -0.162 A  
HETATM   19  C   UNL     1      -7.065   4.561  66.048  1.00  0.00    -0.071 C  
HETATM   20  C   UNL     1      -9.107   1.730  67.486  1.00  0.00    -0.171 A  
HETATM   21  C   UNL     1      -8.419   2.453  66.531  1.00  0.00    -0.100 A  
HETATM   22  C   UNL     1      -7.871   3.658  66.921  1.00  0.00    -0.080 A  
ENDBRANCH  13  14
ENDBRANCH   4  13
BRANCH   5  23
HETATM   23  N   UNL     1     -10.517  10.025  70.465  1.00  0.00    -0.382 N  
HETATM   24  C   UNL     1     -11.317  11.057  70.001  1.00  0.00    -0.277 C  
HETATM   25  O   UNL     1     -12.281  11.478  70.621  1.00  0.00    -0.364 OA 
HETATM   26  H   UNL     1      -9.641   9.852  69.973  1.00  0.00     0.000 HD 
BRANCH  24  27
HETATM   27  C   UNL     1     -10.891  11.627  68.614  1.00  0.00    -0.213 C  
BRANCH  27  28
HETATM   28  C   UNL     1      -9.970  10.863  67.761  1.00  0.00    -0.176 A  
HETATM   29  N   UNL     1     -10.338   9.631  67.228  1.00  0.00    -0.233 NA 
HETATM   30  N   UNL     1      -9.483   7.933  65.890  1.00  0.00    -0.423 NA 
HETATM   31  C   UNL     1      -8.708  11.277  67.371  1.00  0.00    -0.139 A  
HETATM   32  S   UNL     1      -7.979  10.106  66.357  1.00  0.00    -0.124 SA 
HETATM   33  H1  UNL     1     -10.315   7.350  65.974  1.00  0.00     0.000 HD 
HETATM   34  H2  UNL     1      -8.701   7.599  65.327  1.00  0.00     0.000 HD 
HETATM   35  C   UNL     1      -9.381   9.123  66.497  1.00  0.00    -0.190 A  
ENDBRANCH  27  28
BRANCH  27  36
HETATM   36  N   UNL     1     -11.315  12.741  68.084  1.00  0.00    -0.267 NA 
HETATM   37  H   UNL     1     -10.982  13.658  68.381  1.00  0.00     0.000 HD 
BRANCH  36  38
HETATM   38  O   UNL     1     -12.264  12.569  67.076  1.00  0.00    -0.490 OA 
HETATM   39  C   UNL     1     -11.998  13.541  66.066  1.00  0.00    -0.409 C  
ENDBRANCH  36  38
ENDBRANCH  27  36
ENDBRANCH  24  27
ENDBRANCH   5  23
TORSDOF 7
ENDMDL
MODEL      113
REMARK 921   NORMALIZED FREE ENERGY PREDICTED BY IDOCK:   -5.42 KCAL/MOL
REMARK 922        TOTAL FREE ENERGY PREDICTED BY IDOCK:   -8.84 KCAL/MOL
REMARK 923 INTER-LIGAND FREE ENERGY PREDICTED BY IDOCK:   -7.19 KCAL/MOL
REMARK 924 INTRA-LIGAND FREE ENERGY PREDICTED BY IDOCK:   -1.66 KCAL/MOL
REMARK 927      BINDING AFFINITY PREDICTED BY RF-SCORE:    0.00 PKD
ROOT
HETATM    1  C   UNL     1     -10.639   8.342  69.332  1.00  0.00    -0.197 C  
HETATM    2  S   UNL     1     -10.488   9.221  67.745  1.00  0.00    -0.245 SA 
HETATM    3  C   UNL     1      -9.458   7.987  66.974  1.00  0.00    -0.174 C  
HETATM    4  C   UNL     1      -8.258   7.559  67.774  1.00  0.00    -0.119 C  
HETATM    5  CA  UNL     1     -10.842   9.261  70.580  1.00  0.00    -0.278 C  
HETATM    6  CA  UNL     1      -8.253   7.537  69.134  1.00  0.00    -0.131 C  
HETATM    7  C   UNL     1      -7.079   6.835  69.928  1.00  0.00    -0.071 C  
HETATM    8  O   UNL     1      -8.566   9.183  71.764  1.00  0.00    -0.340 OA 
HETATM    9  N   UNL     1      -9.326   8.020  69.851  1.00  0.00    -0.156 N  
HETATM   10  OXT UNL     1      -5.959   6.838  69.318  1.00  0.00    -0.021 OA 
HETATM   11  O   UNL     1      -7.431   6.196  70.954  1.00  0.00    -0.089 OA 
HETATM   12  C   UNL     1      -9.390   8.794  70.964  1.00  0.00    -0.222 C  
ENDROOT
BRANCH   4  13
HETATM   13  C   UNL     1      -7.191   6.942  66.890  1.00  0.00    -0.077 C  
BRANCH  13  14
HETATM   14  N   UNL     1      -6.923   7.539  65.538  1.00  0.00    -0.059 NA 
HETATM   15  C   UNL     1      -6.307   8.723  65.292  1.00  0.00    -0.060 A  
HETATM   16  C   UNL     1      -5.679   9.690  66.255  1.00  0.00    -0.053 C  
HETATM   17  C   UNL     1      -5.190  10.855  65.367  1.00  0.00    -0.123 C  
HETATM   18  C   UNL     1      -7.475   6.872  64.480  1.00  0.00    -0.099 A  
HETATM   19  C   UNL     1      -5.476  10.519  63.905  1.00  0.00    -0.143 C  
HETATM   20  C   UNL     1      -7.434   7.374  63.180  1.00  0.00    -0.100 A  
HETATM   21  C   UNL     1      -6.798   8.572  62.920  1.00  0.00    -0.090 A  
HETATM   22  C   UNL     1      -6.233   9.236  63.989  1.00  0.00    -0.089 A  
ENDBRANCH  13  14
ENDBRANCH   4  13
BRANCH   5  23
HETATM   23  N   UNL     1     -10.936  10.726  70.327  1.00  0.00    -0.463 N  
HETATM   24  C   UNL     1     -12.083  11.488  70.475  1.00  0.00    -0.378 C  
HETATM   25  O   UNL     1     -13.094  11.068  71.016  1.00  0.00    -0.313 OA 
HETATM   26  H   UNL     1     -10.089  11.205  70.022  1.00  0.00     0.000 HD 
BRANCH  24  27
HETATM   27  C   UNL     1     -11.981  12.926  69.881  1.00  0.00    -0.307 C  
BRANCH  27  28
HETATM   28  C   UNL     1     -11.397  13.126  68.548  1.00  0.00    -0.286 A  
HETATM   29  N   UNL     1     -10.054  13.459  68.392  1.00  0.00    -0.245 NA 
HETATM   30  N   UNL     1      -8.506  13.919  66.720  1.00  0.00    -0.439 NA 
HETATM   31  C   UNL     1     -12.068  12.972  67.347  1.00  0.00    -0.233 A  
HETATM   32  S   UNL     1     -11.017  13.269  66.029  1.00  0.00    -0.281 SA 
HETATM   33  H1  UNL     1      -7.747  14.106  67.375  1.00  0.00     0.000 HD 
HETATM   34  H2  UNL     1      -8.324  13.992  65.719  1.00  0.00     0.000 HD 
HETATM   35  C   UNL     1      -9.737  13.583  67.130  1.00  0.00    -0.244 A  
ENDBRANCH  27  28
BRANCH  27  36
HETATM   36  N   UNL     1     -12.415  14.018  70.446  1.00  0.00    -0.351 NA 
HETATM   37  H   UNL     1     -12.872  14.768  69.926  1.00  0.00     0.000 HD 
BRANCH  36  38
HETATM   38  O   UNL     1     -12.202  14.073  71.823  1.00  0.00    -0.249 OA 
HETATM   39  C   UNL     1     -13.457  14.350  72.442  1.00  0.00    -0.462 C  
ENDBRANCH  36  38
ENDBRANCH  27  36
ENDBRANCH  24  27
ENDBRANCH   5  23
TORSDOF 7
ENDMDL
MODEL      114
REMARK 921   NORMALIZED FREE ENERGY PREDICTED BY IDOCK:   -5.41 KCAL/MOL
REMARK 922        TOTAL FREE ENERGY PREDICTED BY IDOCK:   -8.84 KCAL/MOL
REMARK 923 INTER-LIGAND FREE ENERGY PREDICTED BY IDOCK:   -8.09 KCAL/MOL
REMARK 924 INTRA-LIGAND FREE ENERGY PREDICTED BY IDOCK:   -0.75 KCAL/MOL
REMARK 927      BINDING AFFINITY PREDICTED BY RF-SCORE:    0.00 PKD
ROOT
HETATM    1  C   UNL     1      -8.278   8.796  69.698  1.00  0.00    -0.113 C  
HETATM    2  S   UNL     1      -7.630   9.393  68.105  1.00  0.00    -0.083 SA 
HETATM    3  C   UNL     1      -8.285  11.044  68.272  1.00  0.00    -0.130 C  
HETATM    4  C   UNL     1      -9.744  11.123  68.628  1.00  0.00    -0.202 C  
HETATM    5  CA  UNL     1      -8.596   7.267  69.751  1.00  0.00    -0.141 C  
HETATM    6  CA  UNL     1     -10.366  10.182  69.389  1.00  0.00    -0.232 C  
HETATM    7  C   UNL     1     -11.820  10.434  69.959  1.00  0.00    -0.273 C  
HETATM    8  O   UNL     1     -11.160   7.181  69.682  1.00  0.00    -0.239 OA 
HETATM    9  N   UNL     1      -9.702   9.040  69.780  1.00  0.00    -0.170 N  
HETATM   10  OXT UNL     1     -12.538  11.204  69.239  1.00  0.00    -0.336 OA 
HETATM   11  O   UNL     1     -12.018  10.016  71.130  1.00  0.00    -0.332 OA 
HETATM   12  C   UNL     1     -10.094   7.741  69.821  1.00  0.00    -0.194 C  
ENDROOT
BRANCH   4  13
HETATM   13  C   UNL     1     -10.337  12.467  68.249  1.00  0.00    -0.236 C  
BRANCH  13  14
HETATM   14  N   UNL     1     -11.019  12.619  66.919  1.00  0.00    -0.254 NA 
HETATM   15  C   UNL     1     -10.744  11.913  65.793  1.00  0.00    -0.284 A  
HETATM   16  C   UNL     1      -9.780  10.780  65.587  1.00  0.00    -0.287 C  
HETATM   17  C   UNL     1      -9.902  10.437  64.087  1.00  0.00    -0.379 C  
HETATM   18  C   UNL     1     -11.902  13.658  66.826  1.00  0.00    -0.413 A  
HETATM   19  C   UNL     1     -10.977  11.323  63.461  1.00  0.00    -0.329 C  
HETATM   20  C   UNL     1     -12.508  14.013  65.622  1.00  0.00    -0.531 A  
HETATM   21  C   UNL     1     -12.244  13.292  64.474  1.00  0.00    -0.456 A  
HETATM   22  C   UNL     1     -11.361  12.238  64.576  1.00  0.00    -0.385 A  
ENDBRANCH  13  14
ENDBRANCH   4  13
BRANCH   5  23
HETATM   23  N   UNL     1      -8.292   6.475  68.526  1.00  0.00    -0.121 N  
HETATM   24  C   UNL     1      -7.221   5.607  68.383  1.00  0.00    -0.075 C  
HETATM   25  O   UNL     1      -6.523   5.255  69.321  1.00  0.00    -0.033 OA 
HETATM   26  H   UNL     1      -8.921   6.580  67.731  1.00  0.00     0.000 HD 
BRANCH  24  27
HETATM   27  C   UNL     1      -6.975   5.125  66.921  1.00  0.00    -0.064 C  
BRANCH  27  28
HETATM   28  C   UNL     1      -8.034   4.408  66.200  1.00  0.00    -0.099 A  
HETATM   29  N   UNL     1      -9.274   4.997  65.968  1.00  0.00    -0.148 NA 
HETATM   30  N   UNL     1     -11.324   4.524  64.979  1.00  0.00    -1.108 NA 
HETATM   31  C   UNL     1      -7.917   3.140  65.654  1.00  0.00    -0.086 A  
HETATM   32  S   UNL     1      -9.372   2.685  64.875  1.00  0.00    -0.091 SA 
HETATM   33  H1  UNL     1     -11.736   5.421  65.236  1.00  0.00     0.000 HD 
HETATM   34  H2  UNL     1     -11.887   3.854  64.456  1.00  0.00     0.000 HD 
HETATM   35  C   UNL     1     -10.067   4.195  65.307  1.00  0.00    -0.202 A  
ENDBRANCH  27  28
BRANCH  27  36
HETATM   36  N   UNL     1      -5.896   5.336  66.220  1.00  0.00    -0.018 NA 
HETATM   37  H   UNL     1      -5.059   4.759  66.303  1.00  0.00     0.000 HD 
BRANCH  36  38
HETATM   38  O   UNL     1      -5.985   6.419  65.345  1.00  0.00    -0.028 OA 
HETATM   39  C   UNL     1      -5.482   5.992  64.080  1.00  0.00    -0.017 C  
ENDBRANCH  36  38
ENDBRANCH  27  36
ENDBRANCH  24  27
ENDBRANCH   5  23
TORSDOF 7
ENDMDL
MODEL      115
REMARK 921   NORMALIZED FREE ENERGY PREDICTED BY IDOCK:   -5.39 KCAL/MOL
REMARK 922        TOTAL FREE ENERGY PREDICTED BY IDOCK:   -8.80 KCAL/MOL
REMARK 923 INTER-LIGAND FREE ENERGY PREDICTED BY IDOCK:   -8.15 KCAL/MOL
REMARK 924 INTRA-LIGAND FREE ENERGY PREDICTED BY IDOCK:   -0.65 KCAL/MOL
REMARK 927      BINDING AFFINITY PREDICTED BY RF-SCORE:    0.00 PKD
ROOT
HETATM    1  C   UNL     1     -11.727  14.841  68.911  1.00  0.00    -0.309 C  
HETATM    2  S   UNL     1     -11.011  15.233  70.538  1.00  0.00    -0.257 SA 
HETATM    3  C   UNL     1      -9.869  16.457  69.923  1.00  0.00     0.227 C  
HETATM    4  C   UNL     1      -9.025  16.020  68.756  1.00  0.00    -0.226 C  
HETATM    5  CA  UNL     1     -12.264  13.382  68.759  1.00  0.00    -0.115 C  
HETATM    6  CA  UNL     1      -9.464  15.130  67.826  1.00  0.00    -0.194 C  
HETATM    7  C   UNL     1      -8.661  14.901  66.482  1.00  0.00    -0.169 C  
HETATM    8  O   UNL     1     -10.507  12.244  67.274  1.00  0.00    -0.215 OA 
HETATM    9  N   UNL     1     -10.678  14.495  67.975  1.00  0.00    -0.239 N  
HETATM   10  OXT UNL     1      -7.406  15.104  66.582  1.00  0.00     0.055 OA 
HETATM   11  O   UNL     1      -9.368  14.745  65.453  1.00  0.00    -0.023 OA 
HETATM   12  C   UNL     1     -11.050  13.205  67.775  1.00  0.00    -0.262 C  
ENDROOT
BRANCH   4  13
HETATM   13  C   UNL     1      -7.771  16.864  68.630  1.00  0.00    -0.235 C  
BRANCH  13  14
HETATM   14  N   UNL     1      -7.896  18.307  68.230  1.00  0.00    -0.288 NA 
HETATM   15  C   UNL     1      -8.826  18.828  67.392  1.00  0.00    -0.270 A  
HETATM   16  C   UNL     1      -9.988  18.156  66.717  1.00  0.00    -0.353 C  
HETATM   17  C   UNL     1     -10.639  19.270  65.868  1.00  0.00    -0.521 C  
HETATM   18  C   UNL     1      -6.890  19.126  68.662  1.00  0.00    -0.287 A  
HETATM   19  C   UNL     1      -9.893  20.580  66.113  1.00  0.00    -0.164 C  
HETATM   20  C   UNL     1      -6.790  20.456  68.260  1.00  0.00    -0.288 A  
HETATM   21  C   UNL     1      -7.740  20.999  67.417  1.00  0.00    -0.170 A  
HETATM   22  C   UNL     1      -8.759  20.171  66.993  1.00  0.00    -0.420 A  
ENDBRANCH  13  14
ENDBRANCH   4  13
BRANCH   5  23
HETATM   23  N   UNL     1     -12.176  12.505  69.959  1.00  0.00    -0.240 N  
HETATM   24  C   UNL     1     -12.452  11.148  69.977  1.00  0.00    -0.223 C  
HETATM   25  O   UNL     1     -12.612  10.490  68.961  1.00  0.00    -0.134 OA 
HETATM   26  H   UNL     1     -11.889  12.938  70.837  1.00  0.00     0.000 HD 
BRANCH  24  27
HETATM   27  C   UNL     1     -12.554  10.531  71.406  1.00  0.00    -0.434 C  
BRANCH  27  28
HETATM   28  C   UNL     1     -11.990   9.200  71.669  1.00  0.00    -0.367 A  
HETATM   29  N   UNL     1     -10.634   9.033  71.939  1.00  0.00    -0.349 NA 
HETATM   30  N   UNL     1      -9.097   7.355  72.410  1.00  0.00    -0.130 NA 
HETATM   31  C   UNL     1     -12.711   8.019  71.721  1.00  0.00    -0.329 A  
HETATM   32  S   UNL     1     -11.679   6.702  72.083  1.00  0.00    -0.289 SA 
HETATM   33  H1  UNL     1      -8.303   7.993  72.450  1.00  0.00     0.000 HD 
HETATM   34  H2  UNL     1      -8.939   6.360  72.573  1.00  0.00     0.000 HD 
HETATM   35  C   UNL     1     -10.341   7.777  72.150  1.00  0.00    -0.224 A  
ENDBRANCH  27  28
BRANCH  27  36
HETATM   36  N   UNL     1     -13.071  11.111  72.453  1.00  0.00    -0.352 NA 
HETATM   37  H   UNL     1     -12.745  10.935  73.403  1.00  0.00     0.000 HD 
BRANCH  36  38
HETATM   38  O   UNL     1     -14.110  11.995  72.161  1.00  0.00     0.146 OA 
HETATM   39  C   UNL     1     -13.696  13.296  72.573  1.00  0.00    -0.508 C  
ENDBRANCH  36  38
ENDBRANCH  27  36
ENDBRANCH  24  27
ENDBRANCH   5  23
TORSDOF 7
ENDMDL
MODEL      116
REMARK 921   NORMALIZED FREE ENERGY PREDICTED BY IDOCK:   -5.39 KCAL/MOL
REMARK 922        TOTAL FREE ENERGY PREDICTED BY IDOCK:   -8.80 KCAL/MOL
REMARK 923 INTER-LIGAND FREE ENERGY PREDICTED BY IDOCK:   -7.64 KCAL/MOL
REMARK 924 INTRA-LIGAND FREE ENERGY PREDICTED BY IDOCK:   -1.17 KCAL/MOL
REMARK 927      BINDING AFFINITY PREDICTED BY RF-SCORE:    0.00 PKD
ROOT
HETATM    1  C   UNL     1     -12.140  13.468  68.413  1.00  0.00    -0.258 C  
HETATM    2  S   UNL     1     -10.739  12.565  67.680  1.00  0.00    -0.223 SA 
HETATM    3  C   UNL     1     -11.344  10.945  68.116  1.00  0.00    -0.315 C  
HETATM    4  C   UNL     1     -11.747  10.775  69.556  1.00  0.00    -0.384 C  
HETATM    5  CA  UNL     1     -11.804  14.905  68.928  1.00  0.00    -0.301 C  
HETATM    6  CA  UNL     1     -12.255  11.794  70.301  1.00  0.00    -0.299 C  
HETATM    7  C   UNL     1     -12.909  11.515  71.714  1.00  0.00    -0.335 C  
HETATM    8  O   UNL     1     -11.783  14.641  71.481  1.00  0.00    -0.325 OA 
HETATM    9  N   UNL     1     -12.320  13.073  69.794  1.00  0.00    -0.149 N  
HETATM   10  OXT UNL     1     -12.431  10.499  72.320  1.00  0.00    -0.000 OA 
HETATM   11  O   UNL     1     -13.936  12.194  71.974  1.00  0.00     0.020 OA 
HETATM   12  C   UNL     1     -12.034  14.278  70.352  1.00  0.00    -0.332 C  
ENDROOT
BRANCH   4  13
HETATM   13  C   UNL     1     -11.744   9.314  69.966  1.00  0.00     0.112 C  
BRANCH  13  14
HETATM   14  N   UNL     1     -10.448   8.666  70.360  1.00  0.00    -0.202 NA 
HETATM   15  C   UNL     1     -10.295   7.404  70.835  1.00  0.00    -0.200 A  
HETATM   16  C   UNL     1     -11.320   6.322  71.019  1.00  0.00    -0.378 C  
HETATM   17  C   UNL     1     -10.532   5.143  71.630  1.00  0.00    -0.255 C  
HETATM   18  C   UNL     1      -9.354   9.486  70.354  1.00  0.00    -0.257 A  
HETATM   19  C   UNL     1      -9.058   5.530  71.728  1.00  0.00    -0.151 C  
HETATM   20  C   UNL     1      -8.110   9.070  70.826  1.00  0.00    -0.194 A  
HETATM   21  C   UNL     1      -7.943   7.784  71.299  1.00  0.00    -0.094 A  
HETATM   22  C   UNL     1      -9.047   6.957  71.293  1.00  0.00    -0.149 A  
ENDBRANCH  13  14
ENDBRANCH   4  13
BRANCH   5  23
HETATM   23  N   UNL     1     -10.409  15.384  68.720  1.00  0.00    -0.222 N  
HETATM   24  C   UNL     1     -10.018  16.712  68.690  1.00  0.00    -0.261 C  
HETATM   25  O   UNL     1     -10.753  17.627  69.026  1.00  0.00    -0.186 OA 
HETATM   26  H   UNL     1      -9.685  14.677  68.589  1.00  0.00     0.000 HD 
BRANCH  24  27
HETATM   27  C   UNL     1      -8.563  16.943  68.180  1.00  0.00    -0.221 C  
BRANCH  27  28
HETATM   28  C   UNL     1      -7.425  16.455  68.972  1.00  0.00    -0.227 A  
HETATM   29  N   UNL     1      -7.407  15.161  69.484  1.00  0.00    -0.201 NA 
HETATM   30  N   UNL     1      -6.059  13.758  70.756  1.00  0.00    -0.385 NA 
HETATM   31  C   UNL     1      -6.275  17.174  69.251  1.00  0.00    -0.224 A  
HETATM   32  S   UNL     1      -5.188  16.230  70.176  1.00  0.00    -0.179 SA 
HETATM   33  H1  UNL     1      -6.723  12.985  70.739  1.00  0.00     0.000 HD 
HETATM   34  H2  UNL     1      -5.176  13.639  71.252  1.00  0.00     0.000 HD 
HETATM   35  C   UNL     1      -6.306  14.926  70.149  1.00  0.00    -0.162 A  
ENDBRANCH  27  28
BRANCH  27  36
HETATM   36  N   UNL     1      -8.230  17.512  67.055  1.00  0.00    -0.211 NA 
HETATM   37  H   UNL     1      -7.520  18.242  66.992  1.00  0.00     0.000 HD 
BRANCH  36  38
HETATM   38  O   UNL     1      -8.928  17.036  65.946  1.00  0.00    -0.517 OA 
HETATM   39  C   UNL     1     -10.035  17.908  65.728  1.00  0.00     0.031 C  
ENDBRANCH  36  38
ENDBRANCH  27  36
ENDBRANCH  24  27
ENDBRANCH   5  23
TORSDOF 7
ENDMDL
MODEL      117
REMARK 921   NORMALIZED FREE ENERGY PREDICTED BY IDOCK:   -5.36 KCAL/MOL
REMARK 922        TOTAL FREE ENERGY PREDICTED BY IDOCK:   -8.76 KCAL/MOL
REMARK 923 INTER-LIGAND FREE ENERGY PREDICTED BY IDOCK:   -7.56 KCAL/MOL
REMARK 924 INTRA-LIGAND FREE ENERGY PREDICTED BY IDOCK:   -1.19 KCAL/MOL
REMARK 927      BINDING AFFINITY PREDICTED BY RF-SCORE:    0.00 PKD
ROOT
HETATM    1  C   UNL     1      -8.771   7.726  67.892  1.00  0.00    -0.124 C  
HETATM    2  S   UNL     1      -8.654   8.049  69.680  1.00  0.00    -0.136 SA 
HETATM    3  C   UNL     1      -7.720   6.576  70.051  1.00  0.00    -0.102 C  
HETATM    4  C   UNL     1      -8.291   5.297  69.500  1.00  0.00    -0.095 C  
HETATM    5  CA  UNL     1     -10.042   8.311  67.196  1.00  0.00    -0.264 C  
HETATM    6  CA  UNL     1      -8.995   5.249  68.336  1.00  0.00    -0.108 C  
HETATM    7  C   UNL     1      -9.345   3.864  67.658  1.00  0.00    -0.189 C  
HETATM    8  O   UNL     1     -11.500   6.243  66.768  1.00  0.00    -0.103 OA 
HETATM    9  N   UNL     1      -9.316   6.406  67.659  1.00  0.00    -0.118 N  
HETATM   10  OXT UNL     1      -9.464   2.895  68.479  1.00  0.00    -0.189 OA 
HETATM   11  O   UNL     1      -9.267   3.845  66.402  1.00  0.00    -0.144 OA 
HETATM   12  C   UNL     1     -10.462   6.803  67.049  1.00  0.00    -0.299 C  
ENDROOT
BRANCH   4  13
HETATM   13  C   UNL     1      -7.778   4.087  70.257  1.00  0.00    -0.048 C  
BRANCH  13  14
HETATM   14  N   UNL     1      -7.922   4.041  71.751  1.00  0.00    -0.070 NA 
HETATM   15  C   UNL     1      -9.058   4.282  72.454  1.00  0.00    -0.116 A  
HETATM   16  C   UNL     1     -10.446   4.573  71.957  1.00  0.00    -0.167 C  
HETATM   17  C   UNL     1     -11.277   4.793  73.239  1.00  0.00    -0.421 C  
HETATM   18  C   UNL     1      -6.761   3.866  72.449  1.00  0.00    -0.032 A  
HETATM   19  C   UNL     1     -10.383   4.561  74.456  1.00  0.00    -0.304 C  
HETATM   20  C   UNL     1      -6.711   3.941  73.840  1.00  0.00    -0.049 A  
HETATM   21  C   UNL     1      -7.864   4.173  74.564  1.00  0.00    -0.087 A  
HETATM   22  C   UNL     1      -9.035   4.337  73.855  1.00  0.00    -0.095 A  
ENDBRANCH  13  14
ENDBRANCH   4  13
BRANCH   5  23
HETATM   23  N   UNL     1     -10.975   9.095  68.052  1.00  0.00    -0.493 N  
HETATM   24  C   UNL     1     -10.854  10.446  68.333  1.00  0.00    -0.245 C  
HETATM   25  O   UNL     1     -10.071  11.178  67.748  1.00  0.00    -0.174 OA 
HETATM   26  H   UNL     1     -11.765   8.598  68.463  1.00  0.00     0.000 HD 
BRANCH  24  27
HETATM   27  C   UNL     1     -11.794  10.953  69.470  1.00  0.00    -0.332 C  
BRANCH  27  28
HETATM   28  C   UNL     1     -12.014  12.395  69.647  1.00  0.00    -0.274 A  
HETATM   29  N   UNL     1     -11.869  13.281  68.584  1.00  0.00    -0.336 NA 
HETATM   30  N   UNL     1     -12.024  15.552  68.113  1.00  0.00    -0.424 NA 
HETATM   31  C   UNL     1     -12.413  13.007  70.823  1.00  0.00    -0.302 A  
HETATM   32  S   UNL     1     -12.581  14.695  70.594  1.00  0.00    -0.368 SA 
HETATM   33  H1  UNL     1     -11.747  15.443  67.137  1.00  0.00     0.000 HD 
HETATM   34  H2  UNL     1     -12.238  16.486  68.463  1.00  0.00     0.000 HD 
HETATM   35  C   UNL     1     -12.115  14.511  68.951  1.00  0.00    -0.237 A  
ENDBRANCH  27  28
BRANCH  27  36
HETATM   36  N   UNL     1     -12.470  10.202  70.293  1.00  0.00    -0.509 NA 
HETATM   37  H   UNL     1     -13.489  10.146  70.283  1.00  0.00     0.000 HD 
BRANCH  36  38
HETATM   38  O   UNL     1     -11.682   9.480  71.188  1.00  0.00    -0.306 OA 
HETATM   39  C   UNL     1     -12.407   8.306  71.551  1.00  0.00    -0.306 C  
ENDBRANCH  36  38
ENDBRANCH  27  36
ENDBRANCH  24  27
ENDBRANCH   5  23
TORSDOF 7
ENDMDL
MODEL      118
REMARK 921   NORMALIZED FREE ENERGY PREDICTED BY IDOCK:   -5.35 KCAL/MOL
REMARK 922        TOTAL FREE ENERGY PREDICTED BY IDOCK:   -8.75 KCAL/MOL
REMARK 923 INTER-LIGAND FREE ENERGY PREDICTED BY IDOCK:   -7.64 KCAL/MOL
REMARK 924 INTRA-LIGAND FREE ENERGY PREDICTED BY IDOCK:   -1.11 KCAL/MOL
REMARK 927      BINDING AFFINITY PREDICTED BY RF-SCORE:    0.00 PKD
ROOT
HETATM    1  C   UNL     1      -7.619   7.967  68.289  1.00  0.00    -0.109 C  
HETATM    2  S   UNL     1      -9.291   7.779  67.594  1.00  0.00    -0.144 SA 
HETATM    3  C   UNL     1      -8.977   8.772  66.146  1.00  0.00    -0.185 C  
HETATM    4  C   UNL     1      -8.362  10.120  66.411  1.00  0.00    -0.125 C  
HETATM    5  CA  UNL     1      -7.539   7.892  69.848  1.00  0.00    -0.089 C  
HETATM    6  CA  UNL     1      -7.520  10.349  67.455  1.00  0.00    -0.094 C  
HETATM    7  C   UNL     1      -6.692  11.694  67.546  1.00  0.00    -0.096 C  
HETATM    8  O   UNL     1      -7.146  10.329  70.550  1.00  0.00    -0.298 OA 
HETATM    9  N   UNL     1      -7.277   9.370  68.393  1.00  0.00    -0.075 N  
HETATM   10  OXT UNL     1      -7.256  12.694  66.990  1.00  0.00    -0.075 OA 
HETATM   11  O   UNL     1      -5.513  11.572  67.970  1.00  0.00    -0.043 OA 
HETATM   12  C   UNL     1      -7.190   9.422  69.747  1.00  0.00    -0.076 C  
ENDROOT
BRANCH   4  13
HETATM   13  C   UNL     1      -8.602  11.078  65.260  1.00  0.00    -0.046 C  
BRANCH  13  14
HETATM   14  N   UNL     1      -9.962  11.693  65.089  1.00  0.00    -0.252 NA 
HETATM   15  C   UNL     1     -10.639  12.410  66.021  1.00  0.00    -0.256 A  
HETATM   16  C   UNL     1     -10.210  12.837  67.396  1.00  0.00    -0.222 C  
HETATM   17  C   UNL     1     -11.433  13.585  67.968  1.00  0.00    -0.342 C  
HETATM   18  C   UNL     1     -10.608  11.379  63.927  1.00  0.00    -0.392 A  
HETATM   19  C   UNL     1     -12.524  13.642  66.900  1.00  0.00    -0.189 C  
HETATM   20  C   UNL     1     -11.928  11.758  63.684  1.00  0.00    -0.490 A  
HETATM   21  C   UNL     1     -12.620  12.498  64.622  1.00  0.00    -0.507 A  
HETATM   22  C   UNL     1     -11.959  12.823  65.788  1.00  0.00    -0.502 A  
ENDBRANCH  13  14
ENDBRANCH   4  13
BRANCH   5  23
HETATM   23  N   UNL     1      -8.813   7.631  70.574  1.00  0.00    -0.148 N  
HETATM   24  C   UNL     1      -9.010   7.822  71.932  1.00  0.00    -0.128 C  
HETATM   25  O   UNL     1      -8.211   8.411  72.642  1.00  0.00    -0.229 OA 
HETATM   26  H   UNL     1      -9.601   7.284  70.029  1.00  0.00     0.000 HD 
BRANCH  24  27
HETATM   27  C   UNL     1     -10.336   7.211  72.481  1.00  0.00    -0.208 C  
BRANCH  27  28
HETATM   28  C   UNL     1     -10.446   5.758  72.672  1.00  0.00    -0.208 A  
HETATM   29  N   UNL     1      -9.907   4.867  71.749  1.00  0.00    -0.173 NA 
HETATM   30  N   UNL     1      -9.701   2.583  71.375  1.00  0.00    -0.155 NA 
HETATM   31  C   UNL     1     -11.033   5.135  73.760  1.00  0.00    -0.234 A  
HETATM   32  S   UNL     1     -10.926   3.433  73.606  1.00  0.00    -0.222 SA 
HETATM   33  H1  UNL     1      -9.216   2.698  70.486  1.00  0.00     0.000 HD 
HETATM   34  H2  UNL     1      -9.884   1.640  71.718  1.00  0.00     0.000 HD 
HETATM   35  C   UNL     1     -10.108   3.627  72.108  1.00  0.00    -0.142 A  
ENDBRANCH  27  28
BRANCH  27  36
HETATM   36  N   UNL     1     -11.392   7.883  72.847  1.00  0.00    -0.503 NA 
HETATM   37  H   UNL     1     -11.575   8.142  73.816  1.00  0.00     0.000 HD 
BRANCH  36  38
HETATM   38  O   UNL     1     -12.249   8.216  71.798  1.00  0.00    -0.290 OA 
HETATM   39  C   UNL     1     -12.831   9.482  72.105  1.00  0.00    -0.389 C  
ENDBRANCH  36  38
ENDBRANCH  27  36
ENDBRANCH  24  27
ENDBRANCH   5  23
TORSDOF 7
ENDMDL
MODEL      119
REMARK 921   NORMALIZED FREE ENERGY PREDICTED BY IDOCK:   -5.33 KCAL/MOL
REMARK 922        TOTAL FREE ENERGY PREDICTED BY IDOCK:   -8.72 KCAL/MOL
REMARK 923 INTER-LIGAND FREE ENERGY PREDICTED BY IDOCK:   -8.93 KCAL/MOL
REMARK 924 INTRA-LIGAND FREE ENERGY PREDICTED BY IDOCK:    0.21 KCAL/MOL
REMARK 927      BINDING AFFINITY PREDICTED BY RF-SCORE:    0.00 PKD
ROOT
HETATM    1  C   UNL     1     -11.764  15.233  67.793  1.00  0.00    -0.191 C  
HETATM    2  S   UNL     1     -10.568  14.098  67.020  1.00  0.00    -0.277 SA 
HETATM    3  C   UNL     1     -11.450  12.611  67.457  1.00  0.00    -0.340 C  
HETATM    4  C   UNL     1     -11.846  12.500  68.904  1.00  0.00    -0.346 C  
HETATM    5  CA  UNL     1     -11.159  16.577  68.312  1.00  0.00    -0.321 C  
HETATM    6  CA  UNL     1     -12.142  13.585  69.669  1.00  0.00    -0.306 C  
HETATM    7  C   UNL     1     -12.806  13.413  71.095  1.00  0.00    -0.291 C  
HETATM    8  O   UNL     1     -11.131  16.283  70.861  1.00  0.00    -0.294 OA 
HETATM    9  N   UNL     1     -11.983  14.861  69.175  1.00  0.00    -0.297 N  
HETATM   10  OXT UNL     1     -12.509  12.320  71.682  1.00  0.00    -0.126 OA 
HETATM   11  O   UNL     1     -13.685  14.265  71.385  1.00  0.00    -0.358 OA 
HETATM   12  C   UNL     1     -11.469  15.986  69.735  1.00  0.00    -0.318 C  
ENDROOT
BRANCH   4  13
HETATM   13  C   UNL     1     -12.102  11.058  69.302  1.00  0.00    -0.292 C  
BRANCH  13  14
HETATM   14  N   UNL     1     -10.933  10.157  69.583  1.00  0.00    -0.248 NA 
HETATM   15  C   UNL     1     -10.218   9.462  68.664  1.00  0.00    -0.201 A  
HETATM   16  C   UNL     1     -10.336   9.456  67.166  1.00  0.00    -0.326 C  
HETATM   17  C   UNL     1      -9.275   8.436  66.699  1.00  0.00    -0.226 C  
HETATM   18  C   UNL     1     -10.669   9.933  70.905  1.00  0.00    -0.235 A  
HETATM   19  C   UNL     1      -8.514   7.919  67.917  1.00  0.00    -0.126 C  
HETATM   20  C   UNL     1      -9.708   9.014  71.326  1.00  0.00    -0.371 A  
HETATM   21  C   UNL     1      -8.967   8.311  70.397  1.00  0.00    -0.146 A  
HETATM   22  C   UNL     1      -9.230   8.550  69.064  1.00  0.00    -0.146 A  
ENDBRANCH  13  14
ENDBRANCH   4  13
BRANCH   5  23
HETATM   23  N   UNL     1      -9.705  16.796  68.075  1.00  0.00    -0.238 N  
HETATM   24  C   UNL     1      -8.683  16.267  68.847  1.00  0.00    -0.253 C  
HETATM   25  O   UNL     1      -8.868  15.405  69.691  1.00  0.00    -0.256 OA 
HETATM   26  H   UNL     1      -9.441  17.381  67.282  1.00  0.00     0.000 HD 
BRANCH  24  27
HETATM   27  C   UNL     1      -7.276  16.874  68.554  1.00  0.00    -0.199 C  
BRANCH  27  28
HETATM   28  C   UNL     1      -7.167  18.222  67.981  1.00  0.00    -0.236 A  
HETATM   29  N   UNL     1      -7.426  18.454  66.633  1.00  0.00    -0.219 NA 
HETATM   30  N   UNL     1      -7.451  20.192  65.090  1.00  0.00    -0.430 NA 
HETATM   31  C   UNL     1      -6.852  19.371  68.687  1.00  0.00    -0.305 A  
HETATM   32  S   UNL     1      -6.858  20.733  67.650  1.00  0.00    -0.323 SA 
HETATM   33  H1  UNL     1      -7.700  19.588  64.306  1.00  0.00     0.000 HD 
HETATM   34  H2  UNL     1      -7.328  21.191  64.923  1.00  0.00     0.000 HD 
HETATM   35  C   UNL     1      -7.278  19.717  66.330  1.00  0.00    -0.255 A  
ENDBRANCH  27  28
BRANCH  27  36
HETATM   36  N   UNL     1      -6.132  16.306  68.814  1.00  0.00    -0.114 NA 
HETATM   37  H   UNL     1      -5.567  15.846  68.101  1.00  0.00     0.000 HD 
BRANCH  36  38
HETATM   38  O   UNL     1      -5.746  16.382  70.153  1.00  0.00    -0.193 OA 
HETATM   39  C   UNL     1      -5.228  15.106  70.524  1.00  0.00    -0.129 C  
ENDBRANCH  36  38
ENDBRANCH  27  36
ENDBRANCH  24  27
ENDBRANCH   5  23
TORSDOF 7
ENDMDL
MODEL      120
REMARK 921   NORMALIZED FREE ENERGY PREDICTED BY IDOCK:   -5.33 KCAL/MOL
REMARK 922        TOTAL FREE ENERGY PREDICTED BY IDOCK:   -8.72 KCAL/MOL
REMARK 923 INTER-LIGAND FREE ENERGY PREDICTED BY IDOCK:   -8.01 KCAL/MOL
REMARK 924 INTRA-LIGAND FREE ENERGY PREDICTED BY IDOCK:   -0.71 KCAL/MOL
REMARK 927      BINDING AFFINITY PREDICTED BY RF-SCORE:    0.00 PKD
ROOT
HETATM    1  C   UNL     1      -8.384   9.820  68.649  1.00  0.00    -0.111 C  
HETATM    2  S   UNL     1     -10.058  10.306  69.175  1.00  0.00    -0.230 SA 
HETATM    3  C   UNL     1     -10.476   8.719  69.871  1.00  0.00    -0.221 C  
HETATM    4  C   UNL     1     -10.226   7.537  68.974  1.00  0.00    -0.208 C  
HETATM    5  CA  UNL     1      -7.838  10.580  67.398  1.00  0.00    -0.106 C  
HETATM    6  CA  UNL     1      -9.221   7.512  68.058  1.00  0.00    -0.137 C  
HETATM    7  C   UNL     1      -8.825   6.166  67.327  1.00  0.00    -0.107 C  
HETATM    8  O   UNL     1      -7.976   8.833  65.523  1.00  0.00    -0.094 OA 
HETATM    9  N   UNL     1      -8.445   8.628  67.831  1.00  0.00    -0.129 N  
HETATM   10  OXT UNL     1      -9.789   5.340  67.193  1.00  0.00    -0.139 OA 
HETATM   11  O   UNL     1      -7.591   5.992  67.150  1.00  0.00    -0.090 OA 
HETATM   12  C   UNL     1      -7.989   9.188  66.682  1.00  0.00    -0.104 C  
ENDROOT
BRANCH   4  13
HETATM   13  C   UNL     1     -11.055   6.336  69.390  1.00  0.00    -0.410 C  
BRANCH  13  14
HETATM   14  N   UNL     1     -10.544   5.436  70.479  1.00  0.00    -0.266 NA 
HETATM   15  C   UNL     1     -10.438   5.750  71.795  1.00  0.00    -0.228 A  
HETATM   16  C   UNL     1     -10.853   7.001  72.515  1.00  0.00    -0.285 C  
HETATM   17  C   UNL     1     -10.431   6.761  73.981  1.00  0.00    -0.302 C  
HETATM   18  C   UNL     1     -10.025   4.243  70.060  1.00  0.00    -0.126 A  
HETATM   19  C   UNL     1      -9.844   5.356  74.104  1.00  0.00    -0.201 C  
HETATM   20  C   UNL     1      -9.388   3.361  70.932  1.00  0.00    -0.219 A  
HETATM   21  C   UNL     1      -9.287   3.667  72.275  1.00  0.00    -0.177 A  
HETATM   22  C   UNL     1      -9.823   4.867  72.695  1.00  0.00    -0.200 A  
ENDBRANCH  13  14
ENDBRANCH   4  13
BRANCH   5  23
HETATM   23  N   UNL     1      -8.715  11.634  66.815  1.00  0.00    -0.184 N  
HETATM   24  C   UNL     1      -8.679  12.977  67.152  1.00  0.00    -0.204 C  
HETATM   25  O   UNL     1      -7.786  13.468  67.825  1.00  0.00    -0.136 OA 
HETATM   26  H   UNL     1      -9.395  11.343  66.114  1.00  0.00     0.000 HD 
BRANCH  24  27
HETATM   27  C   UNL     1      -9.881  13.809  66.609  1.00  0.00    -0.284 C  
BRANCH  27  28
HETATM   28  C   UNL     1     -10.572  13.380  65.386  1.00  0.00    -0.303 A  
HETATM   29  N   UNL     1     -10.085  12.330  64.613  1.00  0.00    -0.273 NA 
HETATM   30  N   UNL     1     -10.581  11.158  62.669  1.00  0.00    -0.594 NA 
HETATM   31  C   UNL     1     -11.756  13.914  64.904  1.00  0.00    -0.368 A  
HETATM   32  S   UNL     1     -12.237  13.111  63.471  1.00  0.00    -0.377 SA 
HETATM   33  H1  UNL     1      -9.757  10.561  62.732  1.00  0.00     0.000 HD 
HETATM   34  H2  UNL     1     -11.224  11.030  61.887  1.00  0.00     0.000 HD 
HETATM   35  C   UNL     1     -10.848  12.105  63.577  1.00  0.00    -0.458 A  
ENDBRANCH  27  28
BRANCH  27  36
HETATM   36  N   UNL     1     -10.390  14.870  67.170  1.00  0.00    -0.257 NA 
HETATM   37  H   UNL     1     -10.409  15.783  66.715  1.00  0.00     0.000 HD 
BRANCH  36  38
HETATM   38  O   UNL     1     -10.906  14.649  68.447  1.00  0.00    -0.234 OA 
HETATM   39  C   UNL     1     -10.433  15.699  69.289  1.00  0.00    -0.247 C  
ENDBRANCH  36  38
ENDBRANCH  27  36
ENDBRANCH  24  27
ENDBRANCH   5  23
TORSDOF 7
ENDMDL
MODEL      121
REMARK 921   NORMALIZED FREE ENERGY PREDICTED BY IDOCK:   -5.29 KCAL/MOL
REMARK 922        TOTAL FREE ENERGY PREDICTED BY IDOCK:   -8.66 KCAL/MOL
REMARK 923 INTER-LIGAND FREE ENERGY PREDICTED BY IDOCK:   -7.38 KCAL/MOL
REMARK 924 INTRA-LIGAND FREE ENERGY PREDICTED BY IDOCK:   -1.29 KCAL/MOL
REMARK 927      BINDING AFFINITY PREDICTED BY RF-SCORE:    0.00 PKD
ROOT
HETATM    1  C   UNL     1     -10.857   8.768  69.372  1.00  0.00    -0.110 C  
HETATM    2  S   UNL     1     -10.766   8.371  67.597  1.00  0.00    -0.027 SA 
HETATM    3  C   UNL     1     -10.678   6.605  67.831  1.00  0.00    -0.274 C  
HETATM    4  C   UNL     1      -9.639   6.138  68.814  1.00  0.00    -0.137 C  
HETATM    5  CA  UNL     1     -10.261  10.157  69.769  1.00  0.00    -0.247 C  
HETATM    6  CA  UNL     1      -9.267   6.876  69.895  1.00  0.00    -0.147 C  
HETATM    7  C   UNL     1      -8.378   6.245  71.041  1.00  0.00    -0.124 C  
HETATM    8  O   UNL     1      -8.048   9.556  70.921  1.00  0.00    -0.297 OA 
HETATM    9  N   UNL     1      -9.753   8.153  70.078  1.00  0.00    -0.172 N  
HETATM   10  OXT UNL     1      -7.601   5.314  70.646  1.00  0.00    -0.072 OA 
HETATM   11  O   UNL     1      -8.684   6.591  72.212  1.00  0.00    -0.130 OA 
HETATM   12  C   UNL     1      -9.143   9.301  70.469  1.00  0.00    -0.259 C  
ENDROOT
BRANCH   4  13
HETATM   13  C   UNL     1      -9.266   4.686  68.583  1.00  0.00    -0.126 C  
BRANCH  13  14
HETATM   14  N   UNL     1      -8.323   4.340  67.466  1.00  0.00    -0.099 NA 
HETATM   15  C   UNL     1      -8.670   4.038  66.189  1.00  0.00    -0.116 A  
HETATM   16  C   UNL     1     -10.026   4.038  65.542  1.00  0.00    -0.171 C  
HETATM   17  C   UNL     1      -9.763   3.567  64.095  1.00  0.00    -0.168 C  
HETATM   18  C   UNL     1      -7.012   4.199  67.825  1.00  0.00    -0.056 A  
HETATM   19  C   UNL     1      -8.261   3.368  63.903  1.00  0.00    -0.090 C  
HETATM   20  C   UNL     1      -6.041   3.746  66.933  1.00  0.00    -0.025 A  
HETATM   21  C   UNL     1      -6.384   3.448  65.628  1.00  0.00    -0.032 A  
HETATM   22  C   UNL     1      -7.706   3.604  65.268  1.00  0.00    -0.085 A  
ENDBRANCH  13  14
ENDBRANCH   4  13
BRANCH   5  23
HETATM   23  N   UNL     1      -9.739  11.006  68.662  1.00  0.00    -0.190 N  
HETATM   24  C   UNL     1     -10.395  12.096  68.116  1.00  0.00    -0.207 C  
HETATM   25  O   UNL     1     -11.390  12.593  68.621  1.00  0.00    -0.248 OA 
HETATM   26  H   UNL     1      -8.827  10.764  68.276  1.00  0.00     0.000 HD 
BRANCH  24  27
HETATM   27  C   UNL     1      -9.764  12.632  66.794  1.00  0.00    -0.240 C  
BRANCH  27  28
HETATM   28  C   UNL     1     -10.633  13.088  65.702  1.00  0.00    -0.282 A  
HETATM   29  N   UNL     1     -10.736  14.438  65.380  1.00  0.00    -0.326 NA 
HETATM   30  N   UNL     1     -11.837  15.844  63.892  1.00  0.00    -1.258 NA 
HETATM   31  C   UNL     1     -11.381  12.267  64.876  1.00  0.00    -0.325 A  
HETATM   32  S   UNL     1     -12.230  13.196  63.715  1.00  0.00    -0.425 SA 
HETATM   33  H1  UNL     1     -11.435  16.695  64.285  1.00  0.00     0.000 HD 
HETATM   34  H2  UNL     1     -12.478  15.921  63.102  1.00  0.00     0.000 HD 
HETATM   35  C   UNL     1     -11.553  14.629  64.377  1.00  0.00    -0.305 A  
ENDBRANCH  27  28
BRANCH  27  36
HETATM   36  N   UNL     1      -8.488  12.765  66.557  1.00  0.00    -0.415 NA 
HETATM   37  H   UNL     1      -8.007  13.662  66.603  1.00  0.00     0.000 HD 
BRANCH  36  38
HETATM   38  O   UNL     1      -7.839  11.573  66.236  1.00  0.00    -0.086 OA 
HETATM   39  C   UNL     1      -6.534  11.625  66.810  1.00  0.00    -0.106 C  
ENDBRANCH  36  38
ENDBRANCH  27  36
ENDBRANCH  24  27
ENDBRANCH   5  23
TORSDOF 7
ENDMDL
MODEL      122
REMARK 921   NORMALIZED FREE ENERGY PREDICTED BY IDOCK:   -5.28 KCAL/MOL
REMARK 922        TOTAL FREE ENERGY PREDICTED BY IDOCK:   -8.65 KCAL/MOL
REMARK 923 INTER-LIGAND FREE ENERGY PREDICTED BY IDOCK:   -7.77 KCAL/MOL
REMARK 924 INTRA-LIGAND FREE ENERGY PREDICTED BY IDOCK:   -0.88 KCAL/MOL
REMARK 927      BINDING AFFINITY PREDICTED BY RF-SCORE:    0.00 PKD
ROOT
HETATM    1  C   UNL     1     -11.751   6.784  70.936  1.00  0.00    -0.372 C  
HETATM    2  S   UNL     1     -11.082   7.383  69.352  1.00  0.00     0.053 SA 
HETATM    3  C   UNL     1     -10.187   5.887  68.978  1.00  0.00    -0.203 C  
HETATM    4  C   UNL     1      -9.304   5.372  70.082  1.00  0.00    -0.193 C  
HETATM    5  CA  UNL     1     -12.026   7.895  72.000  1.00  0.00    -0.319 C  
HETATM    6  CA  UNL     1      -9.598   5.547  71.399  1.00  0.00    -0.154 C  
HETATM    7  C   UNL     1      -8.795   4.770  72.518  1.00  0.00    -0.118 C  
HETATM    8  O   UNL     1     -10.126   7.585  73.699  1.00  0.00    -0.327 OA 
HETATM    9  N   UNL     1     -10.678   6.312  71.784  1.00  0.00    -0.228 N  
HETATM   10  OXT UNL     1      -7.593   4.486  72.198  1.00  0.00    -0.083 OA 
HETATM   11  O   UNL     1      -9.485   4.358  73.487  1.00  0.00    -0.117 OA 
HETATM   12  C   UNL     1     -10.820   7.238  72.767  1.00  0.00    -0.314 C  
ENDROOT
BRANCH   4  13
HETATM   13  C   UNL     1      -8.221   4.454  69.547  1.00  0.00    -0.059 C  
BRANCH  13  14
HETATM   14  N   UNL     1      -8.228   4.083  68.092  1.00  0.00    -0.091 NA 
HETATM   15  C   UNL     1      -7.733   4.828  67.071  1.00  0.00    -0.091 A  
HETATM   16  C   UNL     1      -7.003   6.140  67.114  1.00  0.00    -0.068 C  
HETATM   17  C   UNL     1      -6.743   6.486  65.632  1.00  0.00    -0.048 C  
HETATM   18  C   UNL     1      -8.917   2.944  67.778  1.00  0.00    -0.159 A  
HETATM   19  C   UNL     1      -7.261   5.345  64.758  1.00  0.00    -0.062 C  
HETATM   20  C   UNL     1      -9.132   2.544  66.461  1.00  0.00    -0.111 A  
HETATM   21  C   UNL     1      -8.622   3.290  65.417  1.00  0.00    -0.112 A  
HETATM   22  C   UNL     1      -7.917   4.432  65.739  1.00  0.00    -0.095 A  
ENDBRANCH  13  14
ENDBRANCH   4  13
BRANCH   5  23
HETATM   23  N   UNL     1     -11.758   9.301  71.588  1.00  0.00    -0.369 N  
HETATM   24  C   UNL     1     -12.729  10.259  71.347  1.00  0.00    -0.442 C  
HETATM   25  O   UNL     1     -13.904  10.101  71.637  1.00  0.00    -0.122 OA 
HETATM   26  H   UNL     1     -10.784   9.579  71.474  1.00  0.00     0.000 HD 
BRANCH  24  27
HETATM   27  C   UNL     1     -12.197  11.556  70.663  1.00  0.00    -0.378 C  
BRANCH  27  28
HETATM   28  C   UNL     1     -11.500  11.467  69.373  1.00  0.00    -0.309 A  
HETATM   29  N   UNL     1     -12.145  11.791  68.182  1.00  0.00    -0.531 NA 
HETATM   30  N   UNL     1     -11.740  11.882  65.895  1.00  0.00    -0.437 NA 
HETATM   31  C   UNL     1     -10.173  11.112  69.201  1.00  0.00    -0.141 A  
HETATM   32  S   UNL     1      -9.749  11.161  67.543  1.00  0.00    -0.178 SA 
HETATM   33  H1  UNL     1     -12.690  12.174  65.665  1.00  0.00     0.000 HD 
HETATM   34  H2  UNL     1     -11.065  11.762  65.140  1.00  0.00     0.000 HD 
HETATM   35  C   UNL     1     -11.349  11.652  67.155  1.00  0.00    -0.306 A  
ENDBRANCH  27  28
BRANCH  27  36
HETATM   36  N   UNL     1     -12.347  12.771  71.110  1.00  0.00    -0.347 NA 
HETATM   37  H   UNL     1     -11.965  13.588  70.634  1.00  0.00     0.000 HD 
BRANCH  36  38
HETATM   38  O   UNL     1     -13.074  12.858  72.297  1.00  0.00    -0.402 OA 
HETATM   39  C   UNL     1     -13.951  13.977  72.183  1.00  0.00    -0.538 C  
ENDBRANCH  36  38
ENDBRANCH  27  36
ENDBRANCH  24  27
ENDBRANCH   5  23
TORSDOF 7
ENDMDL
MODEL      123
REMARK 921   NORMALIZED FREE ENERGY PREDICTED BY IDOCK:   -5.27 KCAL/MOL
REMARK 922        TOTAL FREE ENERGY PREDICTED BY IDOCK:   -8.63 KCAL/MOL
REMARK 923 INTER-LIGAND FREE ENERGY PREDICTED BY IDOCK:   -7.89 KCAL/MOL
REMARK 924 INTRA-LIGAND FREE ENERGY PREDICTED BY IDOCK:   -0.73 KCAL/MOL
REMARK 927      BINDING AFFINITY PREDICTED BY RF-SCORE:    0.00 PKD
ROOT
HETATM    1  C   UNL     1      -8.137   7.847  67.356  1.00  0.00    -0.123 C  
HETATM    2  S   UNL     1      -8.089   8.767  68.927  1.00  0.00    -0.115 SA 
HETATM    3  C   UNL     1      -7.417   7.419  69.882  1.00  0.00    -0.085 C  
HETATM    4  C   UNL     1      -8.139   6.107  69.740  1.00  0.00    -0.119 C  
HETATM    5  CA  UNL     1      -9.256   8.296  66.361  1.00  0.00    -0.195 C  
HETATM    6  CA  UNL     1      -8.765   5.735  68.590  1.00  0.00    -0.108 C  
HETATM    7  C   UNL     1      -9.278   4.252  68.391  1.00  0.00    -0.139 C  
HETATM    8  O   UNL     1     -10.982   6.402  66.502  1.00  0.00    -0.216 OA 
HETATM    9  N   UNL     1      -8.861   6.606  67.527  1.00  0.00    -0.117 N  
HETATM   10  OXT UNL     1      -9.597   3.659  69.474  1.00  0.00    -0.185 OA 
HETATM   11  O   UNL     1      -9.122   3.780  67.234  1.00  0.00    -0.132 OA 
HETATM   12  C   UNL     1      -9.891   6.896  66.691  1.00  0.00    -0.153 C  
ENDROOT
BRANCH   4  13
HETATM   13  C   UNL     1      -7.868   5.191  70.918  1.00  0.00    -0.096 C  
BRANCH  13  14
HETATM   14  N   UNL     1      -8.934   4.998  71.957  1.00  0.00    -0.131 NA 
HETATM   15  C   UNL     1      -9.108   3.897  72.732  1.00  0.00    -0.104 A  
HETATM   16  C   UNL     1      -8.276   2.649  72.820  1.00  0.00    -0.066 C  
HETATM   17  C   UNL     1      -9.015   1.764  73.847  1.00  0.00    -0.058 C  
HETATM   18  C   UNL     1      -9.881   5.981  72.019  1.00  0.00    -0.156 A  
HETATM   19  C   UNL     1     -10.220   2.532  74.388  1.00  0.00    -0.185 C  
HETATM   20  C   UNL     1     -11.008   5.879  72.832  1.00  0.00    -0.303 A  
HETATM   21  C   UNL     1     -11.187   4.768  73.633  1.00  0.00    -0.332 A  
HETATM   22  C   UNL     1     -10.223   3.784  73.576  1.00  0.00    -0.213 A  
ENDBRANCH  13  14
ENDBRANCH   4  13
BRANCH   5  23
HETATM   23  N   UNL     1     -10.112   9.439  66.785  1.00  0.00    -0.240 N  
HETATM   24  C   UNL     1     -10.508  10.484  65.967  1.00  0.00    -0.156 C  
HETATM   25  O   UNL     1     -10.352  10.475  64.755  1.00  0.00    -0.339 OA 
HETATM   26  H   UNL     1     -10.431   9.453  67.753  1.00  0.00     0.000 HD 
BRANCH  24  27
HETATM   27  C   UNL     1     -11.159  11.683  66.723  1.00  0.00    -0.309 C  
BRANCH  27  28
HETATM   28  C   UNL     1     -10.715  13.054  66.440  1.00  0.00    -0.282 A  
HETATM   29  N   UNL     1     -11.270  13.789  65.397  1.00  0.00    -0.298 NA 
HETATM   30  N   UNL     1     -11.094  15.875  64.385  1.00  0.00    -0.908 NA 
HETATM   31  C   UNL     1      -9.770  13.757  67.167  1.00  0.00    -0.244 A  
HETATM   32  S   UNL     1      -9.566  15.330  66.523  1.00  0.00    -0.292 SA 
HETATM   33  H1  UNL     1     -11.793  15.668  63.672  1.00  0.00     0.000 HD 
HETATM   34  H2  UNL     1     -10.648  16.792  64.387  1.00  0.00     0.000 HD 
HETATM   35  C   UNL     1     -10.742  14.983  65.320  1.00  0.00    -0.389 A  
ENDBRANCH  27  28
BRANCH  27  36
HETATM   36  N   UNL     1     -12.130  11.600  67.590  1.00  0.00    -0.573 NA 
HETATM   37  H   UNL     1     -12.976  11.055  67.425  1.00  0.00     0.000 HD 
BRANCH  36  38
HETATM   38  O   UNL     1     -11.911  12.322  68.763  1.00  0.00    -0.302 OA 
HETATM   39  C   UNL     1     -11.280  11.447  69.696  1.00  0.00    -0.230 C  
ENDBRANCH  36  38
ENDBRANCH  27  36
ENDBRANCH  24  27
ENDBRANCH   5  23
TORSDOF 7
ENDMDL
MODEL      124
REMARK 921   NORMALIZED FREE ENERGY PREDICTED BY IDOCK:   -5.25 KCAL/MOL
REMARK 922        TOTAL FREE ENERGY PREDICTED BY IDOCK:   -8.61 KCAL/MOL
REMARK 923 INTER-LIGAND FREE ENERGY PREDICTED BY IDOCK:   -7.47 KCAL/MOL
REMARK 924 INTRA-LIGAND FREE ENERGY PREDICTED BY IDOCK:   -1.14 KCAL/MOL
REMARK 927      BINDING AFFINITY PREDICTED BY RF-SCORE:    0.00 PKD
ROOT
HETATM    1  C   UNL     1     -10.704   7.225  67.313  1.00  0.00    -0.321 C  
HETATM    2  S   UNL     1     -11.081   8.831  68.084  1.00  0.00     0.497 SA 
HETATM    3  C   UNL     1     -10.753   9.795  66.620  1.00  0.00    -0.036 C  
HETATM    4  C   UNL     1      -9.437   9.515  65.947  1.00  0.00    -0.307 C  
HETATM    5  CA  UNL     1     -10.162   6.133  68.291  1.00  0.00    -0.175 C  
HETATM    6  CA  UNL     1      -8.850   8.288  65.966  1.00  0.00    -0.168 C  
HETATM    7  C   UNL     1      -7.614   7.967  65.033  1.00  0.00    -0.104 C  
HETATM    8  O   UNL     1      -7.664   5.997  67.718  1.00  0.00    -0.098 OA 
HETATM    9  N   UNL     1      -9.389   7.260  66.708  1.00  0.00    -0.156 N  
HETATM   10  OXT UNL     1      -6.891   8.981  64.756  1.00  0.00    -0.079 OA 
HETATM   11  O   UNL     1      -7.607   6.816  64.525  1.00  0.00    -0.088 OA 
HETATM   12  C   UNL     1      -8.811   6.328  67.509  1.00  0.00    -0.103 C  
ENDROOT
BRANCH   4  13
HETATM   13  C   UNL     1      -9.001  10.675  65.072  1.00  0.00    -0.199 C  
BRANCH  13  14
HETATM   14  N   UNL     1      -9.946  11.821  64.850  1.00  0.00    -0.249 NA 
HETATM   15  C   UNL     1     -10.216  12.819  65.729  1.00  0.00    -0.289 A  
HETATM   16  C   UNL     1      -9.617  13.090  67.080  1.00  0.00    -0.236 C  
HETATM   17  C   UNL     1     -10.368  14.338  67.592  1.00  0.00    -0.248 C  
HETATM   18  C   UNL     1     -10.686  11.760  63.702  1.00  0.00    -0.440 A  
HETATM   19  C   UNL     1     -11.337  14.812  66.511  1.00  0.00    -0.344 C  
HETATM   20  C   UNL     1     -11.701  12.673  63.422  1.00  0.00    -0.571 A  
HETATM   21  C   UNL     1     -11.974  13.698  64.306  1.00  0.00    -0.488 A  
HETATM   22  C   UNL     1     -11.217  13.762  65.457  1.00  0.00    -0.303 A  
ENDBRANCH  13  14
ENDBRANCH   4  13
BRANCH   5  23
HETATM   23  N   UNL     1     -10.063   6.509  69.729  1.00  0.00    -0.175 N  
HETATM   24  C   UNL     1     -10.221   5.636  70.793  1.00  0.00    -0.227 C  
HETATM   25  O   UNL     1     -10.268   4.424  70.656  1.00  0.00    -0.178 OA 
HETATM   26  H   UNL     1      -9.864   7.485  69.946  1.00  0.00     0.000 HD 
BRANCH  24  27
HETATM   27  C   UNL     1     -10.347   6.333  72.183  1.00  0.00    -0.191 C  
BRANCH  27  28
HETATM   28  C   UNL     1      -9.142   6.593  72.981  1.00  0.00    -0.127 A  
HETATM   29  N   UNL     1      -8.611   7.875  73.087  1.00  0.00    -0.178 NA 
HETATM   30  N   UNL     1      -6.841   9.003  74.086  1.00  0.00    -0.369 NA 
HETATM   31  C   UNL     1      -8.452   5.649  73.722  1.00  0.00    -0.113 A  
HETATM   32  S   UNL     1      -7.125   6.371  74.527  1.00  0.00    -0.089 SA 
HETATM   33  H1  UNL     1      -7.092   9.905  73.682  1.00  0.00     0.000 HD 
HETATM   34  H2  UNL     1      -6.025   8.946  74.695  1.00  0.00     0.000 HD 
HETATM   35  C   UNL     1      -7.547   7.890  73.846  1.00  0.00    -0.159 A  
ENDBRANCH  27  28
BRANCH  27  36
HETATM   36  N   UNL     1     -11.452   6.769  72.720  1.00  0.00    -0.460 NA 
HETATM   37  H   UNL     1     -11.663   6.669  73.713  1.00  0.00     0.000 HD 
BRANCH  36  38
HETATM   38  O   UNL     1     -12.322   7.384  71.820  1.00  0.00    -0.308 OA 
HETATM   39  C   UNL     1     -12.413   8.761  72.181  1.00  0.00    -0.393 C  
ENDBRANCH  36  38
ENDBRANCH  27  36
ENDBRANCH  24  27
ENDBRANCH   5  23
TORSDOF 7
ENDMDL
MODEL      125
REMARK 921   NORMALIZED FREE ENERGY PREDICTED BY IDOCK:   -5.24 KCAL/MOL
REMARK 922        TOTAL FREE ENERGY PREDICTED BY IDOCK:   -8.59 KCAL/MOL
REMARK 923 INTER-LIGAND FREE ENERGY PREDICTED BY IDOCK:   -9.04 KCAL/MOL
REMARK 924 INTRA-LIGAND FREE ENERGY PREDICTED BY IDOCK:    0.44 KCAL/MOL
REMARK 927      BINDING AFFINITY PREDICTED BY RF-SCORE:    0.00 PKD
ROOT
HETATM    1  C   UNL     1     -12.123  13.621  68.354  1.00  0.00    -0.277 C  
HETATM    2  S   UNL     1     -11.702  13.801  70.116  1.00  0.00    -0.186 SA 
HETATM    3  C   UNL     1     -10.958  15.412  69.941  1.00  0.00    -0.294 C  
HETATM    4  C   UNL     1      -9.928  15.530  68.851  1.00  0.00    -0.218 C  
HETATM    5  CA  UNL     1     -12.159  12.149  67.829  1.00  0.00     0.073 C  
HETATM    6  CA  UNL     1      -9.987  14.801  67.703  1.00  0.00    -0.226 C  
HETATM    7  C   UNL     1      -9.046  15.141  66.478  1.00  0.00    -0.294 C  
HETATM    8  O   UNL     1     -10.018  11.956  66.427  1.00  0.00    -0.205 OA 
HETATM    9  N   UNL     1     -10.947  13.826  67.536  1.00  0.00    -0.268 N  
HETATM   10  OXT UNL     1      -7.931  15.668  66.806  1.00  0.00    -0.232 OA 
HETATM   11  O   UNL     1      -9.581  15.039  65.344  1.00  0.00    -0.267 OA 
HETATM   12  C   UNL     1     -10.875  12.570  67.025  1.00  0.00    -0.254 C  
ENDROOT
BRANCH   4  13
HETATM   13  C   UNL     1      -8.998  16.704  69.088  1.00  0.00    -0.145 C  
BRANCH  13  14
HETATM   14  N   UNL     1      -9.198  17.969  68.303  1.00  0.00    -0.286 NA 
HETATM   15  C   UNL     1      -8.267  18.931  68.082  1.00  0.00    -0.311 A  
HETATM   16  C   UNL     1      -6.818  18.967  68.477  1.00  0.00    -0.297 C  
HETATM   17  C   UNL     1      -6.315  20.338  67.975  1.00  0.00    -0.307 C  
HETATM   18  C   UNL     1     -10.479  18.209  67.892  1.00  0.00    -0.392 A  
HETATM   19  C   UNL     1      -7.452  21.045  67.240  1.00  0.00    -0.276 C  
HETATM   20  C   UNL     1     -10.851  19.403  67.276  1.00  0.00    -0.561 A  
HETATM   21  C   UNL     1      -9.908  20.383  67.036  1.00  0.00    -0.594 A  
HETATM   22  C   UNL     1      -8.614  20.130  67.442  1.00  0.00    -0.413 A  
ENDBRANCH  13  14
ENDBRANCH   4  13
BRANCH   5  23
HETATM   23  N   UNL     1     -11.896  11.074  68.827  1.00  0.00    -0.378 N  
HETATM   24  C   UNL     1     -10.641  10.647  69.226  1.00  0.00    -0.233 C  
HETATM   25  O   UNL     1      -9.615  11.245  68.941  1.00  0.00    -0.183 OA 
HETATM   26  H   UNL     1     -12.705  10.617  69.248  1.00  0.00     0.000 HD 
BRANCH  24  27
HETATM   27  C   UNL     1     -10.645   9.330  70.062  1.00  0.00    -0.228 C  
BRANCH  27  28
HETATM   28  C   UNL     1      -9.378   8.774  70.555  1.00  0.00    -0.187 A  
HETATM   29  N   UNL     1      -8.552   8.019  69.726  1.00  0.00    -0.130 NA 
HETATM   30  N   UNL     1      -6.534   6.868  69.780  1.00  0.00    -0.042 NA 
HETATM   31  C   UNL     1      -8.860   8.961  71.825  1.00  0.00    -0.101 A  
HETATM   32  S   UNL     1      -7.350   8.168  71.980  1.00  0.00    -0.097 SA 
HETATM   33  H1  UNL     1      -6.608   6.546  68.815  1.00  0.00     0.000 HD 
HETATM   34  H2  UNL     1      -5.714   6.603  70.325  1.00  0.00     0.000 HD 
HETATM   35  C   UNL     1      -7.476   7.626  70.355  1.00  0.00    -0.079 A  
ENDBRANCH  27  28
BRANCH  27  36
HETATM   36  N   UNL     1     -11.703   8.659  70.423  1.00  0.00    -0.472 NA 
HETATM   37  H   UNL     1     -11.895   7.711  70.102  1.00  0.00     0.000 HD 
BRANCH  36  38
HETATM   38  O   UNL     1     -12.550   9.352  71.288  1.00  0.00    -0.316 OA 
HETATM   39  C   UNL     1     -13.365   8.388  71.954  1.00  0.00    -0.357 C  
ENDBRANCH  36  38
ENDBRANCH  27  36
ENDBRANCH  24  27
ENDBRANCH   5  23
TORSDOF 7
ENDMDL
MODEL      126
REMARK 921   NORMALIZED FREE ENERGY PREDICTED BY IDOCK:   -5.19 KCAL/MOL
REMARK 922        TOTAL FREE ENERGY PREDICTED BY IDOCK:   -8.53 KCAL/MOL
REMARK 923 INTER-LIGAND FREE ENERGY PREDICTED BY IDOCK:   -7.60 KCAL/MOL
REMARK 924 INTRA-LIGAND FREE ENERGY PREDICTED BY IDOCK:   -0.93 KCAL/MOL
REMARK 927      BINDING AFFINITY PREDICTED BY RF-SCORE:    0.00 PKD
ROOT
HETATM    1  C   UNL     1     -11.354  10.380  68.836  1.00  0.00    -0.219 C  
HETATM    2  S   UNL     1      -9.567  10.683  69.004  1.00  0.00    -0.171 SA 
HETATM    3  C   UNL     1      -9.132   8.968  69.227  1.00  0.00    -0.145 C  
HETATM    4  C   UNL     1      -9.926   8.234  70.273  1.00  0.00    -0.188 C  
HETATM    5  CA  UNL     1     -12.270  11.555  69.309  1.00  0.00    -0.179 C  
HETATM    6  CA  UNL     1     -11.222   8.536  70.557  1.00  0.00    -0.242 C  
HETATM    7  C   UNL     1     -12.096   7.580  71.464  1.00  0.00    -0.316 C  
HETATM    8  O   UNL     1     -13.233  10.710  71.533  1.00  0.00    -0.389 OA 
HETATM    9  N   UNL     1     -11.839   9.618  69.967  1.00  0.00    -0.042 N  
HETATM   10  OXT UNL     1     -11.426   6.917  72.323  1.00  0.00    -0.263 OA 
HETATM   11  O   UNL     1     -13.294   7.442  71.102  1.00  0.00    -0.305 OA 
HETATM   12  C   UNL     1     -12.661  10.572  70.474  1.00  0.00    -0.339 C  
ENDROOT
BRANCH   4  13
HETATM   13  C   UNL     1      -9.192   7.001  70.767  1.00  0.00    -0.157 C  
BRANCH  13  14
HETATM   14  N   UNL     1      -8.769   5.955  69.776  1.00  0.00    -0.127 NA 
HETATM   15  C   UNL     1      -9.455   5.576  68.668  1.00  0.00    -0.129 A  
HETATM   16  C   UNL     1     -10.735   6.124  68.103  1.00  0.00    -0.367 C  
HETATM   17  C   UNL     1     -11.016   5.249  66.863  1.00  0.00     0.116 C  
HETATM   18  C   UNL     1      -7.651   5.244  70.112  1.00  0.00    -0.072 A  
HETATM   19  C   UNL     1      -9.868   4.257  66.686  1.00  0.00    -0.236 C  
HETATM   20  C   UNL     1      -7.213   4.150  69.367  1.00  0.00    -0.050 A  
HETATM   21  C   UNL     1      -7.899   3.766  68.231  1.00  0.00    -0.072 A  
HETATM   22  C   UNL     1      -9.019   4.494  67.890  1.00  0.00    -0.133 A  
ENDBRANCH  13  14
ENDBRANCH   4  13
BRANCH   5  23
HETATM   23  N   UNL     1     -11.587  12.788  69.791  1.00  0.00    -0.480 N  
HETATM   24  C   UNL     1     -11.542  13.992  69.109  1.00  0.00    -0.313 C  
HETATM   25  O   UNL     1     -12.227  14.223  68.124  1.00  0.00    -0.284 OA 
HETATM   26  H   UNL     1     -11.116  12.741  70.694  1.00  0.00     0.000 HD 
BRANCH  24  27
HETATM   27  C   UNL     1     -10.534  15.027  69.696  1.00  0.00    -0.213 C  
BRANCH  27  28
HETATM   28  C   UNL     1      -9.609  15.734  68.801  1.00  0.00    -0.216 A  
HETATM   29  N   UNL     1      -8.276  15.347  68.692  1.00  0.00    -0.148 NA 
HETATM   30  N   UNL     1      -6.326  15.940  67.574  1.00  0.00    -0.160 NA 
HETATM   31  C   UNL     1      -9.945  16.789  67.970  1.00  0.00    -0.272 A  
HETATM   32  S   UNL     1      -8.581  17.305  67.074  1.00  0.00    -0.237 SA 
HETATM   33  H1  UNL     1      -5.761  15.223  68.030  1.00  0.00     0.000 HD 
HETATM   34  H2  UNL     1      -5.884  16.556  66.893  1.00  0.00     0.000 HD 
HETATM   35  C   UNL     1      -7.629  16.099  67.841  1.00  0.00    -0.134 A  
ENDBRANCH  27  28
BRANCH  27  36
HETATM   36  N   UNL     1     -10.447  15.382  70.948  1.00  0.00    -0.350 NA 
HETATM   37  H   UNL     1      -9.632  15.857  71.334  1.00  0.00     0.000 HD 
BRANCH  36  38
HETATM   38  O   UNL     1     -11.566  15.054  71.714  1.00  0.00    -0.377 OA 
HETATM   39  C   UNL     1     -12.186  16.274  72.115  1.00  0.00    -0.394 C  
ENDBRANCH  36  38
ENDBRANCH  27  36
ENDBRANCH  24  27
ENDBRANCH   5  23
TORSDOF 7
ENDMDL
MODEL      127
REMARK 921   NORMALIZED FREE ENERGY PREDICTED BY IDOCK:   -5.19 KCAL/MOL
REMARK 922        TOTAL FREE ENERGY PREDICTED BY IDOCK:   -8.53 KCAL/MOL
REMARK 923 INTER-LIGAND FREE ENERGY PREDICTED BY IDOCK:   -7.66 KCAL/MOL
REMARK 924 INTRA-LIGAND FREE ENERGY PREDICTED BY IDOCK:   -0.86 KCAL/MOL
REMARK 927      BINDING AFFINITY PREDICTED BY RF-SCORE:    0.00 PKD
ROOT
HETATM    1  C   UNL     1      -8.813  10.798  65.137  1.00  0.00    -0.186 C  
HETATM    2  S   UNL     1     -10.448  10.191  65.659  1.00  0.00     0.093 SA 
HETATM    3  C   UNL     1     -11.046  11.781  66.200  1.00  0.00    -0.307 C  
HETATM    4  C   UNL     1     -10.131  12.529  67.131  1.00  0.00    -0.219 C  
HETATM    5  CA  UNL     1      -7.657   9.751  65.231  1.00  0.00    -0.119 C  
HETATM    6  CA  UNL     1      -8.776  12.419  67.074  1.00  0.00    -0.207 C  
HETATM    7  C   UNL     1      -7.848  13.413  67.881  1.00  0.00    -0.152 C  
HETATM    8  O   UNL     1      -6.310  10.521  67.275  1.00  0.00    -0.060 OA 
HETATM    9  N   UNL     1      -8.178  11.517  66.221  1.00  0.00    -0.101 N  
HETATM   10  OXT UNL     1      -8.375  13.870  68.949  1.00  0.00    -0.065 OA 
HETATM   11  O   UNL     1      -6.804  13.781  67.281  1.00  0.00    -0.194 OA 
HETATM   12  C   UNL     1      -7.135  10.666  66.398  1.00  0.00    -0.134 C  
ENDROOT
BRANCH   4  13
HETATM   13  C   UNL     1     -10.886  13.570  67.936  1.00  0.00    -0.247 C  
BRANCH  13  14
HETATM   14  N   UNL     1     -11.688  13.134  69.129  1.00  0.00    -0.307 NA 
HETATM   15  C   UNL     1     -12.235  13.947  70.068  1.00  0.00    -0.344 A  
HETATM   16  C   UNL     1     -12.256  15.448  70.137  1.00  0.00    -0.407 C  
HETATM   17  C   UNL     1     -12.988  15.763  71.459  1.00  0.00    -0.495 C  
HETATM   18  C   UNL     1     -11.751  11.784  69.335  1.00  0.00    -0.341 A  
HETATM   19  C   UNL     1     -13.439  14.453  72.101  1.00  0.00    -0.507 C  
HETATM   20  C   UNL     1     -12.338  11.231  70.471  1.00  0.00    -0.446 A  
HETATM   21  C   UNL     1     -12.907  12.051  71.426  1.00  0.00    -0.391 A  
HETATM   22  C   UNL     1     -12.852  13.412  71.208  1.00  0.00    -0.407 A  
ENDBRANCH  13  14
ENDBRANCH   4  13
BRANCH   5  23
HETATM   23  N   UNL     1      -8.028   8.381  65.684  1.00  0.00    -0.109 N  
HETATM   24  C   UNL     1      -7.812   7.217  64.964  1.00  0.00    -0.125 C  
HETATM   25  O   UNL     1      -7.116   7.177  63.961  1.00  0.00    -0.056 OA 
HETATM   26  H   UNL     1      -8.476   8.294  66.596  1.00  0.00     0.000 HD 
BRANCH  24  27
HETATM   27  C   UNL     1      -8.541   5.963  65.535  1.00  0.00    -0.150 C  
BRANCH  27  28
HETATM   28  C   UNL     1      -8.841   4.828  64.653  1.00  0.00    -0.152 A  
HETATM   29  N   UNL     1      -9.978   4.048  64.844  1.00  0.00    -0.199 NA 
HETATM   30  N   UNL     1     -11.056   2.201  63.933  1.00  0.00    -0.501 NA 
HETATM   31  C   UNL     1      -8.090   4.445  63.555  1.00  0.00    -0.094 A  
HETATM   32  S   UNL     1      -8.801   3.092  62.783  1.00  0.00    -0.092 SA 
HETATM   33  H1  UNL     1     -11.804   2.205  64.626  1.00  0.00     0.000 HD 
HETATM   34  H2  UNL     1     -11.065   1.490  63.202  1.00  0.00     0.000 HD 
HETATM   35  C   UNL     1     -10.061   3.098  63.950  1.00  0.00    -0.183 A  
ENDBRANCH  27  28
BRANCH  27  36
HETATM   36  N   UNL     1      -8.893   5.785  66.778  1.00  0.00    -0.115 NA 
HETATM   37  H   UNL     1      -8.432   5.114  67.394  1.00  0.00     0.000 HD 
BRANCH  36  38
HETATM   38  O   UNL     1      -9.953   6.590  67.193  1.00  0.00    -0.136 OA 
HETATM   39  C   UNL     1     -10.772   5.809  68.061  1.00  0.00    -0.209 C  
ENDBRANCH  36  38
ENDBRANCH  27  36
ENDBRANCH  24  27
ENDBRANCH   5  23
TORSDOF 7
ENDMDL
MODEL      128
REMARK 921   NORMALIZED FREE ENERGY PREDICTED BY IDOCK:   -5.15 KCAL/MOL
REMARK 922        TOTAL FREE ENERGY PREDICTED BY IDOCK:   -8.47 KCAL/MOL
REMARK 923 INTER-LIGAND FREE ENERGY PREDICTED BY IDOCK:   -7.27 KCAL/MOL
REMARK 924 INTRA-LIGAND FREE ENERGY PREDICTED BY IDOCK:   -1.20 KCAL/MOL
REMARK 927      BINDING AFFINITY PREDICTED BY RF-SCORE:    0.00 PKD
ROOT
HETATM    1  C   UNL     1      -9.852   9.486  68.788  1.00  0.00    -0.169 C  
HETATM    2  S   UNL     1      -8.183   9.924  69.368  1.00  0.00    -0.160 SA 
HETATM    3  C   UNL     1      -8.106   8.653  70.617  1.00  0.00    -0.120 C  
HETATM    4  C   UNL     1      -9.290   8.591  71.544  1.00  0.00    -0.289 C  
HETATM    5  CA  UNL     1     -10.680  10.673  68.199  1.00  0.00    -0.225 C  
HETATM    6  CA  UNL     1     -10.547   8.931  71.151  1.00  0.00    -0.265 C  
HETATM    7  C   UNL     1     -11.797   8.602  72.064  1.00  0.00    -0.372 C  
HETATM    8  O   UNL     1     -12.408  11.169  70.031  1.00  0.00    -0.304 OA 
HETATM    9  N   UNL     1     -10.776   9.462  69.901  1.00  0.00    -0.225 N  
HETATM   10  OXT UNL     1     -11.539   8.570  73.312  1.00  0.00     0.192 OA 
HETATM   11  O   UNL     1     -12.827   8.222  71.448  1.00  0.00    -0.305 OA 
HETATM   12  C   UNL     1     -11.560  10.492  69.490  1.00  0.00    -0.260 C  
ENDROOT
BRANCH   4  13
HETATM   13  C   UNL     1      -8.944   7.887  72.842  1.00  0.00    -0.213 C  
BRANCH  13  14
HETATM   14  N   UNL     1      -8.646   6.415  72.820  1.00  0.00    -0.125 NA 
HETATM   15  C   UNL     1      -9.506   5.418  73.149  1.00  0.00    -0.142 A  
HETATM   16  C   UNL     1     -10.956   5.496  73.535  1.00  0.00    -0.289 C  
HETATM   17  C   UNL     1     -11.357   4.033  73.825  1.00  0.00    -0.189 C  
HETATM   18  C   UNL     1      -7.344   6.081  72.568  1.00  0.00    -0.090 A  
HETATM   19  C   UNL     1     -10.163   3.125  73.540  1.00  0.00    -0.207 C  
HETATM   20  C   UNL     1      -6.883   4.769  72.651  1.00  0.00    -0.069 A  
HETATM   21  C   UNL     1      -7.755   3.747  72.972  1.00  0.00    -0.074 A  
HETATM   22  C   UNL     1      -9.069   4.087  73.215  1.00  0.00    -0.114 A  
ENDBRANCH  13  14
ENDBRANCH   4  13
BRANCH   5  23
HETATM   23  N   UNL     1     -10.003  11.998  68.136  1.00  0.00    -0.197 N  
HETATM   24  C   UNL     1      -9.762  12.716  66.976  1.00  0.00    -0.225 C  
HETATM   25  O   UNL     1     -10.255  12.421  65.899  1.00  0.00    -0.241 OA 
HETATM   26  H   UNL     1      -9.692  12.409  69.016  1.00  0.00     0.000 HD 
BRANCH  24  27
HETATM   27  C   UNL     1      -8.796  13.927  67.158  1.00  0.00    -0.226 C  
BRANCH  27  28
HETATM   28  C   UNL     1      -9.326  15.296  67.117  1.00  0.00    -0.216 A  
HETATM   29  N   UNL     1      -9.586  16.003  68.288  1.00  0.00    -0.208 NA 
HETATM   30  N   UNL     1     -10.390  18.068  68.991  1.00  0.00    -0.433 NA 
HETATM   31  C   UNL     1      -9.576  16.026  65.967  1.00  0.00    -0.350 A  
HETATM   32  S   UNL     1     -10.160  17.586  66.361  1.00  0.00    -0.342 SA 
HETATM   33  H1  UNL     1     -10.322  17.838  69.982  1.00  0.00     0.000 HD 
HETATM   34  H2  UNL     1     -10.734  18.989  68.721  1.00  0.00     0.000 HD 
HETATM   35  C   UNL     1     -10.045  17.200  68.031  1.00  0.00    -0.311 A  
ENDBRANCH  27  28
BRANCH  27  36
HETATM   36  N   UNL     1      -7.516  13.853  67.396  1.00  0.00    -0.291 NA 
HETATM   37  H   UNL     1      -6.809  14.140  66.719  1.00  0.00     0.000 HD 
BRANCH  36  38
HETATM   38  O   UNL     1      -7.197  13.348  68.656  1.00  0.00    -0.101 OA 
HETATM   39  C   UNL     1      -6.256  14.240  69.251  1.00  0.00    -0.108 C  
ENDBRANCH  36  38
ENDBRANCH  27  36
ENDBRANCH  24  27
ENDBRANCH   5  23
TORSDOF 7
ENDMDL
MODEL      129
REMARK 921   NORMALIZED FREE ENERGY PREDICTED BY IDOCK:   -5.15 KCAL/MOL
REMARK 922        TOTAL FREE ENERGY PREDICTED BY IDOCK:   -8.47 KCAL/MOL
REMARK 923 INTER-LIGAND FREE ENERGY PREDICTED BY IDOCK:   -7.13 KCAL/MOL
REMARK 924 INTRA-LIGAND FREE ENERGY PREDICTED BY IDOCK:   -1.34 KCAL/MOL
REMARK 927      BINDING AFFINITY PREDICTED BY RF-SCORE:    0.00 PKD
ROOT
HETATM    1  C   UNL     1     -11.323   9.484  68.487  1.00  0.00     0.248 C  
HETATM    2  S   UNL     1     -10.509  10.167  67.009  1.00  0.00    -0.224 SA 
HETATM    3  C   UNL     1      -9.751   8.630  66.517  1.00  0.00    -0.255 C  
HETATM    4  C   UNL     1      -8.987   7.915  67.598  1.00  0.00    -0.133 C  
HETATM    5  CA  UNL     1     -11.544  10.503  69.651  1.00  0.00    -0.271 C  
HETATM    6  CA  UNL     1      -9.335   7.985  68.912  1.00  0.00    -0.150 C  
HETATM    7  C   UNL     1      -8.679   7.016  69.976  1.00  0.00    -0.142 C  
HETATM    8  O   UNL     1      -9.783   9.822  71.390  1.00  0.00     0.015 OA 
HETATM    9  N   UNL     1     -10.352   8.816  69.328  1.00  0.00    -0.212 N  
HETATM   10  OXT UNL     1      -7.496   6.640  69.682  1.00  0.00    -0.091 OA 
HETATM   11  O   UNL     1      -9.460   6.584  70.864  1.00  0.00    -0.170 OA 
HETATM   12  C   UNL     1     -10.455   9.648  70.396  1.00  0.00    -0.293 C  
ENDROOT
BRANCH   4  13
HETATM   13  C   UNL     1      -7.974   6.946  67.017  1.00  0.00    -0.116 C  
BRANCH  13  14
HETATM   14  N   UNL     1      -7.221   7.330  65.776  1.00  0.00    -0.068 NA 
HETATM   15  C   UNL     1      -7.106   6.587  64.646  1.00  0.00    -0.060 A  
HETATM   16  C   UNL     1      -7.735   5.266  64.303  1.00  0.00    -0.090 C  
HETATM   17  C   UNL     1      -7.186   4.930  62.900  1.00  0.00    -0.043 C  
HETATM   18  C   UNL     1      -6.486   8.479  65.865  1.00  0.00    -0.053 A  
HETATM   19  C   UNL     1      -6.307   6.084  62.421  1.00  0.00    -0.029 C  
HETATM   20  C   UNL     1      -5.627   8.893  64.849  1.00  0.00    -0.054 A  
HETATM   21  C   UNL     1      -5.514   8.150  63.691  1.00  0.00    -0.053 A  
HETATM   22  C   UNL     1      -6.266   6.997  63.601  1.00  0.00    -0.044 A  
ENDBRANCH  13  14
ENDBRANCH   4  13
BRANCH   5  23
HETATM   23  N   UNL     1     -11.113  11.908  69.404  1.00  0.00    -0.410 N  
HETATM   24  C   UNL     1     -11.665  13.028  70.004  1.00  0.00    -0.215 C  
HETATM   25  O   UNL     1     -12.437  12.963  70.948  1.00  0.00    -0.367 OA 
HETATM   26  H   UNL     1     -10.353  12.056  68.741  1.00  0.00     0.000 HD 
BRANCH  24  27
HETATM   27  C   UNL     1     -11.226  14.381  69.365  1.00  0.00    -0.281 C  
BRANCH  27  28
HETATM   28  C   UNL     1     -11.270  14.549  67.906  1.00  0.00    -0.295 A  
HETATM   29  N   UNL     1     -12.260  13.938  67.141  1.00  0.00    -0.379 NA 
HETATM   30  N   UNL     1     -12.940  13.734  64.928  1.00  0.00    -0.722 NA 
HETATM   31  C   UNL     1     -10.403  15.330  67.162  1.00  0.00    -0.265 A  
HETATM   32  S   UNL     1     -10.818  15.274  65.503  1.00  0.00    -0.388 SA 
HETATM   33  H1  UNL     1     -13.714  13.108  65.148  1.00  0.00     0.000 HD 
HETATM   34  H2  UNL     1     -12.781  14.000  63.956  1.00  0.00     0.000 HD 
HETATM   35  C   UNL     1     -12.123  14.219  65.872  1.00  0.00    -0.404 A  
ENDBRANCH  27  28
BRANCH  27  36
HETATM   36  N   UNL     1     -10.847  15.445  70.017  1.00  0.00    -0.284 NA 
HETATM   37  H   UNL     1      -9.870  15.729  70.093  1.00  0.00     0.000 HD 
BRANCH  36  38
HETATM   38  O   UNL     1     -11.892  16.161  70.601  1.00  0.00    -0.348 OA 
HETATM   39  C   UNL     1     -11.663  16.184  72.009  1.00  0.00    -0.485 C  
ENDBRANCH  36  38
ENDBRANCH  27  36
ENDBRANCH  24  27
ENDBRANCH   5  23
TORSDOF 7
ENDMDL
MODEL      130
REMARK 921   NORMALIZED FREE ENERGY PREDICTED BY IDOCK:   -5.15 KCAL/MOL
REMARK 922        TOTAL FREE ENERGY PREDICTED BY IDOCK:   -8.46 KCAL/MOL
REMARK 923 INTER-LIGAND FREE ENERGY PREDICTED BY IDOCK:   -7.52 KCAL/MOL
REMARK 924 INTRA-LIGAND FREE ENERGY PREDICTED BY IDOCK:   -0.94 KCAL/MOL
REMARK 927      BINDING AFFINITY PREDICTED BY RF-SCORE:    0.00 PKD
ROOT
HETATM    1  C   UNL     1      -7.702   9.008  68.144  1.00  0.00    -0.096 C  
HETATM    2  S   UNL     1      -8.199   9.451  69.838  1.00  0.00    -0.168 SA 
HETATM    3  C   UNL     1      -7.670   7.913  70.570  1.00  0.00    -0.086 C  
HETATM    4  C   UNL     1      -8.168   6.670  69.884  1.00  0.00    -0.127 C  
HETATM    5  CA  UNL     1      -8.543   9.679  67.011  1.00  0.00    -0.128 C  
HETATM    6  CA  UNL     1      -8.402   6.614  68.545  1.00  0.00    -0.122 C  
HETATM    7  C   UNL     1      -8.665   5.231  67.825  1.00  0.00    -0.103 C  
HETATM    8  O   UNL     1     -10.011   7.765  66.135  1.00  0.00    -0.063 OA 
HETATM    9  N   UNL     1      -8.297   7.745  67.764  1.00  0.00    -0.125 N  
HETATM   10  OXT UNL     1      -9.203   4.347  68.572  1.00  0.00    -0.117 OA 
HETATM   11  O   UNL     1      -8.141   5.107  66.688  1.00  0.00    -0.107 OA 
HETATM   12  C   UNL     1      -9.080   8.223  66.762  1.00  0.00    -0.156 C  
ENDROOT
BRANCH   4  13
HETATM   13  C   UNL     1      -8.132   5.470  70.811  1.00  0.00    -0.113 C  
BRANCH  13  14
HETATM   14  N   UNL     1      -9.314   5.191  71.695  1.00  0.00    -0.145 NA 
HETATM   15  C   UNL     1      -9.602   4.010  72.299  1.00  0.00    -0.144 A  
HETATM   16  C   UNL     1      -8.817   2.729  72.316  1.00  0.00    -0.108 C  
HETATM   17  C   UNL     1      -9.690   1.752  73.133  1.00  0.00    -0.119 C  
HETATM   18  C   UNL     1     -10.237   6.196  71.779  1.00  0.00    -0.202 A  
HETATM   19  C   UNL     1     -10.928   2.493  73.634  1.00  0.00    -0.306 C  
HETATM   20  C   UNL     1     -11.451   6.037  72.445  1.00  0.00    -0.357 A  
HETATM   21  C   UNL     1     -11.747   4.843  73.072  1.00  0.00    -0.217 A  
HETATM   22  C   UNL     1     -10.807   3.836  72.995  1.00  0.00    -0.214 A  
ENDBRANCH  13  14
ENDBRANCH   4  13
BRANCH   5  23
HETATM   23  N   UNL     1      -9.609  10.629  67.439  1.00  0.00    -0.157 N  
HETATM   24  C   UNL     1     -10.468  11.300  66.584  1.00  0.00    -0.247 C  
HETATM   25  O   UNL     1     -10.567  11.031  65.397  1.00  0.00    -0.258 OA 
HETATM   26  H   UNL     1      -9.713  10.798  68.439  1.00  0.00     0.000 HD 
BRANCH  24  27
HETATM   27  C   UNL     1     -11.293  12.436  67.264  1.00  0.00    -0.323 C  
BRANCH  27  28
HETATM   28  C   UNL     1     -11.732  12.286  68.658  1.00  0.00    -0.328 A  
HETATM   29  N   UNL     1     -11.964  13.398  69.463  1.00  0.00    -0.323 NA 
HETATM   30  N   UNL     1     -12.618  13.935  71.627  1.00  0.00    -0.324 NA 
HETATM   31  C   UNL     1     -11.996  11.084  69.291  1.00  0.00    -0.339 A  
HETATM   32  S   UNL     1     -12.510  11.354  70.901  1.00  0.00    -0.333 SA 
HETATM   33  H1  UNL     1     -12.524  14.940  71.484  1.00  0.00     0.000 HD 
HETATM   34  H2  UNL     1     -12.925  13.594  72.538  1.00  0.00     0.000 HD 
HETATM   35  C   UNL     1     -12.352  13.047  70.660  1.00  0.00    -0.310 A  
ENDBRANCH  27  28
BRANCH  27  36
HETATM   36  N   UNL     1     -11.615  13.575  66.718  1.00  0.00    -0.345 NA 
HETATM   37  H   UNL     1     -11.149  14.452  66.950  1.00  0.00     0.000 HD 
BRANCH  36  38
HETATM   38  O   UNL     1     -12.652  13.492  65.789  1.00  0.00    -0.464 OA 
HETATM   39  C   UNL     1     -12.206  14.121  64.589  1.00  0.00    -0.445 C  
ENDBRANCH  36  38
ENDBRANCH  27  36
ENDBRANCH  24  27
ENDBRANCH   5  23
TORSDOF 7
ENDMDL
MODEL      131
REMARK 921   NORMALIZED FREE ENERGY PREDICTED BY IDOCK:   -5.15 KCAL/MOL
REMARK 922        TOTAL FREE ENERGY PREDICTED BY IDOCK:   -8.46 KCAL/MOL
REMARK 923 INTER-LIGAND FREE ENERGY PREDICTED BY IDOCK:   -7.02 KCAL/MOL
REMARK 924 INTRA-LIGAND FREE ENERGY PREDICTED BY IDOCK:   -1.44 KCAL/MOL
REMARK 927      BINDING AFFINITY PREDICTED BY RF-SCORE:    0.00 PKD
ROOT
HETATM    1  C   UNL     1     -10.454   7.775  69.634  1.00  0.00    -0.229 C  
HETATM    2  S   UNL     1     -10.549   8.494  67.964  1.00  0.00    -0.077 SA 
HETATM    3  C   UNL     1      -9.565   7.227  67.186  1.00  0.00    -0.160 C  
HETATM    4  C   UNL     1      -8.254   6.927  67.859  1.00  0.00    -0.114 C  
HETATM    5  CA  UNL     1     -10.543   8.807  70.804  1.00  0.00    -0.220 C  
HETATM    6  CA  UNL     1      -8.075   7.043  69.203  1.00  0.00    -0.121 C  
HETATM    7  C   UNL     1      -6.777   6.469  69.900  1.00  0.00    -0.050 C  
HETATM    8  O   UNL     1      -8.135   8.934  71.681  1.00  0.00    -0.280 OA 
HETATM    9  N   UNL     1      -9.072   7.556  70.004  1.00  0.00    -0.148 N  
HETATM   10  OXT UNL     1      -5.745   6.452  69.151  1.00  0.00    -0.015 OA 
HETATM   11  O   UNL     1      -6.964   5.924  71.020  1.00  0.00    -0.063 OA 
HETATM   12  C   UNL     1      -9.033   8.436  71.037  1.00  0.00    -0.165 C  
ENDROOT
BRANCH   4  13
HETATM   13  C   UNL     1      -7.277   6.263  66.906  1.00  0.00    -0.074 C  
BRANCH  13  14
HETATM   14  N   UNL     1      -7.781   5.224  65.946  1.00  0.00    -0.090 NA 
HETATM   15  C   UNL     1      -8.210   3.977  66.268  1.00  0.00    -0.104 A  
HETATM   16  C   UNL     1      -8.368   3.340  67.620  1.00  0.00    -0.095 C  
HETATM   17  C   UNL     1      -8.853   1.906  67.316  1.00  0.00    -0.152 C  
HETATM   18  C   UNL     1      -7.666   5.541  64.622  1.00  0.00    -0.093 A  
HETATM   19  C   UNL     1      -9.035   1.752  65.807  1.00  0.00    -0.103 C  
HETATM   20  C   UNL     1      -7.960   4.628  63.610  1.00  0.00    -0.091 A  
HETATM   21  C   UNL     1      -8.409   3.361  63.929  1.00  0.00    -0.090 A  
HETATM   22  C   UNL     1      -8.535   3.050  65.267  1.00  0.00    -0.099 A  
ENDBRANCH  13  14
ENDBRANCH   4  13
BRANCH   5  23
HETATM   23  N   UNL     1     -10.742  10.235  70.427  1.00  0.00    -0.416 N  
HETATM   24  C   UNL     1     -11.970  10.859  70.288  1.00  0.00    -0.361 C  
HETATM   25  O   UNL     1     -13.019  10.349  70.650  1.00  0.00    -0.368 OA 
HETATM   26  H   UNL     1      -9.907  10.796  70.258  1.00  0.00     0.000 HD 
BRANCH  24  27
HETATM   27  C   UNL     1     -11.905  12.266  69.617  1.00  0.00    -0.324 C  
BRANCH  27  28
HETATM   28  C   UNL     1     -12.010  13.475  70.445  1.00  0.00    -0.295 A  
HETATM   29  N   UNL     1     -12.921  13.552  71.495  1.00  0.00    -0.360 NA 
HETATM   30  N   UNL     1     -13.638  15.032  73.137  1.00  0.00    -0.556 NA 
HETATM   31  C   UNL     1     -11.225  14.608  70.313  1.00  0.00    -0.151 A  
HETATM   32  S   UNL     1     -11.651  15.774  71.492  1.00  0.00    -0.471 SA 
HETATM   33  H1  UNL     1     -14.349  14.397  73.501  1.00  0.00     0.000 HD 
HETATM   34  H2  UNL     1     -13.524  15.947  73.574  1.00  0.00     0.000 HD 
HETATM   35  C   UNL     1     -12.849  14.705  72.105  1.00  0.00    -0.333 A  
ENDBRANCH  27  28
BRANCH  27  36
HETATM   36  N   UNL     1     -11.716  12.498  68.348  1.00  0.00    -0.313 NA 
HETATM   37  H   UNL     1     -12.425  12.921  67.751  1.00  0.00     0.000 HD 
BRANCH  36  38
HETATM   38  O   UNL     1     -10.459  12.118  67.879  1.00  0.00    -0.199 OA 
HETATM   39  C   UNL     1      -9.915  13.225  67.161  1.00  0.00    -0.238 C  
ENDBRANCH  36  38
ENDBRANCH  27  36
ENDBRANCH  24  27
ENDBRANCH   5  23
TORSDOF 7
ENDMDL
MODEL      132
REMARK 921   NORMALIZED FREE ENERGY PREDICTED BY IDOCK:   -5.13 KCAL/MOL
REMARK 922        TOTAL FREE ENERGY PREDICTED BY IDOCK:   -8.44 KCAL/MOL
REMARK 923 INTER-LIGAND FREE ENERGY PREDICTED BY IDOCK:   -7.43 KCAL/MOL
REMARK 924 INTRA-LIGAND FREE ENERGY PREDICTED BY IDOCK:   -1.02 KCAL/MOL
REMARK 927      BINDING AFFINITY PREDICTED BY RF-SCORE:    0.00 PKD
ROOT
HETATM    1  C   UNL     1      -8.307   9.393  70.404  1.00  0.00    -0.205 C  
HETATM    2  S   UNL     1      -7.684   8.573  68.902  1.00  0.00    -0.102 SA 
HETATM    3  C   UNL     1      -8.131   9.898  67.796  1.00  0.00    -0.109 C  
HETATM    4  C   UNL     1      -9.549  10.386  67.917  1.00  0.00    -0.157 C  
HETATM    5  CA  UNL     1      -8.798   8.427  71.530  1.00  0.00    -0.185 C  
HETATM    6  CA  UNL     1     -10.233  10.369  69.093  1.00  0.00    -0.222 C  
HETATM    7  C   UNL     1     -11.613  11.129  69.239  1.00  0.00    -0.318 C  
HETATM    8  O   UNL     1     -11.354   8.630  71.426  1.00  0.00    -0.253 OA 
HETATM    9  N   UNL     1      -9.686   9.792  70.219  1.00  0.00    -0.253 N  
HETATM   10  OXT UNL     1     -12.276  11.221  68.153  1.00  0.00    -0.622 OA 
HETATM   11  O   UNL     1     -11.793  11.712  70.340  1.00  0.00    -0.343 OA 
HETATM   12  C   UNL     1     -10.224   8.983  71.167  1.00  0.00    -0.293 C  
ENDROOT
BRANCH   4  13
HETATM   13  C   UNL     1     -10.002  11.102  66.658  1.00  0.00    -0.207 C  
BRANCH  13  14
HETATM   14  N   UNL     1      -9.829  12.590  66.559  1.00  0.00    -0.240 NA 
HETATM   15  C   UNL     1     -10.550  13.430  65.774  1.00  0.00    -0.282 A  
HETATM   16  C   UNL     1     -11.722  13.133  64.882  1.00  0.00    -0.377 C  
HETATM   17  C   UNL     1     -12.067  14.491  64.233  1.00  0.00    -0.448 C  
HETATM   18  C   UNL     1      -8.756  13.105  67.232  1.00  0.00    -0.210 A  
HETATM   19  C   UNL     1     -11.142  15.564  64.805  1.00  0.00    -0.421 C  
HETATM   20  C   UNL     1      -8.383  14.443  67.125  1.00  0.00    -0.214 A  
HETATM   21  C   UNL     1      -9.119  15.307  66.338  1.00  0.00    -0.347 A  
HETATM   22  C   UNL     1     -10.207  14.786  65.670  1.00  0.00    -0.382 A  
ENDBRANCH  13  14
ENDBRANCH   4  13
BRANCH   5  23
HETATM   23  N   UNL     1      -8.658   6.967  71.270  1.00  0.00    -0.123 N  
HETATM   24  C   UNL     1      -7.461   6.270  71.261  1.00  0.00    -0.093 C  
HETATM   25  O   UNL     1      -6.411   6.750  71.658  1.00  0.00    -0.041 OA 
HETATM   26  H   UNL     1      -9.511   6.440  71.085  1.00  0.00     0.000 HD 
BRANCH  24  27
HETATM   27  C   UNL     1      -7.564   4.822  70.690  1.00  0.00    -0.058 C  
BRANCH  27  28
HETATM   28  C   UNL     1      -8.522   3.874  71.273  1.00  0.00    -0.073 A  
HETATM   29  N   UNL     1      -9.446   4.281  72.231  1.00  0.00    -0.127 NA 
HETATM   30  N   UNL     1     -11.162   3.421  73.542  1.00  0.00    -0.222 NA 
HETATM   31  C   UNL     1      -8.643   2.539  70.924  1.00  0.00    -0.059 A  
HETATM   32  S   UNL     1      -9.899   1.797  71.819  1.00  0.00    -0.143 SA 
HETATM   33  H1  UNL     1     -11.344   4.307  74.013  1.00  0.00     0.000 HD 
HETATM   34  H2  UNL     1     -11.725   2.607  73.788  1.00  0.00     0.000 HD 
HETATM   35  C   UNL     1     -10.207   3.289  72.612  1.00  0.00    -0.156 A  
ENDBRANCH  27  28
BRANCH  27  36
HETATM   36  N   UNL     1      -6.891   4.352  69.677  1.00  0.00    -0.044 NA 
HETATM   37  H   UNL     1      -6.155   3.653  69.777  1.00  0.00     0.000 HD 
BRANCH  36  38
HETATM   38  O   UNL     1      -7.263   4.889  68.445  1.00  0.00    -0.060 OA 
HETATM   39  C   UNL     1      -6.211   4.616  67.521  1.00  0.00    -0.039 C  
ENDBRANCH  36  38
ENDBRANCH  27  36
ENDBRANCH  24  27
ENDBRANCH   5  23
TORSDOF 7
ENDMDL
MODEL      133
REMARK 921   NORMALIZED FREE ENERGY PREDICTED BY IDOCK:   -5.12 KCAL/MOL
REMARK 922        TOTAL FREE ENERGY PREDICTED BY IDOCK:   -8.43 KCAL/MOL
REMARK 923 INTER-LIGAND FREE ENERGY PREDICTED BY IDOCK:   -7.29 KCAL/MOL
REMARK 924 INTRA-LIGAND FREE ENERGY PREDICTED BY IDOCK:   -1.13 KCAL/MOL
REMARK 927      BINDING AFFINITY PREDICTED BY RF-SCORE:    0.00 PKD
ROOT
HETATM    1  C   UNL     1      -7.424   9.041  68.367  1.00  0.00    -0.082 C  
HETATM    2  S   UNL     1      -8.220   9.652  69.886  1.00  0.00    -0.187 SA 
HETATM    3  C   UNL     1      -9.038   8.114  70.270  1.00  0.00    -0.151 C  
HETATM    4  C   UNL     1      -9.822   7.503  69.141  1.00  0.00    -0.170 C  
HETATM    5  CA  UNL     1      -7.159  10.127  67.276  1.00  0.00    -0.088 C  
HETATM    6  CA  UNL     1      -9.464   7.649  67.836  1.00  0.00    -0.143 C  
HETATM    7  C   UNL     1     -10.150   6.780  66.706  1.00  0.00    -0.183 C  
HETATM    8  O   UNL     1      -8.934   9.632  65.489  1.00  0.00    -0.158 OA 
HETATM    9  N   UNL     1      -8.414   8.468  67.480  1.00  0.00    -0.127 N  
HETATM   10  OXT UNL     1     -11.347   6.429  66.971  1.00  0.00    -0.314 OA 
HETATM   11  O   UNL     1      -9.381   6.380  65.794  1.00  0.00    -0.029 OA 
HETATM   12  C   UNL     1      -8.275   9.365  66.471  1.00  0.00    -0.115 C  
ENDROOT
BRANCH   4  13
HETATM   13  C   UNL     1     -10.873   6.536  69.652  1.00  0.00    -0.304 C  
BRANCH  13  14
HETATM   14  N   UNL     1     -10.436   5.242  70.277  1.00  0.00    -0.281 NA 
HETATM   15  C   UNL     1     -10.569   4.899  71.584  1.00  0.00    -0.073 A  
HETATM   16  C   UNL     1     -11.230   5.648  72.706  1.00  0.00    -0.347 C  
HETATM   17  C   UNL     1     -11.013   4.755  73.946  1.00  0.00    -0.325 C  
HETATM   18  C   UNL     1      -9.727   4.405  69.463  1.00  0.00    -0.210 A  
HETATM   19  C   UNL     1     -10.295   3.476  73.518  1.00  0.00    -0.236 C  
HETATM   20  C   UNL     1      -9.135   3.234  69.934  1.00  0.00    -0.199 A  
HETATM   21  C   UNL     1      -9.276   2.871  71.259  1.00  0.00    -0.194 A  
HETATM   22  C   UNL     1     -10.003   3.713  72.074  1.00  0.00    -0.232 A  
ENDBRANCH  13  14
ENDBRANCH   4  13
BRANCH   5  23
HETATM   23  N   UNL     1      -7.539  11.527  67.616  1.00  0.00    -0.108 N  
HETATM   24  C   UNL     1      -6.695  12.623  67.538  1.00  0.00    -0.156 C  
HETATM   25  O   UNL     1      -5.602  12.582  66.996  1.00  0.00    -0.322 OA 
HETATM   26  H   UNL     1      -8.495  11.691  67.931  1.00  0.00     0.000 HD 
BRANCH  24  27
HETATM   27  C   UNL     1      -7.253  13.913  68.214  1.00  0.00    -0.112 C  
BRANCH  27  28
HETATM   28  C   UNL     1      -7.595  15.080  67.389  1.00  0.00    -0.205 A  
HETATM   29  N   UNL     1      -8.856  15.212  66.816  1.00  0.00    -0.254 NA 
HETATM   30  N   UNL     1     -10.065  16.667  65.465  1.00  0.00    -0.590 NA 
HETATM   31  C   UNL     1      -6.759  16.154  67.134  1.00  0.00    -0.192 A  
HETATM   32  S   UNL     1      -7.553  17.312  66.154  1.00  0.00    -0.208 SA 
HETATM   33  H1  UNL     1     -10.897  16.077  65.451  1.00  0.00     0.000 HD 
HETATM   34  H2  UNL     1     -10.078  17.550  64.955  1.00  0.00     0.000 HD 
HETATM   35  C   UNL     1      -8.955  16.320  66.130  1.00  0.00    -0.339 A  
ENDBRANCH  27  28
BRANCH  27  36
HETATM   36  N   UNL     1      -7.501  14.063  69.485  1.00  0.00    -0.338 NA 
HETATM   37  H   UNL     1      -8.060  13.400  70.022  1.00  0.00     0.000 HD 
BRANCH  36  38
HETATM   38  O   UNL     1      -6.937  15.208  70.047  1.00  0.00    -0.169 OA 
HETATM   39  C   UNL     1      -5.730  14.816  70.700  1.00  0.00    -0.155 C  
ENDBRANCH  36  38
ENDBRANCH  27  36
ENDBRANCH  24  27
ENDBRANCH   5  23
TORSDOF 7
ENDMDL
MODEL      134
REMARK 921   NORMALIZED FREE ENERGY PREDICTED BY IDOCK:   -5.09 KCAL/MOL
REMARK 922        TOTAL FREE ENERGY PREDICTED BY IDOCK:   -8.39 KCAL/MOL
REMARK 923 INTER-LIGAND FREE ENERGY PREDICTED BY IDOCK:   -7.64 KCAL/MOL
REMARK 924 INTRA-LIGAND FREE ENERGY PREDICTED BY IDOCK:   -0.75 KCAL/MOL
REMARK 927      BINDING AFFINITY PREDICTED BY RF-SCORE:    0.00 PKD
ROOT
HETATM    1  C   UNL     1      -7.889   9.715  68.437  1.00  0.00    -0.085 C  
HETATM    2  S   UNL     1      -8.310   9.587  70.204  1.00  0.00    -0.201 SA 
HETATM    3  C   UNL     1      -8.037   7.827  70.307  1.00  0.00    -0.113 C  
HETATM    4  C   UNL     1      -8.729   7.006  69.253  1.00  0.00    -0.136 C  
HETATM    5  CA  UNL     1      -8.610  10.869  67.668  1.00  0.00    -0.124 C  
HETATM    6  CA  UNL     1      -8.967   7.474  67.998  1.00  0.00    -0.129 C  
HETATM    7  C   UNL     1      -9.450   6.500  66.849  1.00  0.00    -0.152 C  
HETATM    8  O   UNL     1     -10.367   9.646  66.253  1.00  0.00    -0.239 OA 
HETATM    9  N   UNL     1      -8.681   8.780  67.667  1.00  0.00    -0.135 N  
HETATM   10  OXT UNL     1     -10.125   5.499  67.262  1.00  0.00    -0.149 OA 
HETATM   11  O   UNL     1      -8.952   6.718  65.715  1.00  0.00    -0.122 OA 
HETATM   12  C   UNL     1      -9.375   9.700  66.948  1.00  0.00    -0.146 C  
ENDROOT
BRANCH   4  13
HETATM   13  C   UNL     1      -8.888   5.562  69.689  1.00  0.00    -0.111 C  
BRANCH  13  14
HETATM   14  N   UNL     1      -9.655   5.254  70.943  1.00  0.00    -0.167 NA 
HETATM   15  C   UNL     1      -9.568   4.116  71.677  1.00  0.00    -0.164 A  
HETATM   16  C   UNL     1      -8.666   2.928  71.494  1.00  0.00    -0.112 C  
HETATM   17  C   UNL     1      -9.077   1.955  72.620  1.00  0.00    -0.097 C  
HETATM   18  C   UNL     1     -10.615   6.166  71.284  1.00  0.00    -0.243 A  
HETATM   19  C   UNL     1     -10.156   2.614  73.477  1.00  0.00    -0.181 C  
HETATM   20  C   UNL     1     -11.500   5.953  72.340  1.00  0.00    -0.358 A  
HETATM   21  C   UNL     1     -11.411   4.803  73.099  1.00  0.00    -0.380 A  
HETATM   22  C   UNL     1     -10.433   3.892  72.758  1.00  0.00    -0.231 A  
ENDBRANCH  13  14
ENDBRANCH   4  13
BRANCH   5  23
HETATM   23  N   UNL     1      -9.508  11.750  68.467  1.00  0.00    -0.290 N  
HETATM   24  C   UNL     1     -10.345  12.720  67.942  1.00  0.00    -0.226 C  
HETATM   25  O   UNL     1     -10.576  12.822  66.747  1.00  0.00    -0.249 OA 
HETATM   26  H   UNL     1      -9.506  11.628  69.479  1.00  0.00     0.000 HD 
BRANCH  24  27
HETATM   27  C   UNL     1     -10.961  13.682  69.004  1.00  0.00    -0.234 C  
BRANCH  27  28
HETATM   28  C   UNL     1     -11.768  13.135  70.103  1.00  0.00    -0.178 A  
HETATM   29  N   UNL     1     -12.436  13.973  70.992  1.00  0.00    -0.352 NA 
HETATM   30  N   UNL     1     -13.806  13.865  72.866  1.00  0.00    -0.572 NA 
HETATM   31  C   UNL     1     -11.986  11.789  70.346  1.00  0.00    -0.332 A  
HETATM   32  S   UNL     1     -13.006  11.582  71.705  1.00  0.00    -0.295 SA 
HETATM   33  H1  UNL     1     -13.861  14.878  72.974  1.00  0.00     0.000 HD 
HETATM   34  H2  UNL     1     -14.307  13.272  73.527  1.00  0.00     0.000 HD 
HETATM   35  C   UNL     1     -13.099  13.288  71.887  1.00  0.00    -0.388 A  
ENDBRANCH  27  28
BRANCH  27  36
HETATM   36  N   UNL     1     -10.796  14.974  69.050  1.00  0.00    -0.232 NA 
HETATM   37  H   UNL     1     -11.470  15.633  68.662  1.00  0.00     0.000 HD 
BRANCH  36  38
HETATM   38  O   UNL     1      -9.617  15.378  69.677  1.00  0.00    -0.262 OA 
HETATM   39  C   UNL     1      -9.029  16.397  68.871  1.00  0.00    -0.256 C  
ENDBRANCH  36  38
ENDBRANCH  27  36
ENDBRANCH  24  27
ENDBRANCH   5  23
TORSDOF 7
ENDMDL
MODEL      135
REMARK 921   NORMALIZED FREE ENERGY PREDICTED BY IDOCK:   -5.07 KCAL/MOL
REMARK 922        TOTAL FREE ENERGY PREDICTED BY IDOCK:   -8.36 KCAL/MOL
REMARK 923 INTER-LIGAND FREE ENERGY PREDICTED BY IDOCK:   -7.10 KCAL/MOL
REMARK 924 INTRA-LIGAND FREE ENERGY PREDICTED BY IDOCK:   -1.26 KCAL/MOL
REMARK 927      BINDING AFFINITY PREDICTED BY RF-SCORE:    0.00 PKD
ROOT
HETATM    1  C   UNL     1      -7.585  14.360  69.755  1.00  0.00     0.245 C  
HETATM    2  S   UNL     1      -9.245  14.917  69.256  1.00  0.00    -0.037 SA 
HETATM    3  C   UNL     1      -9.920  13.276  69.079  1.00  0.00     0.195 C  
HETATM    4  C   UNL     1      -9.103  12.331  68.241  1.00  0.00    -0.187 C  
HETATM    5  CA  UNL     1      -6.420  15.327  69.370  1.00  0.00    -0.141 C  
HETATM    6  CA  UNL     1      -7.746  12.401  68.169  1.00  0.00    -0.139 C  
HETATM    7  C   UNL     1      -6.910  11.238  67.498  1.00  0.00    -0.086 C  
HETATM    8  O   UNL     1      -5.266  14.133  67.413  1.00  0.00    -0.330 OA 
HETATM    9  N   UNL     1      -7.059  13.426  68.782  1.00  0.00    -0.102 N  
HETATM   10  OXT UNL     1      -7.535  10.606  66.583  1.00  0.00    -0.115 OA 
HETATM   11  O   UNL     1      -5.828  10.952  68.073  1.00  0.00    -0.046 OA 
HETATM   12  C   UNL     1      -6.017  14.189  68.363  1.00  0.00    -0.103 C  
ENDROOT
BRANCH   4  13
HETATM   13  C   UNL     1      -9.945  11.185  67.713  1.00  0.00    -0.175 C  
BRANCH  13  14
HETATM   14  N   UNL     1     -10.198   9.995  68.594  1.00  0.00    -0.172 NA 
HETATM   15  C   UNL     1     -10.379   8.715  68.181  1.00  0.00    -0.216 A  
HETATM   16  C   UNL     1     -10.303   8.140  66.795  1.00  0.00    -0.361 C  
HETATM   17  C   UNL     1     -10.643   6.645  66.979  1.00  0.00    -0.404 C  
HETATM   18  C   UNL     1     -10.388  10.274  69.919  1.00  0.00    -0.233 A  
HETATM   19  C   UNL     1     -10.842   6.361  68.467  1.00  0.00    -0.382 C  
HETATM   20  C   UNL     1     -10.769   9.297  70.838  1.00  0.00    -0.371 A  
HETATM   21  C   UNL     1     -10.943   7.990  70.427  1.00  0.00    -0.248 A  
HETATM   22  C   UNL     1     -10.739   7.712  69.092  1.00  0.00    -0.153 A  
ENDBRANCH  13  14
ENDBRANCH   4  13
BRANCH   5  23
HETATM   23  N   UNL     1      -6.798  16.599  68.692  1.00  0.00    -0.159 N  
HETATM   24  C   UNL     1      -6.659  17.865  69.237  1.00  0.00    -0.235 C  
HETATM   25  O   UNL     1      -6.029  18.081  70.260  1.00  0.00    -0.198 OA 
HETATM   26  H   UNL     1      -7.190  16.531  67.753  1.00  0.00     0.000 HD 
BRANCH  24  27
HETATM   27  C   UNL     1      -7.385  18.991  68.439  1.00  0.00    -0.295 C  
BRANCH  27  28
HETATM   28  C   UNL     1      -6.761  19.552  67.234  1.00  0.00    -0.196 A  
HETATM   29  N   UNL     1      -6.648  18.803  66.066  1.00  0.00    -0.217 NA 
HETATM   30  N   UNL     1      -5.829  18.979  63.898  1.00  0.00    -0.421 NA 
HETATM   31  C   UNL     1      -6.273  20.842  67.109  1.00  0.00    -0.261 A  
HETATM   32  S   UNL     1      -5.654  21.099  65.534  1.00  0.00    -0.185 SA 
HETATM   33  H1  UNL     1      -6.076  18.021  63.650  1.00  0.00     0.000 HD 
HETATM   34  H2  UNL     1      -5.381  19.570  63.198  1.00  0.00     0.000 HD 
HETATM   35  C   UNL     1      -6.071  19.486  65.114  1.00  0.00    -0.252 A  
ENDBRANCH  27  28
BRANCH  27  36
HETATM   36  N   UNL     1      -8.561  19.484  68.714  1.00  0.00    -0.341 NA 
HETATM   37  H   UNL     1      -8.722  20.479  68.869  1.00  0.00     0.000 HD 
BRANCH  36  38
HETATM   38  O   UNL     1      -9.579  18.533  68.779  1.00  0.00    -0.345 OA 
HETATM   39  C   UNL     1     -10.426  18.733  67.649  1.00  0.00    -0.435 C  
ENDBRANCH  36  38
ENDBRANCH  27  36
ENDBRANCH  24  27
ENDBRANCH   5  23
TORSDOF 7
ENDMDL
MODEL      136
REMARK 921   NORMALIZED FREE ENERGY PREDICTED BY IDOCK:   -5.07 KCAL/MOL
REMARK 922        TOTAL FREE ENERGY PREDICTED BY IDOCK:   -8.36 KCAL/MOL
REMARK 923 INTER-LIGAND FREE ENERGY PREDICTED BY IDOCK:   -7.23 KCAL/MOL
REMARK 924 INTRA-LIGAND FREE ENERGY PREDICTED BY IDOCK:   -1.13 KCAL/MOL
REMARK 927      BINDING AFFINITY PREDICTED BY RF-SCORE:    0.00 PKD
ROOT
HETATM    1  C   UNL     1      -8.142  10.897  68.713  1.00  0.00    -0.145 C  
HETATM    2  S   UNL     1      -9.932  11.056  68.424  1.00  0.00    -0.193 SA 
HETATM    3  C   UNL     1     -10.288   9.323  68.649  1.00  0.00    -0.205 C  
HETATM    4  C   UNL     1      -9.425   8.381  67.854  1.00  0.00    -0.164 C  
HETATM    5  CA  UNL     1      -7.256  11.949  67.973  1.00  0.00    -0.090 C  
HETATM    6  CA  UNL     1      -8.133   8.662  67.536  1.00  0.00    -0.106 C  
HETATM    7  C   UNL     1      -7.185   7.546  66.937  1.00  0.00    -0.085 C  
HETATM    8  O   UNL     1      -6.174  10.600  66.076  1.00  0.00    -0.111 OA 
HETATM    9  N   UNL     1      -7.583   9.889  67.837  1.00  0.00    -0.089 N  
HETATM   10  OXT UNL     1      -7.794   6.649  66.265  1.00  0.00    -0.099 OA 
HETATM   11  O   UNL     1      -5.998   7.567  67.354  1.00  0.00    -0.043 OA 
HETATM   12  C   UNL     1      -6.781  10.717  67.119  1.00  0.00    -0.084 C  
ENDROOT
BRANCH   4  13
HETATM   13  C   UNL     1     -10.089   7.028  67.683  1.00  0.00    -0.172 C  
BRANCH  13  14
HETATM   14  N   UNL     1      -9.844   5.957  68.707  1.00  0.00    -0.133 NA 
HETATM   15  C   UNL     1      -9.608   4.645  68.454  1.00  0.00    -0.151 A  
HETATM   16  C   UNL     1      -9.455   3.939  67.136  1.00  0.00    -0.231 C  
HETATM   17  C   UNL     1      -9.244   2.457  67.515  1.00  0.00    -0.198 C  
HETATM   18  C   UNL     1     -10.007   6.339  70.009  1.00  0.00    -0.171 A  
HETATM   19  C   UNL     1      -9.208   2.334  69.037  1.00  0.00    -0.207 C  
HETATM   20  C   UNL     1      -9.952   5.430  71.064  1.00  0.00    -0.261 A  
HETATM   21  C   UNL     1      -9.699   4.095  70.816  1.00  0.00    -0.266 A  
HETATM   22  C   UNL     1      -9.524   3.716  69.501  1.00  0.00    -0.246 A  
ENDBRANCH  13  14
ENDBRANCH   4  13
BRANCH   5  23
HETATM   23  N   UNL     1      -7.969  12.978  67.165  1.00  0.00    -0.352 N  
HETATM   24  C   UNL     1      -7.792  14.347  67.283  1.00  0.00    -0.163 C  
HETATM   25  O   UNL     1      -6.886  14.846  67.932  1.00  0.00    -0.124 OA 
HETATM   26  H   UNL     1      -8.640  12.649  66.472  1.00  0.00     0.000 HD 
BRANCH  24  27
HETATM   27  C   UNL     1      -8.856  15.200  66.525  1.00  0.00    -0.277 C  
BRANCH  27  28
HETATM   28  C   UNL     1      -8.958  16.642  66.789  1.00  0.00    -0.237 A  
HETATM   29  N   UNL     1     -10.030  17.169  67.504  1.00  0.00    -0.271 NA 
HETATM   30  N   UNL     1     -10.845  19.209  68.263  1.00  0.00    -0.290 NA 
HETATM   31  C   UNL     1      -8.026  17.594  66.414  1.00  0.00    -0.274 A  
HETATM   32  S   UNL     1      -8.512  19.149  66.939  1.00  0.00    -0.306 SA 
HETATM   33  H1  UNL     1     -11.685  18.802  68.675  1.00  0.00     0.000 HD 
HETATM   34  H2  UNL     1     -10.699  20.216  68.335  1.00  0.00     0.000 HD 
HETATM   35  C   UNL     1      -9.927  18.465  67.632  1.00  0.00    -0.338 A  
ENDBRANCH  27  28
BRANCH  27  36
HETATM   36  N   UNL     1      -9.674  14.762  65.610  1.00  0.00    -0.466 NA 
HETATM   37  H   UNL     1      -9.745  15.181  64.683  1.00  0.00     0.000 HD 
BRANCH  36  38
HETATM   38  O   UNL     1     -10.446  13.670  66.008  1.00  0.00    -0.288 OA 
HETATM   39  C   UNL     1     -11.729  14.165  66.385  1.00  0.00    -0.390 C  
ENDBRANCH  36  38
ENDBRANCH  27  36
ENDBRANCH  24  27
ENDBRANCH   5  23
TORSDOF 7
ENDMDL
MODEL      137
REMARK 921   NORMALIZED FREE ENERGY PREDICTED BY IDOCK:   -5.06 KCAL/MOL
REMARK 922        TOTAL FREE ENERGY PREDICTED BY IDOCK:   -8.34 KCAL/MOL
REMARK 923 INTER-LIGAND FREE ENERGY PREDICTED BY IDOCK:   -6.82 KCAL/MOL
REMARK 924 INTRA-LIGAND FREE ENERGY PREDICTED BY IDOCK:   -1.52 KCAL/MOL
REMARK 927      BINDING AFFINITY PREDICTED BY RF-SCORE:    0.00 PKD
ROOT
HETATM    1  C   UNL     1      -8.035   6.667  68.249  1.00  0.00    -0.111 C  
HETATM    2  S   UNL     1      -9.829   6.945  68.106  1.00  0.00    -0.140 SA 
HETATM    3  C   UNL     1      -9.718   7.959  66.642  1.00  0.00    -0.235 C  
HETATM    4  C   UNL     1      -8.731   9.092  66.718  1.00  0.00    -0.138 C  
HETATM    5  CA  UNL     1      -7.517   6.436  69.705  1.00  0.00    -0.085 C  
HETATM    6  CA  UNL     1      -7.587   9.020  67.451  1.00  0.00    -0.088 C  
HETATM    7  C   UNL     1      -6.456  10.115  67.295  1.00  0.00    -0.068 C  
HETATM    8  O   UNL     1      -6.326   8.637  70.277  1.00  0.00    -0.036 OA 
HETATM    9  N   UNL     1      -7.333   7.932  68.257  1.00  0.00    -0.096 N  
HETATM   10  OXT UNL     1      -6.886  11.266  66.952  1.00  0.00    -0.115 OA 
HETATM   11  O   UNL     1      -5.276   9.679  67.330  1.00  0.00    -0.036 OA 
HETATM   12  C   UNL     1      -6.837   7.842  69.517  1.00  0.00    -0.047 C  
ENDROOT
BRANCH   4  13
HETATM   13  C   UNL     1      -9.051  10.178  65.708  1.00  0.00    -0.171 C  
BRANCH  13  14
HETATM   14  N   UNL     1     -10.099  11.202  66.040  1.00  0.00    -0.236 NA 
HETATM   15  C   UNL     1     -10.921  11.823  65.156  1.00  0.00    -0.294 A  
HETATM   16  C   UNL     1     -11.062  11.616  63.675  1.00  0.00    -0.506 C  
HETATM   17  C   UNL     1     -12.126  12.647  63.241  1.00  0.00    -0.524 C  
HETATM   18  C   UNL     1     -10.118  11.624  67.340  1.00  0.00    -0.198 A  
HETATM   19  C   UNL     1     -12.635  13.386  64.477  1.00  0.00    -0.286 C  
HETATM   20  C   UNL     1     -10.936  12.667  67.771  1.00  0.00    -0.266 A  
HETATM   21  C   UNL     1     -11.784  13.296  66.881  1.00  0.00    -0.437 A  
HETATM   22  C   UNL     1     -11.770  12.858  65.573  1.00  0.00    -0.423 A  
ENDBRANCH  13  14
ENDBRANCH   4  13
BRANCH   5  23
HETATM   23  N   UNL     1      -8.539   6.423  70.788  1.00  0.00    -0.134 N  
HETATM   24  C   UNL     1      -8.265   6.321  72.142  1.00  0.00    -0.109 C  
HETATM   25  O   UNL     1      -7.139   6.425  72.601  1.00  0.00    -0.074 OA 
HETATM   26  H   UNL     1      -9.518   6.495  70.511  1.00  0.00     0.000 HD 
BRANCH  24  27
HETATM   27  C   UNL     1      -9.517   6.048  73.033  1.00  0.00    -0.143 C  
BRANCH  27  28
HETATM   28  C   UNL     1      -9.961   4.668  73.266  1.00  0.00    -0.151 A  
HETATM   29  N   UNL     1      -9.902   3.712  72.256  1.00  0.00    -0.157 NA 
HETATM   30  N   UNL     1     -10.400   1.473  71.879  1.00  0.00    -0.145 NA 
HETATM   31  C   UNL     1     -10.425   4.167  74.471  1.00  0.00    -0.226 A  
HETATM   32  S   UNL     1     -10.810   2.506  74.321  1.00  0.00    -0.040 SA 
HETATM   33  H1  UNL     1     -10.119   1.501  70.899  1.00  0.00     0.000 HD 
HETATM   34  H2  UNL     1     -10.742   0.595  72.269  1.00  0.00     0.000 HD 
HETATM   35  C   UNL     1     -10.336   2.551  72.671  1.00  0.00    -0.150 A  
ENDBRANCH  27  28
BRANCH  27  36
HETATM   36  N   UNL     1     -10.220   6.952  73.657  1.00  0.00    -0.304 NA 
HETATM   37  H   UNL     1     -10.428   6.901  74.654  1.00  0.00     0.000 HD 
BRANCH  36  38
HETATM   38  O   UNL     1     -10.664   7.993  72.843  1.00  0.00    -0.355 OA 
HETATM   39  C   UNL     1     -11.727   7.486  72.037  1.00  0.00    -0.294 C  
ENDBRANCH  36  38
ENDBRANCH  27  36
ENDBRANCH  24  27
ENDBRANCH   5  23
TORSDOF 7
ENDMDL
MODEL      138
REMARK 921   NORMALIZED FREE ENERGY PREDICTED BY IDOCK:   -5.02 KCAL/MOL
REMARK 922        TOTAL FREE ENERGY PREDICTED BY IDOCK:   -8.28 KCAL/MOL
REMARK 923 INTER-LIGAND FREE ENERGY PREDICTED BY IDOCK:   -7.37 KCAL/MOL
REMARK 924 INTRA-LIGAND FREE ENERGY PREDICTED BY IDOCK:   -0.92 KCAL/MOL
REMARK 927      BINDING AFFINITY PREDICTED BY RF-SCORE:    0.00 PKD
ROOT
HETATM    1  C   UNL     1      -8.952   9.282  68.877  1.00  0.00    -0.136 C  
HETATM    2  S   UNL     1      -9.379  10.032  67.274  1.00  0.00    -0.150 SA 
HETATM    3  C   UNL     1     -10.303  11.389  67.971  1.00  0.00    -0.184 C  
HETATM    4  C   UNL     1     -11.348  11.002  68.982  1.00  0.00    -0.345 C  
HETATM    5  CA  UNL     1      -8.751   7.733  68.849  1.00  0.00    -0.135 C  
HETATM    6  CA  UNL     1     -11.213   9.923  69.800  1.00  0.00    -0.235 C  
HETATM    7  C   UNL     1     -12.195   9.705  71.021  1.00  0.00    -0.323 C  
HETATM    8  O   UNL     1     -10.865   6.831  69.991  1.00  0.00    -0.234 OA 
HETATM    9  N   UNL     1     -10.149   9.059  69.658  1.00  0.00    -0.190 N  
HETATM   10  OXT UNL     1     -13.361  10.194  70.848  1.00  0.00    -0.388 OA 
HETATM   11  O   UNL     1     -11.659   9.263  72.070  1.00  0.00    -0.356 OA 
HETATM   12  C   UNL     1     -10.080   7.704  69.689  1.00  0.00    -0.194 C  
ENDROOT
BRANCH   4  13
HETATM   13  C   UNL     1     -12.405  12.081  69.131  1.00  0.00     0.125 C  
BRANCH  13  14
HETATM   14  N   UNL     1     -11.990  13.460  69.556  1.00  0.00    -0.323 NA 
HETATM   15  C   UNL     1     -11.435  14.411  68.762  1.00  0.00    -0.289 A  
HETATM   16  C   UNL     1     -11.162  14.381  67.285  1.00  0.00    -0.334 C  
HETATM   17  C   UNL     1     -10.487  15.738  66.990  1.00  0.00    -0.309 C  
HETATM   18  C   UNL     1     -12.069  13.712  70.897  1.00  0.00    -0.248 A  
HETATM   19  C   UNL     1     -10.439  16.559  68.277  1.00  0.00    -0.313 C  
HETATM   20  C   UNL     1     -11.591  14.893  71.462  1.00  0.00    -0.361 A  
HETATM   21  C   UNL     1     -11.036  15.870  70.660  1.00  0.00    -0.368 A  
HETATM   22  C   UNL     1     -10.969  15.616  69.306  1.00  0.00    -0.267 A  
ENDBRANCH  13  14
ENDBRANCH   4  13
BRANCH   5  23
HETATM   23  N   UNL     1      -8.883   7.062  67.526  1.00  0.00    -0.119 N  
HETATM   24  C   UNL     1      -7.848   6.456  66.833  1.00  0.00    -0.104 C  
HETATM   25  O   UNL     1      -6.753   6.240  67.330  1.00  0.00    -0.056 OA 
HETATM   26  H   UNL     1      -9.807   7.048  67.097  1.00  0.00     0.000 HD 
BRANCH  24  27
HETATM   27  C   UNL     1      -8.193   6.081  65.359  1.00  0.00    -0.141 C  
BRANCH  27  28
HETATM   28  C   UNL     1      -8.629   4.716  65.035  1.00  0.00    -0.138 A  
HETATM   29  N   UNL     1      -8.726   3.738  66.021  1.00  0.00    -0.113 NA 
HETATM   30  N   UNL     1      -9.290   1.497  66.270  1.00  0.00    -0.334 NA 
HETATM   31  C   UNL     1      -9.018   4.274  63.782  1.00  0.00    -0.138 A  
HETATM   32  S   UNL     1      -9.479   2.626  63.843  1.00  0.00    -0.126 SA 
HETATM   33  H1  UNL     1      -9.086   1.482  67.269  1.00  0.00     0.000 HD 
HETATM   34  H2  UNL     1      -9.622   0.643  65.822  1.00  0.00     0.000 HD 
HETATM   35  C   UNL     1      -9.136   2.600  65.526  1.00  0.00    -0.127 A  
ENDBRANCH  27  28
BRANCH  27  36
HETATM   36  N   UNL     1      -8.177   6.895  64.341  1.00  0.00    -0.312 NA 
HETATM   37  H   UNL     1      -8.985   7.040  63.734  1.00  0.00     0.000 HD 
BRANCH  36  38
HETATM   38  O   UNL     1      -6.961   7.552  64.152  1.00  0.00    -0.057 OA 
HETATM   39  C   UNL     1      -6.403   7.079  62.928  1.00  0.00    -0.048 C  
ENDBRANCH  36  38
ENDBRANCH  27  36
ENDBRANCH  24  27
ENDBRANCH   5  23
TORSDOF 7
ENDMDL
MODEL      139
REMARK 921   NORMALIZED FREE ENERGY PREDICTED BY IDOCK:   -5.02 KCAL/MOL
REMARK 922        TOTAL FREE ENERGY PREDICTED BY IDOCK:   -8.28 KCAL/MOL
REMARK 923 INTER-LIGAND FREE ENERGY PREDICTED BY IDOCK:   -6.80 KCAL/MOL
REMARK 924 INTRA-LIGAND FREE ENERGY PREDICTED BY IDOCK:   -1.48 KCAL/MOL
REMARK 927      BINDING AFFINITY PREDICTED BY RF-SCORE:    0.00 PKD
ROOT
HETATM    1  C   UNL     1      -8.796   9.922  69.754  1.00  0.00    -0.211 C  
HETATM    2  S   UNL     1     -10.426   9.193  69.403  1.00  0.00    -0.218 SA 
HETATM    3  C   UNL     1      -9.939   7.519  69.778  1.00  0.00    -0.186 C  
HETATM    4  C   UNL     1      -8.683   7.047  69.097  1.00  0.00    -0.132 C  
HETATM    5  CA  UNL     1      -8.462  11.216  68.943  1.00  0.00    -0.092 C  
HETATM    6  CA  UNL     1      -7.656   7.885  68.789  1.00  0.00    -0.100 C  
HETATM    7  C   UNL     1      -6.257   7.315  68.322  1.00  0.00    -0.036 C  
HETATM    8  O   UNL     1      -6.747  10.416  67.210  1.00  0.00    -0.074 OA 
HETATM    9  N   UNL     1      -7.771   9.244  68.990  1.00  0.00    -0.074 N  
HETATM   10  OXT UNL     1      -6.325   6.192  67.720  1.00  0.00    -0.037 OA 
HETATM   11  O   UNL     1      -5.251   7.925  68.768  1.00  0.00    -0.025 OA 
HETATM   12  C   UNL     1      -7.407  10.302  68.221  1.00  0.00    -0.085 C  
ENDROOT
BRANCH   4  13
HETATM   13  C   UNL     1      -8.618   5.533  69.034  1.00  0.00    -0.103 C  
BRANCH  13  14
HETATM   14  N   UNL     1      -9.185   4.824  67.838  1.00  0.00    -0.117 NA 
HETATM   15  C   UNL     1      -8.738   3.655  67.312  1.00  0.00    -0.115 A  
HETATM   16  C   UNL     1      -7.649   2.743  67.800  1.00  0.00    -0.057 C  
HETATM   17  C   UNL     1      -7.596   1.610  66.753  1.00  0.00    -0.064 C  
HETATM   18  C   UNL     1     -10.157   5.503  67.157  1.00  0.00    -0.188 A  
HETATM   19  C   UNL     1      -8.693   1.841  65.716  1.00  0.00    -0.116 C  
HETATM   20  C   UNL     1     -10.682   5.041  65.952  1.00  0.00    -0.196 A  
HETATM   21  C   UNL     1     -10.241   3.847  65.416  1.00  0.00    -0.051 A  
HETATM   22  C   UNL     1      -9.269   3.159  66.112  1.00  0.00    -0.135 A  
ENDBRANCH  13  14
ENDBRANCH   4  13
BRANCH   5  23
HETATM   23  N   UNL     1      -9.519  11.725  68.025  1.00  0.00    -0.181 N  
HETATM   24  C   UNL     1      -9.572  13.007  67.503  1.00  0.00    -0.204 C  
HETATM   25  O   UNL     1      -8.646  13.798  67.591  1.00  0.00    -0.163 OA 
HETATM   26  H   UNL     1     -10.262  11.078  67.760  1.00  0.00     0.000 HD 
BRANCH  24  27
HETATM   27  C   UNL     1     -10.920  13.361  66.803  1.00  0.00    -0.288 C  
BRANCH  27  28
HETATM   28  C   UNL     1     -11.225  12.801  65.480  1.00  0.00    -0.294 A  
HETATM   29  N   UNL     1     -10.245  12.163  64.724  1.00  0.00    -0.277 NA 
HETATM   30  N   UNL     1      -9.973  11.104  62.673  1.00  0.00    -0.605 NA 
HETATM   31  C   UNL     1     -12.471  12.801  64.876  1.00  0.00    -0.497 A  
HETATM   32  S   UNL     1     -12.401  12.024  63.353  1.00  0.00    -0.393 SA 
HETATM   33  H1  UNL     1      -8.978  10.931  62.813  1.00  0.00     0.000 HD 
HETATM   34  H2  UNL     1     -10.412  10.787  61.809  1.00  0.00     0.000 HD 
HETATM   35  C   UNL     1     -10.724  11.733  63.587  1.00  0.00    -0.440 A  
ENDBRANCH  27  28
BRANCH  27  36
HETATM   36  N   UNL     1     -11.869  14.100  67.305  1.00  0.00    -0.401 NA 
HETATM   37  H   UNL     1     -12.413  14.759  66.747  1.00  0.00     0.000 HD 
BRANCH  36  38
HETATM   38  O   UNL     1     -12.077  13.914  68.672  1.00  0.00    -0.358 OA 
HETATM   39  C   UNL     1     -12.019  15.196  69.294  1.00  0.00    -0.292 C  
ENDBRANCH  36  38
ENDBRANCH  27  36
ENDBRANCH  24  27
ENDBRANCH   5  23
TORSDOF 7
ENDMDL
MODEL      140
REMARK 921   NORMALIZED FREE ENERGY PREDICTED BY IDOCK:   -5.01 KCAL/MOL
REMARK 922        TOTAL FREE ENERGY PREDICTED BY IDOCK:   -8.27 KCAL/MOL
REMARK 923 INTER-LIGAND FREE ENERGY PREDICTED BY IDOCK:   -7.07 KCAL/MOL
REMARK 924 INTRA-LIGAND FREE ENERGY PREDICTED BY IDOCK:   -1.20 KCAL/MOL
REMARK 927      BINDING AFFINITY PREDICTED BY RF-SCORE:    0.00 PKD
ROOT
HETATM    1  C   UNL     1      -9.124  10.978  67.862  1.00  0.00    -0.147 C  
HETATM    2  S   UNL     1     -10.165  11.001  66.368  1.00  0.00    -0.242 SA 
HETATM    3  C   UNL     1      -9.897   9.286  65.959  1.00  0.00    -0.293 C  
HETATM    4  C   UNL     1      -8.457   8.849  65.930  1.00  0.00    -0.147 C  
HETATM    5  CA  UNL     1      -8.452  12.343  68.221  1.00  0.00    -0.170 C  
HETATM    6  CA  UNL     1      -7.508   9.399  66.735  1.00  0.00    -0.094 C  
HETATM    7  C   UNL     1      -6.077   8.738  66.867  1.00  0.00    -0.058 C  
HETATM    8  O   UNL     1      -5.993  11.991  67.576  1.00  0.00    -0.080 OA 
HETATM    9  N   UNL     1      -7.806  10.474  67.544  1.00  0.00    -0.105 N  
HETATM   10  OXT UNL     1      -5.697   8.101  65.830  1.00  0.00    -0.036 OA 
HETATM   11  O   UNL     1      -5.583   8.751  68.025  1.00  0.00    -0.035 OA 
HETATM   12  C   UNL     1      -7.120  11.613  67.817  1.00  0.00    -0.092 C  
ENDROOT
BRANCH   4  13
HETATM   13  C   UNL     1      -8.272   7.594  65.099  1.00  0.00    -0.128 C  
BRANCH  13  14
HETATM   14  N   UNL     1      -8.701   6.270  65.665  1.00  0.00    -0.144 NA 
HETATM   15  C   UNL     1      -8.901   5.126  64.963  1.00  0.00    -0.134 A  
HETATM   16  C   UNL     1      -8.685   4.851  63.502  1.00  0.00    -0.107 C  
HETATM   17  C   UNL     1      -9.130   3.384  63.316  1.00  0.00    -0.094 C  
HETATM   18  C   UNL     1      -9.039   6.278  66.989  1.00  0.00    -0.123 A  
HETATM   19  C   UNL     1      -9.529   2.810  64.674  1.00  0.00    -0.142 C  
HETATM   20  C   UNL     1      -9.587   5.164  67.624  1.00  0.00    -0.164 A  
HETATM   21  C   UNL     1      -9.782   3.992  66.920  1.00  0.00    -0.215 A  
HETATM   22  C   UNL     1      -9.428   3.986  65.587  1.00  0.00    -0.176 A  
ENDBRANCH  13  14
ENDBRANCH   4  13
BRANCH   5  23
HETATM   23  N   UNL     1      -8.773  13.501  67.340  1.00  0.00    -0.209 N  
HETATM   24  C   UNL     1      -9.139  14.762  67.783  1.00  0.00    -0.186 C  
HETATM   25  O   UNL     1      -9.048  15.107  68.950  1.00  0.00    -0.186 OA 
HETATM   26  H   UNL     1      -8.719  13.354  66.333  1.00  0.00     0.000 HD 
BRANCH  24  27
HETATM   27  C   UNL     1      -9.688  15.701  66.665  1.00  0.00    -0.249 C  
BRANCH  27  28
HETATM   28  C   UNL     1      -9.079  17.022  66.457  1.00  0.00    -0.264 A  
HETATM   29  N   UNL     1      -9.857  18.175  66.415  1.00  0.00    -0.361 NA 
HETATM   30  N   UNL     1      -9.639  20.472  66.130  1.00  0.00    -0.648 NA 
HETATM   31  C   UNL     1      -7.723  17.268  66.327  1.00  0.00    -0.318 A  
HETATM   32  S   UNL     1      -7.433  18.943  66.128  1.00  0.00    -0.248 SA 
HETATM   33  H1  UNL     1     -10.642  20.647  66.189  1.00  0.00     0.000 HD 
HETATM   34  H2  UNL     1      -9.008  21.261  65.992  1.00  0.00     0.000 HD 
HETATM   35  C   UNL     1      -9.122  19.240  66.228  1.00  0.00    -0.329 A  
ENDBRANCH  27  28
BRANCH  27  36
HETATM   36  N   UNL     1     -10.646  15.413  65.829  1.00  0.00    -0.328 NA 
HETATM   37  H   UNL     1     -10.691  15.795  64.885  1.00  0.00     0.000 HD 
BRANCH  36  38
HETATM   38  O   UNL     1     -11.605  14.538  66.338  1.00  0.00    -0.357 OA 
HETATM   39  C   UNL     1     -12.400  14.086  65.243  1.00  0.00    -0.465 C  
ENDBRANCH  36  38
ENDBRANCH  27  36
ENDBRANCH  24  27
ENDBRANCH   5  23
TORSDOF 7
ENDMDL
MODEL      141
REMARK 921   NORMALIZED FREE ENERGY PREDICTED BY IDOCK:   -4.97 KCAL/MOL
REMARK 922        TOTAL FREE ENERGY PREDICTED BY IDOCK:   -8.21 KCAL/MOL
REMARK 923 INTER-LIGAND FREE ENERGY PREDICTED BY IDOCK:   -6.69 KCAL/MOL
REMARK 924 INTRA-LIGAND FREE ENERGY PREDICTED BY IDOCK:   -1.51 KCAL/MOL
REMARK 927      BINDING AFFINITY PREDICTED BY RF-SCORE:    0.00 PKD
ROOT
HETATM    1  C   UNL     1     -10.634   9.540  68.744  1.00  0.00    -0.214 C  
HETATM    2  S   UNL     1     -10.671   9.366  66.932  1.00  0.00    -0.006 SA 
HETATM    3  C   UNL     1     -10.623   7.583  66.941  1.00  0.00    -0.297 C  
HETATM    4  C   UNL     1      -9.538   6.973  67.786  1.00  0.00    -0.138 C  
HETATM    5  CA  UNL     1      -9.971  10.855  69.268  1.00  0.00    -0.113 C  
HETATM    6  CA  UNL     1      -9.075   7.562  68.922  1.00  0.00    -0.140 C  
HETATM    7  C   UNL     1      -8.134   6.771  69.918  1.00  0.00    -0.126 C  
HETATM    8  O   UNL     1      -7.708  10.064  70.184  1.00  0.00    -0.171 OA 
HETATM    9  N   UNL     1      -9.507   8.816  69.292  1.00  0.00    -0.160 N  
HETATM   10  OXT UNL     1      -7.413   5.879  69.360  1.00  0.00    -0.083 OA 
HETATM   11  O   UNL     1      -8.353   6.976  71.141  1.00  0.00    -0.116 OA 
HETATM   12  C   UNL     1      -8.838   9.892  69.780  1.00  0.00    -0.211 C  
ENDROOT
BRANCH   4  13
HETATM   13  C   UNL     1      -9.227   5.553  67.353  1.00  0.00    -0.110 C  
BRANCH  13  14
HETATM   14  N   UNL     1      -8.549   5.321  66.033  1.00  0.00    -0.120 NA 
HETATM   15  C   UNL     1      -8.995   4.519  65.033  1.00  0.00    -0.149 A  
HETATM   16  C   UNL     1     -10.272   3.732  64.937  1.00  0.00    -0.121 C  
HETATM   17  C   UNL     1     -10.172   2.998  63.583  1.00  0.00    -0.188 C  
HETATM   18  C   UNL     1      -7.308   5.879  65.902  1.00  0.00    -0.076 A  
HETATM   19  C   UNL     1      -8.880   3.419  62.884  1.00  0.00    -0.093 C  
HETATM   20  C   UNL     1      -6.498   5.639  64.794  1.00  0.00    -0.041 A  
HETATM   21  C   UNL     1      -6.949   4.834  63.767  1.00  0.00    -0.048 A  
HETATM   22  C   UNL     1      -8.207   4.282  63.898  1.00  0.00    -0.096 A  
ENDBRANCH  13  14
ENDBRANCH   4  13
BRANCH   5  23
HETATM   23  N   UNL     1      -9.495  11.823  68.241  1.00  0.00    -0.190 N  
HETATM   24  C   UNL     1     -10.049  13.069  68.002  1.00  0.00    -0.235 C  
HETATM   25  O   UNL     1     -10.870  13.583  68.746  1.00  0.00    -0.248 OA 
HETATM   26  H   UNL     1      -8.698  11.545  67.669  1.00  0.00     0.000 HD 
BRANCH  24  27
HETATM   27  C   UNL     1      -9.546  13.758  66.697  1.00  0.00    -0.288 C  
BRANCH  27  28
HETATM   28  C   UNL     1      -8.627  14.901  66.781  1.00  0.00    -0.222 A  
HETATM   29  N   UNL     1      -8.917  16.106  66.148  1.00  0.00    -0.331 NA 
HETATM   30  N   UNL     1      -8.013  18.224  65.831  1.00  0.00    -0.519 NA 
HETATM   31  C   UNL     1      -7.445  14.928  67.502  1.00  0.00    -0.200 A  
HETATM   32  S   UNL     1      -6.691  16.458  67.359  1.00  0.00    -0.186 SA 
HETATM   33  H1  UNL     1      -8.777  18.540  65.233  1.00  0.00     0.000 HD 
HETATM   34  H2  UNL     1      -7.250  18.869  66.038  1.00  0.00     0.000 HD 
HETATM   35  C   UNL     1      -7.977  16.991  66.353  1.00  0.00    -0.307 A  
ENDBRANCH  27  28
BRANCH  27  36
HETATM   36  N   UNL     1      -9.830  13.387  65.480  1.00  0.00    -0.485 NA 
HETATM   37  H   UNL     1      -9.264  13.649  64.673  1.00  0.00     0.000 HD 
BRANCH  36  38
HETATM   38  O   UNL     1     -10.977  12.599  65.376  1.00  0.00    -0.276 OA 
HETATM   39  C   UNL     1     -12.038  13.442  64.931  1.00  0.00    -0.392 C  
ENDBRANCH  36  38
ENDBRANCH  27  36
ENDBRANCH  24  27
ENDBRANCH   5  23
TORSDOF 7
ENDMDL
MODEL      142
REMARK 921   NORMALIZED FREE ENERGY PREDICTED BY IDOCK:   -4.95 KCAL/MOL
REMARK 922        TOTAL FREE ENERGY PREDICTED BY IDOCK:   -8.19 KCAL/MOL
REMARK 923 INTER-LIGAND FREE ENERGY PREDICTED BY IDOCK:   -6.53 KCAL/MOL
REMARK 924 INTRA-LIGAND FREE ENERGY PREDICTED BY IDOCK:   -1.66 KCAL/MOL
REMARK 927      BINDING AFFINITY PREDICTED BY RF-SCORE:    0.00 PKD
ROOT
HETATM    1  C   UNL     1     -10.905   9.331  66.693  1.00  0.00     0.148 C  
HETATM    2  S   UNL     1     -11.315  10.548  67.984  1.00  0.00    -0.143 SA 
HETATM    3  C   UNL     1     -10.670  11.952  67.095  1.00  0.00    -0.240 C  
HETATM    4  C   UNL     1      -9.273  11.787  66.559  1.00  0.00    -0.206 C  
HETATM    5  CA  UNL     1     -10.617   7.886  67.214  1.00  0.00    -0.295 C  
HETATM    6  CA  UNL     1      -8.776  10.584  66.164  1.00  0.00    -0.158 C  
HETATM    7  C   UNL     1      -7.414  10.493  65.365  1.00  0.00    -0.089 C  
HETATM    8  O   UNL     1      -8.070   7.662  66.993  1.00  0.00    -0.113 OA 
HETATM    9  N   UNL     1      -9.503   9.427  66.345  1.00  0.00    -0.184 N  
HETATM   10  OXT UNL     1      -6.592  11.433  65.625  1.00  0.00     0.254 OA 
HETATM   11  O   UNL     1      -7.388   9.637  64.443  1.00  0.00    -0.114 OA 
HETATM   12  C   UNL     1      -9.138   8.192  66.776  1.00  0.00    -0.157 C  
ENDROOT
BRANCH   4  13
HETATM   13  C   UNL     1      -8.616  13.129  66.295  1.00  0.00     0.474 C  
BRANCH  13  14
HETATM   14  N   UNL     1      -8.498  14.120  67.417  1.00  0.00    -0.192 NA 
HETATM   15  C   UNL     1      -9.060  15.355  67.458  1.00  0.00    -0.194 A  
HETATM   16  C   UNL     1      -9.979  16.019  66.473  1.00  0.00    -0.293 C  
HETATM   17  C   UNL     1     -10.231  17.422  67.066  1.00  0.00    -0.323 C  
HETATM   18  C   UNL     1      -7.635  13.774  68.419  1.00  0.00    -0.135 A  
HETATM   19  C   UNL     1      -9.515  17.529  68.411  1.00  0.00    -0.292 C  
HETATM   20  C   UNL     1      -7.312  14.647  69.457  1.00  0.00    -0.107 A  
HETATM   21  C   UNL     1      -7.889  15.901  69.513  1.00  0.00    -0.112 A  
HETATM   22  C   UNL     1      -8.768  16.240  68.506  1.00  0.00    -0.211 A  
ENDBRANCH  13  14
ENDBRANCH   4  13
BRANCH   5  23
HETATM   23  N   UNL     1     -10.756   7.660  68.680  1.00  0.00    -0.381 N  
HETATM   24  C   UNL     1     -10.943   6.427  69.282  1.00  0.00    -0.356 C  
HETATM   25  O   UNL     1     -10.820   5.371  68.683  1.00  0.00    -0.123 OA 
HETATM   26  H   UNL     1     -10.710   8.478  69.287  1.00  0.00     0.000 HD 
BRANCH  24  27
HETATM   27  C   UNL     1     -11.337   6.501  70.790  1.00  0.00    -0.342 C  
BRANCH  27  28
HETATM   28  C   UNL     1     -12.296   7.516  71.245  1.00  0.00    -0.327 A  
HETATM   29  N   UNL     1     -11.944   8.861  71.310  1.00  0.00    -0.297 NA 
HETATM   30  N   UNL     1     -12.845  10.921  71.901  1.00  0.00    -0.396 NA 
HETATM   31  C   UNL     1     -13.611   7.274  71.604  1.00  0.00    -0.349 A  
HETATM   32  S   UNL     1     -14.391   8.732  72.046  1.00  0.00    -0.322 SA 
HETATM   33  H1  UNL     1     -11.983  11.433  71.715  1.00  0.00     0.000 HD 
HETATM   34  H2  UNL     1     -13.663  11.435  72.226  1.00  0.00     0.000 HD 
HETATM   35  C   UNL     1     -12.939   9.595  71.733  1.00  0.00    -0.420 A  
ENDBRANCH  27  28
BRANCH  27  36
HETATM   36  N   UNL     1     -10.922   5.695  71.727  1.00  0.00    -0.249 NA 
HETATM   37  H   UNL     1     -11.551   5.100  72.266  1.00  0.00     0.000 HD 
BRANCH  36  38
HETATM   38  O   UNL     1      -9.542   5.717  71.930  1.00  0.00    -0.151 OA 
HETATM   39  C   UNL     1      -9.227   6.929  72.614  1.00  0.00    -0.135 C  
ENDBRANCH  36  38
ENDBRANCH  27  36
ENDBRANCH  24  27
ENDBRANCH   5  23
TORSDOF 7
ENDMDL
MODEL      143
REMARK 921   NORMALIZED FREE ENERGY PREDICTED BY IDOCK:   -4.93 KCAL/MOL
REMARK 922        TOTAL FREE ENERGY PREDICTED BY IDOCK:   -8.15 KCAL/MOL
REMARK 923 INTER-LIGAND FREE ENERGY PREDICTED BY IDOCK:   -7.05 KCAL/MOL
REMARK 924 INTRA-LIGAND FREE ENERGY PREDICTED BY IDOCK:   -1.10 KCAL/MOL
REMARK 927      BINDING AFFINITY PREDICTED BY RF-SCORE:    0.00 PKD
ROOT
HETATM    1  C   UNL     1      -8.827  11.196  67.669  1.00  0.00    -0.136 C  
HETATM    2  S   UNL     1      -7.879  11.437  69.204  1.00  0.00     0.108 SA 
HETATM    3  C   UNL     1      -7.216   9.783  69.247  1.00  0.00    -0.072 C  
HETATM    4  C   UNL     1      -8.228   8.680  69.091  1.00  0.00    -0.117 C  
HETATM    5  CA  UNL     1     -10.116  12.070  67.544  1.00  0.00    -0.195 C  
HETATM    6  CA  UNL     1      -9.360   8.823  68.349  1.00  0.00    -0.137 C  
HETATM    7  C   UNL     1     -10.257   7.571  67.992  1.00  0.00    -0.195 C  
HETATM    8  O   UNL     1     -12.020  10.396  67.938  1.00  0.00    -0.148 OA 
HETATM    9  N   UNL     1      -9.688  10.039  67.791  1.00  0.00    -0.148 N  
HETATM   10  OXT UNL     1     -10.212   6.632  68.854  1.00  0.00    -0.161 OA 
HETATM   11  O   UNL     1     -10.739   7.568  66.829  1.00  0.00    -0.319 OA 
HETATM   12  C   UNL     1     -10.871  10.700  67.703  1.00  0.00    -0.292 C  
ENDROOT
BRANCH   4  13
HETATM   13  C   UNL     1      -7.710   7.366  69.643  1.00  0.00    -0.107 C  
BRANCH  13  14
HETATM   14  N   UNL     1      -7.030   6.399  68.716  1.00  0.00    -0.077 NA 
HETATM   15  C   UNL     1      -7.059   5.045  68.808  1.00  0.00    -0.057 A  
HETATM   16  C   UNL     1      -7.807   4.169  69.773  1.00  0.00    -0.052 C  
HETATM   17  C   UNL     1      -7.396   2.732  69.387  1.00  0.00    -0.044 C  
HETATM   18  C   UNL     1      -6.209   6.960  67.778  1.00  0.00    -0.041 A  
HETATM   19  C   UNL     1      -6.476   2.788  68.169  1.00  0.00    -0.032 C  
HETATM   20  C   UNL     1      -5.404   6.192  66.939  1.00  0.00    -0.009 A  
HETATM   21  C   UNL     1      -5.437   4.814  67.018  1.00  0.00    -0.013 A  
HETATM   22  C   UNL     1      -6.276   4.252  67.957  1.00  0.00    -0.036 A  
ENDBRANCH  13  14
ENDBRANCH   4  13
BRANCH   5  23
HETATM   23  N   UNL     1     -10.393  13.022  68.656  1.00  0.00    -0.350 N  
HETATM   24  C   UNL     1     -11.197  14.146  68.561  1.00  0.00    -0.260 C  
HETATM   25  O   UNL     1     -11.919  14.366  67.602  1.00  0.00    -0.377 OA 
HETATM   26  H   UNL     1      -9.956  12.831  69.557  1.00  0.00     0.000 HD 
BRANCH  24  27
HETATM   27  C   UNL     1     -11.094  15.115  69.779  1.00  0.00    -0.278 C  
BRANCH  27  28
HETATM   28  C   UNL     1     -11.935  14.892  70.963  1.00  0.00    -0.320 A  
HETATM   29  N   UNL     1     -11.653  15.517  72.174  1.00  0.00    -0.449 NA 
HETATM   30  N   UNL     1     -12.457  15.646  74.351  1.00  0.00    -0.729 NA 
HETATM   31  C   UNL     1     -13.075  14.109  71.000  1.00  0.00    -0.302 A  
HETATM   32  S   UNL     1     -13.774  14.141  72.563  1.00  0.00    -0.486 SA 
HETATM   33  H1  UNL     1     -11.714  16.270  74.666  1.00  0.00     0.000 HD 
HETATM   34  H2  UNL     1     -13.174  15.359  75.017  1.00  0.00     0.000 HD 
HETATM   35  C   UNL     1     -12.523  15.191  73.093  1.00  0.00    -0.448 A  
ENDBRANCH  27  28
BRANCH  27  36
HETATM   36  N   UNL     1     -10.274  16.123  69.884  1.00  0.00    -0.208 NA 
HETATM   37  H   UNL     1      -9.393  16.071  70.396  1.00  0.00     0.000 HD 
BRANCH  36  38
HETATM   38  O   UNL     1     -10.705  17.281  69.237  1.00  0.00    -0.260 OA 
HETATM   39  C   UNL     1      -9.848  17.492  68.116  1.00  0.00    -0.306 C  
ENDBRANCH  36  38
ENDBRANCH  27  36
ENDBRANCH  24  27
ENDBRANCH   5  23
TORSDOF 7
ENDMDL
MODEL      144
REMARK 921   NORMALIZED FREE ENERGY PREDICTED BY IDOCK:   -4.92 KCAL/MOL
REMARK 922        TOTAL FREE ENERGY PREDICTED BY IDOCK:   -8.15 KCAL/MOL
REMARK 923 INTER-LIGAND FREE ENERGY PREDICTED BY IDOCK:   -6.94 KCAL/MOL
REMARK 924 INTRA-LIGAND FREE ENERGY PREDICTED BY IDOCK:   -1.21 KCAL/MOL
REMARK 927      BINDING AFFINITY PREDICTED BY RF-SCORE:    0.00 PKD
ROOT
HETATM    1  C   UNL     1      -8.595   8.652  68.604  1.00  0.00    -0.131 C  
HETATM    2  S   UNL     1      -8.961   8.795  66.826  1.00  0.00    -0.141 SA 
HETATM    3  C   UNL     1      -9.744  10.393  66.950  1.00  0.00    -0.181 C  
HETATM    4  C   UNL     1     -10.812  10.505  68.004  1.00  0.00    -0.312 C  
HETATM    5  CA  UNL     1      -8.545   7.190  69.153  1.00  0.00    -0.133 C  
HETATM    6  CA  UNL     1     -10.776   9.796  69.164  1.00  0.00    -0.221 C  
HETATM    7  C   UNL     1     -11.764  10.135  70.352  1.00  0.00    -0.308 C  
HETATM    8  O   UNL     1     -10.727   6.973  70.488  1.00  0.00    -0.226 OA 
HETATM    9  N   UNL     1      -9.802   8.846  69.379  1.00  0.00    -0.179 N  
HETATM   10  OXT UNL     1     -12.878  10.633  69.979  1.00  0.00    -0.235 OA 
HETATM   11  O   UNL     1     -11.264  10.063  71.505  1.00  0.00    -0.248 OA 
HETATM   12  C   UNL     1      -9.864   7.596  69.908  1.00  0.00    -0.184 C  
ENDROOT
BRANCH   4  13
HETATM   13  C   UNL     1     -11.759  11.656  67.716  1.00  0.00    -0.245 C  
BRANCH  13  14
HETATM   14  N   UNL     1     -11.390  12.662  66.664  1.00  0.00    -0.308 NA 
HETATM   15  C   UNL     1     -10.515  13.689  66.809  1.00  0.00    -0.270 A  
HETATM   16  C   UNL     1      -9.649  14.048  67.982  1.00  0.00    -0.217 C  
HETATM   17  C   UNL     1      -8.918  15.335  67.543  1.00  0.00    -0.192 C  
HETATM   18  C   UNL     1     -12.112  12.593  65.505  1.00  0.00    -0.458 A  
HETATM   19  C   UNL     1      -9.314  15.665  66.106  1.00  0.00    -0.382 C  
HETATM   20  C   UNL     1     -11.985  13.542  64.492  1.00  0.00    -0.451 A  
HETATM   21  C   UNL     1     -11.088  14.583  64.626  1.00  0.00    -0.356 A  
HETATM   22  C   UNL     1     -10.353  14.642  65.792  1.00  0.00    -0.349 A  
ENDBRANCH  13  14
ENDBRANCH   4  13
BRANCH   5  23
HETATM   23  N   UNL     1      -8.752   6.094  68.166  1.00  0.00    -0.115 N  
HETATM   24  C   UNL     1      -7.747   5.316  67.616  1.00  0.00    -0.092 C  
HETATM   25  O   UNL     1      -6.600   5.322  68.034  1.00  0.00    -0.046 OA 
HETATM   26  H   UNL     1      -9.710   5.903  67.872  1.00  0.00     0.000 HD 
BRANCH  24  27
HETATM   27  C   UNL     1      -8.200   4.438  66.409  1.00  0.00    -0.102 C  
BRANCH  27  28
HETATM   28  C   UNL     1      -8.155   4.989  65.048  1.00  0.00    -0.113 A  
HETATM   29  N   UNL     1      -7.858   6.330  64.823  1.00  0.00    -0.105 NA 
HETATM   30  N   UNL     1      -7.626   7.842  63.074  1.00  0.00    -0.118 NA 
HETATM   31  C   UNL     1      -8.351   4.266  63.884  1.00  0.00    -0.100 A  
HETATM   32  S   UNL     1      -8.185   5.278  62.514  1.00  0.00    -0.106 SA 
HETATM   33  H1  UNL     1      -7.435   8.634  63.688  1.00  0.00     0.000 HD 
HETATM   34  H2  UNL     1      -7.637   7.992  62.065  1.00  0.00     0.000 HD 
HETATM   35  C   UNL     1      -7.863   6.612  63.547  1.00  0.00    -0.109 A  
ENDBRANCH  27  28
BRANCH  27  36
HETATM   36  N   UNL     1      -8.593   3.196  66.474  1.00  0.00    -0.113 NA 
HETATM   37  H   UNL     1      -9.434   2.856  66.008  1.00  0.00     0.000 HD 
BRANCH  36  38
HETATM   38  O   UNL     1      -7.764   2.373  67.236  1.00  0.00    -0.064 OA 
HETATM   39  C   UNL     1      -6.635   2.038  66.432  1.00  0.00    -0.031 C  
ENDBRANCH  36  38
ENDBRANCH  27  36
ENDBRANCH  24  27
ENDBRANCH   5  23
TORSDOF 7
ENDMDL
MODEL      145
REMARK 921   NORMALIZED FREE ENERGY PREDICTED BY IDOCK:   -4.91 KCAL/MOL
REMARK 922        TOTAL FREE ENERGY PREDICTED BY IDOCK:   -8.13 KCAL/MOL
REMARK 923 INTER-LIGAND FREE ENERGY PREDICTED BY IDOCK:   -6.77 KCAL/MOL
REMARK 924 INTRA-LIGAND FREE ENERGY PREDICTED BY IDOCK:   -1.37 KCAL/MOL
REMARK 927      BINDING AFFINITY PREDICTED BY RF-SCORE:    0.00 PKD
ROOT
HETATM    1  C   UNL     1     -11.144  10.586  67.790  1.00  0.00    -0.317 C  
HETATM    2  S   UNL     1      -9.573  11.349  67.276  1.00  0.00    -0.175 SA 
HETATM    3  C   UNL     1      -8.670   9.814  67.186  1.00  0.00    -0.132 C  
HETATM    4  C   UNL     1      -8.777   8.932  68.400  1.00  0.00    -0.134 C  
HETATM    5  CA  UNL     1     -12.065  11.495  68.666  1.00  0.00    -0.129 C  
HETATM    6  CA  UNL     1      -9.889   8.895  69.184  1.00  0.00    -0.180 C  
HETATM    7  C   UNL     1     -10.067   7.772  70.284  1.00  0.00    -0.195 C  
HETATM    8  O   UNL     1     -11.832  10.499  71.020  1.00  0.00    -0.350 OA 
HETATM    9  N   UNL     1     -10.938   9.759  68.960  1.00  0.00    -0.198 N  
HETATM   10  OXT UNL     1      -8.970   7.334  70.766  1.00  0.00    -0.150 OA 
HETATM   11  O   UNL     1     -11.234   7.316  70.403  1.00  0.00    -0.269 OA 
HETATM   12  C   UNL     1     -11.707  10.482  69.814  1.00  0.00    -0.281 C  
ENDROOT
BRANCH   4  13
HETATM   13  C   UNL     1      -7.624   7.949  68.478  1.00  0.00    -0.105 C  
BRANCH  13  14
HETATM   14  N   UNL     1      -7.389   7.003  67.335  1.00  0.00    -0.089 NA 
HETATM   15  C   UNL     1      -8.295   6.140  66.809  1.00  0.00    -0.110 A  
HETATM   16  C   UNL     1      -9.744   5.950  67.154  1.00  0.00    -0.145 C  
HETATM   17  C   UNL     1     -10.211   4.798  66.237  1.00  0.00    -0.315 C  
HETATM   18  C   UNL     1      -6.100   6.933  66.886  1.00  0.00    -0.036 A  
HETATM   19  C   UNL     1      -9.053   4.385  65.331  1.00  0.00    -0.143 C  
HETATM   20  C   UNL     1      -5.696   6.004  65.928  1.00  0.00    -0.020 A  
HETATM   21  C   UNL     1      -6.614   5.131  65.379  1.00  0.00    -0.040 A  
HETATM   22  C   UNL     1      -7.915   5.214  65.827  1.00  0.00    -0.108 A  
ENDBRANCH  13  14
ENDBRANCH   4  13
BRANCH   5  23
HETATM   23  N   UNL     1     -11.582  12.878  68.937  1.00  0.00    -0.294 N  
HETATM   24  C   UNL     1     -11.702  13.949  68.067  1.00  0.00    -0.352 C  
HETATM   25  O   UNL     1     -12.392  13.912  67.060  1.00  0.00    -0.391 OA 
HETATM   26  H   UNL     1     -11.128  13.049  69.834  1.00  0.00     0.000 HD 
BRANCH  24  27
HETATM   27  C   UNL     1     -10.870  15.204  68.473  1.00  0.00    -0.247 C  
BRANCH  27  28
HETATM   28  C   UNL     1      -9.464  15.314  68.061  1.00  0.00    -0.198 A  
HETATM   29  N   UNL     1      -8.521  14.371  68.459  1.00  0.00    -0.167 NA 
HETATM   30  N   UNL     1      -6.255  13.902  68.238  1.00  0.00    -0.099 NA 
HETATM   31  C   UNL     1      -8.946  16.295  67.233  1.00  0.00    -0.195 A  
HETATM   32  S   UNL     1      -7.272  16.043  66.978  1.00  0.00    -0.182 SA 
HETATM   33  H1  UNL     1      -6.295  13.075  68.833  1.00  0.00     0.000 HD 
HETATM   34  H2  UNL     1      -5.362  14.171  67.825  1.00  0.00     0.000 HD 
HETATM   35  C   UNL     1      -7.337  14.649  67.980  1.00  0.00    -0.135 A  
ENDBRANCH  27  28
BRANCH  27  36
HETATM   36  N   UNL     1     -11.318  16.235  69.135  1.00  0.00    -0.317 NA 
HETATM   37  H   UNL     1     -12.114  16.791  68.821  1.00  0.00     0.000 HD 
BRANCH  36  38
HETATM   38  O   UNL     1     -10.615  16.511  70.307  1.00  0.00    -0.171 OA 
HETATM   39  C   UNL     1     -11.425  16.089  71.403  1.00  0.00    -0.398 C  
ENDBRANCH  36  38
ENDBRANCH  27  36
ENDBRANCH  24  27
ENDBRANCH   5  23
TORSDOF 7
ENDMDL
MODEL      146
REMARK 921   NORMALIZED FREE ENERGY PREDICTED BY IDOCK:   -4.89 KCAL/MOL
REMARK 922        TOTAL FREE ENERGY PREDICTED BY IDOCK:   -8.11 KCAL/MOL
REMARK 923 INTER-LIGAND FREE ENERGY PREDICTED BY IDOCK:   -7.40 KCAL/MOL
REMARK 924 INTRA-LIGAND FREE ENERGY PREDICTED BY IDOCK:   -0.71 KCAL/MOL
REMARK 927      BINDING AFFINITY PREDICTED BY RF-SCORE:    0.00 PKD
ROOT
HETATM    1  C   UNL     1     -10.832  10.923  67.772  1.00  0.00    -0.259 C  
HETATM    2  S   UNL     1      -9.052  11.114  67.441  1.00  0.00    -0.143 SA 
HETATM    3  C   UNL     1      -8.621   9.448  67.909  1.00  0.00    -0.120 C  
HETATM    4  C   UNL     1      -9.147   8.999  69.245  1.00  0.00    -0.145 C  
HETATM    5  CA  UNL     1     -11.571  12.235  68.192  1.00  0.00    -0.339 C  
HETATM    6  CA  UNL     1     -10.323   9.450  69.759  1.00  0.00    -0.223 C  
HETATM    7  C   UNL     1     -10.969   8.762  71.029  1.00  0.00    -0.268 C  
HETATM    8  O   UNL     1     -11.970  11.922  70.708  1.00  0.00    -0.305 OA 
HETATM    9  N   UNL     1     -11.039  10.438  69.120  1.00  0.00    -0.234 N  
HETATM   10  OXT UNL     1     -10.123   8.231  71.823  1.00  0.00    -0.188 OA 
HETATM   11  O   UNL     1     -12.222   8.648  71.000  1.00  0.00    -0.273 OA 
HETATM   12  C   UNL     1     -11.684  11.535  69.596  1.00  0.00    -0.351 C  
ENDROOT
BRANCH   4  13
HETATM   13  C   UNL     1      -8.346   7.835  69.796  1.00  0.00    -0.131 C  
BRANCH  13  14
HETATM   14  N   UNL     1      -7.726   6.854  68.842  1.00  0.00    -0.108 NA 
HETATM   15  C   UNL     1      -8.298   5.713  68.381  1.00  0.00    -0.106 A  
HETATM   16  C   UNL     1      -9.679   5.171  68.624  1.00  0.00    -0.210 C  
HETATM   17  C   UNL     1      -9.705   3.828  67.863  1.00  0.00    -0.125 C  
HETATM   18  C   UNL     1      -6.418   7.089  68.524  1.00  0.00    -0.036 A  
HETATM   19  C   UNL     1      -8.373   3.642  67.138  1.00  0.00    -0.099 C  
HETATM   20  C   UNL     1      -5.665   6.196  67.764  1.00  0.00    -0.009 A  
HETATM   21  C   UNL     1      -6.243   5.038  67.282  1.00  0.00    -0.035 A  
HETATM   22  C   UNL     1      -7.567   4.811  67.595  1.00  0.00    -0.079 A  
ENDBRANCH  13  14
ENDBRANCH   4  13
BRANCH   5  23
HETATM   23  N   UNL     1     -10.757  13.482  68.227  1.00  0.00    -0.250 N  
HETATM   24  C   UNL     1     -11.090  14.632  68.924  1.00  0.00    -0.254 C  
HETATM   25  O   UNL     1     -11.995  14.673  69.742  1.00  0.00    -0.293 OA 
HETATM   26  H   UNL     1      -9.887  13.490  67.695  1.00  0.00     0.000 HD 
BRANCH  24  27
HETATM   27  C   UNL     1     -10.218  15.875  68.567  1.00  0.00    -0.226 C  
BRANCH  27  28
HETATM   28  C   UNL     1     -10.453  16.595  67.308  1.00  0.00    -0.313 A  
HETATM   29  N   UNL     1     -10.889  15.927  66.168  1.00  0.00    -0.260 NA 
HETATM   30  N   UNL     1     -11.435  16.346  63.947  1.00  0.00    -1.618 NA 
HETATM   31  C   UNL     1     -10.316  17.961  67.128  1.00  0.00    -0.367 A  
HETATM   32  S   UNL     1     -10.713  18.397  65.521  1.00  0.00     0.428 SA 
HETATM   33  H1  UNL     1     -11.630  15.368  63.735  1.00  0.00     0.000 HD 
HETATM   34  H2  UNL     1     -11.542  17.042  63.209  1.00  0.00     0.000 HD 
HETATM   35  C   UNL     1     -11.042  16.749  65.163  1.00  0.00    -0.033 A  
ENDBRANCH  27  28
BRANCH  27  36
HETATM   36  N   UNL     1      -9.288  16.396  69.318  1.00  0.00    -0.222 NA 
HETATM   37  H   UNL     1      -9.472  16.766  70.251  1.00  0.00     0.000 HD 
BRANCH  36  38
HETATM   38  O   UNL     1      -8.020  16.402  68.737  1.00  0.00    -0.207 OA 
HETATM   39  C   UNL     1      -7.076  16.090  69.760  1.00  0.00     0.005 C  
ENDBRANCH  36  38
ENDBRANCH  27  36
ENDBRANCH  24  27
ENDBRANCH   5  23
TORSDOF 7
ENDMDL
MODEL      147
REMARK 921   NORMALIZED FREE ENERGY PREDICTED BY IDOCK:   -4.87 KCAL/MOL
REMARK 922        TOTAL FREE ENERGY PREDICTED BY IDOCK:   -8.07 KCAL/MOL
REMARK 923 INTER-LIGAND FREE ENERGY PREDICTED BY IDOCK:   -7.54 KCAL/MOL
REMARK 924 INTRA-LIGAND FREE ENERGY PREDICTED BY IDOCK:   -0.53 KCAL/MOL
REMARK 927      BINDING AFFINITY PREDICTED BY RF-SCORE:    0.00 PKD
ROOT
HETATM    1  C   UNL     1     -10.174   9.156  68.287  1.00  0.00    -0.206 C  
HETATM    2  S   UNL     1      -8.393   9.477  68.087  1.00  0.00    -0.119 SA 
HETATM    3  C   UNL     1      -7.872   8.223  69.243  1.00  0.00    -0.108 C  
HETATM    4  C   UNL     1      -8.552   8.263  70.585  1.00  0.00    -0.139 C  
HETATM    5  CA  UNL     1     -11.100  10.392  68.051  1.00  0.00    -0.298 C  
HETATM    6  CA  UNL     1      -9.834   8.690  70.746  1.00  0.00    -0.192 C  
HETATM    7  C   UNL     1     -10.596   8.468  72.114  1.00  0.00    -0.349 C  
HETATM    8  O   UNL     1     -11.853  11.043  70.416  1.00  0.00    -0.317 OA 
HETATM    9  N   UNL     1     -10.539   9.218  69.686  1.00  0.00    -0.224 N  
HETATM   10  OXT UNL     1      -9.834   8.435  73.137  1.00  0.00    -0.198 OA 
HETATM   11  O   UNL     1     -11.810   8.157  72.009  1.00  0.00    -0.298 OA 
HETATM   12  C   UNL     1     -11.358  10.297  69.599  1.00  0.00    -0.257 C  
ENDROOT
BRANCH   4  13
HETATM   13  C   UNL     1      -7.731   7.554  71.646  1.00  0.00    -0.085 C  
BRANCH  13  14
HETATM   14  N   UNL     1      -8.100   6.153  72.044  1.00  0.00    -0.110 NA 
HETATM   15  C   UNL     1      -8.570   5.183  71.218  1.00  0.00    -0.127 A  
HETATM   16  C   UNL     1      -8.771   5.210  69.730  1.00  0.00    -0.115 C  
HETATM   17  C   UNL     1      -9.366   3.825  69.396  1.00  0.00    -0.245 C  
HETATM   18  C   UNL     1      -8.074   5.896  73.386  1.00  0.00    -0.112 A  
HETATM   19  C   UNL     1      -9.437   2.994  70.675  1.00  0.00    -0.224 C  
HETATM   20  C   UNL     1      -8.523   4.690  73.921  1.00  0.00    -0.104 A  
HETATM   21  C   UNL     1      -8.990   3.693  73.087  1.00  0.00    -0.107 A  
HETATM   22  C   UNL     1      -9.003   3.953  71.733  1.00  0.00    -0.153 A  
ENDBRANCH  13  14
ENDBRANCH   4  13
BRANCH   5  23
HETATM   23  N   UNL     1     -10.434  11.663  67.648  1.00  0.00    -0.187 N  
HETATM   24  C   UNL     1     -11.084  12.784  67.159  1.00  0.00    -0.277 C  
HETATM   25  O   UNL     1     -12.298  12.912  67.190  1.00  0.00    -0.339 OA 
HETATM   26  H   UNL     1      -9.419  11.710  67.739  1.00  0.00     0.000 HD 
BRANCH  24  27
HETATM   27  C   UNL     1     -10.136  13.864  66.554  1.00  0.00    -0.286 C  
BRANCH  27  28
HETATM   28  C   UNL     1      -9.217  14.603  67.430  1.00  0.00    -0.198 A  
HETATM   29  N   UNL     1      -8.080  13.996  67.957  1.00  0.00    -0.139 NA 
HETATM   30  N   UNL     1      -6.273  14.474  69.338  1.00  0.00    -0.108 NA 
HETATM   31  C   UNL     1      -9.343  15.936  67.783  1.00  0.00    -0.207 A  
HETATM   32  S   UNL     1      -8.047  16.413  68.794  1.00  0.00    -0.243 SA 
HETATM   33  H1  UNL     1      -5.889  13.531  69.283  1.00  0.00     0.000 HD 
HETATM   34  H2  UNL     1      -5.785  15.174  69.897  1.00  0.00     0.000 HD 
HETATM   35  C   UNL     1      -7.398  14.826  68.702  1.00  0.00    -0.123 A  
ENDBRANCH  27  28
BRANCH  27  36
HETATM   36  N   UNL     1     -10.035  14.169  65.290  1.00  0.00    -0.552 NA 
HETATM   37  H   UNL     1      -9.428  13.663  64.645  1.00  0.00     0.000 HD 
BRANCH  36  38
HETATM   38  O   UNL     1     -10.827  15.247  64.897  1.00  0.00    -0.415 OA 
HETATM   39  C   UNL     1     -12.016  14.716  64.313  1.00  0.00    -0.386 C  
ENDBRANCH  36  38
ENDBRANCH  27  36
ENDBRANCH  24  27
ENDBRANCH   5  23
TORSDOF 7
ENDMDL
MODEL      148
REMARK 921   NORMALIZED FREE ENERGY PREDICTED BY IDOCK:   -4.87 KCAL/MOL
REMARK 922        TOTAL FREE ENERGY PREDICTED BY IDOCK:   -8.07 KCAL/MOL
REMARK 923 INTER-LIGAND FREE ENERGY PREDICTED BY IDOCK:   -6.54 KCAL/MOL
REMARK 924 INTRA-LIGAND FREE ENERGY PREDICTED BY IDOCK:   -1.53 KCAL/MOL
REMARK 927      BINDING AFFINITY PREDICTED BY RF-SCORE:    0.00 PKD
ROOT
HETATM    1  C   UNL     1     -10.288   7.632  68.121  1.00  0.00    -0.204 C  
HETATM    2  S   UNL     1      -8.780   7.486  67.112  1.00  0.00    -0.123 SA 
HETATM    3  C   UNL     1      -7.962   6.341  68.209  1.00  0.00    -0.108 C  
HETATM    4  C   UNL     1      -7.926   6.751  69.656  1.00  0.00    -0.124 C  
HETATM    5  CA  UNL     1     -11.034   9.000  68.001  1.00  0.00     0.066 C  
HETATM    6  CA  UNL     1      -8.912   7.490  70.234  1.00  0.00    -0.147 C  
HETATM    7  C   UNL     1      -8.972   7.673  71.804  1.00  0.00    -0.119 C  
HETATM    8  O   UNL     1     -10.499  10.174  70.220  1.00  0.00    -0.281 OA 
HETATM    9  N   UNL     1      -9.947   7.997  69.479  1.00  0.00    -0.182 N  
HETATM   10  OXT UNL     1      -7.835   7.621  72.380  1.00  0.00    -0.093 OA 
HETATM   11  O   UNL     1     -10.126   7.647  72.304  1.00  0.00    -0.188 OA 
HETATM   12  C   UNL     1     -10.553   9.213  69.483  1.00  0.00    -0.223 C  
ENDROOT
BRANCH   4  13
HETATM   13  C   UNL     1      -6.815   6.043  70.408  1.00  0.00    -0.054 C  
BRANCH  13  14
HETATM   14  N   UNL     1      -6.764   4.542  70.399  1.00  0.00    -0.035 NA 
HETATM   15  C   UNL     1      -7.526   3.710  71.153  1.00  0.00    -0.044 A  
HETATM   16  C   UNL     1      -8.638   4.037  72.110  1.00  0.00    -0.114 C  
HETATM   17  C   UNL     1      -9.072   2.669  72.678  1.00  0.00    -0.111 C  
HETATM   18  C   UNL     1      -5.763   3.991  69.649  1.00  0.00    -0.017 A  
HETATM   19  C   UNL     1      -8.261   1.568  71.998  1.00  0.00    -0.045 C  
HETATM   20  C   UNL     1      -5.500   2.623  69.650  1.00  0.00    -0.016 A  
HETATM   21  C   UNL     1      -6.278   1.767  70.405  1.00  0.00    -0.023 A  
HETATM   22  C   UNL     1      -7.295   2.327  71.151  1.00  0.00    -0.033 A  
ENDBRANCH  13  14
ENDBRANCH   4  13
BRANCH   5  23
HETATM   23  N   UNL     1     -10.461   9.996  67.053  1.00  0.00    -0.245 N  
HETATM   24  C   UNL     1     -10.985  11.255  66.806  1.00  0.00    -0.281 C  
HETATM   25  O   UNL     1     -11.867  11.751  67.489  1.00  0.00    -0.577 OA 
HETATM   26  H   UNL     1      -9.616   9.731  66.547  1.00  0.00     0.000 HD 
BRANCH  24  27
HETATM   27  C   UNL     1     -10.361  11.981  65.575  1.00  0.00    -0.263 C  
BRANCH  27  28
HETATM   28  C   UNL     1     -10.846  13.312  65.189  1.00  0.00    -0.310 A  
HETATM   29  N   UNL     1     -10.183  14.466  65.598  1.00  0.00    -0.332 NA 
HETATM   30  N   UNL     1     -10.337  16.778  65.416  1.00  0.00    -0.632 NA 
HETATM   31  C   UNL     1     -11.940  13.564  64.378  1.00  0.00    -0.422 A  
HETATM   32  S   UNL     1     -12.145  15.249  64.153  1.00  0.00     0.074 SA 
HETATM   33  H1  UNL     1      -9.522  16.951  66.003  1.00  0.00     0.000 HD 
HETATM   34  H2  UNL     1     -10.839  17.574  65.022  1.00  0.00     0.000 HD 
HETATM   35  C   UNL     1     -10.772  15.541  65.143  1.00  0.00    -0.440 A  
ENDBRANCH  27  28
BRANCH  27  36
HETATM   36  N   UNL     1      -9.381  11.532  64.841  1.00  0.00    -0.399 NA 
HETATM   37  H   UNL     1      -8.444  11.933  64.862  1.00  0.00     0.000 HD 
BRANCH  36  38
HETATM   38  O   UNL     1      -9.726  10.457  64.022  1.00  0.00    -0.293 OA 
HETATM   39  C   UNL     1      -8.581  10.131  63.236  1.00  0.00    -0.198 C  
ENDBRANCH  36  38
ENDBRANCH  27  36
ENDBRANCH  24  27
ENDBRANCH   5  23
TORSDOF 7
ENDMDL
MODEL      149
REMARK 921   NORMALIZED FREE ENERGY PREDICTED BY IDOCK:   -4.86 KCAL/MOL
REMARK 922        TOTAL FREE ENERGY PREDICTED BY IDOCK:   -8.06 KCAL/MOL
REMARK 923 INTER-LIGAND FREE ENERGY PREDICTED BY IDOCK:   -7.35 KCAL/MOL
REMARK 924 INTRA-LIGAND FREE ENERGY PREDICTED BY IDOCK:   -0.71 KCAL/MOL
REMARK 927      BINDING AFFINITY PREDICTED BY RF-SCORE:    0.00 PKD
ROOT
HETATM    1  C   UNL     1      -9.776  11.583  66.559  1.00  0.00    -0.203 C  
HETATM    2  S   UNL     1     -10.944  10.832  67.737  1.00  0.00    -0.315 SA 
HETATM    3  C   UNL     1     -11.878  12.326  68.013  1.00  0.00    -0.305 C  
HETATM    4  C   UNL     1     -11.061  13.542  68.354  1.00  0.00    -0.298 C  
HETATM    5  CA  UNL     1      -8.356  10.933  66.530  1.00  0.00    -0.155 C  
HETATM    6  CA  UNL     1      -9.801  13.737  67.878  1.00  0.00    -0.232 C  
HETATM    7  C   UNL     1      -9.082  15.136  68.039  1.00  0.00    -0.180 C  
HETATM    8  O   UNL     1      -6.880  12.657  67.730  1.00  0.00    -0.097 OA 
HETATM    9  N   UNL     1      -9.167  12.760  67.141  1.00  0.00    -0.212 N  
HETATM   10  OXT UNL     1      -9.452  15.800  69.064  1.00  0.00    -0.214 OA 
HETATM   11  O   UNL     1      -8.395  15.505  67.051  1.00  0.00    -0.193 OA 
HETATM   12  C   UNL     1      -7.894  12.291  67.175  1.00  0.00    -0.149 C  
ENDROOT
BRANCH   4  13
HETATM   13  C   UNL     1     -11.894  14.592  69.065  1.00  0.00    -0.318 C  
BRANCH  13  14
HETATM   14  N   UNL     1     -12.494  14.269  70.404  1.00  0.00    -0.348 NA 
HETATM   15  C   UNL     1     -12.409  15.030  71.524  1.00  0.00    -0.335 A  
HETATM   16  C   UNL     1     -11.787  16.384  71.714  1.00  0.00    -0.388 C  
HETATM   17  C   UNL     1     -11.981  16.690  73.215  1.00  0.00    -0.352 C  
HETATM   18  C   UNL     1     -13.061  13.030  70.511  1.00  0.00     0.354 A  
HETATM   19  C   UNL     1     -12.768  15.549  73.857  1.00  0.00    -0.723 C  
HETATM   20  C   UNL     1     -13.534  12.531  71.724  1.00  0.00    -0.280 A  
HETATM   21  C   UNL     1     -13.463  13.304  72.866  1.00  0.00     0.073 A  
HETATM   22  C   UNL     1     -12.901  14.558  72.750  1.00  0.00    -0.518 A  
ENDBRANCH  13  14
ENDBRANCH   4  13
BRANCH   5  23
HETATM   23  N   UNL     1      -8.136   9.760  67.422  1.00  0.00    -0.113 N  
HETATM   24  C   UNL     1      -8.523   8.460  67.139  1.00  0.00    -0.123 C  
HETATM   25  O   UNL     1      -8.914   8.110  66.037  1.00  0.00    -0.166 OA 
HETATM   26  H   UNL     1      -7.664   9.928  68.310  1.00  0.00     0.000 HD 
BRANCH  24  27
HETATM   27  C   UNL     1      -8.427   7.483  68.351  1.00  0.00    -0.125 C  
BRANCH  27  28
HETATM   28  C   UNL     1      -8.811   7.943  69.692  1.00  0.00    -0.138 A  
HETATM   29  N   UNL     1     -10.149   8.086  70.049  1.00  0.00    -0.193 NA 
HETATM   30  N   UNL     1     -11.461   8.732  71.856  1.00  0.00    -0.335 NA 
HETATM   31  C   UNL     1      -7.933   8.232  70.723  1.00  0.00    -0.100 A  
HETATM   32  S   UNL     1      -8.791   8.706  72.126  1.00  0.00    -0.100 SA 
HETATM   33  H1  UNL     1     -12.340   8.608  71.354  1.00  0.00     0.000 HD 
HETATM   34  H2  UNL     1     -11.486   9.044  72.826  1.00  0.00     0.000 HD 
HETATM   35  C   UNL     1     -10.273   8.498  71.283  1.00  0.00    -0.223 A  
ENDBRANCH  27  28
BRANCH  27  36
HETATM   36  N   UNL     1      -8.067   6.231  68.294  1.00  0.00    -0.111 NA 
HETATM   37  H   UNL     1      -7.240   5.914  67.790  1.00  0.00     0.000 HD 
BRANCH  36  38
HETATM   38  O   UNL     1      -8.912   5.362  68.984  1.00  0.00    -0.106 OA 
HETATM   39  C   UNL     1     -10.028   5.085  68.138  1.00  0.00    -0.128 C  
ENDBRANCH  36  38
ENDBRANCH  27  36
ENDBRANCH  24  27
ENDBRANCH   5  23
TORSDOF 7
ENDMDL
MODEL      150
REMARK 921   NORMALIZED FREE ENERGY PREDICTED BY IDOCK:   -4.85 KCAL/MOL
REMARK 922        TOTAL FREE ENERGY PREDICTED BY IDOCK:   -8.04 KCAL/MOL
REMARK 923 INTER-LIGAND FREE ENERGY PREDICTED BY IDOCK:   -6.81 KCAL/MOL
REMARK 924 INTRA-LIGAND FREE ENERGY PREDICTED BY IDOCK:   -1.23 KCAL/MOL
REMARK 927      BINDING AFFINITY PREDICTED BY RF-SCORE:    0.00 PKD
ROOT
HETATM    1  C   UNL     1      -8.573   7.369  67.602  1.00  0.00    -0.119 C  
HETATM    2  S   UNL     1     -10.007   7.397  68.722  1.00  0.00    -0.174 SA 
HETATM    3  C   UNL     1     -10.878   8.678  67.839  1.00  0.00     0.007 C  
HETATM    4  C   UNL     1     -10.071   9.911  67.533  1.00  0.00    -0.244 C  
HETATM    5  CA  UNL     1      -7.223   6.944  68.265  1.00  0.00    -0.091 C  
HETATM    6  CA  UNL     1      -8.730   9.873  67.308  1.00  0.00    -0.128 C  
HETATM    7  C   UNL     1      -7.969  11.134  66.732  1.00  0.00    -0.156 C  
HETATM    8  O   UNL     1      -5.920   9.147  68.447  1.00  0.00    -0.044 OA 
HETATM    9  N   UNL     1      -8.022   8.701  67.462  1.00  0.00    -0.105 N  
HETATM   10  OXT UNL     1      -8.501  12.252  67.042  1.00  0.00    -0.180 OA 
HETATM   11  O   UNL     1      -7.069  10.882  65.890  1.00  0.00    -0.116 OA 
HETATM   12  C   UNL     1      -6.817   8.445  68.033  1.00  0.00    -0.070 C  
ENDROOT
BRANCH   4  13
HETATM   13  C   UNL     1     -10.964  11.110  67.273  1.00  0.00    -0.296 C  
BRANCH  13  14
HETATM   14  N   UNL     1     -11.573  11.836  68.438  1.00  0.00    -0.296 NA 
HETATM   15  C   UNL     1     -11.682  13.182  68.575  1.00  0.00    -0.352 A  
HETATM   16  C   UNL     1     -11.310  14.274  67.613  1.00  0.00    -0.344 C  
HETATM   17  C   UNL     1     -11.636  15.581  68.367  1.00  0.00    -0.368 C  
HETATM   18  C   UNL     1     -11.927  11.052  69.500  1.00  0.00    -0.342 A  
HETATM   19  C   UNL     1     -12.253  15.233  69.720  1.00  0.00    -0.326 C  
HETATM   20  C   UNL     1     -12.376  11.591  70.705  1.00  0.00    -0.472 A  
HETATM   21  C   UNL     1     -12.501  12.959  70.849  1.00  0.00    -0.383 A  
HETATM   22  C   UNL     1     -12.154  13.745  69.770  1.00  0.00    -0.400 A  
ENDBRANCH  13  14
ENDBRANCH   4  13
BRANCH   5  23
HETATM   23  N   UNL     1      -7.272   6.568  69.706  1.00  0.00    -0.075 N  
HETATM   24  C   UNL     1      -7.217   5.273  70.195  1.00  0.00    -0.062 C  
HETATM   25  O   UNL     1      -6.927   4.313  69.498  1.00  0.00    -0.044 OA 
HETATM   26  H   UNL     1      -7.353   7.324  70.385  1.00  0.00     0.000 HD 
BRANCH  24  27
HETATM   27  C   UNL     1      -7.568   5.142  71.709  1.00  0.00    -0.106 C  
BRANCH  27  28
HETATM   28  C   UNL     1      -8.949   5.362  72.160  1.00  0.00    -0.133 A  
HETATM   29  N   UNL     1      -9.471   6.647  72.279  1.00  0.00    -0.147 NA 
HETATM   30  N   UNL     1     -11.431   7.732  72.899  1.00  0.00    -0.572 NA 
HETATM   31  C   UNL     1      -9.862   4.367  72.463  1.00  0.00    -0.159 A  
HETATM   32  S   UNL     1     -11.364   5.049  72.920  1.00  0.00    -0.207 SA 
HETATM   33  H1  UNL     1     -11.044   8.665  72.760  1.00  0.00     0.000 HD 
HETATM   34  H2  UNL     1     -12.398   7.640  73.209  1.00  0.00     0.000 HD 
HETATM   35  C   UNL     1     -10.712   6.621  72.687  1.00  0.00    -0.235 A  
ENDBRANCH  27  28
BRANCH  27  36
HETATM   36  N   UNL     1      -6.741   4.801  72.657  1.00  0.00    -0.051 NA 
HETATM   37  H   UNL     1      -6.790   5.185  73.600  1.00  0.00     0.000 HD 
BRANCH  36  38
HETATM   38  O   UNL     1      -5.783   3.864  72.270  1.00  0.00    -0.007 OA 
HETATM   39  C   UNL     1      -6.071   2.646  72.956  1.00  0.00    -0.009 C  
ENDBRANCH  36  38
ENDBRANCH  27  36
ENDBRANCH  24  27
ENDBRANCH   5  23
TORSDOF 7
ENDMDL
MODEL      151
REMARK 921   NORMALIZED FREE ENERGY PREDICTED BY IDOCK:   -4.79 KCAL/MOL
REMARK 922        TOTAL FREE ENERGY PREDICTED BY IDOCK:   -7.96 KCAL/MOL
REMARK 923 INTER-LIGAND FREE ENERGY PREDICTED BY IDOCK:   -6.77 KCAL/MOL
REMARK 924 INTRA-LIGAND FREE ENERGY PREDICTED BY IDOCK:   -1.19 KCAL/MOL
REMARK 927      BINDING AFFINITY PREDICTED BY RF-SCORE:    0.00 PKD
ROOT
HETATM    1  C   UNL     1      -9.329   7.833  66.300  1.00  0.00    -0.151 C  
HETATM    2  S   UNL     1     -10.193   8.649  67.679  1.00  0.00    -0.254 SA 
HETATM    3  C   UNL     1     -10.047  10.296  67.011  1.00  0.00    -0.218 C  
HETATM    4  C   UNL     1      -8.661  10.695  66.580  1.00  0.00    -0.144 C  
HETATM    5  CA  UNL     1      -8.573   6.519  66.678  1.00  0.00    -0.118 C  
HETATM    6  CA  UNL     1      -7.757   9.800  66.097  1.00  0.00    -0.104 C  
HETATM    7  C   UNL     1      -6.419  10.291  65.411  1.00  0.00    -0.123 C  
HETATM    8  O   UNL     1      -6.103   7.216  66.651  1.00  0.00    -0.036 OA 
HETATM    9  N   UNL     1      -8.038   8.451  66.085  1.00  0.00    -0.102 N  
HETATM   10  OXT UNL     1      -5.991  11.412  65.844  1.00  0.00    -0.086 OA 
HETATM   11  O   UNL     1      -6.056   9.629  64.405  1.00  0.00    -0.079 OA 
HETATM   12  C   UNL     1      -7.280   7.371  66.404  1.00  0.00    -0.079 C  
ENDROOT
BRANCH   4  13
HETATM   13  C   UNL     1      -8.507  12.203  66.525  1.00  0.00    -0.026 C  
BRANCH  13  14
HETATM   14  N   UNL     1      -9.736  13.062  66.439  1.00  0.00    -0.265 NA 
HETATM   15  C   UNL     1     -10.343  13.699  67.473  1.00  0.00    -0.241 A  
HETATM   16  C   UNL     1      -9.932  13.784  68.916  1.00  0.00    -0.043 C  
HETATM   17  C   UNL     1     -11.050  14.610  69.587  1.00  0.00    -0.284 C  
HETATM   18  C   UNL     1     -10.355  13.084  65.221  1.00  0.00    -0.304 A  
HETATM   19  C   UNL     1     -12.051  15.050  68.521  1.00  0.00    -0.177 C  
HETATM   20  C   UNL     1     -11.578  13.721  65.019  1.00  0.00    -0.350 A  
HETATM   21  C   UNL     1     -12.196  14.382  66.063  1.00  0.00    -0.352 A  
HETATM   22  C   UNL     1     -11.562  14.367  67.288  1.00  0.00    -0.401 A  
ENDBRANCH  13  14
ENDBRANCH   4  13
BRANCH   5  23
HETATM   23  N   UNL     1      -8.683   6.064  68.092  1.00  0.00    -0.114 N  
HETATM   24  C   UNL     1      -9.639   5.186  68.575  1.00  0.00    -0.140 C  
HETATM   25  O   UNL     1     -10.377   4.542  67.846  1.00  0.00     0.030 OA 
HETATM   26  H   UNL     1      -8.000   6.428  68.757  1.00  0.00     0.000 HD 
BRANCH  24  27
HETATM   27  C   UNL     1      -9.704   5.097  70.131  1.00  0.00    -0.204 C  
BRANCH  27  28
HETATM   28  C   UNL     1     -10.457   6.105  70.889  1.00  0.00    -0.228 A  
HETATM   29  N   UNL     1     -11.728   6.507  70.488  1.00  0.00    -0.395 NA 
HETATM   30  N   UNL     1     -13.426   7.963  71.119  1.00  0.00    -0.562 NA 
HETATM   31  C   UNL     1     -10.031   6.712  72.059  1.00  0.00    -0.165 A  
HETATM   32  S   UNL     1     -11.218   7.803  72.635  1.00  0.00    -0.391 SA 
HETATM   33  H1  UNL     1     -14.023   7.725  70.326  1.00  0.00     0.000 HD 
HETATM   34  H2  UNL     1     -13.757   8.651  71.796  1.00  0.00     0.000 HD 
HETATM   35  C   UNL     1     -12.223   7.403  71.301  1.00  0.00    -0.341 A  
ENDBRANCH  27  28
BRANCH  27  36
HETATM   36  N   UNL     1      -9.173   4.159  70.864  1.00  0.00    -0.121 NA 
HETATM   37  H   UNL     1      -8.430   4.336  71.539  1.00  0.00     0.000 HD 
BRANCH  36  38
HETATM   38  O   UNL     1      -9.711   2.890  70.646  1.00  0.00    -0.148 OA 
HETATM   39  C   UNL     1      -8.621   1.986  70.471  1.00  0.00    -0.053 C  
ENDBRANCH  36  38
ENDBRANCH  27  36
ENDBRANCH  24  27
ENDBRANCH   5  23
TORSDOF 7
ENDMDL
MODEL      152
REMARK 921   NORMALIZED FREE ENERGY PREDICTED BY IDOCK:   -4.78 KCAL/MOL
REMARK 922        TOTAL FREE ENERGY PREDICTED BY IDOCK:   -7.95 KCAL/MOL
REMARK 923 INTER-LIGAND FREE ENERGY PREDICTED BY IDOCK:   -6.34 KCAL/MOL
REMARK 924 INTRA-LIGAND FREE ENERGY PREDICTED BY IDOCK:   -1.61 KCAL/MOL
REMARK 927      BINDING AFFINITY PREDICTED BY RF-SCORE:    0.00 PKD
ROOT
HETATM    1  C   UNL     1     -10.517   7.818  68.775  1.00  0.00    -0.181 C  
HETATM    2  S   UNL     1     -10.198   8.727  70.320  1.00  0.00    -0.206 SA 
HETATM    3  C   UNL     1     -10.128  10.334  69.551  1.00  0.00    -0.235 C  
HETATM    4  C   UNL     1      -9.221  10.436  68.355  1.00  0.00    -0.147 C  
HETATM    5  CA  UNL     1      -9.986   6.348  68.751  1.00  0.00    -0.147 C  
HETATM    6  CA  UNL     1      -8.996   9.391  67.514  1.00  0.00    -0.121 C  
HETATM    7  C   UNL     1      -8.257   9.608  66.132  1.00  0.00    -0.115 C  
HETATM    8  O   UNL     1      -7.934   6.474  67.214  1.00  0.00    -0.110 OA 
HETATM    9  N   UNL     1      -9.509   8.142  67.788  1.00  0.00    -0.140 N  
HETATM   10  OXT UNL     1      -7.429  10.578  66.129  1.00  0.00    -0.125 OA 
HETATM   11  O   UNL     1      -8.712   8.939  65.168  1.00  0.00    -0.178 OA 
HETATM   12  C   UNL     1      -8.962   6.903  67.695  1.00  0.00    -0.116 C  
ENDROOT
BRANCH   4  13
HETATM   13  C   UNL     1      -8.812  11.872  68.087  1.00  0.00    -0.178 C  
BRANCH  13  14
HETATM   14  N   UNL     1      -9.838  12.843  67.576  1.00  0.00    -0.205 NA 
HETATM   15  C   UNL     1     -10.039  14.107  68.028  1.00  0.00    -0.233 A  
HETATM   16  C   UNL     1      -9.279  14.884  69.065  1.00  0.00    -0.176 C  
HETATM   17  C   UNL     1     -10.019  16.236  69.154  1.00  0.00    -0.260 C  
HETATM   18  C   UNL     1     -10.721  12.340  66.663  1.00  0.00    -0.245 A  
HETATM   19  C   UNL     1     -11.149  16.252  68.126  1.00  0.00    -0.329 C  
HETATM   20  C   UNL     1     -11.812  13.074  66.201  1.00  0.00    -0.466 A  
HETATM   21  C   UNL     1     -12.018  14.365  66.645  1.00  0.00    -0.414 A  
HETATM   22  C   UNL     1     -11.117  14.873  67.558  1.00  0.00    -0.319 A  
ENDBRANCH  13  14
ENDBRANCH   4  13
BRANCH   5  23
HETATM   23  N   UNL     1      -9.332   5.850  69.993  1.00  0.00    -0.146 N  
HETATM   24  C   UNL     1      -9.418   4.554  70.474  1.00  0.00    -0.176 C  
HETATM   25  O   UNL     1      -9.884   3.633  69.821  1.00  0.00    -0.151 OA 
HETATM   26  H   UNL     1      -8.777   6.515  70.530  1.00  0.00     0.000 HD 
BRANCH  24  27
HETATM   27  C   UNL     1      -8.878   4.369  71.925  1.00  0.00    -0.116 C  
BRANCH  27  28
HETATM   28  C   UNL     1      -7.832   5.266  72.435  1.00  0.00    -0.102 A  
HETATM   29  N   UNL     1      -8.079   6.621  72.636  1.00  0.00    -0.102 NA 
HETATM   30  N   UNL     1      -7.000   8.550  73.355  1.00  0.00    -0.290 NA 
HETATM   31  C   UNL     1      -6.553   4.880  72.799  1.00  0.00    -0.056 A  
HETATM   32  S   UNL     1      -5.660   6.225  73.368  1.00  0.00    -0.038 SA 
HETATM   33  H1  UNL     1      -7.810   9.149  73.195  1.00  0.00     0.000 HD 
HETATM   34  H2  UNL     1      -6.144   8.965  73.723  1.00  0.00     0.000 HD 
HETATM   35  C   UNL     1      -7.023   7.235  73.099  1.00  0.00    -0.068 A  
ENDBRANCH  27  28
BRANCH  27  36
HETATM   36  N   UNL     1      -9.304   3.493  72.792  1.00  0.00    -0.105 NA 
HETATM   37  H   UNL     1      -9.184   2.488  72.668  1.00  0.00     0.000 HD 
BRANCH  36  38
HETATM   38  O   UNL     1      -9.938   4.049  73.903  1.00  0.00    -0.114 OA 
HETATM   39  C   UNL     1     -11.304   4.267  73.554  1.00  0.00    -0.226 C  
ENDBRANCH  36  38
ENDBRANCH  27  36
ENDBRANCH  24  27
ENDBRANCH   5  23
TORSDOF 7
ENDMDL
MODEL      153
REMARK 921   NORMALIZED FREE ENERGY PREDICTED BY IDOCK:   -4.71 KCAL/MOL
REMARK 922        TOTAL FREE ENERGY PREDICTED BY IDOCK:   -7.85 KCAL/MOL
REMARK 923 INTER-LIGAND FREE ENERGY PREDICTED BY IDOCK:   -6.99 KCAL/MOL
REMARK 924 INTRA-LIGAND FREE ENERGY PREDICTED BY IDOCK:   -0.85 KCAL/MOL
REMARK 927      BINDING AFFINITY PREDICTED BY RF-SCORE:    0.00 PKD
ROOT
HETATM    1  C   UNL     1      -8.162   9.406  68.328  1.00  0.00    -0.118 C  
HETATM    2  S   UNL     1      -8.166  10.350  66.771  1.00  0.00    -0.129 SA 
HETATM    3  C   UNL     1      -8.864  11.830  67.480  1.00  0.00    -0.162 C  
HETATM    4  C   UNL     1     -10.109  11.625  68.299  1.00  0.00    -0.206 C  
HETATM    5  CA  UNL     1      -8.306   7.859  68.163  1.00  0.00    -0.124 C  
HETATM    6  CA  UNL     1     -10.341  10.487  69.009  1.00  0.00    -0.213 C  
HETATM    7  C   UNL     1     -11.520  10.415  70.061  1.00  0.00    -0.308 C  
HETATM    8  O   UNL     1     -10.714   7.393  68.917  1.00  0.00    -0.200 OA 
HETATM    9  N   UNL     1      -9.484   9.412  68.918  1.00  0.00    -0.152 N  
HETATM   10  OXT UNL     1     -12.510  11.174  69.790  1.00  0.00    -0.263 OA 
HETATM   11  O   UNL     1     -11.260   9.785  71.119  1.00  0.00    -0.346 OA 
HETATM   12  C   UNL     1      -9.720   8.079  68.814  1.00  0.00    -0.156 C  
ENDROOT
BRANCH   4  13
HETATM   13  C   UNL     1     -10.913  12.906  68.421  1.00  0.00    -0.258 C  
BRANCH  13  14
HETATM   14  N   UNL     1     -10.712  13.996  67.408  1.00  0.00    -0.281 NA 
HETATM   15  C   UNL     1     -10.531  15.315  67.675  1.00  0.00    -0.263 A  
HETATM   16  C   UNL     1     -10.410  16.013  69.000  1.00  0.00    -0.242 C  
HETATM   17  C   UNL     1     -10.261  17.506  68.636  1.00  0.00    -0.373 C  
HETATM   18  C   UNL     1     -10.858  13.620  66.102  1.00  0.00    -0.279 A  
HETATM   19  C   UNL     1     -10.229  17.646  67.115  1.00  0.00    -0.342 C  
HETATM   20  C   UNL     1     -10.839  14.542  65.056  1.00  0.00    -0.425 A  
HETATM   21  C   UNL     1     -10.643  15.883  65.318  1.00  0.00    -0.441 A  
HETATM   22  C   UNL     1     -10.485  16.256  66.637  1.00  0.00    -0.290 A  
ENDBRANCH  13  14
ENDBRANCH   4  13
BRANCH   5  23
HETATM   23  N   UNL     1      -8.379   7.336  66.771  1.00  0.00    -0.116 N  
HETATM   24  C   UNL     1      -7.301   6.868  66.037  1.00  0.00    -0.075 C  
HETATM   25  O   UNL     1      -6.204   6.656  66.531  1.00  0.00    -0.037 OA 
HETATM   26  H   UNL     1      -9.295   7.321  66.323  1.00  0.00     0.000 HD 
BRANCH  24  27
HETATM   27  C   UNL     1      -7.602   6.644  64.523  1.00  0.00    -0.103 C  
BRANCH  27  28
HETATM   28  C   UNL     1      -8.148   5.357  64.070  1.00  0.00    -0.123 A  
HETATM   29  N   UNL     1      -8.645   4.426  64.977  1.00  0.00    -0.123 NA 
HETATM   30  N   UNL     1      -9.596   2.306  65.025  1.00  0.00    -0.338 NA 
HETATM   31  C   UNL     1      -8.267   4.957  62.750  1.00  0.00    -0.097 A  
HETATM   32  S   UNL     1      -8.979   3.403  62.655  1.00  0.00    -0.089 SA 
HETATM   33  H1  UNL     1      -9.660   2.278  66.042  1.00  0.00     0.000 HD 
HETATM   34  H2  UNL     1      -9.931   1.505  64.488  1.00  0.00     0.000 HD 
HETATM   35  C   UNL     1      -9.087   3.357  64.369  1.00  0.00    -0.127 A  
ENDBRANCH  27  28
BRANCH  27  36
HETATM   36  N   UNL     1      -7.456   7.529  63.577  1.00  0.00    -0.094 NA 
HETATM   37  H   UNL     1      -8.199   7.765  62.919  1.00  0.00     0.000 HD 
BRANCH  36  38
HETATM   38  O   UNL     1      -6.195   8.125  63.542  1.00  0.00    -0.070 OA 
HETATM   39  C   UNL     1      -5.287   7.177  62.983  1.00  0.00    -0.033 C  
ENDBRANCH  36  38
ENDBRANCH  27  36
ENDBRANCH  24  27
ENDBRANCH   5  23
TORSDOF 7
ENDMDL
MODEL      154
REMARK 921   NORMALIZED FREE ENERGY PREDICTED BY IDOCK:   -4.70 KCAL/MOL
REMARK 922        TOTAL FREE ENERGY PREDICTED BY IDOCK:   -7.84 KCAL/MOL
REMARK 923 INTER-LIGAND FREE ENERGY PREDICTED BY IDOCK:   -6.73 KCAL/MOL
REMARK 924 INTRA-LIGAND FREE ENERGY PREDICTED BY IDOCK:   -1.10 KCAL/MOL
REMARK 927      BINDING AFFINITY PREDICTED BY RF-SCORE:    0.00 PKD
ROOT
HETATM    1  C   UNL     1      -9.839  10.169  68.970  1.00  0.00    -0.205 C  
HETATM    2  S   UNL     1     -10.615   9.660  67.404  1.00  0.00    -0.239 SA 
HETATM    3  C   UNL     1      -9.971   7.998  67.437  1.00  0.00    -0.207 C  
HETATM    4  C   UNL     1      -8.489   7.887  67.674  1.00  0.00    -0.127 C  
HETATM    5  CA  UNL     1      -9.498  11.691  69.075  1.00  0.00     0.139 C  
HETATM    6  CA  UNL     1      -7.798   8.782  68.431  1.00  0.00    -0.104 C  
HETATM    7  C   UNL     1      -6.308   8.489  68.874  1.00  0.00    -0.045 C  
HETATM    8  O   UNL     1      -6.946  11.757  68.812  1.00  0.00    -0.089 OA 
HETATM    9  N   UNL     1      -8.416   9.909  68.929  1.00  0.00    -0.119 N  
HETATM   10  OXT UNL     1      -5.657   7.750  68.063  1.00  0.00    -0.030 OA 
HETATM   11  O   UNL     1      -6.015   8.845  70.045  1.00  0.00    -0.030 OA 
HETATM   12  C   UNL     1      -8.006  11.201  69.005  1.00  0.00    -0.086 C  
ENDROOT
BRANCH   4  13
HETATM   13  C   UNL     1      -7.944   6.559  67.183  1.00  0.00    -0.112 C  
BRANCH  13  14
HETATM   14  N   UNL     1      -8.575   5.284  67.667  1.00  0.00    -0.105 NA 
HETATM   15  C   UNL     1      -8.890   4.984  68.952  1.00  0.00    -0.093 A  
HETATM   16  C   UNL     1      -8.774   5.831  70.187  1.00  0.00    -0.140 C  
HETATM   17  C   UNL     1      -9.251   4.911  71.332  1.00  0.00    -0.188 C  
HETATM   18  C   UNL     1      -8.716   4.303  66.726  1.00  0.00    -0.113 A  
HETATM   19  C   UNL     1      -9.700   3.576  70.742  1.00  0.00    -0.207 C  
HETATM   20  C   UNL     1      -9.154   3.020  67.048  1.00  0.00    -0.196 A  
HETATM   21  C   UNL     1      -9.489   2.709  68.352  1.00  0.00    -0.212 A  
HETATM   22  C   UNL     1      -9.356   3.706  69.296  1.00  0.00    -0.245 A  
ENDBRANCH  13  14
ENDBRANCH   4  13
BRANCH   5  23
HETATM   23  N   UNL     1      -9.885  12.547  67.919  1.00  0.00    -0.201 N  
HETATM   24  C   UNL     1     -10.003  13.927  67.953  1.00  0.00    -0.242 C  
HETATM   25  O   UNL     1      -9.611  14.603  68.891  1.00  0.00    -0.212 OA 
HETATM   26  H   UNL     1     -10.079  12.080  67.033  1.00  0.00     0.000 HD 
BRANCH  24  27
HETATM   27  C   UNL     1     -10.689  14.545  66.696  1.00  0.00    -0.305 C  
BRANCH  27  28
HETATM   28  C   UNL     1     -11.067  13.680  65.570  1.00  0.00    -0.295 A  
HETATM   29  N   UNL     1     -12.366  13.200  65.436  1.00  0.00    -0.459 NA 
HETATM   30  N   UNL     1     -13.642  11.861  64.028  1.00  0.00    -0.164 NA 
HETATM   31  C   UNL     1     -10.228  13.296  64.538  1.00  0.00    -0.310 A  
HETATM   32  S   UNL     1     -11.068  12.313  63.417  1.00  0.00    -0.346 SA 
HETATM   33  H1  UNL     1     -14.487  11.948  64.592  1.00  0.00     0.000 HD 
HETATM   34  H2  UNL     1     -13.673  11.302  63.176  1.00  0.00     0.000 HD 
HETATM   35  C   UNL     1     -12.492  12.457  64.367  1.00  0.00    -0.433 A  
ENDBRANCH  27  28
BRANCH  27  36
HETATM   36  N   UNL     1     -11.018  15.798  66.546  1.00  0.00    -0.230 NA 
HETATM   37  H   UNL     1     -11.755  16.247  67.090  1.00  0.00     0.000 HD 
BRANCH  36  38
HETATM   38  O   UNL     1     -10.277  16.471  65.575  1.00  0.00    -0.525 OA 
HETATM   39  C   UNL     1     -10.360  17.866  65.862  1.00  0.00    -0.259 C  
ENDBRANCH  36  38
ENDBRANCH  27  36
ENDBRANCH  24  27
ENDBRANCH   5  23
TORSDOF 7
ENDMDL
MODEL      155
REMARK 921   NORMALIZED FREE ENERGY PREDICTED BY IDOCK:   -4.70 KCAL/MOL
REMARK 922        TOTAL FREE ENERGY PREDICTED BY IDOCK:   -7.84 KCAL/MOL
REMARK 923 INTER-LIGAND FREE ENERGY PREDICTED BY IDOCK:   -6.25 KCAL/MOL
REMARK 924 INTRA-LIGAND FREE ENERGY PREDICTED BY IDOCK:   -1.58 KCAL/MOL
REMARK 927      BINDING AFFINITY PREDICTED BY RF-SCORE:    0.00 PKD
ROOT
HETATM    1  C   UNL     1     -10.767   8.306  67.695  1.00  0.00    -0.125 C  
HETATM    2  S   UNL     1     -10.725   9.481  69.085  1.00  0.00    -0.180 SA 
HETATM    3  C   UNL     1     -10.805  10.941  68.065  1.00  0.00    -0.245 C  
HETATM    4  C   UNL     1      -9.811  10.994  66.937  1.00  0.00    -0.222 C  
HETATM    5  CA  UNL     1     -10.038   6.948  67.955  1.00  0.00    -0.162 C  
HETATM    6  CA  UNL     1      -9.364   9.877  66.301  1.00  0.00    -0.176 C  
HETATM    7  C   UNL     1      -8.534   9.987  64.959  1.00  0.00    -0.160 C  
HETATM    8  O   UNL     1      -7.886   7.145  66.570  1.00  0.00    -0.101 OA 
HETATM    9  N   UNL     1      -9.724   8.622  66.743  1.00  0.00    -0.210 N  
HETATM   10  OXT UNL     1      -7.852  11.060  64.853  1.00  0.00     0.176 OA 
HETATM   11  O   UNL     1      -8.798   9.116  64.090  1.00  0.00    -0.185 OA 
HETATM   12  C   UNL     1      -9.004   7.482  66.897  1.00  0.00    -0.135 C  
ENDROOT
BRANCH   4  13
HETATM   13  C   UNL     1      -9.581  12.416  66.463  1.00  0.00    -0.240 C  
BRANCH  13  14
HETATM   14  N   UNL     1      -9.154  13.460  67.456  1.00  0.00    -0.204 NA 
HETATM   15  C   UNL     1      -9.942  14.427  67.990  1.00  0.00    -0.225 A  
HETATM   16  C   UNL     1     -11.413  14.670  67.807  1.00  0.00    -0.359 C  
HETATM   17  C   UNL     1     -11.701  15.938  68.640  1.00  0.00    -0.328 C  
HETATM   18  C   UNL     1      -7.816  13.497  67.732  1.00  0.00    -0.167 A  
HETATM   19  C   UNL     1     -10.417  16.371  69.345  1.00  0.00    -0.309 C  
HETATM   20  C   UNL     1      -7.247  14.493  68.523  1.00  0.00    -0.120 A  
HETATM   21  C   UNL     1      -8.043  15.475  69.080  1.00  0.00    -0.244 A  
HETATM   22  C   UNL     1      -9.394  15.426  68.809  1.00  0.00    -0.209 A  
ENDBRANCH  13  14
ENDBRANCH   4  13
BRANCH   5  23
HETATM   23  N   UNL     1      -9.443   6.753  69.306  1.00  0.00    -0.143 N  
HETATM   24  C   UNL     1     -10.154   6.447  70.454  1.00  0.00    -0.185 C  
HETATM   25  O   UNL     1     -11.329   6.115  70.438  1.00  0.00    -0.352 OA 
HETATM   26  H   UNL     1      -8.431   6.853  69.392  1.00  0.00     0.000 HD 
BRANCH  24  27
HETATM   27  C   UNL     1      -9.332   6.575  71.774  1.00  0.00    -0.149 C  
BRANCH  27  28
HETATM   28  C   UNL     1      -8.001   7.195  71.748  1.00  0.00    -0.097 A  
HETATM   29  N   UNL     1      -7.835   8.528  71.384  1.00  0.00    -0.115 NA 
HETATM   30  N   UNL     1      -6.156  10.112  71.108  1.00  0.00    -0.301 NA 
HETATM   31  C   UNL     1      -6.818   6.571  72.106  1.00  0.00    -0.068 A  
HETATM   32  S   UNL     1      -5.500   7.654  71.961  1.00  0.00    -0.036 SA 
HETATM   33  H1  UNL     1      -6.797  10.842  70.795  1.00  0.00     0.000 HD 
HETATM   34  H2  UNL     1      -5.161  10.326  71.177  1.00  0.00     0.000 HD 
HETATM   35  C   UNL     1      -6.578   8.883  71.433  1.00  0.00    -0.081 A  
ENDBRANCH  27  28
BRANCH  27  36
HETATM   36  N   UNL     1      -9.733   6.212  72.960  1.00  0.00    -0.157 NA 
HETATM   37  H   UNL     1     -10.012   6.880  73.679  1.00  0.00     0.000 HD 
BRANCH  36  38
HETATM   38  O   UNL     1      -9.747   4.832  73.162  1.00  0.00    -0.136 OA 
HETATM   39  C   UNL     1     -11.102   4.443  73.380  1.00  0.00    -0.305 C  
ENDBRANCH  36  38
ENDBRANCH  27  36
ENDBRANCH  24  27
ENDBRANCH   5  23
TORSDOF 7
ENDMDL
MODEL      156
REMARK 921   NORMALIZED FREE ENERGY PREDICTED BY IDOCK:   -4.69 KCAL/MOL
REMARK 922        TOTAL FREE ENERGY PREDICTED BY IDOCK:   -7.82 KCAL/MOL
REMARK 923 INTER-LIGAND FREE ENERGY PREDICTED BY IDOCK:   -7.48 KCAL/MOL
REMARK 924 INTRA-LIGAND FREE ENERGY PREDICTED BY IDOCK:   -0.34 KCAL/MOL
REMARK 927      BINDING AFFINITY PREDICTED BY RF-SCORE:    0.00 PKD
ROOT
HETATM    1  C   UNL     1     -10.511   7.715  67.328  1.00  0.00    -0.326 C  
HETATM    2  S   UNL     1     -10.350   8.953  68.653  1.00  0.00    -0.188 SA 
HETATM    3  C   UNL     1     -10.306  10.358  67.556  1.00  0.00    -0.224 C  
HETATM    4  C   UNL     1      -9.321  10.260  66.423  1.00  0.00    -0.201 C  
HETATM    5  CA  UNL     1      -9.906   6.312  67.658  1.00  0.00    -0.121 C  
HETATM    6  CA  UNL     1      -8.984   9.075  65.846  1.00  0.00    -0.190 C  
HETATM    7  C   UNL     1      -8.159   9.037  64.497  1.00  0.00    -0.143 C  
HETATM    8  O   UNL     1      -7.758   6.237  66.255  1.00  0.00    -0.095 OA 
HETATM    9  N   UNL     1      -9.452   7.883  66.356  1.00  0.00    -0.205 N  
HETATM   10  OXT UNL     1      -7.383  10.036  64.330  1.00  0.00    -0.134 OA 
HETATM   11  O   UNL     1      -8.509   8.149  63.677  1.00  0.00    -0.047 OA 
HETATM   12  C   UNL     1      -8.837   6.691  66.569  1.00  0.00    -0.139 C  
ENDROOT
BRANCH   4  13
HETATM   13  C   UNL     1      -8.967  11.628  65.872  1.00  0.00    -0.108 C  
BRANCH  13  14
HETATM   14  N   UNL     1     -10.024  12.431  65.168  1.00  0.00    -0.237 NA 
HETATM   15  C   UNL     1     -10.174  13.779  65.221  1.00  0.00    -0.335 A  
HETATM   16  C   UNL     1      -9.320  14.809  65.904  1.00  0.00    -0.189 C  
HETATM   17  C   UNL     1     -10.037  16.148  65.628  1.00  0.00    -0.366 C  
HETATM   18  C   UNL     1     -10.986  11.703  64.527  1.00  0.00    -0.314 A  
HETATM   19  C   UNL     1     -11.251  15.888  64.738  1.00  0.00    -0.364 C  
HETATM   20  C   UNL     1     -12.106  12.297  63.948  1.00  0.00    -0.598 A  
HETATM   21  C   UNL     1     -12.260  13.669  63.986  1.00  0.00    -0.443 A  
HETATM   22  C   UNL     1     -11.280  14.400  64.624  1.00  0.00    -0.366 A  
ENDBRANCH  13  14
ENDBRANCH   4  13
BRANCH   5  23
HETATM   23  N   UNL     1      -9.319   6.135  69.015  1.00  0.00    -0.128 N  
HETATM   24  C   UNL     1     -10.045   5.973  70.183  1.00  0.00    -0.194 C  
HETATM   25  O   UNL     1     -11.248   5.764  70.193  1.00  0.00    -0.319 OA 
HETATM   26  H   UNL     1      -8.302   6.134  69.090  1.00  0.00     0.000 HD 
BRANCH  24  27
HETATM   27  C   UNL     1      -9.199   6.091  71.488  1.00  0.00    -0.143 C  
BRANCH  27  28
HETATM   28  C   UNL     1      -9.285   5.041  72.512  1.00  0.00    -0.132 A  
HETATM   29  N   UNL     1     -10.289   4.077  72.473  1.00  0.00    -0.171 NA 
HETATM   30  N   UNL     1     -11.042   2.228  73.662  1.00  0.00    -0.190 NA 
HETATM   31  C   UNL     1      -8.397   4.868  73.560  1.00  0.00    -0.106 A  
HETATM   32  S   UNL     1      -8.841   3.511  74.505  1.00  0.00    -0.086 SA 
HETATM   33  H1  UNL     1     -11.838   2.065  73.045  1.00  0.00     0.000 HD 
HETATM   34  H2  UNL     1     -10.896   1.602  74.454  1.00  0.00     0.000 HD 
HETATM   35  C   UNL     1     -10.182   3.236  73.467  1.00  0.00    -0.133 A  
ENDBRANCH  27  28
BRANCH  27  36
HETATM   36  N   UNL     1      -8.353   7.043  71.765  1.00  0.00    -0.110 NA 
HETATM   37  H   UNL     1      -7.463   7.152  71.279  1.00  0.00     0.000 HD 
BRANCH  36  38
HETATM   38  O   UNL     1      -8.768   7.900  72.784  1.00  0.00    -0.139 OA 
HETATM   39  C   UNL     1      -9.949   8.562  72.334  1.00  0.00    -0.295 C  
ENDBRANCH  36  38
ENDBRANCH  27  36
ENDBRANCH  24  27
ENDBRANCH   5  23
TORSDOF 7
ENDMDL
MODEL      157
REMARK 921   NORMALIZED FREE ENERGY PREDICTED BY IDOCK:   -4.69 KCAL/MOL
REMARK 922        TOTAL FREE ENERGY PREDICTED BY IDOCK:   -7.82 KCAL/MOL
REMARK 923 INTER-LIGAND FREE ENERGY PREDICTED BY IDOCK:   -7.09 KCAL/MOL
REMARK 924 INTRA-LIGAND FREE ENERGY PREDICTED BY IDOCK:   -0.73 KCAL/MOL
REMARK 927      BINDING AFFINITY PREDICTED BY RF-SCORE:    0.00 PKD
ROOT
HETATM    1  C   UNL     1      -7.911  13.877  69.160  1.00  0.00     0.151 C  
HETATM    2  S   UNL     1      -9.467  14.443  68.404  1.00  0.00    -0.209 SA 
HETATM    3  C   UNL     1     -10.248  12.840  68.419  1.00  0.00    -0.236 C  
HETATM    4  C   UNL     1      -9.430  11.721  67.835  1.00  0.00    -0.191 C  
HETATM    5  CA  UNL     1      -6.642  14.693  68.753  1.00  0.00    -0.090 C  
HETATM    6  CA  UNL     1      -8.071  11.694  67.898  1.00  0.00    -0.138 C  
HETATM    7  C   UNL     1      -7.268  10.387  67.514  1.00  0.00    -0.087 C  
HETATM    8  O   UNL     1      -5.403  13.122  67.146  1.00  0.00    -0.341 OA 
HETATM    9  N   UNL     1      -7.369  12.763  68.410  1.00  0.00    -0.112 N  
HETATM   10  OXT UNL     1      -7.850   9.651  66.650  1.00  0.00    -0.104 OA 
HETATM   11  O   UNL     1      -6.271  10.136  68.240  1.00  0.00    -0.049 OA 
HETATM   12  C   UNL     1      -6.235  13.380  67.989  1.00  0.00    -0.133 C  
ENDROOT
BRANCH   4  13
HETATM   13  C   UNL     1     -10.304  10.556  67.409  1.00  0.00    -0.224 C  
BRANCH  13  14
HETATM   14  N   UNL     1     -10.488   9.397  68.346  1.00  0.00    -0.215 NA 
HETATM   15  C   UNL     1     -10.436   8.082  68.014  1.00  0.00    -0.184 A  
HETATM   16  C   UNL     1     -10.119   7.442  66.692  1.00  0.00    -0.253 C  
HETATM   17  C   UNL     1     -10.263   5.927  66.952  1.00  0.00    -0.262 C  
HETATM   18  C   UNL     1     -10.868   9.722  69.618  1.00  0.00    -0.250 A  
HETATM   19  C   UNL     1     -10.592   5.706  68.427  1.00  0.00    -0.249 C  
HETATM   20  C   UNL     1     -11.212   8.756  70.562  1.00  0.00    -0.278 A  
HETATM   21  C   UNL     1     -11.150   7.416  70.236  1.00  0.00    -0.278 A  
HETATM   22  C   UNL     1     -10.754   7.092  68.955  1.00  0.00    -0.234 A  
ENDBRANCH  13  14
ENDBRANCH   4  13
BRANCH   5  23
HETATM   23  N   UNL     1      -6.854  15.855  67.844  1.00  0.00    -0.131 N  
HETATM   24  C   UNL     1      -6.146  17.044  67.893  1.00  0.00    -0.133 C  
HETATM   25  O   UNL     1      -5.138  17.189  68.566  1.00  0.00    -0.121 OA 
HETATM   26  H   UNL     1      -7.577  15.767  67.131  1.00  0.00     0.000 HD 
BRANCH  24  27
HETATM   27  C   UNL     1      -6.750  18.189  67.023  1.00  0.00    -0.184 C  
BRANCH  27  28
HETATM   28  C   UNL     1      -8.200  18.426  67.033  1.00  0.00    -0.247 A  
HETATM   29  N   UNL     1      -8.883  18.762  65.867  1.00  0.00    -0.418 NA 
HETATM   30  N   UNL     1     -11.029  19.269  65.133  1.00  0.00    -0.294 NA 
HETATM   31  C   UNL     1      -9.025  18.306  68.138  1.00  0.00    -0.302 A  
HETATM   32  S   UNL     1     -10.649  18.640  67.714  1.00  0.00    -0.340 SA 
HETATM   33  H1  UNL     1     -10.738  19.436  64.170  1.00  0.00     0.000 HD 
HETATM   34  H2  UNL     1     -12.015  19.369  65.375  1.00  0.00     0.000 HD 
HETATM   35  C   UNL     1     -10.160  18.922  66.092  1.00  0.00    -0.393 A  
ENDBRANCH  27  28
BRANCH  27  36
HETATM   36  N   UNL     1      -6.074  19.025  66.285  1.00  0.00    -0.169 NA 
HETATM   37  H   UNL     1      -5.538  18.735  65.468  1.00  0.00     0.000 HD 
BRANCH  36  38
HETATM   38  O   UNL     1      -6.147  20.351  66.712  1.00  0.00    -0.174 OA 
HETATM   39  C   UNL     1      -5.331  21.129  65.838  1.00  0.00    -0.220 C  
ENDBRANCH  36  38
ENDBRANCH  27  36
ENDBRANCH  24  27
ENDBRANCH   5  23
TORSDOF 7
ENDMDL
MODEL      158
REMARK 921   NORMALIZED FREE ENERGY PREDICTED BY IDOCK:   -4.68 KCAL/MOL
REMARK 922        TOTAL FREE ENERGY PREDICTED BY IDOCK:   -7.80 KCAL/MOL
REMARK 923 INTER-LIGAND FREE ENERGY PREDICTED BY IDOCK:   -7.02 KCAL/MOL
REMARK 924 INTRA-LIGAND FREE ENERGY PREDICTED BY IDOCK:   -0.78 KCAL/MOL
REMARK 927      BINDING AFFINITY PREDICTED BY RF-SCORE:    0.00 PKD
ROOT
HETATM    1  C   UNL     1      -9.351   6.707  65.892  1.00  0.00     0.085 C  
HETATM    2  S   UNL     1      -9.954   7.899  67.129  1.00  0.00    -0.258 SA 
HETATM    3  C   UNL     1     -10.146   9.246  65.976  1.00  0.00    -0.192 C  
HETATM    4  C   UNL     1      -8.950   9.524  65.107  1.00  0.00    -0.253 C  
HETATM    5  CA  UNL     1      -8.390   5.607  66.448  1.00  0.00    -0.112 C  
HETATM    6  CA  UNL     1      -8.091   8.547  64.707  1.00  0.00    -0.151 C  
HETATM    7  C   UNL     1      -7.009   8.829  63.587  1.00  0.00    -0.088 C  
HETATM    8  O   UNL     1      -6.084   6.328  65.582  1.00  0.00    -0.028 OA 
HETATM    9  N   UNL     1      -8.219   7.259  65.178  1.00  0.00    -0.130 N  
HETATM   10  OXT UNL     1      -6.617  10.042  63.533  1.00  0.00    -0.124 OA 
HETATM   11  O   UNL     1      -6.820   7.889  62.773  1.00  0.00    -0.082 OA 
HETATM   12  C   UNL     1      -7.295   6.362  65.608  1.00  0.00    -0.080 C  
ENDROOT
BRANCH   4  13
HETATM   13  C   UNL     1      -8.977  10.938  64.558  1.00  0.00    -0.116 C  
BRANCH  13  14
HETATM   14  N   UNL     1     -10.233  11.751  64.690  1.00  0.00    -0.271 NA 
HETATM   15  C   UNL     1     -10.548  12.576  65.721  1.00  0.00    -0.270 A  
HETATM   16  C   UNL     1      -9.736  12.950  66.928  1.00  0.00    -0.240 C  
HETATM   17  C   UNL     1     -10.659  13.884  67.741  1.00  0.00    -0.248 C  
HETATM   18  C   UNL     1     -11.184  11.525  63.736  1.00  0.00    -0.370 A  
HETATM   19  C   UNL     1     -11.959  14.093  66.966  1.00  0.00    -0.471 C  
HETATM   20  C   UNL     1     -12.453  12.097  63.800  1.00  0.00    -0.620 A  
HETATM   21  C   UNL     1     -12.779  12.947  64.839  1.00  0.00    -0.474 A  
HETATM   22  C   UNL     1     -11.811  13.182  65.794  1.00  0.00    -0.442 A  
ENDBRANCH  13  14
ENDBRANCH   4  13
BRANCH   5  23
HETATM   23  N   UNL     1      -8.119   5.629  67.912  1.00  0.00    -0.101 N  
HETATM   24  C   UNL     1      -8.875   4.978  68.873  1.00  0.00    -0.093 C  
HETATM   25  O   UNL     1      -9.735   4.156  68.595  1.00  0.00    -0.152 OA 
HETATM   26  H   UNL     1      -7.314   6.166  68.233  1.00  0.00     0.000 HD 
BRANCH  24  27
HETATM   27  C   UNL     1      -8.546   5.390  70.340  1.00  0.00    -0.124 C  
BRANCH  27  28
HETATM   28  C   UNL     1      -9.627   5.812  71.241  1.00  0.00    -0.166 A  
HETATM   29  N   UNL     1      -9.397   6.008  72.600  1.00  0.00    -0.147 NA 
HETATM   30  N   UNL     1     -10.528   6.620  74.536  1.00  0.00    -0.423 NA 
HETATM   31  C   UNL     1     -10.927   6.094  70.856  1.00  0.00    -0.297 A  
HETATM   32  S   UNL     1     -11.860   6.579  72.207  1.00  0.00    -0.212 SA 
HETATM   33  H1  UNL     1      -9.711   6.505  75.136  1.00  0.00     0.000 HD 
HETATM   34  H2  UNL     1     -11.408   6.921  74.954  1.00  0.00     0.000 HD 
HETATM   35  C   UNL     1     -10.484   6.387  73.218  1.00  0.00    -0.254 A  
ENDBRANCH  27  28
BRANCH  27  36
HETATM   36  N   UNL     1      -7.366   5.360  70.894  1.00  0.00    -0.076 NA 
HETATM   37  H   UNL     1      -6.909   6.191  71.271  1.00  0.00     0.000 HD 
BRANCH  36  38
HETATM   38  O   UNL     1      -6.782   4.094  70.927  1.00  0.00    -0.030 OA 
HETATM   39  C   UNL     1      -5.600   4.186  71.721  1.00  0.00    -0.008 C  
ENDBRANCH  36  38
ENDBRANCH  27  36
ENDBRANCH  24  27
ENDBRANCH   5  23
TORSDOF 7
ENDMDL
MODEL      159
REMARK 921   NORMALIZED FREE ENERGY PREDICTED BY IDOCK:   -4.66 KCAL/MOL
REMARK 922        TOTAL FREE ENERGY PREDICTED BY IDOCK:   -7.78 KCAL/MOL
REMARK 923 INTER-LIGAND FREE ENERGY PREDICTED BY IDOCK:   -6.75 KCAL/MOL
REMARK 924 INTRA-LIGAND FREE ENERGY PREDICTED BY IDOCK:   -1.03 KCAL/MOL
REMARK 927      BINDING AFFINITY PREDICTED BY RF-SCORE:    0.00 PKD
ROOT
HETATM    1  C   UNL     1      -9.706  10.132  68.400  1.00  0.00    -0.147 C  
HETATM    2  S   UNL     1     -10.041   9.760  66.650  1.00  0.00    -0.234 SA 
HETATM    3  C   UNL     1      -9.542   8.051  66.749  1.00  0.00    -0.216 C  
HETATM    4  C   UNL     1      -8.198   7.809  67.380  1.00  0.00    -0.123 C  
HETATM    5  CA  UNL     1      -9.310  11.614  68.697  1.00  0.00    -0.114 C  
HETATM    6  CA  UNL     1      -7.691   8.609  68.357  1.00  0.00    -0.100 C  
HETATM    7  C   UNL     1      -6.409   8.175  69.175  1.00  0.00    -0.039 C  
HETATM    8  O   UNL     1      -6.788  11.484  69.158  1.00  0.00    -0.096 OA 
HETATM    9  N   UNL     1      -8.349   9.758  68.739  1.00  0.00    -0.109 N  
HETATM   10  OXT UNL     1      -5.606   7.424  68.529  1.00  0.00    -0.021 OA 
HETATM   11  O   UNL     1      -6.436   8.451  70.403  1.00  0.00    -0.035 OA 
HETATM   12  C   UNL     1      -7.894  11.007  69.012  1.00  0.00    -0.126 C  
ENDROOT
BRANCH   4  13
HETATM   13  C   UNL     1      -7.625   6.465  66.972  1.00  0.00    -0.095 C  
BRANCH  13  14
HETATM   14  N   UNL     1      -8.327   5.208  67.400  1.00  0.00    -0.107 NA 
HETATM   15  C   UNL     1      -8.629   4.854  68.675  1.00  0.00    -0.093 A  
HETATM   16  C   UNL     1      -8.425   5.617  69.952  1.00  0.00    -0.121 C  
HETATM   17  C   UNL     1      -8.934   4.665  71.056  1.00  0.00    -0.166 C  
HETATM   18  C   UNL     1      -8.557   4.295  66.409  1.00  0.00    -0.112 A  
HETATM   19  C   UNL     1      -9.486   3.399  70.404  1.00  0.00    -0.245 C  
HETATM   20  C   UNL     1      -9.073   3.027  66.671  1.00  0.00    -0.171 A  
HETATM   21  C   UNL     1      -9.394   2.663  67.963  1.00  0.00    -0.255 A  
HETATM   22  C   UNL     1      -9.171   3.591  68.958  1.00  0.00    -0.228 A  
ENDBRANCH  13  14
ENDBRANCH   4  13
BRANCH   5  23
HETATM   23  N   UNL     1      -9.299  12.551  67.539  1.00  0.00    -0.181 N  
HETATM   24  C   UNL     1      -8.796  13.842  67.563  1.00  0.00    -0.197 C  
HETATM   25  O   UNL     1      -8.131  14.277  68.490  1.00  0.00    -0.138 OA 
HETATM   26  H   UNL     1      -9.693  12.216  66.661  1.00  0.00     0.000 HD 
BRANCH  24  27
HETATM   27  C   UNL     1      -9.159  14.697  66.311  1.00  0.00    -0.160 C  
BRANCH  27  28
HETATM   28  C   UNL     1      -8.972  16.153  66.341  1.00  0.00    -0.318 A  
HETATM   29  N   UNL     1     -10.059  17.018  66.424  1.00  0.00    -0.306 NA 
HETATM   30  N   UNL     1     -10.536  19.292  66.501  1.00  0.00    -0.442 NA 
HETATM   31  C   UNL     1      -7.750  16.805  66.336  1.00  0.00    -0.310 A  
HETATM   32  S   UNL     1      -7.974  18.500  66.410  1.00  0.00    -0.249 SA 
HETATM   33  H1  UNL     1     -11.547  19.153  66.522  1.00  0.00     0.000 HD 
HETATM   34  H2  UNL     1     -10.169  20.243  66.523  1.00  0.00     0.000 HD 
HETATM   35  C   UNL     1      -9.675  18.267  66.445  1.00  0.00    -0.334 A  
ENDBRANCH  27  28
BRANCH  27  36
HETATM   36  N   UNL     1      -9.593  14.235  65.171  1.00  0.00    -0.471 NA 
HETATM   37  H   UNL     1      -8.971  13.987  64.401  1.00  0.00     0.000 HD 
BRANCH  36  38
HETATM   38  O   UNL     1     -10.979  14.109  65.095  1.00  0.00    -0.320 OA 
HETATM   39  C   UNL     1     -11.264  12.960  64.298  1.00  0.00    -0.367 C  
ENDBRANCH  36  38
ENDBRANCH  27  36
ENDBRANCH  24  27
ENDBRANCH   5  23
TORSDOF 7
ENDMDL
MODEL      160
REMARK 921   NORMALIZED FREE ENERGY PREDICTED BY IDOCK:   -4.66 KCAL/MOL
REMARK 922        TOTAL FREE ENERGY PREDICTED BY IDOCK:   -7.78 KCAL/MOL
REMARK 923 INTER-LIGAND FREE ENERGY PREDICTED BY IDOCK:   -6.73 KCAL/MOL
REMARK 924 INTRA-LIGAND FREE ENERGY PREDICTED BY IDOCK:   -1.05 KCAL/MOL
REMARK 927      BINDING AFFINITY PREDICTED BY RF-SCORE:    0.00 PKD
ROOT
HETATM    1  C   UNL     1     -10.584   7.676  67.517  1.00  0.00    -0.252 C  
HETATM    2  S   UNL     1     -10.771   9.171  68.540  1.00  0.00    -0.055 SA 
HETATM    3  C   UNL     1     -10.790  10.307  67.166  1.00  0.00    -0.212 C  
HETATM    4  C   UNL     1      -9.665  10.142  66.180  1.00  0.00    -0.275 C  
HETATM    5  CA  UNL     1      -9.831   6.493  68.207  1.00  0.00    -0.132 C  
HETATM    6  CA  UNL     1      -9.091   8.937  65.917  1.00  0.00    -0.218 C  
HETATM    7  C   UNL     1      -8.104   8.761  64.693  1.00  0.00    -0.157 C  
HETATM    8  O   UNL     1      -7.533   6.492  67.063  1.00  0.00    -0.084 OA 
HETATM    9  N   UNL     1      -9.445   7.816  66.635  1.00  0.00    -0.193 N  
HETATM   10  OXT UNL     1      -7.465   9.819  64.380  1.00  0.00    -0.120 OA 
HETATM   11  O   UNL     1      -8.216   7.677  64.064  1.00  0.00    -0.094 OA 
HETATM   12  C   UNL     1      -8.698   6.814  67.165  1.00  0.00    -0.119 C  
ENDROOT
BRANCH   4  13
HETATM   13  C   UNL     1      -9.444  11.407  65.372  1.00  0.00    -0.216 C  
BRANCH  13  14
HETATM   14  N   UNL     1      -9.344  12.725  66.086  1.00  0.00    -0.166 NA 
HETATM   15  C   UNL     1      -9.917  13.892  65.697  1.00  0.00    -0.276 A  
HETATM   16  C   UNL     1     -10.833  14.168  64.539  1.00  0.00    -0.336 C  
HETATM   17  C   UNL     1     -11.102  15.686  64.612  1.00  0.00    -0.387 C  
HETATM   18  C   UNL     1      -8.488  12.754  67.151  1.00  0.00    -0.181 A  
HETATM   19  C   UNL     1     -10.400  16.256  65.843  1.00  0.00    -0.381 C  
HETATM   20  C   UNL     1      -8.182  13.934  67.828  1.00  0.00    -0.173 A  
HETATM   21  C   UNL     1      -8.770  15.124  67.446  1.00  0.00    -0.205 A  
HETATM   22  C   UNL     1      -9.642  15.087  66.379  1.00  0.00    -0.314 A  
ENDBRANCH  13  14
ENDBRANCH   4  13
BRANCH   5  23
HETATM   23  N   UNL     1      -9.402   6.702  69.618  1.00  0.00    -0.144 N  
HETATM   24  C   UNL     1     -10.082   6.244  70.734  1.00  0.00    -0.189 C  
HETATM   25  O   UNL     1     -11.009   5.451  70.667  1.00  0.00    -0.190 OA 
HETATM   26  H   UNL     1      -8.539   7.223  69.774  1.00  0.00     0.000 HD 
BRANCH  24  27
HETATM   27  C   UNL     1      -9.574   6.835  72.085  1.00  0.00    -0.145 C  
BRANCH  27  28
HETATM   28  C   UNL     1      -8.454   6.193  72.787  1.00  0.00    -0.123 A  
HETATM   29  N   UNL     1      -8.528   4.866  73.199  1.00  0.00    -0.104 NA 
HETATM   30  N   UNL     1      -7.259   3.261  74.302  1.00  0.00    -0.047 NA 
HETATM   31  C   UNL     1      -7.237   6.790  73.069  1.00  0.00    -0.076 A  
HETATM   32  S   UNL     1      -6.201   5.690  73.872  1.00  0.00    -0.068 SA 
HETATM   33  H1  UNL     1      -7.987   2.549  74.257  1.00  0.00     0.000 HD 
HETATM   34  H2  UNL     1      -6.371   3.031  74.749  1.00  0.00     0.000 HD 
HETATM   35  C   UNL     1      -7.427   4.490  73.796  1.00  0.00    -0.081 A  
ENDBRANCH  27  28
BRANCH  27  36
HETATM   36  N   UNL     1     -10.027   7.910  72.666  1.00  0.00    -0.239 NA 
HETATM   37  H   UNL     1      -9.428   8.693  72.928  1.00  0.00     0.000 HD 
BRANCH  36  38
HETATM   38  O   UNL     1     -11.402   7.899  72.898  1.00  0.00    -0.406 OA 
HETATM   39  C   UNL     1     -11.995   8.851  72.017  1.00  0.00    -0.369 C  
ENDBRANCH  36  38
ENDBRANCH  27  36
ENDBRANCH  24  27
ENDBRANCH   5  23
TORSDOF 7
ENDMDL
MODEL      161
REMARK 921   NORMALIZED FREE ENERGY PREDICTED BY IDOCK:   -4.64 KCAL/MOL
REMARK 922        TOTAL FREE ENERGY PREDICTED BY IDOCK:   -7.75 KCAL/MOL
REMARK 923 INTER-LIGAND FREE ENERGY PREDICTED BY IDOCK:   -7.21 KCAL/MOL
REMARK 924 INTRA-LIGAND FREE ENERGY PREDICTED BY IDOCK:   -0.55 KCAL/MOL
REMARK 927      BINDING AFFINITY PREDICTED BY RF-SCORE:    0.00 PKD
ROOT
HETATM    1  C   UNL     1      -8.803   9.617  69.702  1.00  0.00    -0.201 C  
HETATM    2  S   UNL     1      -8.393   8.717  68.174  1.00  0.00    -0.127 SA 
HETATM    3  C   UNL     1      -8.450  10.154  67.119  1.00  0.00    -0.125 C  
HETATM    4  C   UNL     1      -9.689  10.997  67.248  1.00  0.00    -0.188 C  
HETATM    5  CA  UNL     1      -9.555   8.775  70.783  1.00  0.00    -0.208 C  
HETATM    6  CA  UNL     1     -10.375  11.119  68.417  1.00  0.00    -0.186 C  
HETATM    7  C   UNL     1     -11.505  12.213  68.582  1.00  0.00    -0.296 C  
HETATM    8  O   UNL     1     -11.963   9.656  70.667  1.00  0.00    -0.272 OA 
HETATM    9  N   UNL     1     -10.023  10.375  69.522  1.00  0.00    -0.224 N  
HETATM   10  OXT UNL     1     -12.099  12.520  67.495  1.00  0.00    -0.453 OA 
HETATM   11  O   UNL     1     -11.544  12.781  69.704  1.00  0.00    -0.287 OA 
HETATM   12  C   UNL     1     -10.774   9.704  70.432  1.00  0.00    -0.298 C  
ENDROOT
BRANCH   4  13
HETATM   13  C   UNL     1      -9.910  11.854  66.016  1.00  0.00    -0.235 C  
BRANCH  13  14
HETATM   14  N   UNL     1      -9.529  13.306  66.055  1.00  0.00    -0.150 NA 
HETATM   15  C   UNL     1      -8.565  13.861  66.833  1.00  0.00    -0.117 A  
HETATM   16  C   UNL     1      -7.599  13.200  67.774  1.00  0.00    -0.155 C  
HETATM   17  C   UNL     1      -6.794  14.368  68.384  1.00  0.00    -0.106 C  
HETATM   18  C   UNL     1     -10.327  14.144  65.327  1.00  0.00    -0.388 A  
HETATM   19  C   UNL     1      -7.253  15.676  67.742  1.00  0.00    -0.175 C  
HETATM   20  C   UNL     1     -10.187  15.530  65.373  1.00  0.00    -0.409 A  
HETATM   21  C   UNL     1      -9.201  16.102  66.152  1.00  0.00    -0.382 A  
HETATM   22  C   UNL     1      -8.391  15.252  66.875  1.00  0.00    -0.278 A  
ENDBRANCH  13  14
ENDBRANCH   4  13
BRANCH   5  23
HETATM   23  N   UNL     1      -9.803   7.341  70.465  1.00  0.00    -0.183 N  
HETATM   24  C   UNL     1      -9.324   6.267  71.197  1.00  0.00    -0.160 C  
HETATM   25  O   UNL     1      -8.806   6.392  72.296  1.00  0.00    -0.135 OA 
HETATM   26  H   UNL     1     -10.371   7.134  69.643  1.00  0.00     0.000 HD 
BRANCH  24  27
HETATM   27  C   UNL     1      -9.492   4.884  70.495  1.00  0.00    -0.166 C  
BRANCH  27  28
HETATM   28  C   UNL     1      -9.135   4.737  69.078  1.00  0.00    -0.114 A  
HETATM   29  N   UNL     1     -10.111   4.527  68.108  1.00  0.00    -0.026 NA 
HETATM   30  N   UNL     1     -10.315   4.206  65.815  1.00  0.00    -0.463 NA 
HETATM   31  C   UNL     1      -7.854   4.827  68.560  1.00  0.00    -0.081 A  
HETATM   32  S   UNL     1      -7.879   4.624  66.860  1.00  0.00    -0.099 SA 
HETATM   33  H1  UNL     1     -11.328   4.091  65.848  1.00  0.00     0.000 HD 
HETATM   34  H2  UNL     1      -9.842   4.149  64.913  1.00  0.00     0.000 HD 
HETATM   35  C   UNL     1      -9.585   4.430  66.915  1.00  0.00    -0.199 A  
ENDBRANCH  27  28
BRANCH  27  36
HETATM   36  N   UNL     1      -9.892   3.783  71.066  1.00  0.00    -0.171 NA 
HETATM   37  H   UNL     1     -10.875   3.514  71.124  1.00  0.00     0.000 HD 
BRANCH  36  38
HETATM   38  O   UNL     1      -8.862   3.003  71.591  1.00  0.00    -0.072 OA 
HETATM   39  C   UNL     1      -9.381   2.312  72.726  1.00  0.00    -0.079 C  
ENDBRANCH  36  38
ENDBRANCH  27  36
ENDBRANCH  24  27
ENDBRANCH   5  23
TORSDOF 7
ENDMDL
MODEL      162
REMARK 921   NORMALIZED FREE ENERGY PREDICTED BY IDOCK:   -4.64 KCAL/MOL
REMARK 922        TOTAL FREE ENERGY PREDICTED BY IDOCK:   -7.75 KCAL/MOL
REMARK 923 INTER-LIGAND FREE ENERGY PREDICTED BY IDOCK:   -6.13 KCAL/MOL
REMARK 924 INTRA-LIGAND FREE ENERGY PREDICTED BY IDOCK:   -1.62 KCAL/MOL
REMARK 927      BINDING AFFINITY PREDICTED BY RF-SCORE:    0.00 PKD
ROOT
HETATM    1  C   UNL     1     -10.568   6.265  67.276  1.00  0.00    -0.302 C  
HETATM    2  S   UNL     1     -10.612   7.350  68.737  1.00  0.00    -0.125 SA 
HETATM    3  C   UNL     1     -10.447   8.869  67.817  1.00  0.00    -0.239 C  
HETATM    4  C   UNL     1      -9.316   8.900  66.825  1.00  0.00    -0.224 C  
HETATM    5  CA  UNL     1      -9.987   4.837  67.530  1.00  0.00    -0.144 C  
HETATM    6  CA  UNL     1      -8.880   7.787  66.174  1.00  0.00    -0.162 C  
HETATM    7  C   UNL     1      -7.880   7.902  64.954  1.00  0.00    -0.126 C  
HETATM    8  O   UNL     1      -7.667   4.927  66.436  1.00  0.00    -0.090 OA 
HETATM    9  N   UNL     1      -9.390   6.545  66.482  1.00  0.00    -0.159 N  
HETATM   10  OXT UNL     1      -7.108   8.917  65.006  1.00  0.00    -0.082 OA 
HETATM   11  O   UNL     1      -8.098   7.109  64.002  1.00  0.00    -0.110 OA 
HETATM   12  C   UNL     1      -8.787   5.339  66.646  1.00  0.00    -0.113 C  
ENDROOT
BRANCH   4  13
HETATM   13  C   UNL     1      -8.916  10.322  66.480  1.00  0.00    -0.144 C  
BRANCH  13  14
HETATM   14  N   UNL     1      -9.885  11.195  65.735  1.00  0.00    -0.224 NA 
HETATM   15  C   UNL     1     -10.644  12.186  66.268  1.00  0.00    -0.250 A  
HETATM   16  C   UNL     1     -10.673  12.717  67.673  1.00  0.00    -0.239 C  
HETATM   17  C   UNL     1     -11.769  13.804  67.652  1.00  0.00    -0.402 C  
HETATM   18  C   UNL     1     -10.098  10.856  64.428  1.00  0.00    -0.339 A  
HETATM   19  C   UNL     1     -12.309  13.937  66.229  1.00  0.00    -0.489 C  
HETATM   20  C   UNL     1     -11.068  11.481  63.646  1.00  0.00    -0.469 A  
HETATM   21  C   UNL     1     -11.836  12.498  64.176  1.00  0.00    -0.487 A  
HETATM   22  C   UNL     1     -11.609  12.845  65.492  1.00  0.00    -0.395 A  
ENDBRANCH  13  14
ENDBRANCH   4  13
BRANCH   5  23
HETATM   23  N   UNL     1      -9.585   4.514  68.928  1.00  0.00    -0.160 N  
HETATM   24  C   UNL     1      -9.447   3.236  69.443  1.00  0.00    -0.133 C  
HETATM   25  O   UNL     1      -9.454   2.235  68.743  1.00  0.00    -0.170 OA 
HETATM   26  H   UNL     1      -9.398   5.296  69.555  1.00  0.00     0.000 HD 
BRANCH  24  27
HETATM   27  C   UNL     1      -9.294   3.180  70.994  1.00  0.00    -0.144 C  
BRANCH  27  28
HETATM   28  C   UNL     1      -7.955   3.211  71.597  1.00  0.00    -0.057 A  
HETATM   29  N   UNL     1      -7.226   4.395  71.669  1.00  0.00    -0.056 NA 
HETATM   30  N   UNL     1      -5.173   5.189  72.416  1.00  0.00    -0.008 NA 
HETATM   31  C   UNL     1      -7.310   2.132  72.176  1.00  0.00    -0.039 A  
HETATM   32  S   UNL     1      -5.781   2.602  72.785  1.00  0.00    -0.008 SA 
HETATM   33  H1  UNL     1      -5.344   6.143  72.095  1.00  0.00     0.000 HD 
HETATM   34  H2  UNL     1      -4.291   4.976  72.881  1.00  0.00     0.000 HD 
HETATM   35  C   UNL     1      -6.068   4.207  72.245  1.00  0.00    -0.016 A  
ENDBRANCH  27  28
BRANCH  27  36
HETATM   36  N   UNL     1     -10.271   3.149  71.856  1.00  0.00    -0.075 NA 
HETATM   37  H   UNL     1     -10.456   2.344  72.455  1.00  0.00     0.000 HD 
BRANCH  36  38
HETATM   38  O   UNL     1     -11.042   4.310  71.889  1.00  0.00     0.338 OA 
HETATM   39  C   UNL     1     -10.808   4.947  73.144  1.00  0.00    -0.282 C  
ENDBRANCH  36  38
ENDBRANCH  27  36
ENDBRANCH  24  27
ENDBRANCH   5  23
TORSDOF 7
ENDMDL
MODEL      163
REMARK 921   NORMALIZED FREE ENERGY PREDICTED BY IDOCK:   -4.61 KCAL/MOL
REMARK 922        TOTAL FREE ENERGY PREDICTED BY IDOCK:   -7.70 KCAL/MOL
REMARK 923 INTER-LIGAND FREE ENERGY PREDICTED BY IDOCK:   -6.42 KCAL/MOL
REMARK 924 INTRA-LIGAND FREE ENERGY PREDICTED BY IDOCK:   -1.28 KCAL/MOL
REMARK 927      BINDING AFFINITY PREDICTED BY RF-SCORE:    0.00 PKD
ROOT
HETATM    1  C   UNL     1      -6.367   7.864  68.260  1.00  0.00    -0.050 C  
HETATM    2  S   UNL     1      -6.274   8.328  66.502  1.00  0.00    -0.054 SA 
HETATM    3  C   UNL     1      -6.654  10.050  66.769  1.00  0.00    -0.072 C  
HETATM    4  C   UNL     1      -7.874  10.317  67.608  1.00  0.00    -0.098 C  
HETATM    5  CA  UNL     1      -6.799   6.387  68.532  1.00  0.00    -0.071 C  
HETATM    6  CA  UNL     1      -8.275   9.483  68.605  1.00  0.00    -0.112 C  
HETATM    7  C   UNL     1      -9.395   9.926  69.630  1.00  0.00    -0.228 C  
HETATM    8  O   UNL     1      -9.213   6.611  69.375  1.00  0.00    -0.142 OA 
HETATM    9  N   UNL     1      -7.635   8.282  68.819  1.00  0.00    -0.099 N  
HETATM   10  OXT UNL     1     -10.241  10.754  69.154  1.00  0.00    -0.208 OA 
HETATM   11  O   UNL     1      -9.204   9.572  70.822  1.00  0.00    -0.236 OA 
HETATM   12  C   UNL     1      -8.116   7.041  69.090  1.00  0.00    -0.121 C  
ENDROOT
BRANCH   4  13
HETATM   13  C   UNL     1      -8.422  11.710  67.365  1.00  0.00    -0.150 C  
BRANCH  13  14
HETATM   14  N   UNL     1      -9.472  11.911  66.310  1.00  0.00    -0.224 NA 
HETATM   15  C   UNL     1     -10.465  12.837  66.333  1.00  0.00    -0.250 A  
HETATM   16  C   UNL     1     -10.735  13.923  67.335  1.00  0.00    -0.275 C  
HETATM   17  C   UNL     1     -12.022  14.607  66.825  1.00  0.00    -0.297 C  
HETATM   18  C   UNL     1      -9.486  10.981  65.309  1.00  0.00    -0.223 A  
HETATM   19  C   UNL     1     -12.439  13.959  65.507  1.00  0.00    -0.541 C  
HETATM   20  C   UNL     1     -10.483  10.950  64.335  1.00  0.00    -0.403 A  
HETATM   21  C   UNL     1     -11.490  11.896  64.344  1.00  0.00    -0.393 A  
HETATM   22  C   UNL     1     -11.465  12.840  65.349  1.00  0.00    -0.363 A  
ENDBRANCH  13  14
ENDBRANCH   4  13
BRANCH   5  23
HETATM   23  N   UNL     1      -7.035   5.526  67.340  1.00  0.00    -0.067 N  
HETATM   24  C   UNL     1      -7.040   4.141  67.345  1.00  0.00    -0.067 C  
HETATM   25  O   UNL     1      -7.041   3.481  68.373  1.00  0.00    -0.049 OA 
HETATM   26  H   UNL     1      -7.207   5.994  66.450  1.00  0.00     0.000 HD 
BRANCH  24  27
HETATM   27  C   UNL     1      -7.031   3.492  65.926  1.00  0.00    -0.061 C  
BRANCH  27  28
HETATM   28  C   UNL     1      -8.298   3.264  65.220  1.00  0.00    -0.098 A  
HETATM   29  N   UNL     1      -9.384   4.117  65.394  1.00  0.00    -0.151 NA 
HETATM   30  N   UNL     1     -11.579   4.389  64.681  1.00  0.00    -0.880 NA 
HETATM   31  C   UNL     1      -8.537   2.248  64.309  1.00  0.00    -0.088 A  
HETATM   32  S   UNL     1     -10.131   2.356  63.695  1.00  0.00    -0.143 SA 
HETATM   33  H1  UNL     1     -11.742   5.212  65.261  1.00  0.00     0.000 HD 
HETATM   34  H2  UNL     1     -12.335   4.047  64.087  1.00  0.00     0.000 HD 
HETATM   35  C   UNL     1     -10.406   3.742  64.672  1.00  0.00    -0.163 A  
ENDBRANCH  27  28
BRANCH  27  36
HETATM   36  N   UNL     1      -5.969   3.153  65.249  1.00  0.00    -0.019 NA 
HETATM   37  H   UNL     1      -5.317   2.435  65.565  1.00  0.00     0.000 HD 
BRANCH  36  38
HETATM   38  O   UNL     1      -5.802   3.857  64.057  1.00  0.00    -0.014 OA 
HETATM   39  C   UNL     1      -5.146   5.084  64.371  1.00  0.00    -0.009 C  
ENDBRANCH  36  38
ENDBRANCH  27  36
ENDBRANCH  24  27
ENDBRANCH   5  23
TORSDOF 7
ENDMDL
MODEL      164
REMARK 921   NORMALIZED FREE ENERGY PREDICTED BY IDOCK:   -4.59 KCAL/MOL
REMARK 922        TOTAL FREE ENERGY PREDICTED BY IDOCK:   -7.68 KCAL/MOL
REMARK 923 INTER-LIGAND FREE ENERGY PREDICTED BY IDOCK:   -5.95 KCAL/MOL
REMARK 924 INTRA-LIGAND FREE ENERGY PREDICTED BY IDOCK:   -1.73 KCAL/MOL
REMARK 927      BINDING AFFINITY PREDICTED BY RF-SCORE:    0.00 PKD
ROOT
HETATM    1  C   UNL     1      -7.644   7.441  67.406  1.00  0.00    -0.112 C  
HETATM    2  S   UNL     1      -8.926   7.203  66.135  1.00  0.00    -0.104 SA 
HETATM    3  C   UNL     1      -9.637   8.829  66.316  1.00  0.00    -0.259 C  
HETATM    4  C   UNL     1      -9.967   9.233  67.727  1.00  0.00    -0.235 C  
HETATM    5  CA  UNL     1      -7.193   6.138  68.141  1.00  0.00    -0.084 C  
HETATM    6  CA  UNL     1      -9.253   8.800  68.801  1.00  0.00    -0.141 C  
HETATM    7  C   UNL     1      -9.461   9.450  70.227  1.00  0.00    -0.251 C  
HETATM    8  O   UNL     1      -8.277   6.346  70.458  1.00  0.00    -0.115 OA 
HETATM    9  N   UNL     1      -8.248   7.869  68.650  1.00  0.00    -0.126 N  
HETATM   10  OXT UNL     1     -10.633   9.913  70.425  1.00  0.00    -0.274 OA 
HETATM   11  O   UNL     1      -8.412   9.609  70.904  1.00  0.00    -0.253 OA 
HETATM   12  C   UNL     1      -7.917   6.775  69.383  1.00  0.00    -0.115 C  
ENDROOT
BRANCH   4  13
HETATM   13  C   UNL     1     -11.003  10.341  67.760  1.00  0.00    -0.300 C  
BRANCH  13  14
HETATM   14  N   UNL     1     -10.776  11.582  66.946  1.00  0.00    -0.250 NA 
HETATM   15  C   UNL     1      -9.804  12.507  67.149  1.00  0.00    -0.210 A  
HETATM   16  C   UNL     1      -8.686  12.513  68.152  1.00  0.00    -0.190 C  
HETATM   17  C   UNL     1      -7.953  13.850  67.905  1.00  0.00    -0.160 C  
HETATM   18  C   UNL     1     -11.726  11.847  65.999  1.00  0.00    -0.135 A  
HETATM   19  C   UNL     1      -8.608  14.564  66.725  1.00  0.00    -0.163 C  
HETATM   20  C   UNL     1     -11.730  13.029  65.260  1.00  0.00    -0.388 A  
HETATM   21  C   UNL     1     -10.738  13.970  65.452  1.00  0.00    -0.344 A  
HETATM   22  C   UNL     1      -9.775  13.693  66.400  1.00  0.00    -0.300 A  
ENDBRANCH  13  14
ENDBRANCH   4  13
BRANCH   5  23
HETATM   23  N   UNL     1      -7.817   4.862  67.692  1.00  0.00    -0.093 N  
HETATM   24  C   UNL     1      -7.174   3.870  66.972  1.00  0.00    -0.064 C  
HETATM   25  O   UNL     1      -5.965   3.854  66.797  1.00  0.00    -0.023 OA 
HETATM   26  H   UNL     1      -8.796   4.709  67.934  1.00  0.00     0.000 HD 
BRANCH  24  27
HETATM   27  C   UNL     1      -8.123   2.777  66.392  1.00  0.00    -0.083 C  
BRANCH  27  28
HETATM   28  C   UNL     1      -8.815   3.012  65.118  1.00  0.00    -0.127 A  
HETATM   29  N   UNL     1      -8.664   4.211  64.427  1.00  0.00    -0.124 NA 
HETATM   30  N   UNL     1      -9.392   5.262  62.486  1.00  0.00    -0.353 NA 
HETATM   31  C   UNL     1      -9.623   2.097  64.463  1.00  0.00    -0.076 A  
HETATM   32  S   UNL     1     -10.210   2.757  62.996  1.00  0.00    -0.147 SA 
HETATM   33  H1  UNL     1      -8.885   6.126  62.677  1.00  0.00     0.000 HD 
HETATM   34  H2  UNL     1      -9.946   5.194  61.632  1.00  0.00     0.000 HD 
HETATM   35  C   UNL     1      -9.356   4.213  63.318  1.00  0.00    -0.140 A  
ENDBRANCH  27  28
BRANCH  27  36
HETATM   36  N   UNL     1      -8.349   1.605  66.918  1.00  0.00    -0.078 NA 
HETATM   37  H   UNL     1      -8.578   0.782  66.361  1.00  0.00     0.000 HD 
BRANCH  36  38
HETATM   38  O   UNL     1      -8.251   1.574  68.309  1.00  0.00    -0.056 OA 
HETATM   39  C   UNL     1      -9.576   1.641  68.835  1.00  0.00    -0.078 C  
ENDBRANCH  36  38
ENDBRANCH  27  36
ENDBRANCH  24  27
ENDBRANCH   5  23
TORSDOF 7
ENDMDL
MODEL      165
REMARK 921   NORMALIZED FREE ENERGY PREDICTED BY IDOCK:   -4.57 KCAL/MOL
REMARK 922        TOTAL FREE ENERGY PREDICTED BY IDOCK:   -7.65 KCAL/MOL
REMARK 923 INTER-LIGAND FREE ENERGY PREDICTED BY IDOCK:   -6.99 KCAL/MOL
REMARK 924 INTRA-LIGAND FREE ENERGY PREDICTED BY IDOCK:   -0.66 KCAL/MOL
REMARK 927      BINDING AFFINITY PREDICTED BY RF-SCORE:    0.00 PKD
ROOT
HETATM    1  C   UNL     1      -9.541   9.763  70.084  1.00  0.00    -0.237 C  
HETATM    2  S   UNL     1     -10.785   8.913  69.062  1.00  0.00    -0.060 SA 
HETATM    3  C   UNL     1     -11.092   7.605  70.235  1.00  0.00    -0.244 C  
HETATM    4  C   UNL     1      -9.865   6.907  70.755  1.00  0.00    -0.190 C  
HETATM    5  CA  UNL     1      -8.457  10.555  69.284  1.00  0.00    -0.129 C  
HETATM    6  CA  UNL     1      -8.670   7.540  70.905  1.00  0.00    -0.142 C  
HETATM    7  C   UNL     1      -7.485   6.854  71.698  1.00  0.00    -0.085 C  
HETATM    8  O   UNL     1      -6.357   9.097  69.510  1.00  0.00    -0.042 OA 
HETATM    9  N   UNL     1      -8.500   8.837  70.475  1.00  0.00    -0.149 N  
HETATM   10  OXT UNL     1      -7.496   5.579  71.655  1.00  0.00    -0.087 OA 
HETATM   11  O   UNL     1      -6.807   7.626  72.425  1.00  0.00    -0.058 OA 
HETATM   12  C   UNL     1      -7.481   9.439  69.808  1.00  0.00    -0.087 C  
ENDROOT
BRANCH   4  13
HETATM   13  C   UNL     1     -10.197   5.532  71.303  1.00  0.00    -0.222 C  
BRANCH  13  14
HETATM   14  N   UNL     1      -9.791   4.315  70.523  1.00  0.00    -0.209 NA 
HETATM   15  C   UNL     1      -9.591   4.252  69.182  1.00  0.00    -0.179 A  
HETATM   16  C   UNL     1      -9.643   5.348  68.157  1.00  0.00    -0.154 C  
HETATM   17  C   UNL     1      -9.369   4.635  66.815  1.00  0.00    -0.153 C  
HETATM   18  C   UNL     1      -9.750   3.147  71.233  1.00  0.00    -0.145 A  
HETATM   19  C   UNL     1      -9.096   3.157  67.086  1.00  0.00    -0.203 C  
HETATM   20  C   UNL     1      -9.526   1.914  70.624  1.00  0.00    -0.179 A  
HETATM   21  C   UNL     1      -9.310   1.842  69.262  1.00  0.00    -0.176 A  
HETATM   22  C   UNL     1      -9.341   3.025  68.552  1.00  0.00    -0.243 A  
ENDBRANCH  13  14
ENDBRANCH   4  13
BRANCH   5  23
HETATM   23  N   UNL     1      -8.590  10.564  67.800  1.00  0.00    -0.118 N  
HETATM   24  C   UNL     1      -8.743  11.698  67.020  1.00  0.00    -0.173 C  
HETATM   25  O   UNL     1      -8.589  12.829  67.456  1.00  0.00    -0.165 OA 
HETATM   26  H   UNL     1      -8.568   9.664  67.322  1.00  0.00     0.000 HD 
BRANCH  24  27
HETATM   27  C   UNL     1      -9.139  11.412  65.539  1.00  0.00    -0.137 C  
BRANCH  27  28
HETATM   28  C   UNL     1     -10.364  12.003  64.983  1.00  0.00    -0.281 A  
HETATM   29  N   UNL     1     -11.253  12.707  65.790  1.00  0.00    -0.300 NA 
HETATM   30  N   UNL     1     -13.275  13.846  65.654  1.00  0.00    -0.629 NA 
HETATM   31  C   UNL     1     -10.737  11.969  63.651  1.00  0.00    -0.449 A  
HETATM   32  S   UNL     1     -12.217  12.800  63.421  1.00  0.00    -0.394 SA 
HETATM   33  H1  UNL     1     -13.306  14.056  66.652  1.00  0.00     0.000 HD 
HETATM   34  H2  UNL     1     -14.035  14.173  65.057  1.00  0.00     0.000 HD 
HETATM   35  C   UNL     1     -12.270  13.154  65.101  1.00  0.00    -0.450 A  
ENDBRANCH  27  28
BRANCH  27  36
HETATM   36  N   UNL     1      -8.448  10.707  64.687  1.00  0.00    -0.308 NA 
HETATM   37  H   UNL     1      -8.790  10.474  63.755  1.00  0.00     0.000 HD 
BRANCH  36  38
HETATM   38  O   UNL     1      -7.201  10.299  65.161  1.00  0.00    -0.139 OA 
HETATM   39  C   UNL     1      -6.999   8.953  64.733  1.00  0.00    -0.076 C  
ENDBRANCH  36  38
ENDBRANCH  27  36
ENDBRANCH  24  27
ENDBRANCH   5  23
TORSDOF 7
ENDMDL
MODEL      166
REMARK 921   NORMALIZED FREE ENERGY PREDICTED BY IDOCK:   -4.56 KCAL/MOL
REMARK 922        TOTAL FREE ENERGY PREDICTED BY IDOCK:   -7.64 KCAL/MOL
REMARK 923 INTER-LIGAND FREE ENERGY PREDICTED BY IDOCK:   -6.30 KCAL/MOL
REMARK 924 INTRA-LIGAND FREE ENERGY PREDICTED BY IDOCK:   -1.34 KCAL/MOL
REMARK 927      BINDING AFFINITY PREDICTED BY RF-SCORE:    0.00 PKD
ROOT
HETATM    1  C   UNL     1     -10.158   9.781  65.914  1.00  0.00    -0.243 C  
HETATM    2  S   UNL     1      -8.413  10.144  65.544  1.00  0.00    -0.160 SA 
HETATM    3  C   UNL     1      -7.954   8.448  65.244  1.00  0.00    -0.125 C  
HETATM    4  C   UNL     1      -8.363   7.472  66.314  1.00  0.00    -0.134 C  
HETATM    5  CA  UNL     1     -10.846  10.780  66.899  1.00  0.00    -0.229 C  
HETATM    6  CA  UNL     1      -9.485   7.636  67.065  1.00  0.00    -0.163 C  
HETATM    7  C   UNL     1     -10.021   6.466  67.986  1.00  0.00    -0.135 C  
HETATM    8  O   UNL     1     -11.023   9.446  69.084  1.00  0.00    -0.192 OA 
HETATM    9  N   UNL     1     -10.248   8.777  66.953  1.00  0.00    -0.275 N  
HETATM   10  OXT UNL     1      -9.112   5.681  68.416  1.00  0.00    -0.117 OA 
HETATM   11  O   UNL     1     -11.272   6.337  68.018  1.00  0.00    -0.323 OA 
HETATM   12  C   UNL     1     -10.840   9.560  67.892  1.00  0.00    -0.180 C  
ENDROOT
BRANCH   4  13
HETATM   13  C   UNL     1      -7.524   6.209  66.266  1.00  0.00    -0.086 C  
BRANCH  13  14
HETATM   14  N   UNL     1      -7.459   5.420  64.989  1.00  0.00    -0.071 NA 
HETATM   15  C   UNL     1      -8.438   4.625  64.488  1.00  0.00    -0.136 A  
HETATM   16  C   UNL     1      -9.828   4.381  65.003  1.00  0.00    -0.169 C  
HETATM   17  C   UNL     1     -10.429   3.354  64.020  1.00  0.00    -0.219 C  
HETATM   18  C   UNL     1      -6.246   5.417  64.360  1.00  0.00    -0.022 A  
HETATM   19  C   UNL     1      -9.413   3.069  62.916  1.00  0.00    -0.093 C  
HETATM   20  C   UNL     1      -5.988   4.623  63.244  1.00  0.00    -0.017 A  
HETATM   21  C   UNL     1      -6.983   3.821  62.720  1.00  0.00    -0.036 A  
HETATM   22  C   UNL     1      -8.209   3.836  63.351  1.00  0.00    -0.089 A  
ENDBRANCH  13  14
ENDBRANCH   4  13
BRANCH   5  23
HETATM   23  N   UNL     1     -10.024  11.926  67.377  1.00  0.00    -0.189 N  
HETATM   24  C   UNL     1      -9.801  13.097  66.672  1.00  0.00    -0.261 C  
HETATM   25  O   UNL     1     -10.419  13.389  65.660  1.00  0.00    -0.279 OA 
HETATM   26  H   UNL     1      -9.591  11.841  68.297  1.00  0.00     0.000 HD 
BRANCH  24  27
HETATM   27  C   UNL     1      -8.686  14.007  67.272  1.00  0.00    -0.218 C  
BRANCH  27  28
HETATM   28  C   UNL     1      -8.947  15.437  67.486  1.00  0.00    -0.183 A  
HETATM   29  N   UNL     1      -9.335  16.263  66.435  1.00  0.00    -0.268 NA 
HETATM   30  N   UNL     1      -9.880  18.483  66.011  1.00  0.00    -0.529 NA 
HETATM   31  C   UNL     1      -8.883  16.090  68.705  1.00  0.00    -0.227 A  
HETATM   32  S   UNL     1      -9.287  17.743  68.522  1.00  0.00    -0.286 SA 
HETATM   33  H1  UNL     1     -10.019  18.333  65.012  1.00  0.00     0.000 HD 
HETATM   34  H2  UNL     1     -10.017  19.418  66.394  1.00  0.00     0.000 HD 
HETATM   35  C   UNL     1      -9.522  17.492  66.839  1.00  0.00    -0.274 A  
ENDBRANCH  27  28
BRANCH  27  36
HETATM   36  N   UNL     1      -7.506  13.612  67.661  1.00  0.00    -0.169 NA 
HETATM   37  H   UNL     1      -6.646  13.878  67.182  1.00  0.00     0.000 HD 
BRANCH  36  38
HETATM   38  O   UNL     1      -7.522  12.793  68.790  1.00  0.00    -0.111 OA 
HETATM   39  C   UNL     1      -6.166  12.535  69.153  1.00  0.00    -0.094 C  
ENDBRANCH  36  38
ENDBRANCH  27  36
ENDBRANCH  24  27
ENDBRANCH   5  23
TORSDOF 7
ENDMDL
MODEL      167
REMARK 921   NORMALIZED FREE ENERGY PREDICTED BY IDOCK:   -4.49 KCAL/MOL
REMARK 922        TOTAL FREE ENERGY PREDICTED BY IDOCK:   -7.53 KCAL/MOL
REMARK 923 INTER-LIGAND FREE ENERGY PREDICTED BY IDOCK:   -6.43 KCAL/MOL
REMARK 924 INTRA-LIGAND FREE ENERGY PREDICTED BY IDOCK:   -1.10 KCAL/MOL
REMARK 927      BINDING AFFINITY PREDICTED BY RF-SCORE:    0.00 PKD
ROOT
HETATM    1  C   UNL     1      -8.546  11.201  67.042  1.00  0.00    -0.147 C  
HETATM    2  S   UNL     1      -7.650  11.815  68.503  1.00  0.00    -0.131 SA 
HETATM    3  C   UNL     1      -7.205  10.198  69.111  1.00  0.00    -0.081 C  
HETATM    4  C   UNL     1      -8.341   9.217  69.217  1.00  0.00    -0.123 C  
HETATM    5  CA  UNL     1      -9.707  12.121  66.543  1.00  0.00    -0.223 C  
HETATM    6  CA  UNL     1      -9.408   9.236  68.374  1.00  0.00    -0.138 C  
HETATM    7  C   UNL     1     -10.440   8.037  68.346  1.00  0.00    -0.163 C  
HETATM    8  O   UNL     1     -11.825  10.869  67.272  1.00  0.00    -0.389 OA 
HETATM    9  N   UNL     1      -9.552  10.240  67.441  1.00  0.00    -0.156 N  
HETATM   10  OXT UNL     1     -10.555   7.421  69.457  1.00  0.00    -0.231 OA 
HETATM   11  O   UNL     1     -10.862   7.717  67.204  1.00  0.00    -0.317 OA 
HETATM   12  C   UNL     1     -10.636  10.960  67.054  1.00  0.00    -0.257 C  
ENDROOT
BRANCH   4  13
HETATM   13  C   UNL     1      -8.020   8.097  70.190  1.00  0.00    -0.107 C  
BRANCH  13  14
HETATM   14  N   UNL     1      -7.419   6.823  69.669  1.00  0.00    -0.094 NA 
HETATM   15  C   UNL     1      -7.656   5.574  70.142  1.00  0.00    -0.074 A  
HETATM   16  C   UNL     1      -8.601   5.123  71.220  1.00  0.00    -0.132 C  
HETATM   17  C   UNL     1      -8.378   3.599  71.317  1.00  0.00    -0.085 C  
HETATM   18  C   UNL     1      -6.451   6.976  68.717  1.00  0.00    -0.032 A  
HETATM   19  C   UNL     1      -7.364   3.177  70.254  1.00  0.00    -0.040 C  
HETATM   20  C   UNL     1      -5.704   5.901  68.237  1.00  0.00    -0.009 A  
HETATM   21  C   UNL     1      -5.947   4.624  68.704  1.00  0.00    -0.026 A  
HETATM   22  C   UNL     1      -6.933   4.474  69.656  1.00  0.00    -0.049 A  
ENDBRANCH  13  14
ENDBRANCH   4  13
BRANCH   5  23
HETATM   23  N   UNL     1      -9.913  13.400  67.279  1.00  0.00    -0.229 N  
HETATM   24  C   UNL     1     -10.039  14.648  66.691  1.00  0.00    -0.273 C  
HETATM   25  O   UNL     1     -10.186  14.802  65.488  1.00  0.00    -0.324 OA 
HETATM   26  H   UNL     1      -9.966  13.353  68.297  1.00  0.00     0.000 HD 
BRANCH  24  27
HETATM   27  C   UNL     1      -9.964  15.842  67.691  1.00  0.00    -0.239 C  
BRANCH  27  28
HETATM   28  C   UNL     1      -8.715  16.602  67.829  1.00  0.00    -0.201 A  
HETATM   29  N   UNL     1      -8.707  17.880  68.381  1.00  0.00    -0.288 NA 
HETATM   30  N   UNL     1      -7.230  19.602  68.886  1.00  0.00    -0.351 NA 
HETATM   31  C   UNL     1      -7.455  16.143  67.485  1.00  0.00    -0.153 A  
HETATM   32  S   UNL     1      -6.269  17.329  67.832  1.00  0.00    -0.152 SA 
HETATM   33  H1  UNL     1      -7.960  20.223  69.234  1.00  0.00     0.000 HD 
HETATM   34  H2  UNL     1      -6.262  19.925  68.895  1.00  0.00     0.000 HD 
HETATM   35  C   UNL     1      -7.498  18.376  68.418  1.00  0.00    -0.286 A  
ENDBRANCH  27  28
BRANCH  27  36
HETATM   36  N   UNL     1     -10.948  16.287  68.422  1.00  0.00    -0.337 NA 
HETATM   37  H   UNL     1     -11.652  16.935  68.069  1.00  0.00     0.000 HD 
BRANCH  36  38
HETATM   38  O   UNL     1     -10.954  15.801  69.729  1.00  0.00    -0.260 OA 
HETATM   39  C   UNL     1     -12.060  14.907  69.851  1.00  0.00    -0.332 C  
ENDBRANCH  36  38
ENDBRANCH  27  36
ENDBRANCH  24  27
ENDBRANCH   5  23
TORSDOF 7
ENDMDL
MODEL      168
REMARK 921   NORMALIZED FREE ENERGY PREDICTED BY IDOCK:   -4.47 KCAL/MOL
REMARK 922        TOTAL FREE ENERGY PREDICTED BY IDOCK:   -7.51 KCAL/MOL
REMARK 923 INTER-LIGAND FREE ENERGY PREDICTED BY IDOCK:   -6.04 KCAL/MOL
REMARK 924 INTRA-LIGAND FREE ENERGY PREDICTED BY IDOCK:   -1.47 KCAL/MOL
REMARK 927      BINDING AFFINITY PREDICTED BY RF-SCORE:    0.00 PKD
ROOT
HETATM    1  C   UNL     1      -5.911   8.071  69.067  1.00  0.00    -0.038 C  
HETATM    2  S   UNL     1      -7.328   7.689  67.989  1.00  0.00    -0.101 SA 
HETATM    3  C   UNL     1      -7.211   9.188  67.030  1.00  0.00    -0.090 C  
HETATM    4  C   UNL     1      -7.129  10.459  67.831  1.00  0.00    -0.083 C  
HETATM    5  CA  UNL     1      -5.987   7.455  70.501  1.00  0.00    -0.031 C  
HETATM    6  CA  UNL     1      -6.539  10.517  69.056  1.00  0.00    -0.060 C  
HETATM    7  C   UNL     1      -6.237  11.909  69.744  1.00  0.00    -0.137 C  
HETATM    8  O   UNL     1      -6.533   9.471  71.993  1.00  0.00    -0.300 OA 
HETATM    9  N   UNL     1      -6.084   9.373  69.674  1.00  0.00    -0.039 N  
HETATM   10  OXT UNL     1      -7.042  12.841  69.414  1.00  0.00     0.026 OA 
HETATM   11  O   UNL     1      -5.143  11.977  70.363  1.00  0.00    -0.083 OA 
HETATM   12  C   UNL     1      -6.174   8.947  70.960  1.00  0.00    -0.052 C  
ENDROOT
BRANCH   4  13
HETATM   13  C   UNL     1      -7.550  11.663  67.010  1.00  0.00    -0.154 C  
BRANCH  13  14
HETATM   14  N   UNL     1      -8.988  12.098  67.031  1.00  0.00    -0.195 NA 
HETATM   15  C   UNL     1      -9.438  13.378  67.051  1.00  0.00    -0.247 A  
HETATM   16  C   UNL     1      -8.664  14.664  66.984  1.00  0.00    -0.258 C  
HETATM   17  C   UNL     1      -9.738  15.767  67.092  1.00  0.00    -0.227 C  
HETATM   18  C   UNL     1      -9.904  11.093  67.172  1.00  0.00    -0.187 A  
HETATM   19  C   UNL     1     -11.117  15.113  67.150  1.00  0.00    -0.335 C  
HETATM   20  C   UNL     1     -11.264  11.346  67.347  1.00  0.00    -0.370 A  
HETATM   21  C   UNL     1     -11.732  12.645  67.357  1.00  0.00    -0.432 A  
HETATM   22  C   UNL     1     -10.804  13.655  67.202  1.00  0.00    -0.292 A  
ENDBRANCH  13  14
ENDBRANCH   4  13
BRANCH   5  23
HETATM   23  N   UNL     1      -7.168   6.600  70.804  1.00  0.00    -0.069 N  
HETATM   24  C   UNL     1      -7.223   5.226  70.632  1.00  0.00    -0.068 C  
HETATM   25  O   UNL     1      -6.235   4.548  70.395  1.00  0.00    -0.020 OA 
HETATM   26  H   UNL     1      -8.002   7.062  71.165  1.00  0.00     0.000 HD 
BRANCH  24  27
HETATM   27  C   UNL     1      -8.654   4.619  70.755  1.00  0.00    -0.097 C  
BRANCH  27  28
HETATM   28  C   UNL     1      -9.803   5.501  70.999  1.00  0.00    -0.182 A  
HETATM   29  N   UNL     1      -9.975   6.139  72.224  1.00  0.00    -0.167 NA 
HETATM   30  N   UNL     1     -11.447   7.579  73.301  1.00  0.00    -0.632 NA 
HETATM   31  C   UNL     1     -10.779   5.820  70.070  1.00  0.00    -0.330 A  
HETATM   32  S   UNL     1     -11.921   6.901  70.748  1.00  0.00    -0.334 SA 
HETATM   33  H1  UNL     1     -10.930   7.566  74.180  1.00  0.00     0.000 HD 
HETATM   34  H2  UNL     1     -12.294   8.143  73.235  1.00  0.00     0.000 HD 
HETATM   35  C   UNL     1     -11.052   6.879  72.230  1.00  0.00    -0.249 A  
ENDBRANCH  27  28
BRANCH  27  36
HETATM   36  N   UNL     1      -8.963   3.359  70.618  1.00  0.00    -0.087 NA 
HETATM   37  H   UNL     1      -9.159   2.933  69.713  1.00  0.00     0.000 HD 
BRANCH  36  38
HETATM   38  O   UNL     1      -9.001   2.646  71.816  1.00  0.00    -0.076 OA 
HETATM   39  C   UNL     1      -7.861   1.788  71.842  1.00  0.00    -0.041 C  
ENDBRANCH  36  38
ENDBRANCH  27  36
ENDBRANCH  24  27
ENDBRANCH   5  23
TORSDOF 7
ENDMDL
MODEL      169
REMARK 921   NORMALIZED FREE ENERGY PREDICTED BY IDOCK:   -4.46 KCAL/MOL
REMARK 922        TOTAL FREE ENERGY PREDICTED BY IDOCK:   -7.50 KCAL/MOL
REMARK 923 INTER-LIGAND FREE ENERGY PREDICTED BY IDOCK:   -6.32 KCAL/MOL
REMARK 924 INTRA-LIGAND FREE ENERGY PREDICTED BY IDOCK:   -1.18 KCAL/MOL
REMARK 927      BINDING AFFINITY PREDICTED BY RF-SCORE:    0.00 PKD
ROOT
HETATM    1  C   UNL     1      -8.372  12.129  66.944  1.00  0.00    -0.151 C  
HETATM    2  S   UNL     1      -8.893  12.462  68.656  1.00  0.00     0.129 SA 
HETATM    3  C   UNL     1      -8.661  10.788  69.225  1.00  0.00    -0.030 C  
HETATM    4  C   UNL     1      -9.310   9.726  68.378  1.00  0.00    -0.135 C  
HETATM    5  CA  UNL     1      -9.025  13.050  65.864  1.00  0.00     0.442 C  
HETATM    6  CA  UNL     1      -9.468   9.856  67.033  1.00  0.00    -0.160 C  
HETATM    7  C   UNL     1      -9.906   8.621  66.147  1.00  0.00    -0.198 C  
HETATM    8  O   UNL     1     -10.724  11.511  64.709  1.00  0.00    -0.290 OA 
HETATM    9  N   UNL     1      -9.137  11.031  66.395  1.00  0.00    -0.172 N  
HETATM   10  OXT UNL     1     -10.622   7.763  66.762  1.00  0.00    -0.331 OA 
HETATM   11  O   UNL     1      -9.340   8.536  65.026  1.00  0.00     0.136 OA 
HETATM   12  C   UNL     1      -9.772  11.737  65.424  1.00  0.00    -0.217 C  
ENDROOT
BRANCH   4  13
HETATM   13  C   UNL     1      -9.522   8.443  69.160  1.00  0.00    -0.155 C  
BRANCH  13  14
HETATM   14  N   UNL     1      -8.401   7.905  70.003  1.00  0.00    -0.120 NA 
HETATM   15  C   UNL     1      -8.314   7.970  71.356  1.00  0.00    -0.113 A  
HETATM   16  C   UNL     1      -9.303   8.505  72.353  1.00  0.00    -0.349 C  
HETATM   17  C   UNL     1      -8.605   8.333  73.719  1.00  0.00    -0.242 C  
HETATM   18  C   UNL     1      -7.323   7.426  69.313  1.00  0.00    -0.086 A  
HETATM   19  C   UNL     1      -7.259   7.643  73.506  1.00  0.00    -0.116 C  
HETATM   20  C   UNL     1      -6.152   7.022  69.951  1.00  0.00    -0.024 A  
HETATM   21  C   UNL     1      -6.059   7.073  71.328  1.00  0.00    -0.037 A  
HETATM   22  C   UNL     1      -7.154   7.546  72.021  1.00  0.00    -0.064 A  
ENDBRANCH  13  14
ENDBRANCH   4  13
BRANCH   5  23
HETATM   23  N   UNL     1      -9.949  14.110  66.354  1.00  0.00    -0.284 N  
HETATM   24  C   UNL     1      -9.567  15.385  66.738  1.00  0.00    -0.241 C  
HETATM   25  O   UNL     1      -8.451  15.834  66.529  1.00  0.00    -0.267 OA 
HETATM   26  H   UNL     1     -10.940  13.879  66.412  1.00  0.00     0.000 HD 
BRANCH  24  27
HETATM   27  C   UNL     1     -10.679  16.197  67.470  1.00  0.00    -0.304 C  
BRANCH  27  28
HETATM   28  C   UNL     1     -11.239  15.694  68.732  1.00  0.00    -0.332 A  
HETATM   29  N   UNL     1     -11.033  16.371  69.931  1.00  0.00    -0.361 NA 
HETATM   30  N   UNL     1     -11.551  16.206  72.191  1.00  0.00    -0.425 NA 
HETATM   31  C   UNL     1     -12.034  14.568  68.865  1.00  0.00    -0.290 A  
HETATM   32  S   UNL     1     -12.498  14.351  70.498  1.00  0.00    -0.365 SA 
HETATM   33  H1  UNL     1     -11.029  17.044  72.446  1.00  0.00     0.000 HD 
HETATM   34  H2  UNL     1     -12.039  15.687  72.922  1.00  0.00     0.000 HD 
HETATM   35  C   UNL     1     -11.619  15.763  70.929  1.00  0.00    -0.405 A  
ENDBRANCH  27  28
BRANCH  27  36
HETATM   36  N   UNL     1     -11.160  17.348  67.090  1.00  0.00     0.065 NA 
HETATM   37  H   UNL     1     -12.106  17.460  66.725  1.00  0.00     0.000 HD 
BRANCH  36  38
HETATM   38  O   UNL     1     -10.269  18.412  67.225  1.00  0.00    -0.338 OA 
HETATM   39  C   UNL     1     -10.486  19.297  66.127  1.00  0.00    -0.488 C  
ENDBRANCH  36  38
ENDBRANCH  27  36
ENDBRANCH  24  27
ENDBRANCH   5  23
TORSDOF 7
ENDMDL
MODEL      170
REMARK 921   NORMALIZED FREE ENERGY PREDICTED BY IDOCK:   -4.46 KCAL/MOL
REMARK 922        TOTAL FREE ENERGY PREDICTED BY IDOCK:   -7.49 KCAL/MOL
REMARK 923 INTER-LIGAND FREE ENERGY PREDICTED BY IDOCK:   -6.26 KCAL/MOL
REMARK 924 INTRA-LIGAND FREE ENERGY PREDICTED BY IDOCK:   -1.22 KCAL/MOL
REMARK 927      BINDING AFFINITY PREDICTED BY RF-SCORE:    0.00 PKD
ROOT
HETATM    1  C   UNL     1      -7.045   8.950  67.432  1.00  0.00    -0.079 C  
HETATM    2  S   UNL     1      -8.752   9.052  66.806  1.00  0.00    -0.125 SA 
HETATM    3  C   UNL     1      -8.634  10.755  66.291  1.00  0.00    -0.162 C  
HETATM    4  C   UNL     1      -8.100  11.705  67.328  1.00  0.00    -0.160 C  
HETATM    5  CA  UNL     1      -6.829   7.934  68.600  1.00  0.00    -0.063 C  
HETATM    6  CA  UNL     1      -7.192  11.329  68.269  1.00  0.00    -0.080 C  
HETATM    7  C   UNL     1      -6.460  12.408  69.165  1.00  0.00    -0.100 C  
HETATM    8  O   UNL     1      -6.558   9.436  70.664  1.00  0.00    -0.067 OA 
HETATM    9  N   UNL     1      -6.800  10.013  68.384  1.00  0.00    -0.062 N  
HETATM   10  OXT UNL     1      -7.141  13.468  69.368  1.00  0.00    -0.024 OA 
HETATM   11  O   UNL     1      -5.244  12.180  69.396  1.00  0.00    -0.063 OA 
HETATM   12  C   UNL     1      -6.604   9.224  69.471  1.00  0.00    -0.043 C  
ENDROOT
BRANCH   4  13
HETATM   13  C   UNL     1      -8.506  13.137  67.033  1.00  0.00    -0.132 C  
BRANCH  13  14
HETATM   14  N   UNL     1      -9.723  13.707  67.704  1.00  0.00    -0.222 NA 
HETATM   15  C   UNL     1      -9.937  15.014  68.000  1.00  0.00    -0.219 A  
HETATM   16  C   UNL     1      -9.090  16.215  67.687  1.00  0.00    -0.197 C  
HETATM   17  C   UNL     1      -9.851  17.399  68.322  1.00  0.00    -0.310 C  
HETATM   18  C   UNL     1     -10.626  12.789  68.164  1.00  0.00    -0.229 A  
HETATM   19  C   UNL     1     -11.154  16.883  68.930  1.00  0.00    -0.128 C  
HETATM   20  C   UNL     1     -11.733  13.153  68.927  1.00  0.00    -0.368 A  
HETATM   21  C   UNL     1     -11.965  14.482  69.223  1.00  0.00    -0.355 A  
HETATM   22  C   UNL     1     -11.058  15.406  68.747  1.00  0.00    -0.284 A  
ENDBRANCH  13  14
ENDBRANCH   4  13
BRANCH   5  23
HETATM   23  N   UNL     1      -8.015   7.141  69.028  1.00  0.00    -0.118 N  
HETATM   24  C   UNL     1      -8.068   5.758  69.094  1.00  0.00    -0.101 C  
HETATM   25  O   UNL     1      -7.078   5.051  68.992  1.00  0.00    -0.051 OA 
HETATM   26  H   UNL     1      -8.854   7.657  69.293  1.00  0.00     0.000 HD 
BRANCH  24  27
HETATM   27  C   UNL     1      -9.501   5.178  69.300  1.00  0.00    -0.140 C  
BRANCH  27  28
HETATM   28  C   UNL     1     -10.404   5.794  70.282  1.00  0.00    -0.252 A  
HETATM   29  N   UNL     1     -11.626   6.337  69.895  1.00  0.00    -0.402 NA 
HETATM   30  N   UNL     1     -13.469   7.423  70.803  1.00  0.00    -0.485 NA 
HETATM   31  C   UNL     1     -10.178   5.863  71.646  1.00  0.00    -0.202 A  
HETATM   32  S   UNL     1     -11.489   6.633  72.433  1.00  0.00    -0.239 SA 
HETATM   33  H1  UNL     1     -13.936   7.537  69.903  1.00  0.00     0.000 HD 
HETATM   34  H2  UNL     1     -13.927   7.775  71.644  1.00  0.00     0.000 HD 
HETATM   35  C   UNL     1     -12.276   6.826  70.918  1.00  0.00    -0.331 A  
ENDBRANCH  27  28
BRANCH  27  36
HETATM   36  N   UNL     1     -10.025   4.187  68.635  1.00  0.00     0.001 NA 
HETATM   37  H   UNL     1     -10.702   3.542  69.043  1.00  0.00     0.000 HD 
BRANCH  36  38
HETATM   38  O   UNL     1      -9.582   4.085  67.317  1.00  0.00    -0.188 OA 
HETATM   39  C   UNL     1     -10.310   5.037  66.543  1.00  0.00    -0.284 C  
ENDBRANCH  36  38
ENDBRANCH  27  36
ENDBRANCH  24  27
ENDBRANCH   5  23
TORSDOF 7
ENDMDL
MODEL      171
REMARK 921   NORMALIZED FREE ENERGY PREDICTED BY IDOCK:   -4.45 KCAL/MOL
REMARK 922        TOTAL FREE ENERGY PREDICTED BY IDOCK:   -7.49 KCAL/MOL
REMARK 923 INTER-LIGAND FREE ENERGY PREDICTED BY IDOCK:   -6.43 KCAL/MOL
REMARK 924 INTRA-LIGAND FREE ENERGY PREDICTED BY IDOCK:   -1.06 KCAL/MOL
REMARK 927      BINDING AFFINITY PREDICTED BY RF-SCORE:    0.00 PKD
ROOT
HETATM    1  C   UNL     1      -6.949   9.248  68.825  1.00  0.00    -0.061 C  
HETATM    2  S   UNL     1      -8.694   8.978  68.380  1.00  0.00    -0.130 SA 
HETATM    3  C   UNL     1      -8.668  10.056  66.960  1.00  0.00    -0.132 C  
HETATM    4  C   UNL     1      -8.103  11.428  67.204  1.00  0.00    -0.155 C  
HETATM    5  CA  UNL     1      -6.625   9.107  70.347  1.00  0.00    -0.054 C  
HETATM    6  CA  UNL     1      -7.125  11.667  68.119  1.00  0.00    -0.078 C  
HETATM    7  C   UNL     1      -6.375  13.059  68.160  1.00  0.00    -0.101 C  
HETATM    8  O   UNL     1      -6.277  11.530  71.117  1.00  0.00    -0.159 OA 
HETATM    9  N   UNL     1      -6.681  10.664  68.954  1.00  0.00    -0.058 N  
HETATM   10  OXT UNL     1      -7.078  14.043  67.753  1.00  0.00    -0.140 OA 
HETATM   11  O   UNL     1      -5.140  12.999  68.394  1.00  0.00    -0.062 OA 
HETATM   12  C   UNL     1      -6.390  10.660  70.280  1.00  0.00    -0.141 C  
ENDROOT
BRANCH   4  13
HETATM   13  C   UNL     1      -8.575  12.420  66.157  1.00  0.00     0.296 C  
BRANCH  13  14
HETATM   14  N   UNL     1     -10.035  12.763  66.079  1.00  0.00    -0.269 NA 
HETATM   15  C   UNL     1     -10.885  12.424  65.077  1.00  0.00    -0.295 A  
HETATM   16  C   UNL     1     -10.637  11.584  63.857  1.00  0.00    -0.448 C  
HETATM   17  C   UNL     1     -11.979  11.607  63.093  1.00  0.00    -0.113 C  
HETATM   18  C   UNL     1     -10.495  13.603  67.054  1.00  0.00    -0.270 A  
HETATM   19  C   UNL     1     -13.000  12.397  63.908  1.00  0.00    -0.271 C  
HETATM   20  C   UNL     1     -11.788  14.123  67.038  1.00  0.00    -0.458 A  
HETATM   21  C   UNL     1     -12.664  13.773  66.029  1.00  0.00    -0.407 A  
HETATM   22  C   UNL     1     -12.198  12.916  65.054  1.00  0.00    -0.515 A  
ENDBRANCH  13  14
ENDBRANCH   4  13
BRANCH   5  23
HETATM   23  N   UNL     1      -7.754   8.725  71.241  1.00  0.00    -0.117 N  
HETATM   24  C   UNL     1      -8.010   7.443  71.699  1.00  0.00    -0.098 C  
HETATM   25  O   UNL     1      -7.220   6.522  71.569  1.00  0.00    -0.079 OA 
HETATM   26  H   UNL     1      -8.387   9.467  71.540  1.00  0.00     0.000 HD 
BRANCH  24  27
HETATM   27  C   UNL     1      -9.401   7.271  72.384  1.00  0.00    -0.138 C  
BRANCH  27  28
HETATM   28  C   UNL     1      -9.891   5.926  72.715  1.00  0.00    -0.166 A  
HETATM   29  N   UNL     1      -9.369   4.796  72.091  1.00  0.00    -0.134 NA 
HETATM   30  N   UNL     1      -9.621   2.486  72.073  1.00  0.00    -0.120 NA 
HETATM   31  C   UNL     1     -10.849   5.635  73.670  1.00  0.00    -0.221 A  
HETATM   32  S   UNL     1     -11.109   3.945  73.763  1.00  0.00    -0.157 SA 
HETATM   33  H1  UNL     1      -8.923   2.343  71.342  1.00  0.00     0.000 HD 
HETATM   34  H2  UNL     1     -10.095   1.674  72.467  1.00  0.00     0.000 HD 
HETATM   35  C   UNL     1      -9.935   3.704  72.533  1.00  0.00    -0.161 A  
ENDBRANCH  27  28
BRANCH  27  36
HETATM   36  N   UNL     1     -10.196   8.238  72.750  1.00  0.00    -0.294 NA 
HETATM   37  H   UNL     1     -10.676   8.249  73.650  1.00  0.00     0.000 HD 
BRANCH  36  38
HETATM   38  O   UNL     1     -10.333   9.255  71.806  1.00  0.00    -0.328 OA 
HETATM   39  C   UNL     1     -11.725   9.403  71.532  1.00  0.00    -0.394 C  
ENDBRANCH  36  38
ENDBRANCH  27  36
ENDBRANCH  24  27
ENDBRANCH   5  23
TORSDOF 7
ENDMDL
MODEL      172
REMARK 921   NORMALIZED FREE ENERGY PREDICTED BY IDOCK:   -4.45 KCAL/MOL
REMARK 922        TOTAL FREE ENERGY PREDICTED BY IDOCK:   -7.48 KCAL/MOL
REMARK 923 INTER-LIGAND FREE ENERGY PREDICTED BY IDOCK:   -8.44 KCAL/MOL
REMARK 924 INTRA-LIGAND FREE ENERGY PREDICTED BY IDOCK:    0.96 KCAL/MOL
REMARK 927      BINDING AFFINITY PREDICTED BY RF-SCORE:    0.00 PKD
ROOT
HETATM    1  C   UNL     1      -9.305  12.897  66.585  1.00  0.00    -0.240 C  
HETATM    2  S   UNL     1     -10.824  13.100  67.567  1.00  0.00    -0.259 SA 
HETATM    3  C   UNL     1     -10.543  14.819  67.948  1.00  0.00    -0.248 C  
HETATM    4  C   UNL     1      -9.180  15.141  68.498  1.00  0.00    -0.192 C  
HETATM    5  CA  UNL     1      -8.701  11.456  66.591  1.00  0.00    -0.178 C  
HETATM    6  CA  UNL     1      -8.065  14.444  68.150  1.00  0.00    -0.137 C  
HETATM    7  C   UNL     1      -6.626  14.973  68.537  1.00  0.00    -0.096 C  
HETATM    8  O   UNL     1      -6.640  11.671  68.104  1.00  0.00    -0.058 OA 
HETATM    9  N   UNL     1      -8.154  13.324  67.353  1.00  0.00    -0.178 N  
HETATM   10  OXT UNL     1      -6.595  15.675  69.602  1.00  0.00    -0.167 OA 
HETATM   11  O   UNL     1      -5.739  14.811  67.658  1.00  0.00    -0.299 OA 
HETATM   12  C   UNL     1      -7.545  12.113  67.430  1.00  0.00    -0.155 C  
ENDROOT
BRANCH   4  13
HETATM   13  C   UNL     1      -9.184  16.452  69.262  1.00  0.00    -0.155 C  
BRANCH  13  14
HETATM   14  N   UNL     1      -9.294  17.743  68.503  1.00  0.00    -0.291 NA 
HETATM   15  C   UNL     1      -8.329  18.691  68.390  1.00  0.00    -0.334 A  
HETATM   16  C   UNL     1      -6.917  18.683  68.905  1.00  0.00    -0.314 C  
HETATM   17  C   UNL     1      -6.348  20.057  68.490  1.00  0.00    -0.322 C  
HETATM   18  C   UNL     1     -10.531  18.024  67.996  1.00  0.00    -0.375 A  
HETATM   19  C   UNL     1      -7.405  20.810  67.686  1.00  0.00    -0.304 C  
HETATM   20  C   UNL     1     -10.827  19.244  67.388  1.00  0.00    -0.554 A  
HETATM   21  C   UNL     1      -9.848  20.209  67.259  1.00  0.00    -0.580 A  
HETATM   22  C   UNL     1      -8.597  19.915  67.762  1.00  0.00    -0.370 A  
ENDBRANCH  13  14
ENDBRANCH   4  13
BRANCH   5  23
HETATM   23  N   UNL     1      -9.453  10.416  67.348  1.00  0.00    -0.149 N  
HETATM   24  C   UNL     1      -9.120   9.951  68.610  1.00  0.00    -0.132 C  
HETATM   25  O   UNL     1      -8.280  10.489  69.314  1.00  0.00    -0.153 OA 
HETATM   26  H   UNL     1     -10.278  10.015  66.902  1.00  0.00     0.000 HD 
BRANCH  24  27
HETATM   27  C   UNL     1      -9.899   8.674  69.051  1.00  0.00    -0.182 C  
BRANCH  27  28
HETATM   28  C   UNL     1      -9.470   7.934  70.245  1.00  0.00    -0.163 A  
HETATM   29  N   UNL     1      -9.550   8.502  71.513  1.00  0.00    -0.204 NA 
HETATM   30  N   UNL     1      -9.084   7.998  73.734  1.00  0.00    -0.301 NA 
HETATM   31  C   UNL     1      -8.999   6.631  70.255  1.00  0.00    -0.152 A  
HETATM   32  S   UNL     1      -8.636   6.136  71.853  1.00  0.00    -0.132 SA 
HETATM   33  H1  UNL     1      -9.374   8.912  74.078  1.00  0.00     0.000 HD 
HETATM   34  H2  UNL     1      -8.749   7.303  74.401  1.00  0.00     0.000 HD 
HETATM   35  C   UNL     1      -9.126   7.677  72.434  1.00  0.00    -0.143 A  
ENDBRANCH  27  28
BRANCH  27  36
HETATM   36  N   UNL     1     -10.965   8.194  68.475  1.00  0.00    -0.415 NA 
HETATM   37  H   UNL     1     -11.815   7.960  68.988  1.00  0.00     0.000 HD 
BRANCH  36  38
HETATM   38  O   UNL     1     -10.843   8.026  67.096  1.00  0.00    -0.278 OA 
HETATM   39  C   UNL     1     -10.267   6.740  66.869  1.00  0.00    -0.231 C  
ENDBRANCH  36  38
ENDBRANCH  27  36
ENDBRANCH  24  27
ENDBRANCH   5  23
TORSDOF 7
ENDMDL
MODEL      173
REMARK 921   NORMALIZED FREE ENERGY PREDICTED BY IDOCK:   -4.42 KCAL/MOL
REMARK 922        TOTAL FREE ENERGY PREDICTED BY IDOCK:   -7.44 KCAL/MOL
REMARK 923 INTER-LIGAND FREE ENERGY PREDICTED BY IDOCK:   -7.59 KCAL/MOL
REMARK 924 INTRA-LIGAND FREE ENERGY PREDICTED BY IDOCK:    0.15 KCAL/MOL
REMARK 927      BINDING AFFINITY PREDICTED BY RF-SCORE:    0.00 PKD
ROOT
HETATM    1  C   UNL     1      -7.020   9.077  68.197  1.00  0.00    -0.077 C  
HETATM    2  S   UNL     1      -7.673   9.286  69.884  1.00  0.00    -0.117 SA 
HETATM    3  C   UNL     1      -7.182   7.667  70.448  1.00  0.00    -0.063 C  
HETATM    4  C   UNL     1      -7.596   6.524  69.561  1.00  0.00    -0.095 C  
HETATM    5  CA  UNL     1      -7.770   9.890  67.093  1.00  0.00    -0.092 C  
HETATM    6  CA  UNL     1      -7.710   6.647  68.211  1.00  0.00    -0.105 C  
HETATM    7  C   UNL     1      -7.884   5.371  67.293  1.00  0.00    -0.101 C  
HETATM    8  O   UNL     1      -9.120   8.102  65.841  1.00  0.00    -0.177 OA 
HETATM    9  N   UNL     1      -7.557   7.873  67.600  1.00  0.00    -0.107 N  
HETATM   10  OXT UNL     1      -8.469   4.392  67.864  1.00  0.00    -0.097 OA 
HETATM   11  O   UNL     1      -7.259   5.405  66.201  1.00  0.00    -0.074 OA 
HETATM   12  C   UNL     1      -8.257   8.476  66.605  1.00  0.00    -0.108 C  
ENDROOT
BRANCH   4  13
HETATM   13  C   UNL     1      -7.620   5.210  70.320  1.00  0.00    -0.071 C  
BRANCH  13  14
HETATM   14  N   UNL     1      -8.676   4.986  71.364  1.00  0.00    -0.129 NA 
HETATM   15  C   UNL     1      -9.936   5.490  71.350  1.00  0.00    -0.186 A  
HETATM   16  C   UNL     1     -10.625   6.313  70.298  1.00  0.00    -0.305 C  
HETATM   17  C   UNL     1     -12.022   6.603  70.888  1.00  0.00    -0.413 C  
HETATM   18  C   UNL     1      -8.265   4.317  72.483  1.00  0.00    -0.100 A  
HETATM   19  C   UNL     1     -12.150   5.892  72.234  1.00  0.00    -0.138 C  
HETATM   20  C   UNL     1      -9.088   4.154  73.596  1.00  0.00    -0.094 A  
HETATM   21  C   UNL     1     -10.376   4.652  73.585  1.00  0.00    -0.249 A  
HETATM   22  C   UNL     1     -10.790   5.316  72.449  1.00  0.00    -0.283 A  
ENDBRANCH  13  14
ENDBRANCH   4  13
BRANCH   5  23
HETATM   23  N   UNL     1      -8.886  10.767  67.546  1.00  0.00    -0.129 N  
HETATM   24  C   UNL     1     -10.174  10.339  67.825  1.00  0.00    -0.187 C  
HETATM   25  O   UNL     1     -10.476   9.159  67.913  1.00  0.00    -0.227 OA 
HETATM   26  H   UNL     1      -8.686  11.760  67.659  1.00  0.00     0.000 HD 
BRANCH  24  27
HETATM   27  C   UNL     1     -11.210  11.490  68.005  1.00  0.00    -0.269 C  
BRANCH  27  28
HETATM   28  C   UNL     1     -11.595  12.313  66.851  1.00  0.00    -0.361 A  
HETATM   29  N   UNL     1     -12.147  11.739  65.709  1.00  0.00    -0.250 NA 
HETATM   30  N   UNL     1     -12.945  12.339  63.610  1.00  0.00    -0.792 NA 
HETATM   31  C   UNL     1     -11.502  13.693  66.782  1.00  0.00    -0.346 A  
HETATM   32  S   UNL     1     -12.083  14.259  65.275  1.00  0.00    -0.399 SA 
HETATM   33  H1  UNL     1     -13.147  11.379  63.333  1.00  0.00     0.000 HD 
HETATM   34  H2  UNL     1     -13.145  13.094  62.955  1.00  0.00     0.000 HD 
HETATM   35  C   UNL     1     -12.424  12.642  64.807  1.00  0.00    -0.484 A  
ENDBRANCH  27  28
BRANCH  27  36
HETATM   36  N   UNL     1     -11.832  11.791  69.111  1.00  0.00    -0.321 NA 
HETATM   37  H   UNL     1     -11.655  12.650  69.631  1.00  0.00     0.000 HD 
BRANCH  36  38
HETATM   38  O   UNL     1     -12.760  10.835  69.522  1.00  0.00    -0.257 OA 
HETATM   39  C   UNL     1     -12.441  10.475  70.865  1.00  0.00    -0.390 C  
ENDBRANCH  36  38
ENDBRANCH  27  36
ENDBRANCH  24  27
ENDBRANCH   5  23
TORSDOF 7
ENDMDL
MODEL      174
REMARK 921   NORMALIZED FREE ENERGY PREDICTED BY IDOCK:   -4.38 KCAL/MOL
REMARK 922        TOTAL FREE ENERGY PREDICTED BY IDOCK:   -7.38 KCAL/MOL
REMARK 923 INTER-LIGAND FREE ENERGY PREDICTED BY IDOCK:   -6.95 KCAL/MOL
REMARK 924 INTRA-LIGAND FREE ENERGY PREDICTED BY IDOCK:   -0.43 KCAL/MOL
REMARK 927      BINDING AFFINITY PREDICTED BY RF-SCORE:    0.00 PKD
ROOT
HETATM    1  C   UNL     1      -8.001  10.075  69.379  1.00  0.00    -0.145 C  
HETATM    2  S   UNL     1      -9.768   9.987  69.807  1.00  0.00    -0.197 SA 
HETATM    3  C   UNL     1      -9.925   8.240  69.488  1.00  0.00    -0.187 C  
HETATM    4  C   UNL     1      -9.395   7.778  68.158  1.00  0.00    -0.148 C  
HETATM    5  CA  UNL     1      -7.524  11.454  68.819  1.00  0.00    -0.124 C  
HETATM    6  CA  UNL     1      -8.343   8.379  67.539  1.00  0.00    -0.129 C  
HETATM    7  C   UNL     1      -7.651   7.709  66.284  1.00  0.00    -0.088 C  
HETATM    8  O   UNL     1      -7.202  11.009  66.312  1.00  0.00    -0.138 OA 
HETATM    9  N   UNL     1      -7.779   9.524  68.059  1.00  0.00    -0.087 N  
HETATM   10  OXT UNL     1      -8.430   6.979  65.585  1.00  0.00    -0.146 OA 
HETATM   11  O   UNL     1      -6.398   7.813  66.242  1.00  0.00    -0.044 OA 
HETATM   12  C   UNL     1      -7.360  10.671  67.465  1.00  0.00    -0.091 C  
ENDROOT
BRANCH   4  13
HETATM   13  C   UNL     1     -10.008   6.454  67.743  1.00  0.00    -0.128 C  
BRANCH  13  14
HETATM   14  N   UNL     1      -9.255   5.182  68.012  1.00  0.00    -0.113 NA 
HETATM   15  C   UNL     1      -8.233   5.027  68.891  1.00  0.00    -0.084 A  
HETATM   16  C   UNL     1      -7.643   6.017  69.855  1.00  0.00    -0.081 C  
HETATM   17  C   UNL     1      -6.490   5.250  70.538  1.00  0.00    -0.031 C  
HETATM   18  C   UNL     1      -9.561   4.133  67.192  1.00  0.00    -0.197 A  
HETATM   19  C   UNL     1      -6.470   3.815  70.016  1.00  0.00    -0.032 C  
HETATM   20  C   UNL     1      -8.853   2.932  67.224  1.00  0.00    -0.162 A  
HETATM   21  C   UNL     1      -7.820   2.761  68.124  1.00  0.00    -0.055 A  
HETATM   22  C   UNL     1      -7.523   3.819  68.958  1.00  0.00    -0.053 A  
ENDBRANCH  13  14
ENDBRANCH   4  13
BRANCH   5  23
HETATM   23  N   UNL     1      -8.543  12.538  68.746  1.00  0.00    -0.373 N  
HETATM   24  C   UNL     1      -8.313  13.818  68.267  1.00  0.00    -0.161 C  
HETATM   25  O   UNL     1      -7.293  14.130  67.674  1.00  0.00    -0.149 OA 
HETATM   26  H   UNL     1      -9.484  12.321  69.075  1.00  0.00     0.000 HD 
BRANCH  24  27
HETATM   27  C   UNL     1      -9.463  14.830  68.561  1.00  0.00    -0.214 C  
BRANCH  27  28
HETATM   28  C   UNL     1      -9.833  15.828  67.548  1.00  0.00    -0.229 A  
HETATM   29  N   UNL     1     -10.406  15.448  66.338  1.00  0.00    -0.285 NA 
HETATM   30  N   UNL     1     -11.199  16.380  64.362  1.00  0.00    -1.159 NA 
HETATM   31  C   UNL     1      -9.703  17.199  67.688  1.00  0.00    -0.263 A  
HETATM   32  S   UNL     1     -10.277  18.003  66.290  1.00  0.00    -0.347 SA 
HETATM   33  H1  UNL     1     -11.429  15.478  63.944  1.00  0.00     0.000 HD 
HETATM   34  H2  UNL     1     -11.383  17.231  63.831  1.00  0.00     0.000 HD 
HETATM   35  C   UNL     1     -10.664  16.485  65.586  1.00  0.00    -0.248 A  
ENDBRANCH  27  28
BRANCH  27  36
HETATM   36  N   UNL     1     -10.194  14.863  69.640  1.00  0.00    -0.413 NA 
HETATM   37  H   UNL     1      -9.815  15.088  70.559  1.00  0.00     0.000 HD 
BRANCH  36  38
HETATM   38  O   UNL     1     -11.539  14.563  69.428  1.00  0.00    -0.268 OA 
HETATM   39  C   UNL     1     -12.294  15.236  70.434  1.00  0.00    -0.380 C  
ENDBRANCH  36  38
ENDBRANCH  27  36
ENDBRANCH  24  27
ENDBRANCH   5  23
TORSDOF 7
ENDMDL
MODEL      175
REMARK 921   NORMALIZED FREE ENERGY PREDICTED BY IDOCK:   -4.36 KCAL/MOL
REMARK 922        TOTAL FREE ENERGY PREDICTED BY IDOCK:   -7.35 KCAL/MOL
REMARK 923 INTER-LIGAND FREE ENERGY PREDICTED BY IDOCK:   -7.96 KCAL/MOL
REMARK 924 INTRA-LIGAND FREE ENERGY PREDICTED BY IDOCK:    0.61 KCAL/MOL
REMARK 927      BINDING AFFINITY PREDICTED BY RF-SCORE:    0.00 PKD
ROOT
HETATM    1  C   UNL     1     -11.458  14.020  68.173  1.00  0.00    -0.309 C  
HETATM    2  S   UNL     1     -10.898  13.775  69.888  1.00  0.00     0.486 SA 
HETATM    3  C   UNL     1     -10.070  15.349  70.014  1.00  0.00    -0.207 C  
HETATM    4  C   UNL     1      -9.117  15.666  68.894  1.00  0.00    -0.217 C  
HETATM    5  CA  UNL     1     -11.624  12.709  67.339  1.00  0.00    -0.360 C  
HETATM    6  CA  UNL     1      -9.305  15.221  67.622  1.00  0.00    -0.199 C  
HETATM    7  C   UNL     1      -8.438  15.789  66.428  1.00  0.00    -0.278 C  
HETATM    8  O   UNL     1      -9.608  12.746  65.751  1.00  0.00    -0.207 OA 
HETATM    9  N   UNL     1     -10.334  14.354  67.325  1.00  0.00    -0.259 N  
HETATM   10  OXT UNL     1      -7.271  16.178  66.768  1.00  0.00    -0.214 OA 
HETATM   11  O   UNL     1      -9.060  15.972  65.350  1.00  0.00    -0.233 OA 
HETATM   12  C   UNL     1     -10.379  13.245  66.542  1.00  0.00    -0.285 C  
ENDROOT
BRANCH   4  13
HETATM   13  C   UNL     1      -8.100  16.714  69.307  1.00  0.00    -0.044 C  
BRANCH  13  14
HETATM   14  N   UNL     1      -8.102  18.049  68.619  1.00  0.00    -0.303 NA 
HETATM   15  C   UNL     1      -9.183  18.677  68.092  1.00  0.00    -0.313 A  
HETATM   16  C   UNL     1     -10.629  18.270  68.114  1.00  0.00    -0.304 C  
HETATM   17  C   UNL     1     -11.353  19.375  67.315  1.00  0.00     0.203 C  
HETATM   18  C   UNL     1      -6.870  18.601  68.402  1.00  0.00    -0.249 A  
HETATM   19  C   UNL     1     -10.335  20.436  66.901  1.00  0.00    -0.311 C  
HETATM   20  C   UNL     1      -6.698  19.765  67.655  1.00  0.00    -0.268 A  
HETATM   21  C   UNL     1      -7.794  20.417  67.126  1.00  0.00    -0.378 A  
HETATM   22  C   UNL     1      -9.036  19.863  67.357  1.00  0.00    -0.422 A  
ENDBRANCH  13  14
ENDBRANCH   4  13
BRANCH   5  23
HETATM   23  N   UNL     1     -11.356  11.425  68.045  1.00  0.00    -0.281 N  
HETATM   24  C   UNL     1     -11.002  10.236  67.429  1.00  0.00    -0.252 C  
HETATM   25  O   UNL     1     -10.683  10.167  66.252  1.00  0.00    -0.108 OA 
HETATM   26  H   UNL     1     -11.441  11.421  69.061  1.00  0.00     0.000 HD 
BRANCH  24  27
HETATM   27  C   UNL     1     -11.055   8.987  68.363  1.00  0.00     0.215 C  
BRANCH  27  28
HETATM   28  C   UNL     1     -10.518   7.702  67.895  1.00  0.00    -0.207 A  
HETATM   29  N   UNL     1     -11.222   6.915  66.988  1.00  0.00    -0.282 NA 
HETATM   30  N   UNL     1     -11.046   4.888  65.864  1.00  0.00    -0.839 NA 
HETATM   31  C   UNL     1      -9.290   7.169  68.249  1.00  0.00    -0.130 A  
HETATM   32  S   UNL     1      -9.037   5.671  67.462  1.00  0.00    -0.105 SA 
HETATM   33  H1  UNL     1     -11.955   4.978  65.411  1.00  0.00     0.000 HD 
HETATM   34  H2  UNL     1     -10.480   4.061  65.675  1.00  0.00     0.000 HD 
HETATM   35  C   UNL     1     -10.568   5.821  66.699  1.00  0.00    -0.280 A  
ENDBRANCH  27  28
BRANCH  27  36
HETATM   36  N   UNL     1     -11.506   8.968  69.586  1.00  0.00    -0.422 NA 
HETATM   37  H   UNL     1     -12.338   8.446  69.861  1.00  0.00     0.000 HD 
BRANCH  36  38
HETATM   38  O   UNL     1     -10.754   9.723  70.485  1.00  0.00    -0.275 OA 
HETATM   39  C   UNL     1     -10.340   8.852  71.536  1.00  0.00    -0.324 C  
ENDBRANCH  36  38
ENDBRANCH  27  36
ENDBRANCH  24  27
ENDBRANCH   5  23
TORSDOF 7
ENDMDL
MODEL      176
REMARK 921   NORMALIZED FREE ENERGY PREDICTED BY IDOCK:   -4.35 KCAL/MOL
REMARK 922        TOTAL FREE ENERGY PREDICTED BY IDOCK:   -7.34 KCAL/MOL
REMARK 923 INTER-LIGAND FREE ENERGY PREDICTED BY IDOCK:   -6.86 KCAL/MOL
REMARK 924 INTRA-LIGAND FREE ENERGY PREDICTED BY IDOCK:   -0.49 KCAL/MOL
REMARK 927      BINDING AFFINITY PREDICTED BY RF-SCORE:    0.00 PKD
ROOT
HETATM    1  C   UNL     1      -8.209  11.860  68.849  1.00  0.00     0.093 C  
HETATM    2  S   UNL     1      -9.903  12.360  68.405  1.00  0.00    -0.162 SA 
HETATM    3  C   UNL     1     -10.542  10.698  68.309  1.00  0.00    -0.194 C  
HETATM    4  C   UNL     1      -9.737   9.747  67.465  1.00  0.00    -0.192 C  
HETATM    5  CA  UNL     1      -7.087  12.843  68.384  1.00  0.00    -0.099 C  
HETATM    6  CA  UNL     1      -8.387   9.848  67.332  1.00  0.00    -0.118 C  
HETATM    7  C   UNL     1      -7.550   8.686  66.661  1.00  0.00    -0.089 C  
HETATM    8  O   UNL     1      -5.987  11.617  66.416  1.00  0.00    -0.142 OA 
HETATM    9  N   UNL     1      -7.701  10.909  67.883  1.00  0.00    -0.102 N  
HETATM   10  OXT UNL     1      -8.196   8.010  65.793  1.00  0.00    -0.116 OA 
HETATM   11  O   UNL     1      -6.437   8.446  67.197  1.00  0.00    -0.056 OA 
HETATM   12  C   UNL     1      -6.698  11.684  67.396  1.00  0.00    -0.108 C  
ENDROOT
BRANCH   4  13
HETATM   13  C   UNL     1     -10.570   8.564  67.010  1.00  0.00    -0.235 C  
BRANCH  13  14
HETATM   14  N   UNL     1     -10.570   7.307  67.832  1.00  0.00    -0.213 NA 
HETATM   15  C   UNL     1     -10.675   7.234  69.183  1.00  0.00    -0.185 A  
HETATM   16  C   UNL     1     -10.888   8.332  70.186  1.00  0.00    -0.237 C  
HETATM   17  C   UNL     1     -10.877   7.615  71.553  1.00  0.00    -0.256 C  
HETATM   18  C   UNL     1     -10.310   6.154  67.146  1.00  0.00    -0.230 A  
HETATM   19  C   UNL     1     -10.728   6.112  71.323  1.00  0.00    -0.310 C  
HETATM   20  C   UNL     1     -10.138   4.929  67.787  1.00  0.00    -0.158 A  
HETATM   21  C   UNL     1     -10.256   4.843  69.161  1.00  0.00    -0.186 A  
HETATM   22  C   UNL     1     -10.530   6.008  69.848  1.00  0.00    -0.313 A  
ENDBRANCH  13  14
ENDBRANCH   4  13
BRANCH   5  23
HETATM   23  N   UNL     1      -7.527  14.083  67.685  1.00  0.00    -0.161 N  
HETATM   24  C   UNL     1      -7.809  15.290  68.303  1.00  0.00    -0.116 C  
HETATM   25  O   UNL     1      -7.538  15.516  69.472  1.00  0.00    -0.215 OA 
HETATM   26  H   UNL     1      -7.629  14.039  66.671  1.00  0.00     0.000 HD 
BRANCH  24  27
HETATM   27  C   UNL     1      -8.514  16.334  67.384  1.00  0.00    -0.172 C  
BRANCH  27  28
HETATM   28  C   UNL     1      -7.720  17.379  66.723  1.00  0.00    -0.238 A  
HETATM   29  N   UNL     1      -8.239  18.654  66.514  1.00  0.00    -0.279 NA 
HETATM   30  N   UNL     1      -7.640  20.701  65.590  1.00  0.00    -0.486 NA 
HETATM   31  C   UNL     1      -6.412  17.240  66.291  1.00  0.00    -0.197 A  
HETATM   32  S   UNL     1      -5.849  18.702  65.603  1.00  0.00    -0.222 SA 
HETATM   33  H1  UNL     1      -8.544  21.133  65.779  1.00  0.00     0.000 HD 
HETATM   34  H2  UNL     1      -6.915  21.255  65.135  1.00  0.00     0.000 HD 
HETATM   35  C   UNL     1      -7.372  19.430  65.920  1.00  0.00    -0.287 A  
ENDBRANCH  27  28
BRANCH  27  36
HETATM   36  N   UNL     1      -9.784  16.358  67.090  1.00  0.00    -0.235 NA 
HETATM   37  H   UNL     1     -10.342  17.211  67.112  1.00  0.00     0.000 HD 
BRANCH  36  38
HETATM   38  O   UNL     1     -10.313  15.116  66.741  1.00  0.00    -0.263 OA 
HETATM   39  C   UNL     1     -10.282  15.019  65.318  1.00  0.00    -0.377 C  
ENDBRANCH  36  38
ENDBRANCH  27  36
ENDBRANCH  24  27
ENDBRANCH   5  23
TORSDOF 7
ENDMDL
MODEL      177
REMARK 921   NORMALIZED FREE ENERGY PREDICTED BY IDOCK:   -4.35 KCAL/MOL
REMARK 922        TOTAL FREE ENERGY PREDICTED BY IDOCK:   -7.34 KCAL/MOL
REMARK 923 INTER-LIGAND FREE ENERGY PREDICTED BY IDOCK:   -7.21 KCAL/MOL
REMARK 924 INTRA-LIGAND FREE ENERGY PREDICTED BY IDOCK:   -0.12 KCAL/MOL
REMARK 927      BINDING AFFINITY PREDICTED BY RF-SCORE:    0.00 PKD
ROOT
HETATM    1  C   UNL     1      -9.203  10.154  69.445  1.00  0.00    -0.214 C  
HETATM    2  S   UNL     1      -8.889   9.118  67.981  1.00  0.00    -0.128 SA 
HETATM    3  C   UNL     1      -9.001  10.456  66.808  1.00  0.00    -0.140 C  
HETATM    4  C   UNL     1     -10.225  11.322  66.934  1.00  0.00    -0.254 C  
HETATM    5  CA  UNL     1      -9.894   9.420  70.639  1.00  0.00    -0.276 C  
HETATM    6  CA  UNL     1     -10.840  11.554  68.125  1.00  0.00    -0.215 C  
HETATM    7  C   UNL     1     -11.952  12.671  68.258  1.00  0.00    -0.222 C  
HETATM    8  O   UNL     1     -12.299  10.314  70.586  1.00  0.00    -0.299 OA 
HETATM    9  N   UNL     1     -10.427  10.907  69.270  1.00  0.00    -0.218 N  
HETATM   10  OXT UNL     1     -12.607  12.887  67.185  1.00  0.00    -0.094 OA 
HETATM   11  O   UNL     1     -11.921  13.337  69.326  1.00  0.00    -0.312 OA 
HETATM   12  C   UNL     1     -11.127  10.328  70.278  1.00  0.00    -0.319 C  
ENDROOT
BRANCH   4  13
HETATM   13  C   UNL     1     -10.514  12.068  65.645  1.00  0.00    -0.256 C  
BRANCH  13  14
HETATM   14  N   UNL     1     -10.252  13.546  65.580  1.00  0.00    -0.298 NA 
HETATM   15  C   UNL     1      -9.345  14.232  66.320  1.00  0.00    -0.208 A  
HETATM   16  C   UNL     1      -8.341  13.722  67.313  1.00  0.00    -0.186 C  
HETATM   17  C   UNL     1      -7.640  14.993  67.841  1.00  0.00    -0.150 C  
HETATM   18  C   UNL     1     -11.106  14.260  64.787  1.00  0.00    -0.391 A  
HETATM   19  C   UNL     1      -8.195  16.209  67.102  1.00  0.00    -0.225 C  
HETATM   20  C   UNL     1     -11.080  15.653  64.731  1.00  0.00    -0.426 A  
HETATM   21  C   UNL     1     -10.153  16.359  65.472  1.00  0.00    -0.238 A  
HETATM   22  C   UNL     1      -9.285  15.632  66.261  1.00  0.00    -0.365 A  
ENDBRANCH  13  14
ENDBRANCH   4  13
BRANCH   5  23
HETATM   23  N   UNL     1     -10.170   7.966  70.465  1.00  0.00    -0.197 N  
HETATM   24  C   UNL     1      -9.834   6.977  71.374  1.00  0.00    -0.177 C  
HETATM   25  O   UNL     1      -9.448   7.220  72.507  1.00  0.00    -0.143 OA 
HETATM   26  H   UNL     1     -10.642   7.678  69.608  1.00  0.00     0.000 HD 
BRANCH  24  27
HETATM   27  C   UNL     1      -9.980   5.524  70.827  1.00  0.00    -0.201 C  
BRANCH  27  28
HETATM   28  C   UNL     1      -9.704   4.380  71.707  1.00  0.00    -0.170 A  
HETATM   29  N   UNL     1     -10.738   3.651  72.287  1.00  0.00     0.101 NA 
HETATM   30  N   UNL     1     -11.076   1.843  73.706  1.00  0.00    -0.170 NA 
HETATM   31  C   UNL     1      -8.446   3.890  72.014  1.00  0.00    -0.099 A  
HETATM   32  S   UNL     1      -8.567   2.532  73.049  1.00  0.00    -0.071 SA 
HETATM   33  H1  UNL     1     -12.092   1.929  73.692  1.00  0.00     0.000 HD 
HETATM   34  H2  UNL     1     -10.652   1.097  74.258  1.00  0.00     0.000 HD 
HETATM   35  C   UNL     1     -10.279   2.676  73.025  1.00  0.00    -0.142 A  
ENDBRANCH  27  28
BRANCH  27  36
HETATM   36  N   UNL     1     -10.380   5.196  69.630  1.00  0.00    -0.272 NA 
HETATM   37  H   UNL     1     -11.364   5.109  69.379  1.00  0.00     0.000 HD 
BRANCH  36  38
HETATM   38  O   UNL     1      -9.344   4.974  68.722  1.00  0.00    -0.116 OA 
HETATM   39  C   UNL     1      -9.635   3.763  68.026  1.00  0.00    -0.119 C  
ENDBRANCH  36  38
ENDBRANCH  27  36
ENDBRANCH  24  27
ENDBRANCH   5  23
TORSDOF 7
ENDMDL
MODEL      178
REMARK 921   NORMALIZED FREE ENERGY PREDICTED BY IDOCK:   -4.34 KCAL/MOL
REMARK 922        TOTAL FREE ENERGY PREDICTED BY IDOCK:   -7.33 KCAL/MOL
REMARK 923 INTER-LIGAND FREE ENERGY PREDICTED BY IDOCK:   -6.17 KCAL/MOL
REMARK 924 INTRA-LIGAND FREE ENERGY PREDICTED BY IDOCK:   -1.16 KCAL/MOL
REMARK 927      BINDING AFFINITY PREDICTED BY RF-SCORE:    0.00 PKD
ROOT
HETATM    1  C   UNL     1      -7.329  10.543  67.497  1.00  0.00    -0.092 C  
HETATM    2  S   UNL     1      -7.953  10.710  69.199  1.00  0.00    -0.121 SA 
HETATM    3  C   UNL     1      -7.931   8.963  69.552  1.00  0.00    -0.092 C  
HETATM    4  C   UNL     1      -8.607   8.091  68.529  1.00  0.00    -0.128 C  
HETATM    5  CA  UNL     1      -7.801  11.657  66.507  1.00  0.00    -0.025 C  
HETATM    6  CA  UNL     1      -8.643   8.405  67.206  1.00  0.00    -0.123 C  
HETATM    7  C   UNL     1      -9.123   7.346  66.135  1.00  0.00    -0.126 C  
HETATM    8  O   UNL     1      -9.541  10.465  65.044  1.00  0.00    -0.231 OA 
HETATM    9  N   UNL     1      -8.150   9.610  66.754  1.00  0.00    -0.112 N  
HETATM   10  OXT UNL     1      -9.966   6.498  66.579  1.00  0.00    -0.161 OA 
HETATM   11  O   UNL     1      -8.479   7.344  65.053  1.00  0.00    -0.094 OA 
HETATM   12  C   UNL     1      -8.633  10.497  65.847  1.00  0.00    -0.164 C  
ENDROOT
BRANCH   4  13
HETATM   13  C   UNL     1      -9.004   6.749  69.116  1.00  0.00    -0.132 C  
BRANCH  13  14
HETATM   14  N   UNL     1      -8.007   5.626  69.118  1.00  0.00    -0.095 NA 
HETATM   15  C   UNL     1      -8.248   4.341  68.755  1.00  0.00    -0.079 A  
HETATM   16  C   UNL     1      -9.500   3.722  68.202  1.00  0.00    -0.216 C  
HETATM   17  C   UNL     1      -9.151   2.228  68.034  1.00  0.00    -0.223 C  
HETATM   18  C   UNL     1      -6.788   5.922  69.660  1.00  0.00    -0.061 A  
HETATM   19  C   UNL     1      -7.690   2.012  68.424  1.00  0.00    -0.053 C  
HETATM   20  C   UNL     1      -5.807   4.952  69.860  1.00  0.00    -0.017 A  
HETATM   21  C   UNL     1      -6.039   3.644  69.483  1.00  0.00    -0.024 A  
HETATM   22  C   UNL     1      -7.267   3.353  68.925  1.00  0.00    -0.049 A  
ENDBRANCH  13  14
ENDBRANCH   4  13
BRANCH   5  23
HETATM   23  N   UNL     1      -8.656  12.739  67.072  1.00  0.00    -0.272 N  
HETATM   24  C   UNL     1      -8.197  13.970  67.509  1.00  0.00    -0.186 C  
HETATM   25  O   UNL     1      -7.063  14.369  67.297  1.00  0.00    -0.163 OA 
HETATM   26  H   UNL     1      -9.657  12.558  67.141  1.00  0.00     0.000 HD 
BRANCH  24  27
HETATM   27  C   UNL     1      -9.248  14.801  68.307  1.00  0.00    -0.187 C  
BRANCH  27  28
HETATM   28  C   UNL     1      -9.582  16.165  67.875  1.00  0.00    -0.223 A  
HETATM   29  N   UNL     1      -9.450  17.248  68.740  1.00  0.00    -0.271 NA 
HETATM   30  N   UNL     1      -9.770  19.549  68.789  1.00  0.00    -0.428 NA 
HETATM   31  C   UNL     1     -10.005  16.523  66.606  1.00  0.00    -0.276 A  
HETATM   32  S   UNL     1     -10.258  18.214  66.513  1.00  0.00    -0.395 SA 
HETATM   33  H1  UNL     1      -9.492  19.640  69.766  1.00  0.00     0.000 HD 
HETATM   34  H2  UNL     1     -10.041  20.387  68.273  1.00  0.00     0.000 HD 
HETATM   35  C   UNL     1      -9.791  18.367  68.159  1.00  0.00    -0.342 A  
ENDBRANCH  27  28
BRANCH  27  36
HETATM   36  N   UNL     1      -9.926  14.384  69.340  1.00  0.00    -0.423 NA 
HETATM   37  H   UNL     1      -9.765  14.730  70.285  1.00  0.00     0.000 HD 
BRANCH  36  38
HETATM   38  O   UNL     1     -10.892  13.423  69.040  1.00  0.00    -0.245 OA 
HETATM   39  C   UNL     1     -12.152  13.928  69.478  1.00  0.00    -0.342 C  
ENDBRANCH  36  38
ENDBRANCH  27  36
ENDBRANCH  24  27
ENDBRANCH   5  23
TORSDOF 7
ENDMDL
MODEL      179
REMARK 921   NORMALIZED FREE ENERGY PREDICTED BY IDOCK:   -4.32 KCAL/MOL
REMARK 922        TOTAL FREE ENERGY PREDICTED BY IDOCK:   -7.30 KCAL/MOL
REMARK 923 INTER-LIGAND FREE ENERGY PREDICTED BY IDOCK:   -6.86 KCAL/MOL
REMARK 924 INTRA-LIGAND FREE ENERGY PREDICTED BY IDOCK:   -0.44 KCAL/MOL
REMARK 927      BINDING AFFINITY PREDICTED BY RF-SCORE:    0.00 PKD
ROOT
HETATM    1  C   UNL     1      -8.970  10.772  68.280  1.00  0.00    -0.143 C  
HETATM    2  S   UNL     1     -10.096  10.992  66.867  1.00  0.00    -0.218 SA 
HETATM    3  C   UNL     1      -9.873   9.344  66.223  1.00  0.00    -0.281 C  
HETATM    4  C   UNL     1      -8.443   8.908  66.052  1.00  0.00    -0.138 C  
HETATM    5  CA  UNL     1      -8.262  12.076  68.770  1.00  0.00     0.027 C  
HETATM    6  CA  UNL     1      -7.441   9.345  66.863  1.00  0.00    -0.091 C  
HETATM    7  C   UNL     1      -6.013   8.667  66.823  1.00  0.00    -0.056 C  
HETATM    8  O   UNL     1      -5.849  11.801  67.940  1.00  0.00    -0.044 OA 
HETATM    9  N   UNL     1      -7.678  10.307  67.821  1.00  0.00    -0.090 N  
HETATM   10  OXT UNL     1      -5.703   8.168  65.690  1.00  0.00    -0.039 OA 
HETATM   11  O   UNL     1      -5.451   8.528  67.940  1.00  0.00    -0.034 OA 
HETATM   12  C   UNL     1      -6.964  11.399  68.196  1.00  0.00    -0.069 C  
ENDROOT
BRANCH   4  13
HETATM   13  C   UNL     1      -8.322   7.770  65.056  1.00  0.00    -0.086 C  
BRANCH  13  14
HETATM   14  N   UNL     1      -8.656   6.373  65.495  1.00  0.00    -0.139 NA 
HETATM   15  C   UNL     1      -8.433   5.236  64.788  1.00  0.00    -0.149 A  
HETATM   16  C   UNL     1      -7.752   5.054  63.462  1.00  0.00    -0.075 C  
HETATM   17  C   UNL     1      -7.853   3.540  63.180  1.00  0.00    -0.068 C  
HETATM   18  C   UNL     1      -9.364   6.276  66.660  1.00  0.00    -0.148 A  
HETATM   19  C   UNL     1      -8.525   2.858  64.370  1.00  0.00    -0.090 C  
HETATM   20  C   UNL     1      -9.866   5.062  67.126  1.00  0.00    -0.204 A  
HETATM   21  C   UNL     1      -9.634   3.899  66.419  1.00  0.00    -0.204 A  
HETATM   22  C   UNL     1      -8.908   4.000  65.250  1.00  0.00    -0.127 A  
ENDBRANCH  13  14
ENDBRANCH   4  13
BRANCH   5  23
HETATM   23  N   UNL     1      -8.620  13.339  68.068  1.00  0.00    -0.169 N  
HETATM   24  C   UNL     1      -8.400  14.615  68.560  1.00  0.00    -0.162 C  
HETATM   25  O   UNL     1      -7.710  14.837  69.543  1.00  0.00    -0.150 OA 
HETATM   26  H   UNL     1      -9.062  13.258  67.153  1.00  0.00     0.000 HD 
BRANCH  24  27
HETATM   27  C   UNL     1      -9.118  15.746  67.761  1.00  0.00    -0.188 C  
BRANCH  27  28
HETATM   28  C   UNL     1     -10.183  15.404  66.809  1.00  0.00    -0.271 A  
HETATM   29  N   UNL     1     -10.316  16.085  65.602  1.00  0.00    -0.374 NA 
HETATM   30  N   UNL     1     -11.665  16.127  63.710  1.00  0.00    -1.406 NA 
HETATM   31  C   UNL     1     -11.108  14.387  66.971  1.00  0.00    -0.313 A  
HETATM   32  S   UNL     1     -12.155  14.306  65.619  1.00  0.00    -0.378 SA 
HETATM   33  H1  UNL     1     -11.168  16.909  63.284  1.00  0.00     0.000 HD 
HETATM   34  H2  UNL     1     -12.454  15.714  63.212  1.00  0.00     0.000 HD 
HETATM   35  C   UNL     1     -11.318  15.623  64.902  1.00  0.00    -0.315 A  
ENDBRANCH  27  28
BRANCH  27  36
HETATM   36  N   UNL     1      -8.894  17.025  67.881  1.00  0.00    -0.220 NA 
HETATM   37  H   UNL     1      -9.589  17.677  68.244  1.00  0.00     0.000 HD 
BRANCH  36  38
HETATM   38  O   UNL     1      -7.623  17.424  67.470  1.00  0.00    -0.182 OA 
HETATM   39  C   UNL     1      -7.113  18.318  68.458  1.00  0.00    -0.268 C  
ENDBRANCH  36  38
ENDBRANCH  27  36
ENDBRANCH  24  27
ENDBRANCH   5  23
TORSDOF 7
ENDMDL
MODEL      180
REMARK 921   NORMALIZED FREE ENERGY PREDICTED BY IDOCK:   -4.32 KCAL/MOL
REMARK 922        TOTAL FREE ENERGY PREDICTED BY IDOCK:   -7.30 KCAL/MOL
REMARK 923 INTER-LIGAND FREE ENERGY PREDICTED BY IDOCK:   -6.81 KCAL/MOL
REMARK 924 INTRA-LIGAND FREE ENERGY PREDICTED BY IDOCK:   -0.49 KCAL/MOL
REMARK 927      BINDING AFFINITY PREDICTED BY RF-SCORE:    0.00 PKD
ROOT
HETATM    1  C   UNL     1     -10.804   8.513  67.781  1.00  0.00     0.005 C  
HETATM    2  S   UNL     1     -10.206   9.373  69.271  1.00  0.00    -0.211 SA 
HETATM    3  C   UNL     1      -9.834  10.903  68.435  1.00  0.00    -0.177 C  
HETATM    4  C   UNL     1      -8.996  10.771  67.193  1.00  0.00    -0.145 C  
HETATM    5  CA  UNL     1     -10.606   6.962  67.789  1.00  0.00    -0.244 C  
HETATM    6  CA  UNL     1      -9.052   9.678  66.384  1.00  0.00    -0.156 C  
HETATM    7  C   UNL     1      -8.364   9.689  64.960  1.00  0.00    -0.141 C  
HETATM    8  O   UNL     1      -8.668   6.593  66.149  1.00  0.00    -0.140 OA 
HETATM    9  N   UNL     1      -9.807   8.580  66.734  1.00  0.00    -0.232 N  
HETATM   10  OXT UNL     1      -7.347  10.454  64.876  1.00  0.00    -0.134 OA 
HETATM   11  O   UNL     1      -9.007   9.109  64.047  1.00  0.00    -0.148 OA 
HETATM   12  C   UNL     1      -9.548   7.249  66.662  1.00  0.00    -0.178 C  
ENDROOT
BRANCH   4  13
HETATM   13  C   UNL     1      -8.301  12.074  66.847  1.00  0.00    -0.159 C  
BRANCH  13  14
HETATM   14  N   UNL     1      -9.131  13.277  66.500  1.00  0.00    -0.174 NA 
HETATM   15  C   UNL     1     -10.180  13.306  65.639  1.00  0.00    -0.289 A  
HETATM   16  C   UNL     1     -10.827  12.180  64.884  1.00  0.00    -0.352 C  
HETATM   17  C   UNL     1     -11.934  12.860  64.050  1.00  0.00    -0.521 C  
HETATM   18  C   UNL     1      -8.688  14.465  67.011  1.00  0.00    -0.223 A  
HETATM   19  C   UNL     1     -11.959  14.351  64.381  1.00  0.00    -0.471 C  
HETATM   20  C   UNL     1      -9.268  15.685  66.667  1.00  0.00    -0.294 A  
HETATM   21  C   UNL     1     -10.343  15.722  65.801  1.00  0.00    -0.390 A  
HETATM   22  C   UNL     1     -10.794  14.520  65.297  1.00  0.00    -0.377 A  
ENDBRANCH  13  14
ENDBRANCH   4  13
BRANCH   5  23
HETATM   23  N   UNL     1     -10.006   6.368  69.016  1.00  0.00    -0.144 N  
HETATM   24  C   UNL     1     -10.691   6.098  70.189  1.00  0.00    -0.302 C  
HETATM   25  O   UNL     1     -11.909   6.143  70.271  1.00  0.00    -0.244 OA 
HETATM   26  H   UNL     1      -9.012   6.142  68.990  1.00  0.00     0.000 HD 
BRANCH  24  27
HETATM   27  C   UNL     1      -9.777   5.743  71.402  1.00  0.00    -0.167 C  
BRANCH  27  28
HETATM   28  C   UNL     1      -8.797   4.656  71.284  1.00  0.00    -0.122 A  
HETATM   29  N   UNL     1      -8.872   3.527  72.096  1.00  0.00    -0.090 NA 
HETATM   30  N   UNL     1      -7.757   1.526  72.486  1.00  0.00    -0.042 NA 
HETATM   31  C   UNL     1      -7.760   4.606  70.367  1.00  0.00    -0.054 A  
HETATM   32  S   UNL     1      -6.870   3.154  70.546  1.00  0.00    -0.033 SA 
HETATM   33  H1  UNL     1      -8.377   1.245  73.246  1.00  0.00     0.000 HD 
HETATM   34  H2  UNL     1      -6.992   0.906  72.219  1.00  0.00     0.000 HD 
HETATM   35  C   UNL     1      -7.914   2.681  71.826  1.00  0.00    -0.053 A  
ENDBRANCH  27  28
BRANCH  27  36
HETATM   36  N   UNL     1      -9.756   6.363  72.549  1.00  0.00    -0.162 NA 
HETATM   37  H   UNL     1     -10.591   6.759  72.980  1.00  0.00     0.000 HD 
BRANCH  36  38
HETATM   38  O   UNL     1      -8.493   6.438  73.135  1.00  0.00    -0.119 OA 
HETATM   39  C   UNL     1      -7.954   7.724  72.833  1.00  0.00    -0.124 C  
ENDBRANCH  36  38
ENDBRANCH  27  36
ENDBRANCH  24  27
ENDBRANCH   5  23
TORSDOF 7
ENDMDL
MODEL      181
REMARK 921   NORMALIZED FREE ENERGY PREDICTED BY IDOCK:   -4.30 KCAL/MOL
REMARK 922        TOTAL FREE ENERGY PREDICTED BY IDOCK:   -7.27 KCAL/MOL
REMARK 923 INTER-LIGAND FREE ENERGY PREDICTED BY IDOCK:   -7.96 KCAL/MOL
REMARK 924 INTRA-LIGAND FREE ENERGY PREDICTED BY IDOCK:    0.70 KCAL/MOL
REMARK 927      BINDING AFFINITY PREDICTED BY RF-SCORE:    0.00 PKD
ROOT
HETATM    1  C   UNL     1     -10.446   9.385  67.430  1.00  0.00    -0.278 C  
HETATM    2  S   UNL     1     -11.531  10.479  68.399  1.00  0.00    -0.125 SA 
HETATM    3  C   UNL     1     -10.845  11.996  67.760  1.00  0.00    -0.215 C  
HETATM    4  C   UNL     1      -9.345  12.097  67.814  1.00  0.00    -0.193 C  
HETATM    5  CA  UNL     1     -10.137   8.004  68.093  1.00  0.00    -0.197 C  
HETATM    6  CA  UNL     1      -8.532  11.011  67.702  1.00  0.00    -0.121 C  
HETATM    7  C   UNL     1      -6.974  11.184  67.497  1.00  0.00    -0.088 C  
HETATM    8  O   UNL     1      -7.707   8.246  68.884  1.00  0.00    -0.098 OA 
HETATM    9  N   UNL     1      -9.059   9.739  67.646  1.00  0.00    -0.131 N  
HETATM   10  OXT UNL     1      -6.494  12.250  68.007  1.00  0.00    -0.063 OA 
HETATM   11  O   UNL     1      -6.442  10.367  66.701  1.00  0.00    -0.071 OA 
HETATM   12  C   UNL     1      -8.682   8.581  68.245  1.00  0.00    -0.143 C  
ENDROOT
BRANCH   4  13
HETATM   13  C   UNL     1      -8.881  13.540  67.758  1.00  0.00    -0.198 C  
BRANCH  13  14
HETATM   14  N   UNL     1      -9.496  14.469  66.750  1.00  0.00    -0.257 NA 
HETATM   15  C   UNL     1      -9.641  15.812  66.882  1.00  0.00    -0.230 A  
HETATM   16  C   UNL     1      -9.180  16.718  67.988  1.00  0.00    -0.228 C  
HETATM   17  C   UNL     1      -9.682  18.118  67.574  1.00  0.00    -0.304 C  
HETATM   18  C   UNL     1     -10.069  13.865  65.667  1.00  0.00    -0.313 A  
HETATM   19  C   UNL     1     -10.361  18.018  66.210  1.00  0.00    -0.384 C  
HETATM   20  C   UNL     1     -10.799  14.579  64.717  1.00  0.00    -0.410 A  
HETATM   21  C   UNL     1     -10.941  15.947  64.837  1.00  0.00    -0.427 A  
HETATM   22  C   UNL     1     -10.350  16.553  65.926  1.00  0.00    -0.365 A  
ENDBRANCH  13  14
ENDBRANCH   4  13
BRANCH   5  23
HETATM   23  N   UNL     1     -10.794   7.725  69.400  1.00  0.00    -0.389 N  
HETATM   24  C   UNL     1     -10.364   8.204  70.627  1.00  0.00    -0.199 C  
HETATM   25  O   UNL     1      -9.508   9.068  70.738  1.00  0.00    -0.207 OA 
HETATM   26  H   UNL     1     -11.625   7.134  69.391  1.00  0.00     0.000 HD 
BRANCH  24  27
HETATM   27  C   UNL     1     -11.057   7.538  71.855  1.00  0.00    -0.239 C  
BRANCH  27  28
HETATM   28  C   UNL     1     -10.586   6.235  72.342  1.00  0.00    -0.211 A  
HETATM   29  N   UNL     1      -9.609   5.520  71.655  1.00  0.00    -0.150 NA 
HETATM   30  N   UNL     1      -8.435   3.517  71.781  1.00  0.00    -0.082 NA 
HETATM   31  C   UNL     1     -11.006   5.614  73.506  1.00  0.00    -0.206 A  
HETATM   32  S   UNL     1     -10.190   4.124  73.719  1.00  0.00    -0.179 SA 
HETATM   33  H1  UNL     1      -7.925   3.678  70.913  1.00  0.00     0.000 HD 
HETATM   34  H2  UNL     1      -8.259   2.660  72.305  1.00  0.00     0.000 HD 
HETATM   35  C   UNL     1      -9.330   4.394  72.256  1.00  0.00    -0.128 A  
ENDBRANCH  27  28
BRANCH  27  36
HETATM   36  N   UNL     1     -12.026   8.056  72.558  1.00  0.00    -0.520 NA 
HETATM   37  H   UNL     1     -11.944   8.249  73.556  1.00  0.00     0.000 HD 
BRANCH  36  38
HETATM   38  O   UNL     1     -13.182   8.323  71.826  1.00  0.00    -0.333 OA 
HETATM   39  C   UNL     1     -13.802   9.471  72.405  1.00  0.00    -0.282 C  
ENDBRANCH  36  38
ENDBRANCH  27  36
ENDBRANCH  24  27
ENDBRANCH   5  23
TORSDOF 7
ENDMDL
MODEL      182
REMARK 921   NORMALIZED FREE ENERGY PREDICTED BY IDOCK:   -4.27 KCAL/MOL
REMARK 922        TOTAL FREE ENERGY PREDICTED BY IDOCK:   -7.22 KCAL/MOL
REMARK 923 INTER-LIGAND FREE ENERGY PREDICTED BY IDOCK:   -8.21 KCAL/MOL
REMARK 924 INTRA-LIGAND FREE ENERGY PREDICTED BY IDOCK:    0.99 KCAL/MOL
REMARK 927      BINDING AFFINITY PREDICTED BY RF-SCORE:    0.00 PKD
ROOT
HETATM    1  C   UNL     1      -8.935  12.902  68.559  1.00  0.00    -0.047 C  
HETATM    2  S   UNL     1      -7.695  13.567  67.404  1.00  0.00    -0.094 SA 
HETATM    3  C   UNL     1      -7.334  15.020  68.373  1.00  0.00    -0.112 C  
HETATM    4  C   UNL     1      -8.534  15.815  68.812  1.00  0.00    -0.198 C  
HETATM    5  CA  UNL     1     -10.054  12.032  67.900  1.00  0.00    -0.195 C  
HETATM    6  CA  UNL     1      -9.740  15.241  69.072  1.00  0.00    -0.234 C  
HETATM    7  C   UNL     1     -10.892  16.061  69.781  1.00  0.00    -0.337 C  
HETATM    8  O   UNL     1     -12.116  13.559  67.954  1.00  0.00    -0.346 OA 
HETATM    9  N   UNL     1      -9.947  13.899  68.833  1.00  0.00    -0.134 N  
HETATM   10  OXT UNL     1     -10.853  17.316  69.557  1.00  0.00    -0.122 OA 
HETATM   11  O   UNL     1     -11.571  15.417  70.622  1.00  0.00    -0.274 OA 
HETATM   12  C   UNL     1     -10.993  13.235  68.277  1.00  0.00    -0.256 C  
ENDROOT
BRANCH   4  13
HETATM   13  C   UNL     1      -8.160  17.245  69.152  1.00  0.00    -0.006 C  
BRANCH  13  14
HETATM   14  N   UNL     1      -7.917  18.224  68.040  1.00  0.00    -0.257 NA 
HETATM   15  C   UNL     1      -8.868  18.837  67.290  1.00  0.00    -0.274 A  
HETATM   16  C   UNL     1     -10.365  18.772  67.405  1.00  0.00    -0.472 C  
HETATM   17  C   UNL     1     -10.880  19.651  66.245  1.00  0.00    -0.432 C  
HETATM   18  C   UNL     1      -6.609  18.399  67.684  1.00  0.00    -0.197 A  
HETATM   19  C   UNL     1      -9.685  20.265  65.519  1.00  0.00     0.099 C  
HETATM   20  C   UNL     1      -6.234  19.165  66.582  1.00  0.00    -0.188 A  
HETATM   21  C   UNL     1      -7.194  19.802  65.821  1.00  0.00    -0.336 A  
HETATM   22  C   UNL     1      -8.512  19.633  66.191  1.00  0.00    -0.354 A  
ENDBRANCH  13  14
ENDBRANCH   4  13
BRANCH   5  23
HETATM   23  N   UNL     1      -9.953  11.810  66.430  1.00  0.00    -0.206 N  
HETATM   24  C   UNL     1     -10.248  12.752  65.459  1.00  0.00    -0.279 C  
HETATM   25  O   UNL     1     -10.437  13.931  65.715  1.00  0.00    -0.289 OA 
HETATM   26  H   UNL     1      -9.642  10.891  66.115  1.00  0.00     0.000 HD 
BRANCH  24  27
HETATM   27  C   UNL     1     -10.329  12.179  64.011  1.00  0.00    -0.385 C  
BRANCH  27  28
HETATM   28  C   UNL     1      -9.424  11.097  63.601  1.00  0.00    -0.257 A  
HETATM   29  N   UNL     1      -9.545   9.817  64.134  1.00  0.00    -0.122 NA 
HETATM   30  N   UNL     1      -8.547   7.722  64.002  1.00  0.00    -0.345 NA 
HETATM   31  C   UNL     1      -8.421  11.206  62.652  1.00  0.00    -0.125 A  
HETATM   32  S   UNL     1      -7.620   9.706  62.452  1.00  0.00    -0.109 SA 
HETATM   33  H1  UNL     1      -9.159   7.306  64.704  1.00  0.00     0.000 HD 
HETATM   34  H2  UNL     1      -7.831   7.141  63.566  1.00  0.00     0.000 HD 
HETATM   35  C   UNL     1      -8.651   9.005  63.634  1.00  0.00    -0.130 A  
ENDBRANCH  27  28
BRANCH  27  36
HETATM   36  N   UNL     1     -11.180  12.544  63.093  1.00  0.00    -0.738 NA 
HETATM   37  H   UNL     1     -11.067  12.308  62.107  1.00  0.00     0.000 HD 
BRANCH  36  38
HETATM   38  O   UNL     1     -12.260  13.284  63.576  1.00  0.00    -0.637 OA 
HETATM   39  C   UNL     1     -13.220  12.360  64.085  1.00  0.00     0.178 C  
ENDBRANCH  36  38
ENDBRANCH  27  36
ENDBRANCH  24  27
ENDBRANCH   5  23
TORSDOF 7
ENDMDL
MODEL      183
REMARK 921   NORMALIZED FREE ENERGY PREDICTED BY IDOCK:   -4.19 KCAL/MOL
REMARK 922        TOTAL FREE ENERGY PREDICTED BY IDOCK:   -7.12 KCAL/MOL
REMARK 923 INTER-LIGAND FREE ENERGY PREDICTED BY IDOCK:   -5.60 KCAL/MOL
REMARK 924 INTRA-LIGAND FREE ENERGY PREDICTED BY IDOCK:   -1.52 KCAL/MOL
REMARK 927      BINDING AFFINITY PREDICTED BY RF-SCORE:    0.00 PKD
ROOT
HETATM    1  C   UNL     1      -6.180   9.359  66.369  1.00  0.00    -0.064 C  
HETATM    2  S   UNL     1      -6.540   9.371  68.154  1.00  0.00    -0.059 SA 
HETATM    3  C   UNL     1      -6.366   7.609  68.365  1.00  0.00    -0.041 C  
HETATM    4  C   UNL     1      -7.143   6.764  67.393  1.00  0.00    -0.084 C  
HETATM    5  CA  UNL     1      -6.862  10.502  65.550  1.00  0.00    -0.100 C  
HETATM    6  CA  UNL     1      -7.402   7.163  66.118  1.00  0.00    -0.075 C  
HETATM    7  C   UNL     1      -7.984   6.147  65.054  1.00  0.00    -0.123 C  
HETATM    8  O   UNL     1      -8.739   9.298  64.281  1.00  0.00    -0.196 OA 
HETATM    9  N   UNL     1      -7.053   8.425  65.690  1.00  0.00    -0.074 N  
HETATM   10  OXT UNL     1      -8.698   5.217  65.555  1.00  0.00    -0.140 OA 
HETATM   11  O   UNL     1      -7.517   6.261  63.891  1.00  0.00    -0.066 OA 
HETATM   12  C   UNL     1      -7.720   9.337  64.936  1.00  0.00    -0.110 C  
ENDROOT
BRANCH   4  13
HETATM   13  C   UNL     1      -7.369   5.363  67.929  1.00  0.00    -0.073 C  
BRANCH  13  14
HETATM   14  N   UNL     1      -8.163   5.179  69.190  1.00  0.00    -0.084 NA 
HETATM   15  C   UNL     1      -9.406   5.668  69.432  1.00  0.00    -0.125 A  
HETATM   16  C   UNL     1     -10.327   6.430  68.522  1.00  0.00    -0.227 C  
HETATM   17  C   UNL     1     -11.566   6.734  69.393  1.00  0.00    -0.136 C  
HETATM   18  C   UNL     1      -7.501   4.571  70.220  1.00  0.00    -0.050 A  
HETATM   19  C   UNL     1     -11.378   6.090  70.765  1.00  0.00    -0.295 C  
HETATM   20  C   UNL     1      -8.055   4.455  71.494  1.00  0.00    -0.091 A  
HETATM   21  C   UNL     1      -9.323   4.938  71.746  1.00  0.00    -0.185 A  
HETATM   22  C   UNL     1      -9.992   5.540  70.700  1.00  0.00    -0.270 A  
ENDBRANCH  13  14
ENDBRANCH   4  13
BRANCH   5  23
HETATM   23  N   UNL     1      -7.677  11.485  66.318  1.00  0.00    -0.375 N  
HETATM   24  C   UNL     1      -7.168  12.544  67.050  1.00  0.00     0.027 C  
HETATM   25  O   UNL     1      -6.000  12.897  66.982  1.00  0.00    -0.292 OA 
HETATM   26  H   UNL     1      -8.690  11.367  66.303  1.00  0.00     0.000 HD 
BRANCH  24  27
HETATM   27  C   UNL     1      -8.207  13.244  67.978  1.00  0.00    -0.162 C  
BRANCH  27  28
HETATM   28  C   UNL     1      -8.472  14.681  67.826  1.00  0.00    -0.174 A  
HETATM   29  N   UNL     1      -8.327  15.313  66.594  1.00  0.00    -0.237 NA 
HETATM   30  N   UNL     1      -8.534  17.416  65.627  1.00  0.00    -0.288 NA 
HETATM   31  C   UNL     1      -8.918  15.525  68.829  1.00  0.00    -0.204 A  
HETATM   32  S   UNL     1      -9.128  17.114  68.226  1.00  0.00    -0.266 SA 
HETATM   33  H1  UNL     1      -8.231  17.102  64.705  1.00  0.00     0.000 HD 
HETATM   34  H2  UNL     1      -8.783  18.397  65.756  1.00  0.00     0.000 HD 
HETATM   35  C   UNL     1      -8.617  16.585  66.674  1.00  0.00    -0.254 A  
ENDBRANCH  27  28
BRANCH  27  36
HETATM   36  N   UNL     1      -8.933  12.658  68.890  1.00  0.00    -0.364 NA 
HETATM   37  H   UNL     1      -8.730  12.726  69.887  1.00  0.00     0.000 HD 
BRANCH  36  38
HETATM   38  O   UNL     1     -10.008  11.929  68.383  1.00  0.00    -0.197 OA 
HETATM   39  C   UNL     1     -10.477  11.074  69.424  1.00  0.00    -0.142 C  
ENDBRANCH  36  38
ENDBRANCH  27  36
ENDBRANCH  24  27
ENDBRANCH   5  23
TORSDOF 7
ENDMDL
MODEL      184
REMARK 921   NORMALIZED FREE ENERGY PREDICTED BY IDOCK:   -4.15 KCAL/MOL
REMARK 922        TOTAL FREE ENERGY PREDICTED BY IDOCK:   -7.05 KCAL/MOL
REMARK 923 INTER-LIGAND FREE ENERGY PREDICTED BY IDOCK:   -8.20 KCAL/MOL
REMARK 924 INTRA-LIGAND FREE ENERGY PREDICTED BY IDOCK:    1.15 KCAL/MOL
REMARK 927      BINDING AFFINITY PREDICTED BY RF-SCORE:    0.00 PKD
ROOT
HETATM    1  C   UNL     1      -8.966  11.495  68.679  1.00  0.00    -0.112 C  
HETATM    2  S   UNL     1      -8.012  12.565  67.556  1.00  0.00    -0.187 SA 
HETATM    3  C   UNL     1      -8.210  14.043  68.535  1.00  0.00    -0.136 C  
HETATM    4  C   UNL     1      -9.624  14.361  68.941  1.00  0.00    -0.123 C  
HETATM    5  CA  UNL     1      -9.689  10.293  67.990  1.00  0.00    -0.149 C  
HETATM    6  CA  UNL     1     -10.555  13.396  69.170  1.00  0.00    -0.001 C  
HETATM    7  C   UNL     1     -11.939  13.751  69.848  1.00  0.00    -0.347 C  
HETATM    8  O   UNL     1     -12.158  10.995  67.991  1.00  0.00    -0.615 OA 
HETATM    9  N   UNL     1     -10.271  12.070  68.926  1.00  0.00    -0.122 N  
HETATM   10  OXT UNL     1     -12.341  14.941  69.625  1.00  0.00    -0.280 OA 
HETATM   11  O   UNL     1     -12.369  12.902  70.672  1.00  0.00    -0.358 OA 
HETATM   12  C   UNL     1     -11.002  11.085  68.343  1.00  0.00    -0.230 C  
ENDROOT
BRANCH   4  13
HETATM   13  C   UNL     1      -9.786  15.828  69.292  1.00  0.00    -0.265 C  
BRANCH  13  14
HETATM   14  N   UNL     1     -10.049  16.819  68.194  1.00  0.00    -0.270 NA 
HETATM   15  C   UNL     1     -10.481  16.530  66.940  1.00  0.00    -0.282 A  
HETATM   16  C   UNL     1     -10.873  15.207  66.346  1.00  0.00    -0.326 C  
HETATM   17  C   UNL     1     -11.229  15.532  64.879  1.00  0.00    -0.396 C  
HETATM   18  C   UNL     1      -9.691  18.109  68.467  1.00  0.00    -0.362 A  
HETATM   19  C   UNL     1     -11.107  17.039  64.662  1.00  0.00     0.368 C  
HETATM   20  C   UNL     1      -9.743  19.115  67.504  1.00  0.00    -0.386 A  
HETATM   21  C   UNL     1     -10.192  18.832  66.229  1.00  0.00    -0.466 A  
HETATM   22  C   UNL     1     -10.564  17.531  65.962  1.00  0.00    -0.217 A  
ENDBRANCH  13  14
ENDBRANCH   4  13
BRANCH   5  23
HETATM   23  N   UNL     1      -9.481  10.134  66.524  1.00  0.00    -0.164 N  
HETATM   24  C   UNL     1      -9.842  11.063  65.562  1.00  0.00    -0.243 C  
HETATM   25  O   UNL     1     -10.196  12.198  65.836  1.00  0.00    -0.232 OA 
HETATM   26  H   UNL     1      -9.037   9.274  66.204  1.00  0.00     0.000 HD 
BRANCH  24  27
HETATM   27  C   UNL     1      -9.769  10.532  64.097  1.00  0.00    -0.327 C  
BRANCH  27  28
HETATM   28  C   UNL     1      -8.656   9.665  63.688  1.00  0.00    -0.209 A  
HETATM   29  N   UNL     1      -7.586   9.416  64.543  1.00  0.00    -0.106 NA 
HETATM   30  N   UNL     1      -5.580   8.243  64.606  1.00  0.00    -0.044 NA 
HETATM   31  C   UNL     1      -8.565   8.991  62.482  1.00  0.00    -0.210 A  
HETATM   32  S   UNL     1      -7.124   8.069  62.418  1.00  0.00    -0.088 SA 
HETATM   33  H1  UNL     1      -5.335   8.569  65.540  1.00  0.00     0.000 HD 
HETATM   34  H2  UNL     1      -4.943   7.611  64.121  1.00  0.00     0.000 HD 
HETATM   35  C   UNL     1      -6.710   8.618  63.992  1.00  0.00    -0.076 A  
ENDBRANCH  27  28
BRANCH  27  36
HETATM   36  N   UNL     1     -10.652  10.750  63.162  1.00  0.00    -0.674 NA 
HETATM   37  H   UNL     1     -10.863  10.071  62.431  1.00  0.00     0.000 HD 
BRANCH  36  38
HETATM   38  O   UNL     1     -11.281  11.991  63.248  1.00  0.00    -0.386 OA 
HETATM   39  C   UNL     1     -12.689  11.761  63.227  1.00  0.00    -0.180 C  
ENDBRANCH  36  38
ENDBRANCH  27  36
ENDBRANCH  24  27
ENDBRANCH   5  23
TORSDOF 7
ENDMDL
MODEL      185
REMARK 921   NORMALIZED FREE ENERGY PREDICTED BY IDOCK:   -4.14 KCAL/MOL
REMARK 922        TOTAL FREE ENERGY PREDICTED BY IDOCK:   -7.05 KCAL/MOL
REMARK 923 INTER-LIGAND FREE ENERGY PREDICTED BY IDOCK:   -5.73 KCAL/MOL
REMARK 924 INTRA-LIGAND FREE ENERGY PREDICTED BY IDOCK:   -1.32 KCAL/MOL
REMARK 927      BINDING AFFINITY PREDICTED BY RF-SCORE:    0.00 PKD
ROOT
HETATM    1  C   UNL     1      -9.860   9.669  69.743  1.00  0.00    -0.229 C  
HETATM    2  S   UNL     1     -10.560   8.736  68.344  1.00  0.00    -0.080 SA 
HETATM    3  C   UNL     1     -10.640   7.180  69.212  1.00  0.00    -0.221 C  
HETATM    4  C   UNL     1      -9.371   6.763  69.903  1.00  0.00    -0.157 C  
HETATM    5  CA  UNL     1      -8.960  10.882  69.344  1.00  0.00     0.126 C  
HETATM    6  CA  UNL     1      -8.488   7.660  70.420  1.00  0.00    -0.136 C  
HETATM    7  C   UNL     1      -7.311   7.185  71.365  1.00  0.00    -0.078 C  
HETATM    8  O   UNL     1      -6.582  10.060  69.849  1.00  0.00    -0.064 OA 
HETATM    9  N   UNL     1      -8.667   9.013  70.233  1.00  0.00    -0.165 N  
HETATM   10  OXT UNL     1      -6.906   5.997  71.139  1.00  0.00    -0.062 OA 
HETATM   11  O   UNL     1      -7.059   7.947  72.334  1.00  0.00    -0.074 OA 
HETATM   12  C   UNL     1      -7.791  10.002  69.918  1.00  0.00    -0.174 C  
ENDROOT
BRANCH   4  13
HETATM   13  C   UNL     1      -9.339   5.267  70.155  1.00  0.00    -0.153 C  
BRANCH  13  14
HETATM   14  N   UNL     1      -9.735   4.742  71.505  1.00  0.00    -0.164 NA 
HETATM   15  C   UNL     1      -9.261   3.618  72.098  1.00  0.00    -0.115 A  
HETATM   16  C   UNL     1      -8.199   2.665  71.628  1.00  0.00    -0.063 C  
HETATM   17  C   UNL     1      -8.148   1.574  72.720  1.00  0.00    -0.052 C  
HETATM   18  C   UNL     1     -10.762   5.406  72.116  1.00  0.00    -0.227 A  
HETATM   19  C   UNL     1      -9.125   1.942  73.835  1.00  0.00    -0.067 C  
HETATM   20  C   UNL     1     -11.334   4.957  73.305  1.00  0.00    -0.408 A  
HETATM   21  C   UNL     1     -10.850   3.820  73.922  1.00  0.00    -0.302 A  
HETATM   22  C   UNL     1      -9.805   3.161  73.308  1.00  0.00    -0.169 A  
ENDBRANCH  13  14
ENDBRANCH   4  13
BRANCH   5  23
HETATM   23  N   UNL     1      -8.817  11.163  67.888  1.00  0.00    -0.133 N  
HETATM   24  C   UNL     1      -9.541  12.111  67.184  1.00  0.00    -0.194 C  
HETATM   25  O   UNL     1     -10.238  12.953  67.729  1.00  0.00    -0.215 OA 
HETATM   26  H   UNL     1      -8.133  10.613  67.369  1.00  0.00     0.000 HD 
BRANCH  24  27
HETATM   27  C   UNL     1      -9.400  12.008  65.634  1.00  0.00    -0.078 C  
BRANCH  27  28
HETATM   28  C   UNL     1      -8.722  10.849  65.038  1.00  0.00    -0.101 A  
HETATM   29  N   UNL     1      -7.422  10.510  65.402  1.00  0.00    -0.126 NA 
HETATM   30  N   UNL     1      -5.783   8.933  64.923  1.00  0.00    -0.057 NA 
HETATM   31  C   UNL     1      -9.283   9.976  64.122  1.00  0.00    -0.271 A  
HETATM   32  S   UNL     1      -8.166   8.747  63.703  1.00  0.00    -0.138 SA 
HETATM   33  H1  UNL     1      -5.097   9.349  65.552  1.00  0.00     0.000 HD 
HETATM   34  H2  UNL     1      -5.528   8.097  64.398  1.00  0.00     0.000 HD 
HETATM   35  C   UNL     1      -7.009   9.448  64.762  1.00  0.00    -0.098 A  
ENDBRANCH  27  28
BRANCH  27  36
HETATM   36  N   UNL     1      -9.878  12.856  64.766  1.00  0.00    -0.548 NA 
HETATM   37  H   UNL     1      -9.285  13.445  64.182  1.00  0.00     0.000 HD 
BRANCH  36  38
HETATM   38  O   UNL     1     -11.271  12.888  64.706  1.00  0.00    -0.290 OA 
HETATM   39  C   UNL     1     -11.646  12.756  63.336  1.00  0.00    -0.443 C  
ENDBRANCH  36  38
ENDBRANCH  27  36
ENDBRANCH  24  27
ENDBRANCH   5  23
TORSDOF 7
ENDMDL
MODEL      186
REMARK 921   NORMALIZED FREE ENERGY PREDICTED BY IDOCK:   -4.14 KCAL/MOL
REMARK 922        TOTAL FREE ENERGY PREDICTED BY IDOCK:   -7.05 KCAL/MOL
REMARK 923 INTER-LIGAND FREE ENERGY PREDICTED BY IDOCK:   -7.41 KCAL/MOL
REMARK 924 INTRA-LIGAND FREE ENERGY PREDICTED BY IDOCK:    0.36 KCAL/MOL
REMARK 927      BINDING AFFINITY PREDICTED BY RF-SCORE:    0.00 PKD
ROOT
HETATM    1  C   UNL     1      -8.630  11.487  68.728  1.00  0.00    -0.052 C  
HETATM    2  S   UNL     1      -7.304  11.628  67.489  1.00  0.00    -0.129 SA 
HETATM    3  C   UNL     1      -7.429  13.399  67.319  1.00  0.00    -0.046 C  
HETATM    4  C   UNL     1      -8.817  13.925  67.075  1.00  0.00    -0.231 C  
HETATM    5  CA  UNL     1      -9.403  10.128  68.716  1.00  0.00    -0.168 C  
HETATM    6  CA  UNL     1      -9.929  13.319  67.573  1.00  0.00    -0.223 C  
HETATM    7  C   UNL     1     -11.336  14.041  67.522  1.00  0.00    -0.321 C  
HETATM    8  O   UNL     1     -11.663  10.729  67.660  1.00  0.00    -0.538 OA 
HETATM    9  N   UNL     1      -9.838  12.117  68.239  1.00  0.00    -0.210 N  
HETATM   10  OXT UNL     1     -11.472  14.853  66.548  1.00  0.00    -0.345 OA 
HETATM   11  O   UNL     1     -12.059  13.882  68.540  1.00  0.00    -0.362 OA 
HETATM   12  C   UNL     1     -10.600  10.994  68.179  1.00  0.00    -0.191 C  
ENDROOT
BRANCH   4  13
HETATM   13  C   UNL     1      -8.787  15.302  66.440  1.00  0.00    -0.276 C  
BRANCH  13  14
HETATM   14  N   UNL     1      -8.026  16.406  67.117  1.00  0.00    -0.167 NA 
HETATM   15  C   UNL     1      -8.564  17.482  67.745  1.00  0.00    -0.230 A  
HETATM   16  C   UNL     1     -10.006  17.819  67.996  1.00  0.00    -0.333 C  
HETATM   17  C   UNL     1      -9.964  19.185  68.715  1.00  0.00    -0.493 C  
HETATM   18  C   UNL     1      -6.669  16.366  66.962  1.00  0.00    -0.204 A  
HETATM   19  C   UNL     1      -8.506  19.586  68.933  1.00  0.00    -0.291 C  
HETATM   20  C   UNL     1      -5.838  17.391  67.412  1.00  0.00    -0.159 A  
HETATM   21  C   UNL     1      -6.376  18.484  68.063  1.00  0.00    -0.198 A  
HETATM   22  C   UNL     1      -7.745  18.514  68.228  1.00  0.00    -0.313 A  
ENDBRANCH  13  14
ENDBRANCH   4  13
BRANCH   5  23
HETATM   23  N   UNL     1      -8.942   9.101  67.741  1.00  0.00    -0.127 N  
HETATM   24  C   UNL     1      -9.240   9.096  66.388  1.00  0.00    -0.183 C  
HETATM   25  O   UNL     1      -9.755  10.046  65.819  1.00  0.00    -0.218 OA 
HETATM   26  H   UNL     1      -8.362   8.342  68.098  1.00  0.00     0.000 HD 
BRANCH  24  27
HETATM   27  C   UNL     1      -8.873   7.770  65.654  1.00  0.00    -0.065 C  
BRANCH  27  28
HETATM   28  C   UNL     1      -8.875   6.501  66.394  1.00  0.00    -0.143 A  
HETATM   29  N   UNL     1      -7.818   6.153  67.230  1.00  0.00    -0.101 NA 
HETATM   30  N   UNL     1      -7.136   4.428  68.630  1.00  0.00    -0.052 NA 
HETATM   31  C   UNL     1      -9.896   5.567  66.381  1.00  0.00    -0.167 A  
HETATM   32  S   UNL     1      -9.514   4.245  67.400  1.00  0.00    -0.183 SA 
HETATM   33  H1  UNL     1      -6.248   4.872  68.865  1.00  0.00     0.000 HD 
HETATM   34  H2  UNL     1      -7.359   3.523  69.044  1.00  0.00     0.000 HD 
HETATM   35  C   UNL     1      -8.019   4.993  67.796  1.00  0.00    -0.095 A  
ENDBRANCH  27  28
BRANCH  27  36
HETATM   36  N   UNL     1      -8.592   7.653  64.386  1.00  0.00    -0.360 NA 
HETATM   37  H   UNL     1      -9.123   7.053  63.754  1.00  0.00     0.000 HD 
BRANCH  36  38
HETATM   38  O   UNL     1      -7.504   8.418  63.968  1.00  0.00    -0.099 OA 
HETATM   39  C   UNL     1      -7.794   8.896  62.655  1.00  0.00    -0.132 C  
ENDBRANCH  36  38
ENDBRANCH  27  36
ENDBRANCH  24  27
ENDBRANCH   5  23
TORSDOF 7
ENDMDL
MODEL      187
REMARK 921   NORMALIZED FREE ENERGY PREDICTED BY IDOCK:   -4.13 KCAL/MOL
REMARK 922        TOTAL FREE ENERGY PREDICTED BY IDOCK:   -7.03 KCAL/MOL
REMARK 923 INTER-LIGAND FREE ENERGY PREDICTED BY IDOCK:   -6.01 KCAL/MOL
REMARK 924 INTRA-LIGAND FREE ENERGY PREDICTED BY IDOCK:   -1.02 KCAL/MOL
REMARK 927      BINDING AFFINITY PREDICTED BY RF-SCORE:    0.00 PKD
ROOT
HETATM    1  C   UNL     1     -10.090   9.630  66.506  1.00  0.00    -0.244 C  
HETATM    2  S   UNL     1      -8.360  10.136  66.252  1.00  0.00    -0.133 SA 
HETATM    3  C   UNL     1      -7.675   8.510  66.517  1.00  0.00    -0.092 C  
HETATM    4  C   UNL     1      -8.135   7.815  67.769  1.00  0.00    -0.125 C  
HETATM    5  CA  UNL     1     -11.029  10.745  67.068  1.00  0.00    -0.227 C  
HETATM    6  CA  UNL     1      -9.372   8.008  68.303  1.00  0.00    -0.140 C  
HETATM    7  C   UNL     1      -9.911   7.068  69.456  1.00  0.00    -0.162 C  
HETATM    8  O   UNL     1     -11.395  10.050  69.511  1.00  0.00    -0.228 OA 
HETATM    9  N   UNL     1     -10.229   8.947  67.774  1.00  0.00    -0.214 N  
HETATM   10  OXT UNL     1      -8.999   6.577  70.200  1.00  0.00    -0.152 OA 
HETATM   11  O   UNL     1     -11.130   6.766  69.377  1.00  0.00    -0.268 OA 
HETATM   12  C   UNL     1     -11.042   9.859  68.367  1.00  0.00    -0.139 C  
ENDROOT
BRANCH   4  13
HETATM   13  C   UNL     1      -7.165   6.728  68.191  1.00  0.00    -0.091 C  
BRANCH  13  14
HETATM   14  N   UNL     1      -6.929   5.561  67.276  1.00  0.00    -0.064 NA 
HETATM   15  C   UNL     1      -7.676   4.429  67.211  1.00  0.00    -0.089 A  
HETATM   16  C   UNL     1      -8.937   4.073  67.947  1.00  0.00    -0.152 C  
HETATM   17  C   UNL     1      -9.271   2.644  67.470  1.00  0.00    -0.215 C  
HETATM   18  C   UNL     1      -5.777   5.611  66.543  1.00  0.00    -0.017 A  
HETATM   19  C   UNL     1      -8.247   2.218  66.420  1.00  0.00    -0.088 C  
HETATM   20  C   UNL     1      -5.349   4.544  65.754  1.00  0.00    -0.009 A  
HETATM   21  C   UNL     1      -6.110   3.394  65.673  1.00  0.00    -0.027 A  
HETATM   22  C   UNL     1      -7.278   3.353  66.405  1.00  0.00    -0.063 A  
ENDBRANCH  13  14
ENDBRANCH   4  13
BRANCH   5  23
HETATM   23  N   UNL     1     -10.423  12.088  67.284  1.00  0.00    -0.215 N  
HETATM   24  C   UNL     1     -10.141  13.006  66.285  1.00  0.00    -0.282 C  
HETATM   25  O   UNL     1     -10.542  12.882  65.138  1.00  0.00    -0.287 OA 
HETATM   26  H   UNL     1     -10.197  12.352  68.242  1.00  0.00     0.000 HD 
BRANCH  24  27
HETATM   27  C   UNL     1      -9.258  14.206  66.745  1.00  0.00    -0.266 C  
BRANCH  27  28
HETATM   28  C   UNL     1      -9.891  15.399  67.324  1.00  0.00    -0.217 A  
HETATM   29  N   UNL     1     -10.302  15.421  68.654  1.00  0.00    -0.228 NA 
HETATM   30  N   UNL     1     -11.323  16.838  70.188  1.00  0.00    -0.330 NA 
HETATM   31  C   UNL     1     -10.104  16.596  66.662  1.00  0.00    -0.301 A  
HETATM   32  S   UNL     1     -10.841  17.736  67.705  1.00  0.00    -0.102 SA 
HETATM   33  H1  UNL     1     -11.317  16.148  70.939  1.00  0.00     0.000 HD 
HETATM   34  H2  UNL     1     -11.716  17.761  70.370  1.00  0.00     0.000 HD 
HETATM   35  C   UNL     1     -10.832  16.573  68.970  1.00  0.00    -0.329 A  
ENDBRANCH  27  28
BRANCH  27  36
HETATM   36  N   UNL     1      -7.956  14.253  66.708  1.00  0.00    -0.306 NA 
HETATM   37  H   UNL     1      -7.426  14.262  65.837  1.00  0.00     0.000 HD 
BRANCH  36  38
HETATM   38  O   UNL     1      -7.350  14.291  67.964  1.00  0.00    -0.112 OA 
HETATM   39  C   UNL     1      -5.940  14.207  67.763  1.00  0.00    -0.098 C  
ENDBRANCH  36  38
ENDBRANCH  27  36
ENDBRANCH  24  27
ENDBRANCH   5  23
TORSDOF 7
ENDMDL
MODEL      188
REMARK 921   NORMALIZED FREE ENERGY PREDICTED BY IDOCK:   -4.10 KCAL/MOL
REMARK 922        TOTAL FREE ENERGY PREDICTED BY IDOCK:   -6.99 KCAL/MOL
REMARK 923 INTER-LIGAND FREE ENERGY PREDICTED BY IDOCK:   -6.34 KCAL/MOL
REMARK 924 INTRA-LIGAND FREE ENERGY PREDICTED BY IDOCK:   -0.65 KCAL/MOL
REMARK 927      BINDING AFFINITY PREDICTED BY RF-SCORE:    0.00 PKD
ROOT
HETATM    1  C   UNL     1     -11.472   7.511  70.966  1.00  0.00    -0.278 C  
HETATM    2  S   UNL     1     -10.751   7.060  69.356  1.00  0.00    -0.228 SA 
HETATM    3  C   UNL     1     -10.664   5.313  69.702  1.00  0.00    -0.085 C  
HETATM    4  C   UNL     1     -10.012   4.946  71.007  1.00  0.00    -0.282 C  
HETATM    5  CA  UNL     1     -11.119   8.948  71.469  1.00  0.00    -0.326 C  
HETATM    6  CA  UNL     1     -10.075   5.744  72.108  1.00  0.00    -0.183 C  
HETATM    7  C   UNL     1      -9.611   5.209  73.522  1.00  0.00    -0.137 C  
HETATM    8  O   UNL     1      -9.418   8.529  73.345  1.00  0.00    -0.071 OA 
HETATM    9  N   UNL     1     -10.655   6.992  72.042  1.00  0.00    -0.209 N  
HETATM   10  OXT UNL     1      -8.701   4.317  73.471  1.00  0.00    -0.092 OA 
HETATM   11  O   UNL     1     -10.321   5.575  74.495  1.00  0.00    -0.269 OA 
HETATM   12  C   UNL     1     -10.275   8.189  72.557  1.00  0.00    -0.313 C  
ENDROOT
BRANCH   4  13
HETATM   13  C   UNL     1      -9.512   3.514  70.997  1.00  0.00    -0.156 C  
BRANCH  13  14
HETATM   14  N   UNL     1      -8.347   3.150  70.122  1.00  0.00    -0.048 NA 
HETATM   15  C   UNL     1      -8.415   2.715  68.838  1.00  0.00    -0.067 A  
HETATM   16  C   UNL     1      -9.612   2.555  67.945  1.00  0.00    -0.061 C  
HETATM   17  C   UNL     1      -9.040   1.986  66.630  1.00  0.00    -0.072 C  
HETATM   18  C   UNL     1      -7.127   3.141  70.739  1.00  0.00    -0.033 A  
HETATM   19  C   UNL     1      -7.520   1.888  66.751  1.00  0.00    -0.060 C  
HETATM   20  C   UNL     1      -5.974   2.692  70.099  1.00  0.00    -0.023 A  
HETATM   21  C   UNL     1      -6.031   2.259  68.789  1.00  0.00    -0.024 A  
HETATM   22  C   UNL     1      -7.262   2.281  68.167  1.00  0.00    -0.047 A  
ENDBRANCH  13  14
ENDBRANCH   4  13
BRANCH   5  23
HETATM   23  N   UNL     1     -10.286   9.790  70.566  1.00  0.00    -0.307 N  
HETATM   24  C   UNL     1     -10.775  10.604  69.558  1.00  0.00    -0.251 C  
HETATM   25  O   UNL     1     -11.962  10.863  69.432  1.00  0.00    -0.313 OA 
HETATM   26  H   UNL     1      -9.275   9.764  70.701  1.00  0.00     0.000 HD 
BRANCH  24  27
HETATM   27  C   UNL     1      -9.684  11.154  68.588  1.00  0.00    -0.198 C  
BRANCH  27  28
HETATM   28  C   UNL     1      -9.645  10.690  67.195  1.00  0.00    -0.164 A  
HETATM   29  N   UNL     1      -9.183   9.417  66.873  1.00  0.00    -0.137 NA 
HETATM   30  N   UNL     1      -8.828   8.057  65.021  1.00  0.00    -0.387 NA 
HETATM   31  C   UNL     1     -10.081  11.411  66.097  1.00  0.00    -0.231 A  
HETATM   32  S   UNL     1      -9.886  10.497  64.663  1.00  0.00    -0.354 SA 
HETATM   33  H1  UNL     1      -8.443   7.288  65.569  1.00  0.00     0.000 HD 
HETATM   34  H2  UNL     1      -8.906   7.951  64.010  1.00  0.00     0.000 HD 
HETATM   35  C   UNL     1      -9.237   9.201  65.585  1.00  0.00    -0.234 A  
ENDBRANCH  27  28
BRANCH  27  36
HETATM   36  N   UNL     1      -8.787  12.054  68.880  1.00  0.00    -0.375 NA 
HETATM   37  H   UNL     1      -8.244  12.035  69.743  1.00  0.00     0.000 HD 
BRANCH  36  38
HETATM   38  O   UNL     1      -8.635  13.045  67.911  1.00  0.00    -0.166 OA 
HETATM   39  C   UNL     1      -7.240  13.166  67.636  1.00  0.00    -0.159 C  
ENDBRANCH  36  38
ENDBRANCH  27  36
ENDBRANCH  24  27
ENDBRANCH   5  23
TORSDOF 7
ENDMDL
MODEL      189
REMARK 921   NORMALIZED FREE ENERGY PREDICTED BY IDOCK:   -4.09 KCAL/MOL
REMARK 922        TOTAL FREE ENERGY PREDICTED BY IDOCK:   -6.97 KCAL/MOL
REMARK 923 INTER-LIGAND FREE ENERGY PREDICTED BY IDOCK:   -5.50 KCAL/MOL
REMARK 924 INTRA-LIGAND FREE ENERGY PREDICTED BY IDOCK:   -1.47 KCAL/MOL
REMARK 927      BINDING AFFINITY PREDICTED BY RF-SCORE:    0.00 PKD
ROOT
HETATM    1  C   UNL     1      -5.372  11.978  68.684  1.00  0.00    -0.049 C  
HETATM    2  S   UNL     1      -6.746  11.258  67.730  1.00  0.00    -0.073 SA 
HETATM    3  C   UNL     1      -7.123  12.753  66.835  1.00  0.00     0.329 C  
HETATM    4  C   UNL     1      -7.291  13.985  67.683  1.00  0.00    -0.188 C  
HETATM    5  CA  UNL     1      -5.135  11.336  70.089  1.00  0.00    -0.066 C  
HETATM    6  CA  UNL     1      -6.612  14.172  68.847  1.00  0.00    -0.099 C  
HETATM    7  C   UNL     1      -6.612  15.581  69.566  1.00  0.00    -0.172 C  
HETATM    8  O   UNL     1      -6.027  13.107  71.718  1.00  0.00    -0.201 OA 
HETATM    9  N   UNL     1      -5.813  13.177  69.365  1.00  0.00    -0.089 N  
HETATM   10  OXT UNL     1      -7.662  16.275  69.358  1.00  0.00    -0.231 OA 
HETATM   11  O   UNL     1      -5.515  15.922  70.081  1.00  0.00    -0.140 OA 
HETATM   12  C   UNL     1      -5.654  12.717  70.633  1.00  0.00    -0.177 C  
ENDROOT
BRANCH   4  13
HETATM   13  C   UNL     1      -8.094  15.051  66.962  1.00  0.00    -0.190 C  
BRANCH  13  14
HETATM   14  N   UNL     1      -9.545  14.800  66.664  1.00  0.00    -0.258 NA 
HETATM   15  C   UNL     1     -10.402  14.066  67.417  1.00  0.00    -0.259 A  
HETATM   16  C   UNL     1     -10.174  13.392  68.740  1.00  0.00    -0.128 C  
HETATM   17  C   UNL     1     -11.514  12.690  69.051  1.00  0.00    -0.354 C  
HETATM   18  C   UNL     1      -9.984  15.256  65.453  1.00  0.00    -0.329 A  
HETATM   19  C   UNL     1     -12.516  13.020  67.947  1.00  0.00     0.436 C  
HETATM   20  C   UNL     1     -11.263  14.979  64.973  1.00  0.00    -0.413 A  
HETATM   21  C   UNL     1     -12.146  14.243  65.739  1.00  0.00    -0.414 A  
HETATM   22  C   UNL     1     -11.702  13.796  66.966  1.00  0.00    -0.420 A  
ENDBRANCH  13  14
ENDBRANCH   4  13
BRANCH   5  23
HETATM   23  N   UNL     1      -6.015  10.194  70.463  1.00  0.00    -0.088 N  
HETATM   24  C   UNL     1      -6.000   9.543  71.685  1.00  0.00     0.002 C  
HETATM   25  O   UNL     1      -5.392   9.968  72.655  1.00  0.00    -0.285 OA 
HETATM   26  H   UNL     1      -6.680   9.866  69.763  1.00  0.00     0.000 HD 
BRANCH  24  27
HETATM   27  C   UNL     1      -6.816   8.214  71.717  1.00  0.00    -0.073 C  
BRANCH  27  28
HETATM   28  C   UNL     1      -8.215   8.205  71.268  1.00  0.00    -0.116 A  
HETATM   29  N   UNL     1      -9.080   9.249  71.585  1.00  0.00    -0.273 NA 
HETATM   30  N   UNL     1     -11.288   9.902  71.270  1.00  0.00    -0.368 NA 
HETATM   31  C   UNL     1      -8.797   7.229  70.478  1.00  0.00    -0.153 A  
HETATM   32  S   UNL     1     -10.435   7.613  70.159  1.00  0.00    -0.231 SA 
HETATM   33  H1  UNL     1     -11.190  10.755  71.820  1.00  0.00     0.000 HD 
HETATM   34  H2  UNL     1     -12.191   9.690  70.845  1.00  0.00     0.000 HD 
HETATM   35  C   UNL     1     -10.271   9.050  71.086  1.00  0.00    -0.293 A  
ENDBRANCH  27  28
BRANCH  27  36
HETATM   36  N   UNL     1      -6.359   7.047  72.075  1.00  0.00    -0.044 NA 
HETATM   37  H   UNL     1      -6.109   6.320  71.405  1.00  0.00     0.000 HD 
BRANCH  36  38
HETATM   38  O   UNL     1      -6.243   6.877  73.455  1.00  0.00    -0.061 OA 
HETATM   39  C   UNL     1      -5.559   5.646  73.680  1.00  0.00    -0.028 C  
ENDBRANCH  36  38
ENDBRANCH  27  36
ENDBRANCH  24  27
ENDBRANCH   5  23
TORSDOF 7
ENDMDL
MODEL      190
REMARK 921   NORMALIZED FREE ENERGY PREDICTED BY IDOCK:   -4.05 KCAL/MOL
REMARK 922        TOTAL FREE ENERGY PREDICTED BY IDOCK:   -6.92 KCAL/MOL
REMARK 923 INTER-LIGAND FREE ENERGY PREDICTED BY IDOCK:   -5.93 KCAL/MOL
REMARK 924 INTRA-LIGAND FREE ENERGY PREDICTED BY IDOCK:   -0.99 KCAL/MOL
REMARK 927      BINDING AFFINITY PREDICTED BY RF-SCORE:    0.00 PKD
ROOT
HETATM    1  C   UNL     1      -7.402   9.270  66.956  1.00  0.00    -0.091 C  
HETATM    2  S   UNL     1      -8.436   9.347  68.452  1.00  0.00    -0.120 SA 
HETATM    3  C   UNL     1      -8.182   7.643  68.912  1.00  0.00    -0.128 C  
HETATM    4  C   UNL     1      -8.424   6.639  67.817  1.00  0.00    -0.122 C  
HETATM    5  CA  UNL     1      -7.817  10.254  65.815  1.00  0.00    -0.145 C  
HETATM    6  CA  UNL     1      -8.198   6.916  66.505  1.00  0.00    -0.117 C  
HETATM    7  C   UNL     1      -8.207   5.764  65.421  1.00  0.00    -0.138 C  
HETATM    8  O   UNL     1      -8.909   8.725  64.067  1.00  0.00    -0.055 OA 
HETATM    9  N   UNL     1      -7.838   8.184  66.104  1.00  0.00    -0.090 N  
HETATM   10  OXT UNL     1      -8.964   4.779  65.711  1.00  0.00    -0.128 OA 
HETATM   11  O   UNL     1      -7.334   5.865  64.521  1.00  0.00    -0.060 OA 
HETATM   12  C   UNL     1      -8.241   8.945  65.054  1.00  0.00    -0.153 C  
ENDROOT
BRANCH   4  13
HETATM   13  C   UNL     1      -8.701   5.257  68.380  1.00  0.00    -0.098 C  
BRANCH  13  14
HETATM   14  N   UNL     1      -9.138   5.123  69.811  1.00  0.00    -0.113 NA 
HETATM   15  C   UNL     1      -8.409   4.591  70.825  1.00  0.00    -0.087 A  
HETATM   16  C   UNL     1      -6.996   4.080  70.820  1.00  0.00    -0.033 C  
HETATM   17  C   UNL     1      -6.766   3.571  72.259  1.00  0.00    -0.015 C  
HETATM   18  C   UNL     1     -10.440   5.455  70.062  1.00  0.00    -0.303 A  
HETATM   19  C   UNL     1      -8.014   3.854  73.092  1.00  0.00    -0.087 C  
HETATM   20  C   UNL     1     -11.032   5.253  71.307  1.00  0.00    -0.059 A  
HETATM   21  C   UNL     1     -10.294   4.723  72.348  1.00  0.00    -0.261 A  
HETATM   22  C   UNL     1      -8.978   4.401  72.093  1.00  0.00    -0.143 A  
ENDBRANCH  13  14
ENDBRANCH   4  13
BRANCH   5  23
HETATM   23  N   UNL     1      -8.963  11.163  66.095  1.00  0.00    -0.191 N  
HETATM   24  C   UNL     1      -8.889  12.338  66.826  1.00  0.00    -0.195 C  
HETATM   25  O   UNL     1      -7.830  12.849  67.155  1.00  0.00    -0.156 OA 
HETATM   26  H   UNL     1      -9.873  10.900  65.719  1.00  0.00     0.000 HD 
BRANCH  24  27
HETATM   27  C   UNL     1     -10.273  12.947  67.206  1.00  0.00    -0.234 C  
BRANCH  27  28
HETATM   28  C   UNL     1     -10.944  12.523  68.442  1.00  0.00    -0.248 A  
HETATM   29  N   UNL     1     -10.776  11.237  68.948  1.00  0.00    -0.199 NA 
HETATM   30  N   UNL     1     -11.469   9.907  70.723  1.00  0.00    -0.326 NA 
HETATM   31  C   UNL     1     -11.746  13.326  69.236  1.00  0.00    -0.326 A  
HETATM   32  S   UNL     1     -12.306  12.454  70.598  1.00  0.00    -0.172 SA 
HETATM   33  H1  UNL     1     -10.961   9.084  70.400  1.00  0.00     0.000 HD 
HETATM   34  H2  UNL     1     -12.010   9.845  71.586  1.00  0.00     0.000 HD 
HETATM   35  C   UNL     1     -11.451  11.067  70.054  1.00  0.00    -0.314 A  
ENDBRANCH  27  28
BRANCH  27  36
HETATM   36  N   UNL     1     -10.911  13.867  66.537  1.00  0.00    -0.298 NA 
HETATM   37  H   UNL     1     -11.163  14.770  66.938  1.00  0.00     0.000 HD 
BRANCH  36  38
HETATM   38  O   UNL     1     -11.221  13.508  65.225  1.00  0.00    -0.288 OA 
HETATM   39  C   UNL     1     -12.642  13.502  65.105  1.00  0.00    -0.436 C  
ENDBRANCH  36  38
ENDBRANCH  27  36
ENDBRANCH  24  27
ENDBRANCH   5  23
TORSDOF 7
ENDMDL
MODEL      191
REMARK 921   NORMALIZED FREE ENERGY PREDICTED BY IDOCK:   -4.02 KCAL/MOL
REMARK 922        TOTAL FREE ENERGY PREDICTED BY IDOCK:   -6.88 KCAL/MOL
REMARK 923 INTER-LIGAND FREE ENERGY PREDICTED BY IDOCK:   -7.21 KCAL/MOL
REMARK 924 INTRA-LIGAND FREE ENERGY PREDICTED BY IDOCK:    0.33 KCAL/MOL
REMARK 927      BINDING AFFINITY PREDICTED BY RF-SCORE:    0.00 PKD
ROOT
HETATM    1  C   UNL     1     -10.691   8.637  69.499  1.00  0.00    -0.182 C  
HETATM    2  S   UNL     1     -10.737   7.439  68.130  1.00  0.00    -0.053 SA 
HETATM    3  C   UNL     1     -10.177   6.056  69.106  1.00  0.00    -0.204 C  
HETATM    4  C   UNL     1      -8.935   6.303  69.918  1.00  0.00    -0.141 C  
HETATM    5  CA  UNL     1     -10.417  10.116  69.075  1.00  0.00    -0.219 C  
HETATM    6  CA  UNL     1      -8.623   7.525  70.428  1.00  0.00    -0.143 C  
HETATM    7  C   UNL     1      -7.461   7.687  71.489  1.00  0.00    -0.079 C  
HETATM    8  O   UNL     1      -7.993  10.516  69.814  1.00  0.00    -0.127 OA 
HETATM    9  N   UNL     1      -9.386   8.631  70.124  1.00  0.00    -0.160 N  
HETATM   10  OXT UNL     1      -6.533   6.818  71.385  1.00  0.00    -0.041 OA 
HETATM   11  O   UNL     1      -7.688   8.511  72.413  1.00  0.00    -0.239 OA 
HETATM   12  C   UNL     1      -9.038   9.903  69.799  1.00  0.00    -0.225 C  
ENDROOT
BRANCH   4  13
HETATM   13  C   UNL     1      -8.242   5.004  70.285  1.00  0.00    -0.088 C  
BRANCH  13  14
HETATM   14  N   UNL     1      -9.042   3.898  70.913  1.00  0.00    -0.102 NA 
HETATM   15  C   UNL     1      -9.699   3.958  72.099  1.00  0.00    -0.159 A  
HETATM   16  C   UNL     1      -9.867   5.117  73.041  1.00  0.00    -0.177 C  
HETATM   17  C   UNL     1     -10.674   4.539  74.223  1.00  0.00    -0.280 C  
HETATM   18  C   UNL     1      -8.982   2.692  70.273  1.00  0.00    -0.098 A  
HETATM   19  C   UNL     1     -11.020   3.082  73.923  1.00  0.00    -0.281 C  
HETATM   20  C   UNL     1      -9.555   1.538  70.806  1.00  0.00    -0.170 A  
HETATM   21  C   UNL     1     -10.235   1.593  72.007  1.00  0.00    -0.225 A  
HETATM   22  C   UNL     1     -10.304   2.815  72.642  1.00  0.00    -0.220 A  
ENDBRANCH  13  14
ENDBRANCH   4  13
BRANCH   5  23
HETATM   23  N   UNL     1     -10.275  10.381  67.616  1.00  0.00    -0.190 N  
HETATM   24  C   UNL     1      -9.107  10.224  66.887  1.00  0.00    -0.143 C  
HETATM   25  O   UNL     1      -8.117   9.666  67.333  1.00  0.00    -0.109 OA 
HETATM   26  H   UNL     1     -11.103  10.702  67.114  1.00  0.00     0.000 HD 
BRANCH  24  27
HETATM   27  C   UNL     1      -9.158  10.833  65.452  1.00  0.00    -0.194 C  
BRANCH  27  28
HETATM   28  C   UNL     1     -10.331  11.609  65.029  1.00  0.00    -0.281 A  
HETATM   29  N   UNL     1     -10.888  12.581  65.855  1.00  0.00    -0.263 NA 
HETATM   30  N   UNL     1     -12.637  14.112  65.892  1.00  0.00    -0.470 NA 
HETATM   31  C   UNL     1     -10.964  11.502  63.802  1.00  0.00    -0.409 A  
HETATM   32  S   UNL     1     -12.270  12.604  63.702  1.00  0.00    -0.536 SA 
HETATM   33  H1  UNL     1     -12.427  14.440  66.834  1.00  0.00     0.000 HD 
HETATM   34  H2  UNL     1     -13.423  14.525  65.390  1.00  0.00     0.000 HD 
HETATM   35  C   UNL     1     -11.916  13.156  65.290  1.00  0.00    -0.398 A  
ENDBRANCH  27  28
BRANCH  27  36
HETATM   36  N   UNL     1      -8.211  10.762  64.559  1.00  0.00    -0.362 NA 
HETATM   37  H   UNL     1      -8.058  11.482  63.854  1.00  0.00     0.000 HD 
BRANCH  36  38
HETATM   38  O   UNL     1      -7.423   9.614  64.652  1.00  0.00    -0.112 OA 
HETATM   39  C   UNL     1      -6.073   9.997  64.394  1.00  0.00    -0.130 C  
ENDBRANCH  36  38
ENDBRANCH  27  36
ENDBRANCH  24  27
ENDBRANCH   5  23
TORSDOF 7
ENDMDL
MODEL      192
REMARK 921   NORMALIZED FREE ENERGY PREDICTED BY IDOCK:   -4.01 KCAL/MOL
REMARK 922        TOTAL FREE ENERGY PREDICTED BY IDOCK:   -6.85 KCAL/MOL
REMARK 923 INTER-LIGAND FREE ENERGY PREDICTED BY IDOCK:   -7.25 KCAL/MOL
REMARK 924 INTRA-LIGAND FREE ENERGY PREDICTED BY IDOCK:    0.39 KCAL/MOL
REMARK 927      BINDING AFFINITY PREDICTED BY RF-SCORE:    0.00 PKD
ROOT
HETATM    1  C   UNL     1      -7.180  10.192  69.395  1.00  0.00    -0.096 C  
HETATM    2  S   UNL     1      -8.528   9.243  70.168  1.00  0.00    -0.211 SA 
HETATM    3  C   UNL     1      -7.824   7.644  69.814  1.00  0.00    -0.110 C  
HETATM    4  C   UNL     1      -7.404   7.428  68.385  1.00  0.00    -0.103 C  
HETATM    5  CA  UNL     1      -7.599  11.579  68.810  1.00  0.00    -0.129 C  
HETATM    6  CA  UNL     1      -6.954   8.438  67.592  1.00  0.00    -0.075 C  
HETATM    7  C   UNL     1      -6.277   8.130  66.196  1.00  0.00    -0.045 C  
HETATM    8  O   UNL     1      -7.590  11.190  66.273  1.00  0.00    -0.140 OA 
HETATM    9  N   UNL     1      -6.969   9.742  68.036  1.00  0.00    -0.077 N  
HETATM   10  OXT UNL     1      -6.689   7.059  65.639  1.00  0.00    -0.050 OA 
HETATM   11  O   UNL     1      -5.291   8.857  65.906  1.00  0.00    -0.036 OA 
HETATM   12  C   UNL     1      -7.324  10.899  67.419  1.00  0.00    -0.099 C  
ENDROOT
BRANCH   4  13
HETATM   13  C   UNL     1      -7.317   5.951  68.048  1.00  0.00    -0.080 C  
BRANCH  13  14
HETATM   14  N   UNL     1      -8.434   5.308  67.277  1.00  0.00    -0.107 NA 
HETATM   15  C   UNL     1      -8.330   4.221  66.471  1.00  0.00    -0.101 A  
HETATM   16  C   UNL     1      -7.139   3.348  66.195  1.00  0.00    -0.063 C  
HETATM   17  C   UNL     1      -7.649   2.312  65.169  1.00  0.00    -0.072 C  
HETATM   18  C   UNL     1      -9.627   5.974  67.304  1.00  0.00    -0.115 A  
HETATM   19  C   UNL     1      -9.136   2.555  64.917  1.00  0.00    -0.137 C  
HETATM   20  C   UNL     1     -10.717   5.580  66.529  1.00  0.00    -0.309 A  
HETATM   21  C   UNL     1     -10.623   4.468  65.715  1.00  0.00    -0.226 A  
HETATM   22  C   UNL     1      -9.420   3.793  65.700  1.00  0.00    -0.170 A  
ENDBRANCH  13  14
ENDBRANCH   4  13
BRANCH   5  23
HETATM   23  N   UNL     1      -9.022  11.983  68.990  1.00  0.00    -0.353 N  
HETATM   24  C   UNL     1     -10.090  11.486  68.262  1.00  0.00    -0.199 C  
HETATM   25  O   UNL     1      -9.996  10.518  67.523  1.00  0.00    -0.165 OA 
HETATM   26  H   UNL     1      -9.224  12.679  69.707  1.00  0.00     0.000 HD 
BRANCH  24  27
HETATM   27  C   UNL     1     -11.422  12.274  68.455  1.00  0.00    -0.307 C  
BRANCH  27  28
HETATM   28  C   UNL     1     -12.101  12.252  69.757  1.00  0.00    -0.229 A  
HETATM   29  N   UNL     1     -12.386  11.051  70.401  1.00  0.00    -0.344 NA 
HETATM   30  N   UNL     1     -13.380  10.255  72.345  1.00  0.00    -0.573 NA 
HETATM   31  C   UNL     1     -12.481  13.369  70.483  1.00  0.00    -0.279 A  
HETATM   32  S   UNL     1     -13.215  12.905  71.958  1.00  0.00    -0.393 SA 
HETATM   33  H1  UNL     1     -13.243   9.274  72.100  1.00  0.00     0.000 HD 
HETATM   34  H2  UNL     1     -13.835  10.483  73.229  1.00  0.00     0.000 HD 
HETATM   35  C   UNL     1     -12.984  11.254  71.545  1.00  0.00    -0.415 A  
ENDBRANCH  27  28
BRANCH  27  36
HETATM   36  N   UNL     1     -12.004  13.019  67.557  1.00  0.00    -0.342 NA 
HETATM   37  H   UNL     1     -12.241  13.998  67.719  1.00  0.00     0.000 HD 
BRANCH  36  38
HETATM   38  O   UNL     1     -12.276  12.363  66.357  1.00  0.00    -0.604 OA 
HETATM   39  C   UNL     1     -12.503  13.360  65.363  1.00  0.00    -0.494 C  
ENDBRANCH  36  38
ENDBRANCH  27  36
ENDBRANCH  24  27
ENDBRANCH   5  23
TORSDOF 7
ENDMDL
MODEL      193
REMARK 921   NORMALIZED FREE ENERGY PREDICTED BY IDOCK:   -3.98 KCAL/MOL
REMARK 922        TOTAL FREE ENERGY PREDICTED BY IDOCK:   -6.81 KCAL/MOL
REMARK 923 INTER-LIGAND FREE ENERGY PREDICTED BY IDOCK:   -5.90 KCAL/MOL
REMARK 924 INTRA-LIGAND FREE ENERGY PREDICTED BY IDOCK:   -0.92 KCAL/MOL
REMARK 927      BINDING AFFINITY PREDICTED BY RF-SCORE:    0.00 PKD
ROOT
HETATM    1  C   UNL     1     -10.215   8.310  67.597  1.00  0.00    -0.231 C  
HETATM    2  S   UNL     1      -9.888   8.718  69.341  1.00  0.00    -0.192 SA 
HETATM    3  C   UNL     1      -9.607  10.455  69.052  1.00  0.00    -0.204 C  
HETATM    4  C   UNL     1      -8.629  10.774  67.954  1.00  0.00    -0.125 C  
HETATM    5  CA  UNL     1      -9.841   6.852  67.178  1.00  0.00    -0.165 C  
HETATM    6  CA  UNL     1      -8.468   9.979  66.861  1.00  0.00    -0.125 C  
HETATM    7  C   UNL     1      -7.635  10.478  65.612  1.00  0.00    -0.134 C  
HETATM    8  O   UNL     1      -7.705   7.153  65.787  1.00  0.00    -0.090 OA 
HETATM    9  N   UNL     1      -9.125   8.772  66.764  1.00  0.00    -0.139 N  
HETATM   10  OXT UNL     1      -6.710  11.309  65.899  1.00  0.00     0.032 OA 
HETATM   11  O   UNL     1      -8.103  10.157  64.489  1.00  0.00    -0.154 OA 
HETATM   12  C   UNL     1      -8.706   7.551  66.343  1.00  0.00    -0.145 C  
ENDROOT
BRANCH   4  13
HETATM   13  C   UNL     1      -8.057  12.170  68.106  1.00  0.00    -0.161 C  
BRANCH  13  14
HETATM   14  N   UNL     1      -8.893  13.353  67.707  1.00  0.00    -0.187 NA 
HETATM   15  C   UNL     1      -8.628  14.653  67.989  1.00  0.00    -0.162 A  
HETATM   16  C   UNL     1      -7.438  15.258  68.680  1.00  0.00    -0.126 C  
HETATM   17  C   UNL     1      -7.748  16.770  68.729  1.00  0.00    -0.242 C  
HETATM   18  C   UNL     1     -10.091  13.055  67.121  1.00  0.00    -0.244 A  
HETATM   19  C   UNL     1      -9.070  17.029  68.010  1.00  0.00    -0.237 C  
HETATM   20  C   UNL     1     -11.037  14.034  66.822  1.00  0.00    -0.311 A  
HETATM   21  C   UNL     1     -10.770  15.362  67.094  1.00  0.00    -0.314 A  
HETATM   22  C   UNL     1      -9.554  15.658  67.675  1.00  0.00    -0.220 A  
ENDBRANCH  13  14
ENDBRANCH   4  13
BRANCH   5  23
HETATM   23  N   UNL     1      -9.313   5.960  68.247  1.00  0.00    -0.116 N  
HETATM   24  C   UNL     1     -10.064   5.422  69.280  1.00  0.00    -0.231 C  
HETATM   25  O   UNL     1     -11.284   5.470  69.307  1.00  0.00    -0.067 OA 
HETATM   26  H   UNL     1      -8.321   5.727  68.217  1.00  0.00     0.000 HD 
BRANCH  24  27
HETATM   27  C   UNL     1      -9.220   4.759  70.411  1.00  0.00    -0.136 C  
BRANCH  27  28
HETATM   28  C   UNL     1      -9.550   5.022  71.818  1.00  0.00    -0.154 A  
HETATM   29  N   UNL     1      -9.243   6.242  72.414  1.00  0.00    -0.139 NA 
HETATM   30  N   UNL     1      -9.425   7.332  74.459  1.00  0.00    -0.424 NA 
HETATM   31  C   UNL     1     -10.211   4.148  72.664  1.00  0.00    -0.169 A  
HETATM   32  S   UNL     1     -10.422   4.853  74.210  1.00  0.00    -0.268 SA 
HETATM   33  H1  UNL     1      -8.952   8.175  74.134  1.00  0.00     0.000 HD 
HETATM   34  H2  UNL     1      -9.756   7.293  75.423  1.00  0.00     0.000 HD 
HETATM   35  C   UNL     1      -9.626   6.273  73.663  1.00  0.00    -0.159 A  
ENDBRANCH  27  28
BRANCH  27  36
HETATM   36  N   UNL     1      -8.233   3.924  70.238  1.00  0.00    -0.057 NA 
HETATM   37  H   UNL     1      -7.411   3.905  70.840  1.00  0.00     0.000 HD 
BRANCH  36  38
HETATM   38  O   UNL     1      -8.400   3.058  69.157  1.00  0.00    -0.058 OA 
HETATM   39  C   UNL     1      -7.644   1.880  69.429  1.00  0.00    -0.043 C  
ENDBRANCH  36  38
ENDBRANCH  27  36
ENDBRANCH  24  27
ENDBRANCH   5  23
TORSDOF 7
ENDMDL
MODEL      194
REMARK 921   NORMALIZED FREE ENERGY PREDICTED BY IDOCK:   -3.86 KCAL/MOL
REMARK 922        TOTAL FREE ENERGY PREDICTED BY IDOCK:   -6.65 KCAL/MOL
REMARK 923 INTER-LIGAND FREE ENERGY PREDICTED BY IDOCK:   -7.08 KCAL/MOL
REMARK 924 INTRA-LIGAND FREE ENERGY PREDICTED BY IDOCK:    0.43 KCAL/MOL
REMARK 927      BINDING AFFINITY PREDICTED BY RF-SCORE:    0.00 PKD
ROOT
HETATM    1  C   UNL     1     -11.047   6.862  70.232  1.00  0.00    -0.297 C  
HETATM    2  S   UNL     1     -11.013   7.203  68.444  1.00  0.00     0.050 SA 
HETATM    3  C   UNL     1      -9.642   6.117  68.098  1.00  0.00    -0.116 C  
HETATM    4  C   UNL     1      -8.435   6.305  68.977  1.00  0.00    -0.120 C  
HETATM    5  CA  UNL     1     -11.577   8.035  71.118  1.00  0.00    -0.282 C  
HETATM    6  CA  UNL     1      -8.526   6.715  70.271  1.00  0.00    -0.135 C  
HETATM    7  C   UNL     1      -7.273   6.646  71.233  1.00  0.00    -0.078 C  
HETATM    8  O   UNL     1      -9.455   8.955  72.231  1.00  0.00    -0.327 OA 
HETATM    9  N   UNL     1      -9.739   7.089  70.808  1.00  0.00    -0.169 N  
HETATM   10  OXT UNL     1      -6.150   6.761  70.638  1.00  0.00    -0.027 OA 
HETATM   11  O   UNL     1      -7.521   6.292  72.415  1.00  0.00    -0.091 OA 
HETATM   12  C   UNL     1     -10.087   8.126  71.612  1.00  0.00    -0.199 C  
ENDROOT
BRANCH   4  13
HETATM   13  C   UNL     1      -7.180   5.756  68.325  1.00  0.00    -0.076 C  
BRANCH  13  14
HETATM   14  N   UNL     1      -7.077   4.281  68.059  1.00  0.00    -0.059 NA 
HETATM   15  C   UNL     1      -7.438   3.646  66.915  1.00  0.00    -0.079 A  
HETATM   16  C   UNL     1      -7.945   4.220  65.623  1.00  0.00    -0.094 C  
HETATM   17  C   UNL     1      -8.212   2.988  64.732  1.00  0.00    -0.086 C  
HETATM   18  C   UNL     1      -6.705   3.515  69.128  1.00  0.00    -0.037 A  
HETATM   19  C   UNL     1      -7.794   1.729  65.488  1.00  0.00    -0.072 C  
HETATM   20  C   UNL     1      -6.700   2.122  69.079  1.00  0.00    -0.033 A  
HETATM   21  C   UNL     1      -7.053   1.468  67.915  1.00  0.00    -0.035 A  
HETATM   22  C   UNL     1      -7.416   2.246  66.835  1.00  0.00    -0.065 A  
ENDBRANCH  13  14
ENDBRANCH   4  13
BRANCH   5  23
HETATM   23  N   UNL     1     -12.032   9.262  70.407  1.00  0.00    -0.469 N  
HETATM   24  C   UNL     1     -11.198  10.244  69.897  1.00  0.00    -0.299 C  
HETATM   25  O   UNL     1      -9.988  10.107  69.810  1.00  0.00    -0.231 OA 
HETATM   26  H   UNL     1     -13.036   9.389  70.286  1.00  0.00     0.000 HD 
BRANCH  24  27
HETATM   27  C   UNL     1     -11.933  11.546  69.455  1.00  0.00    -0.325 C  
BRANCH  27  28
HETATM   28  C   UNL     1     -12.392  12.506  70.467  1.00  0.00    -0.262 A  
HETATM   29  N   UNL     1     -12.264  13.878  70.270  1.00  0.00    -0.339 NA 
HETATM   30  N   UNL     1     -12.713  15.890  71.343  1.00  0.00    -0.537 NA 
HETATM   31  C   UNL     1     -13.016  12.178  71.659  1.00  0.00    -0.321 A  
HETATM   32  S   UNL     1     -13.415  13.592  72.537  1.00  0.00    -0.510 SA 
HETATM   33  H1  UNL     1     -12.312  16.460  70.598  1.00  0.00     0.000 HD 
HETATM   34  H2  UNL     1     -13.108  16.355  72.160  1.00  0.00     0.000 HD 
HETATM   35  C   UNL     1     -12.739  14.552  71.284  1.00  0.00    -0.342 A  
ENDBRANCH  27  28
BRANCH  27  36
HETATM   36  N   UNL     1     -12.158  11.915  68.224  1.00  0.00    -0.462 NA 
HETATM   37  H   UNL     1     -13.042  11.741  67.746  1.00  0.00     0.000 HD 
BRANCH  36  38
HETATM   38  O   UNL     1     -11.085  12.567  67.617  1.00  0.00    -0.235 OA 
HETATM   39  C   UNL     1     -11.178  12.334  66.213  1.00  0.00    -0.323 C  
ENDBRANCH  36  38
ENDBRANCH  27  36
ENDBRANCH  24  27
ENDBRANCH   5  23
TORSDOF 7
ENDMDL
MODEL      195
REMARK 921   NORMALIZED FREE ENERGY PREDICTED BY IDOCK:   -3.80 KCAL/MOL
REMARK 922        TOTAL FREE ENERGY PREDICTED BY IDOCK:   -6.57 KCAL/MOL
REMARK 923 INTER-LIGAND FREE ENERGY PREDICTED BY IDOCK:   -6.51 KCAL/MOL
REMARK 924 INTRA-LIGAND FREE ENERGY PREDICTED BY IDOCK:   -0.06 KCAL/MOL
REMARK 927      BINDING AFFINITY PREDICTED BY RF-SCORE:    0.00 PKD
ROOT
HETATM    1  C   UNL     1      -7.564   8.752  68.525  1.00  0.00    -0.098 C  
HETATM    2  S   UNL     1      -8.620   9.221  69.931  1.00  0.00    -0.189 SA 
HETATM    3  C   UNL     1      -9.255   7.578  70.212  1.00  0.00    -0.157 C  
HETATM    4  C   UNL     1      -9.799   6.882  68.994  1.00  0.00    -0.152 C  
HETATM    5  CA  UNL     1      -7.322   9.884  67.474  1.00  0.00    -0.090 C  
HETATM    6  CA  UNL     1      -9.306   7.098  67.744  1.00  0.00    -0.127 C  
HETATM    7  C   UNL     1      -9.717   6.161  66.539  1.00  0.00    -0.145 C  
HETATM    8  O   UNL     1      -8.774   9.175  65.480  1.00  0.00    -0.158 OA 
HETATM    9  N   UNL     1      -8.346   8.062  67.522  1.00  0.00    -0.123 N  
HETATM   10  OXT UNL     1     -10.877   5.642  66.652  1.00  0.00    -0.292 OA 
HETATM   11  O   UNL     1      -8.793   5.887  65.730  1.00  0.00    -0.150 OA 
HETATM   12  C   UNL     1      -8.211   8.986  66.537  1.00  0.00    -0.114 C  
ENDROOT
BRANCH   4  13
HETATM   13  C   UNL     1     -10.758   5.769  69.371  1.00  0.00    -0.326 C  
BRANCH  13  14
HETATM   14  N   UNL     1     -10.251   4.604  70.171  1.00  0.00    -0.209 NA 
HETATM   15  C   UNL     1     -10.372   4.441  71.513  1.00  0.00    -0.026 A  
HETATM   16  C   UNL     1     -11.081   5.301  72.520  1.00  0.00    -0.289 C  
HETATM   17  C   UNL     1     -10.819   4.606  73.874  1.00  0.00    -0.359 C  
HETATM   18  C   UNL     1      -9.491   3.702  69.481  1.00  0.00    -0.176 A  
HETATM   19  C   UNL     1     -10.027   3.323  73.628  1.00  0.00    -0.170 C  
HETATM   20  C   UNL     1      -8.835   2.646  70.111  1.00  0.00    -0.144 A  
HETATM   21  C   UNL     1      -8.963   2.465  71.474  1.00  0.00    -0.139 A  
HETATM   22  C   UNL     1      -9.741   3.371  72.164  1.00  0.00    -0.228 A  
ENDBRANCH  13  14
ENDBRANCH   4  13
BRANCH   5  23
HETATM   23  N   UNL     1      -7.934  11.211  67.763  1.00  0.00    -0.113 N  
HETATM   24  C   UNL     1      -9.250  11.555  67.503  1.00  0.00    -0.166 C  
HETATM   25  O   UNL     1     -10.100  10.737  67.186  1.00  0.00    -0.190 OA 
HETATM   26  H   UNL     1      -7.336  11.921  68.184  1.00  0.00     0.000 HD 
BRANCH  24  27
HETATM   27  C   UNL     1      -9.555  13.079  67.639  1.00  0.00    -0.206 C  
BRANCH  27  28
HETATM   28  C   UNL     1     -10.561  13.539  68.606  1.00  0.00    -0.244 A  
HETATM   29  N   UNL     1     -11.105  14.818  68.525  1.00  0.00    -0.253 NA 
HETATM   30  N   UNL     1     -12.631  16.186  69.621  1.00  0.00    -0.461 NA 
HETATM   31  C   UNL     1     -11.091  12.779  69.635  1.00  0.00     0.102 A  
HETATM   32  S   UNL     1     -12.252  13.682  70.510  1.00  0.00    -0.343 SA 
HETATM   33  H1  UNL     1     -12.470  16.982  69.005  1.00  0.00     0.000 HD 
HETATM   34  H2  UNL     1     -13.310  16.277  70.378  1.00  0.00     0.000 HD 
HETATM   35  C   UNL     1     -11.982  15.024  69.472  1.00  0.00    -0.313 A  
ENDBRANCH  27  28
BRANCH  27  36
HETATM   36  N   UNL     1      -8.958  14.037  66.987  1.00  0.00    -0.230 NA 
HETATM   37  H   UNL     1      -9.459  14.706  66.403  1.00  0.00     0.000 HD 
BRANCH  36  38
HETATM   38  O   UNL     1      -7.574  14.069  67.158  1.00  0.00    -0.123 OA 
HETATM   39  C   UNL     1      -7.294  14.969  68.229  1.00  0.00    -0.111 C  
ENDBRANCH  36  38
ENDBRANCH  27  36
ENDBRANCH  24  27
ENDBRANCH   5  23
TORSDOF 7
ENDMDL
MODEL      196
REMARK 921   NORMALIZED FREE ENERGY PREDICTED BY IDOCK:   -3.80 KCAL/MOL
REMARK 922        TOTAL FREE ENERGY PREDICTED BY IDOCK:   -6.57 KCAL/MOL
REMARK 923 INTER-LIGAND FREE ENERGY PREDICTED BY IDOCK:   -5.25 KCAL/MOL
REMARK 924 INTRA-LIGAND FREE ENERGY PREDICTED BY IDOCK:   -1.31 KCAL/MOL
REMARK 927      BINDING AFFINITY PREDICTED BY RF-SCORE:    0.00 PKD
ROOT
HETATM    1  C   UNL     1      -6.491   8.363  68.401  1.00  0.00    -0.059 C  
HETATM    2  S   UNL     1      -8.058   8.099  67.513  1.00  0.00    -0.124 SA 
HETATM    3  C   UNL     1      -7.956   9.599  66.554  1.00  0.00    -0.112 C  
HETATM    4  C   UNL     1      -7.678  10.850  67.344  1.00  0.00    -0.108 C  
HETATM    5  CA  UNL     1      -6.427   7.735  69.830  1.00  0.00    -0.034 C  
HETATM    6  CA  UNL     1      -6.934  10.848  68.483  1.00  0.00    -0.072 C  
HETATM    7  C   UNL     1      -6.444  12.205  69.132  1.00  0.00    -0.099 C  
HETATM    8  O   UNL     1      -6.627   9.763  71.390  1.00  0.00    -0.312 OA 
HETATM    9  N   UNL     1      -6.488   9.666  69.032  1.00  0.00    -0.045 N  
HETATM   10  OXT UNL     1      -7.215  13.198  68.913  1.00  0.00    -0.101 OA 
HETATM   11  O   UNL     1      -5.279  12.185  69.606  1.00  0.00    -0.069 OA 
HETATM   12  C   UNL     1      -6.443   9.230  70.317  1.00  0.00    -0.058 C  
ENDROOT
BRANCH   4  13
HETATM   13  C   UNL     1      -8.112  12.093  66.590  1.00  0.00     0.018 C  
BRANCH  13  14
HETATM   14  N   UNL     1      -9.467  12.681  66.864  1.00  0.00    -0.222 NA 
HETATM   15  C   UNL     1      -9.768  14.002  66.929  1.00  0.00    -0.271 A  
HETATM   16  C   UNL     1      -8.890  15.196  66.682  1.00  0.00    -0.321 C  
HETATM   17  C   UNL     1      -9.804  16.410  66.954  1.00  0.00    -0.266 C  
HETATM   18  C   UNL     1     -10.441  11.783  67.202  1.00  0.00    -0.220 A  
HETATM   19  C   UNL     1     -11.208  15.910  67.286  1.00  0.00    -0.094 C  
HETATM   20  C   UNL     1     -11.709  12.184  67.618  1.00  0.00    -0.386 A  
HETATM   21  C   UNL     1     -12.028  13.526  67.675  1.00  0.00    -0.373 A  
HETATM   22  C   UNL     1     -11.046  14.427  67.322  1.00  0.00    -0.318 A  
ENDBRANCH  13  14
ENDBRANCH   4  13
BRANCH   5  23
HETATM   23  N   UNL     1      -7.619   6.962  70.279  1.00  0.00    -0.089 N  
HETATM   24  C   UNL     1      -7.616   5.998  71.273  1.00  0.00    -0.094 C  
HETATM   25  O   UNL     1      -6.668   5.819  72.021  1.00  0.00    -0.059 OA 
HETATM   26  H   UNL     1      -8.506   7.159  69.817  1.00  0.00     0.000 HD 
BRANCH  24  27
HETATM   27  C   UNL     1      -8.923   5.151  71.351  1.00  0.00    -0.137 C  
BRANCH  27  28
HETATM   28  C   UNL     1      -9.022   3.890  70.603  1.00  0.00    -0.092 A  
HETATM   29  N   UNL     1      -8.514   3.777  69.312  1.00  0.00    -0.067 NA 
HETATM   30  N   UNL     1      -8.315   2.221  67.597  1.00  0.00    -0.066 NA 
HETATM   31  C   UNL     1      -9.565   2.711  71.085  1.00  0.00    -0.150 A  
HETATM   32  S   UNL     1      -9.458   1.475  69.907  1.00  0.00    -0.025 SA 
HETATM   33  H1  UNL     1      -7.863   2.875  66.958  1.00  0.00     0.000 HD 
HETATM   34  H2  UNL     1      -8.481   1.264  67.286  1.00  0.00     0.000 HD 
HETATM   35  C   UNL     1      -8.697   2.576  68.830  1.00  0.00    -0.085 A  
ENDBRANCH  27  28
BRANCH  27  36
HETATM   36  N   UNL     1      -9.972   5.430  72.074  1.00  0.00    -0.179 NA 
HETATM   37  H   UNL     1     -10.345   4.793  72.777  1.00  0.00     0.000 HD 
BRANCH  36  38
HETATM   38  O   UNL     1     -10.538   6.675  71.802  1.00  0.00    -0.212 OA 
HETATM   39  C   UNL     1     -11.296   6.549  70.600  1.00  0.00    -0.351 C  
ENDBRANCH  36  38
ENDBRANCH  27  36
ENDBRANCH  24  27
ENDBRANCH   5  23
TORSDOF 7
ENDMDL
MODEL      197
REMARK 921   NORMALIZED FREE ENERGY PREDICTED BY IDOCK:   -3.78 KCAL/MOL
REMARK 922        TOTAL FREE ENERGY PREDICTED BY IDOCK:   -6.54 KCAL/MOL
REMARK 923 INTER-LIGAND FREE ENERGY PREDICTED BY IDOCK:   -5.38 KCAL/MOL
REMARK 924 INTRA-LIGAND FREE ENERGY PREDICTED BY IDOCK:   -1.16 KCAL/MOL
REMARK 927      BINDING AFFINITY PREDICTED BY RF-SCORE:    0.00 PKD
ROOT
HETATM    1  C   UNL     1      -5.781  10.425  68.383  1.00  0.00    -0.037 C  
HETATM    2  S   UNL     1      -7.356   9.809  67.710  1.00  0.00    -0.089 SA 
HETATM    3  C   UNL     1      -7.717  11.280  66.769  1.00  0.00    -0.155 C  
HETATM    4  C   UNL     1      -7.620  12.572  67.533  1.00  0.00    -0.156 C  
HETATM    5  CA  UNL     1      -5.389   9.848  69.782  1.00  0.00    -0.037 C  
HETATM    6  CA  UNL     1      -6.748  12.752  68.562  1.00  0.00    -0.090 C  
HETATM    7  C   UNL     1      -6.488  14.193  69.161  1.00  0.00    -0.111 C  
HETATM    8  O   UNL     1      -5.823  11.805  71.385  1.00  0.00    -0.337 OA 
HETATM    9  N   UNL     1      -5.982  11.706  69.028  1.00  0.00    -0.050 N  
HETATM   10  OXT UNL     1      -7.481  14.987  69.062  1.00  0.00    -0.132 OA 
HETATM   11  O   UNL     1      -5.294  14.438  69.474  1.00  0.00    -0.090 OA 
HETATM   12  C   UNL     1      -5.670  11.310  70.289  1.00  0.00    -0.134 C  
ENDROOT
BRANCH   4  13
HETATM   13  C   UNL     1      -8.414  13.677  66.863  1.00  0.00    -0.054 C  
BRANCH  13  14
HETATM   14  N   UNL     1      -9.906  13.542  66.749  1.00  0.00    -0.259 NA 
HETATM   15  C   UNL     1     -10.592  13.139  65.650  1.00  0.00    -0.277 A  
HETATM   16  C   UNL     1     -10.075  12.663  64.322  1.00  0.00    -0.292 C  
HETATM   17  C   UNL     1     -11.346  12.395  63.487  1.00  0.00    -0.553 C  
HETATM   18  C   UNL     1     -10.621  13.995  67.822  1.00  0.00    -0.242 A  
HETATM   19  C   UNL     1     -12.575  12.651  64.357  1.00  0.00    -0.470 C  
HETATM   20  C   UNL     1     -12.013  14.065  67.811  1.00  0.00    -0.392 A  
HETATM   21  C   UNL     1     -12.720  13.646  66.702  1.00  0.00     0.047 A  
HETATM   22  C   UNL     1     -11.994  13.179  65.626  1.00  0.00    -0.462 A  
ENDBRANCH  13  14
ENDBRANCH   4  13
BRANCH   5  23
HETATM   23  N   UNL     1      -6.310   8.838  70.373  1.00  0.00    -0.038 N  
HETATM   24  C   UNL     1      -6.257   7.474  70.136  1.00  0.00    -0.034 C  
HETATM   25  O   UNL     1      -5.322   6.937  69.563  1.00  0.00    -0.014 OA 
HETATM   26  H   UNL     1      -7.037   9.177  71.003  1.00  0.00     0.000 HD 
BRANCH  24  27
HETATM   27  C   UNL     1      -7.498   6.683  70.651  1.00  0.00    -0.083 C  
BRANCH  27  28
HETATM   28  C   UNL     1      -7.423   5.954  71.924  1.00  0.00    -0.095 A  
HETATM   29  N   UNL     1      -7.682   4.588  71.989  1.00  0.00    -0.087 NA 
HETATM   30  N   UNL     1      -7.771   2.855  73.534  1.00  0.00    -0.051 NA 
HETATM   31  C   UNL     1      -7.062   6.504  73.142  1.00  0.00    -0.078 A  
HETATM   32  S   UNL     1      -7.073   5.308  74.367  1.00  0.00    -0.079 SA 
HETATM   33  H1  UNL     1      -8.057   2.159  72.846  1.00  0.00     0.000 HD 
HETATM   34  H2  UNL     1      -7.646   2.566  74.505  1.00  0.00     0.000 HD 
HETATM   35  C   UNL     1      -7.555   4.135  73.208  1.00  0.00    -0.080 A  
ENDBRANCH  27  28
BRANCH  27  36
HETATM   36  N   UNL     1      -8.664   6.628  70.068  1.00  0.00    -0.140 NA 
HETATM   37  H   UNL     1      -9.388   7.332  70.210  1.00  0.00     0.000 HD 
BRANCH  36  38
HETATM   38  O   UNL     1      -8.835   5.523  69.235  1.00  0.00    -0.105 OA 
HETATM   39  C   UNL     1      -8.946   6.007  67.897  1.00  0.00    -0.118 C  
ENDBRANCH  36  38
ENDBRANCH  27  36
ENDBRANCH  24  27
ENDBRANCH   5  23
TORSDOF 7
ENDMDL
MODEL      198
REMARK 921   NORMALIZED FREE ENERGY PREDICTED BY IDOCK:   -3.69 KCAL/MOL
REMARK 922        TOTAL FREE ENERGY PREDICTED BY IDOCK:   -6.40 KCAL/MOL
REMARK 923 INTER-LIGAND FREE ENERGY PREDICTED BY IDOCK:   -5.41 KCAL/MOL
REMARK 924 INTRA-LIGAND FREE ENERGY PREDICTED BY IDOCK:   -1.00 KCAL/MOL
REMARK 927      BINDING AFFINITY PREDICTED BY RF-SCORE:    0.00 PKD
ROOT
HETATM    1  C   UNL     1      -8.317  14.277  67.890  1.00  0.00    -0.162 C  
HETATM    2  S   UNL     1      -8.732  15.451  69.218  1.00  0.00    -0.243 SA 
HETATM    3  C   UNL     1     -10.063  14.472  69.889  1.00  0.00     0.380 C  
HETATM    4  C   UNL     1     -11.081  13.998  68.888  1.00  0.00    -0.296 C  
HETATM    5  CA  UNL     1      -7.707  14.923  66.604  1.00  0.00     0.512 C  
HETATM    6  CA  UNL     1     -10.762  13.718  67.595  1.00  0.00    -0.249 C  
HETATM    7  C   UNL     1     -11.790  12.974  66.650  1.00  0.00    -0.393 C  
HETATM    8  O   UNL     1      -9.625  14.804  64.902  1.00  0.00     0.082 OA 
HETATM    9  N   UNL     1      -9.497  13.969  67.111  1.00  0.00    -0.232 N  
HETATM   10  OXT UNL     1     -13.014  13.183  66.942  1.00  0.00     0.444 OA 
HETATM   11  O   UNL     1     -11.286  12.126  65.869  1.00  0.00    -0.330 OA 
HETATM   12  C   UNL     1      -9.071  14.510  65.940  1.00  0.00     0.196 C  
ENDROOT
BRANCH   4  13
HETATM   13  C   UNL     1     -12.398  13.648  69.555  1.00  0.00    -0.182 C  
BRANCH  13  14
HETATM   14  N   UNL     1     -12.477  12.425  70.424  1.00  0.00    -0.194 NA 
HETATM   15  C   UNL     1     -11.873  11.233  70.188  1.00  0.00    -0.364 A  
HETATM   16  C   UNL     1     -10.936  10.840  69.081  1.00  0.00    -0.293 C  
HETATM   17  C   UNL     1     -10.633   9.349  69.343  1.00  0.00    -0.235 C  
HETATM   18  C   UNL     1     -13.346  12.507  71.476  1.00  0.00    -0.089 A  
HETATM   19  C   UNL     1     -11.339   8.918  70.628  1.00  0.00    -0.299 C  
HETATM   20  C   UNL     1     -13.634  11.412  72.289  1.00  0.00     0.052 A  
HETATM   21  C   UNL     1     -13.014  10.198  72.063  1.00  0.00    -0.508 A  
HETATM   22  C   UNL     1     -12.129  10.125  71.008  1.00  0.00    -0.476 A  
ENDBRANCH  13  14
ENDBRANCH   4  13
BRANCH   5  23
HETATM   23  N   UNL     1      -7.493  16.397  66.629  1.00  0.00    -0.243 N  
HETATM   24  C   UNL     1      -6.401  17.034  67.195  1.00  0.00    -0.180 C  
HETATM   25  O   UNL     1      -5.402  16.437  67.564  1.00  0.00    -0.128 OA 
HETATM   26  H   UNL     1      -8.207  16.982  66.196  1.00  0.00     0.000 HD 
BRANCH  24  27
HETATM   27  C   UNL     1      -6.559  18.580  67.333  1.00  0.00    -0.196 C  
BRANCH  27  28
HETATM   28  C   UNL     1      -7.875  19.155  67.645  1.00  0.00    -0.255 A  
HETATM   29  N   UNL     1      -8.775  19.482  66.635  1.00  0.00    -0.324 NA 
HETATM   30  N   UNL     1     -10.900  20.381  66.355  1.00  0.00     0.186 NA 
HETATM   31  C   UNL     1      -8.367  19.387  68.918  1.00  0.00    -0.300 A  
HETATM   32  S   UNL     1      -9.948  20.038  68.840  1.00  0.00    -0.128 SA 
HETATM   33  H1  UNL     1     -10.862  20.341  65.336  1.00  0.00     0.000 HD 
HETATM   34  H2  UNL     1     -11.741  20.745  66.802  1.00  0.00     0.000 HD 
HETATM   35  C   UNL     1      -9.884  19.971  67.125  1.00  0.00    -0.426 A  
ENDBRANCH  27  28
BRANCH  27  36
HETATM   36  N   UNL     1      -5.598  19.456  67.239  1.00  0.00    -0.172 NA 
HETATM   37  H   UNL     1      -5.216  19.948  68.046  1.00  0.00     0.000 HD 
BRANCH  36  38
HETATM   38  O   UNL     1      -5.139  19.664  65.938  1.00  0.00    -0.156 OA 
HETATM   39  C   UNL     1      -5.167  21.069  65.692  1.00  0.00    -0.205 C  
ENDBRANCH  36  38
ENDBRANCH  27  36
ENDBRANCH  24  27
ENDBRANCH   5  23
TORSDOF 7
ENDMDL
MODEL      199
REMARK 921   NORMALIZED FREE ENERGY PREDICTED BY IDOCK:   -3.67 KCAL/MOL
REMARK 922        TOTAL FREE ENERGY PREDICTED BY IDOCK:   -6.37 KCAL/MOL
REMARK 923 INTER-LIGAND FREE ENERGY PREDICTED BY IDOCK:   -6.37 KCAL/MOL
REMARK 924 INTRA-LIGAND FREE ENERGY PREDICTED BY IDOCK:   -0.01 KCAL/MOL
REMARK 927      BINDING AFFINITY PREDICTED BY RF-SCORE:    0.00 PKD
ROOT
HETATM    1  C   UNL     1      -8.730   9.886  70.422  1.00  0.00     0.086 C  
HETATM    2  S   UNL     1      -7.744   9.168  69.070  1.00  0.00    -0.079 SA 
HETATM    3  C   UNL     1      -7.987  10.534  67.950  1.00  0.00    -0.106 C  
HETATM    4  C   UNL     1      -9.416  10.966  67.762  1.00  0.00    -0.165 C  
HETATM    5  CA  UNL     1      -9.420   8.845  71.362  1.00  0.00    -0.274 C  
HETATM    6  CA  UNL     1     -10.348  10.863  68.748  1.00  0.00    -0.198 C  
HETATM    7  C   UNL     1     -11.758  11.566  68.605  1.00  0.00    -0.326 C  
HETATM    8  O   UNL     1     -11.892   8.966  70.682  1.00  0.00    -0.241 OA 
HETATM    9  N   UNL     1     -10.047  10.246  69.942  1.00  0.00    -0.216 N  
HETATM   10  OXT UNL     1     -12.159  11.693  67.400  1.00  0.00    -0.605 OA 
HETATM   11  O   UNL     1     -12.210  12.084  69.659  1.00  0.00    -0.235 OA 
HETATM   12  C   UNL     1     -10.749   9.370  70.706  1.00  0.00    -0.305 C  
ENDROOT
BRANCH   4  13
HETATM   13  C   UNL     1      -9.601  11.731  66.465  1.00  0.00    -0.210 C  
BRANCH  13  14
HETATM   14  N   UNL     1      -9.391  13.218  66.455  1.00  0.00    -0.242 NA 
HETATM   15  C   UNL     1      -8.626  13.925  67.325  1.00  0.00    -0.211 A  
HETATM   16  C   UNL     1      -7.753  13.436  68.445  1.00  0.00    -0.138 C  
HETATM   17  C   UNL     1      -7.185  14.723  69.082  1.00  0.00    -0.148 C  
HETATM   18  C   UNL     1     -10.152  13.914  65.558  1.00  0.00    -0.298 A  
HETATM   19  C   UNL     1      -7.678  15.930  68.286  1.00  0.00    -0.137 C  
HETATM   20  C   UNL     1     -10.173  15.307  65.523  1.00  0.00    -0.417 A  
HETATM   21  C   UNL     1      -9.389  16.034  66.397  1.00  0.00    -0.329 A  
HETATM   22  C   UNL     1      -8.614  15.327  67.292  1.00  0.00    -0.210 A  
ENDBRANCH  13  14
ENDBRANCH   4  13
BRANCH   5  23
HETATM   23  N   UNL     1      -9.158   7.406  71.078  1.00  0.00    -0.152 N  
HETATM   24  C   UNL     1      -9.864   6.346  71.621  1.00  0.00    -0.167 C  
HETATM   25  O   UNL     1     -10.905   6.490  72.243  1.00  0.00    -0.217 OA 
HETATM   26  H   UNL     1      -8.399   7.186  70.434  1.00  0.00     0.000 HD 
BRANCH  24  27
HETATM   27  C   UNL     1      -9.211   4.949  71.382  1.00  0.00    -0.145 C  
BRANCH  27  28
HETATM   28  C   UNL     1      -7.766   4.775  71.577  1.00  0.00    -0.092 A  
HETATM   29  N   UNL     1      -7.249   4.369  72.804  1.00  0.00    -0.070 NA 
HETATM   30  N   UNL     1      -5.211   3.914  73.825  1.00  0.00    -0.003 NA 
HETATM   31  C   UNL     1      -6.799   4.945  70.601  1.00  0.00    -0.040 A  
HETATM   32  S   UNL     1      -5.243   4.616  71.235  1.00  0.00    -0.004 SA 
HETATM   33  H1  UNL     1      -5.629   3.708  74.732  1.00  0.00     0.000 HD 
HETATM   34  H2  UNL     1      -4.198   3.848  73.723  1.00  0.00     0.000 HD 
HETATM   35  C   UNL     1      -5.946   4.269  72.763  1.00  0.00    -0.016 A  
ENDBRANCH  27  28
BRANCH  27  36
HETATM   36  N   UNL     1      -9.844   3.858  71.053  1.00  0.00    -0.177 NA 
HETATM   37  H   UNL     1     -10.402   3.319  71.715  1.00  0.00     0.000 HD 
BRANCH  36  38
HETATM   38  O   UNL     1      -9.693   3.490  69.716  1.00  0.00    -0.171 OA 
HETATM   39  C   UNL     1      -9.285   2.123  69.690  1.00  0.00    -0.110 C  
ENDBRANCH  36  38
ENDBRANCH  27  36
ENDBRANCH  24  27
ENDBRANCH   5  23
TORSDOF 7
ENDMDL
MODEL      200
REMARK 921   NORMALIZED FREE ENERGY PREDICTED BY IDOCK:   -3.59 KCAL/MOL
REMARK 922        TOTAL FREE ENERGY PREDICTED BY IDOCK:   -6.26 KCAL/MOL
REMARK 923 INTER-LIGAND FREE ENERGY PREDICTED BY IDOCK:   -5.75 KCAL/MOL
REMARK 924 INTRA-LIGAND FREE ENERGY PREDICTED BY IDOCK:   -0.51 KCAL/MOL
REMARK 927      BINDING AFFINITY PREDICTED BY RF-SCORE:    0.00 PKD
ROOT
HETATM    1  C   UNL     1      -8.898  10.555  69.984  1.00  0.00     0.490 C  
HETATM    2  S   UNL     1     -10.515   9.833  69.560  1.00  0.00    -0.248 SA 
HETATM    3  C   UNL     1     -10.682   8.909  71.076  1.00  0.00    -0.247 C  
HETATM    4  C   UNL     1      -9.494   8.062  71.448  1.00  0.00    -0.194 C  
HETATM    5  CA  UNL     1      -7.979  10.882  68.763  1.00  0.00    -0.139 C  
HETATM    6  CA  UNL     1      -8.218   8.408  71.128  1.00  0.00    -0.131 C  
HETATM    7  C   UNL     1      -6.988   7.640  71.760  1.00  0.00    -0.062 C  
HETATM    8  O   UNL     1      -6.189   9.046  68.848  1.00  0.00    -0.043 OA 
HETATM    9  N   UNL     1      -7.963   9.510  70.340  1.00  0.00    -0.170 N  
HETATM   10  OXT UNL     1      -7.230   6.424  72.060  1.00  0.00    -0.087 OA 
HETATM   11  O   UNL     1      -6.004   8.362  72.067  1.00  0.00    -0.045 OA 
HETATM   12  C   UNL     1      -7.099   9.699  69.310  1.00  0.00    -0.063 C  
ENDROOT
BRANCH   4  13
HETATM   13  C   UNL     1      -9.881   6.950  72.405  1.00  0.00    -0.157 C  
BRANCH  13  14
HETATM   14  N   UNL     1      -9.922   5.535  71.905  1.00  0.00    -0.175 NA 
HETATM   15  C   UNL     1      -9.982   4.416  72.671  1.00  0.00    -0.164 A  
HETATM   16  C   UNL     1     -10.095   4.285  74.163  1.00  0.00    -0.224 C  
HETATM   17  C   UNL     1     -10.076   2.762  74.419  1.00  0.00    -0.175 C  
HETATM   18  C   UNL     1      -9.754   5.381  70.557  1.00  0.00    -0.185 A  
HETATM   19  C   UNL     1     -10.021   2.034  73.078  1.00  0.00    -0.170 C  
HETATM   20  C   UNL     1      -9.630   4.127  69.961  1.00  0.00    -0.274 A  
HETATM   21  C   UNL     1      -9.702   2.983  70.731  1.00  0.00    -0.140 A  
HETATM   22  C   UNL     1      -9.884   3.143  72.089  1.00  0.00    -0.238 A  
ENDBRANCH  13  14
ENDBRANCH   4  13
BRANCH   5  23
HETATM   23  N   UNL     1      -8.541  10.615  67.410  1.00  0.00    -0.122 N  
HETATM   24  C   UNL     1      -8.885  11.585  66.483  1.00  0.00    -0.190 C  
HETATM   25  O   UNL     1      -8.581  12.761  66.610  1.00  0.00    -0.136 OA 
HETATM   26  H   UNL     1      -8.683   9.640  67.145  1.00  0.00     0.000 HD 
BRANCH  24  27
HETATM   27  C   UNL     1      -9.705  11.052  65.268  1.00  0.00    -0.239 C  
BRANCH  27  28
HETATM   28  C   UNL     1     -10.709  11.914  64.630  1.00  0.00    -0.307 A  
HETATM   29  N   UNL     1     -10.603  13.301  64.679  1.00  0.00    -0.383 NA 
HETATM   30  N   UNL     1     -11.726  15.208  63.969  1.00  0.00    -0.829 NA 
HETATM   31  C   UNL     1     -11.802  11.471  63.905  1.00  0.00    -0.112 A  
HETATM   32  S   UNL     1     -12.704  12.798  63.309  1.00  0.00     0.268 SA 
HETATM   33  H1  UNL     1     -11.065  15.849  64.407  1.00  0.00     0.000 HD 
HETATM   34  H2  UNL     1     -12.518  15.593  63.452  1.00  0.00     0.000 HD 
HETATM   35  C   UNL     1     -11.591  13.878  64.047  1.00  0.00    -0.226 A  
ENDBRANCH  27  28
BRANCH  27  36
HETATM   36  N   UNL     1      -9.560   9.886  64.702  1.00  0.00    -0.383 NA 
HETATM   37  H   UNL     1     -10.347   9.333  64.364  1.00  0.00     0.000 HD 
BRANCH  36  38
HETATM   38  O   UNL     1      -8.236   9.461  64.600  1.00  0.00    -0.130 OA 
HETATM   39  C   UNL     1      -8.225   8.044  64.768  1.00  0.00    -0.121 C  
ENDBRANCH  36  38
ENDBRANCH  27  36
ENDBRANCH  24  27
ENDBRANCH   5  23
TORSDOF 7
ENDMDL
MODEL      201
REMARK 921   NORMALIZED FREE ENERGY PREDICTED BY IDOCK:   -3.58 KCAL/MOL
REMARK 922        TOTAL FREE ENERGY PREDICTED BY IDOCK:   -6.25 KCAL/MOL
REMARK 923 INTER-LIGAND FREE ENERGY PREDICTED BY IDOCK:   -6.34 KCAL/MOL
REMARK 924 INTRA-LIGAND FREE ENERGY PREDICTED BY IDOCK:    0.09 KCAL/MOL
REMARK 927      BINDING AFFINITY PREDICTED BY RF-SCORE:    0.00 PKD
ROOT
HETATM    1  C   UNL     1      -5.697  10.404  68.348  1.00  0.00    -0.037 C  
HETATM    2  S   UNL     1      -7.279   9.769  67.710  1.00  0.00    -0.089 SA 
HETATM    3  C   UNL     1      -7.647  11.209  66.725  1.00  0.00    -0.146 C  
HETATM    4  C   UNL     1      -7.541  12.525  67.445  1.00  0.00    -0.156 C  
HETATM    5  CA  UNL     1      -5.291   9.873  69.760  1.00  0.00    -0.037 C  
HETATM    6  CA  UNL     1      -6.658  12.737  68.459  1.00  0.00    -0.086 C  
HETATM    7  C   UNL     1      -6.390  14.197  69.007  1.00  0.00    -0.098 C  
HETATM    8  O   UNL     1      -5.706  11.882  71.302  1.00  0.00    -0.383 OA 
HETATM    9  N   UNL     1      -5.889  11.706  68.951  1.00  0.00    -0.047 N  
HETATM   10  OXT UNL     1      -7.383  14.989  68.892  1.00  0.00    -0.119 OA 
HETATM   11  O   UNL     1      -5.193  14.450  69.300  1.00  0.00    -0.079 OA 
HETATM   12  C   UNL     1      -5.566  11.351  70.222  1.00  0.00    -0.130 C  
ENDROOT
BRANCH   4  13
HETATM   13  C   UNL     1      -8.340  13.609  66.747  1.00  0.00     0.114 C  
BRANCH  13  14
HETATM   14  N   UNL     1      -9.833  13.472  66.651  1.00  0.00    -0.272 NA 
HETATM   15  C   UNL     1     -10.531  13.040  65.570  1.00  0.00    -0.285 A  
HETATM   16  C   UNL     1     -10.027  12.527  64.251  1.00  0.00    -0.217 C  
HETATM   17  C   UNL     1     -11.306  12.237  63.436  1.00  0.00    -0.508 C  
HETATM   18  C   UNL     1     -10.538  13.955  67.718  1.00  0.00    -0.246 A  
HETATM   19  C   UNL     1     -12.526  12.518  64.311  1.00  0.00    -0.520 C  
HETATM   20  C   UNL     1     -11.930  14.026  67.720  1.00  0.00    -0.392 A  
HETATM   21  C   UNL     1     -12.648  13.577  66.629  1.00  0.00    -0.114 A  
HETATM   22  C   UNL     1     -11.932  13.080  65.559  1.00  0.00    -0.470 A  
ENDBRANCH  13  14
ENDBRANCH   4  13
BRANCH   5  23
HETATM   23  N   UNL     1      -6.208   8.884  70.394  1.00  0.00    -0.038 N  
HETATM   24  C   UNL     1      -7.497   9.153  70.824  1.00  0.00    -0.122 C  
HETATM   25  O   UNL     1      -8.085  10.188  70.550  1.00  0.00    -0.117 OA 
HETATM   26  H   UNL     1      -5.858   7.935  70.521  1.00  0.00     0.000 HD 
BRANCH  24  27
HETATM   27  C   UNL     1      -8.131   8.029  71.699  1.00  0.00    -0.114 C  
BRANCH  27  28
HETATM   28  C   UNL     1      -8.912   6.960  71.062  1.00  0.00    -0.151 A  
HETATM   29  N   UNL     1      -9.852   7.246  70.076  1.00  0.00    -0.175 NA 
HETATM   30  N   UNL     1     -11.385   6.170  68.699  1.00  0.00    -0.379 NA 
HETATM   31  C   UNL     1      -8.781   5.607  71.322  1.00  0.00    -0.132 A  
HETATM   32  S   UNL     1      -9.857   4.702  70.346  1.00  0.00    -0.235 SA 
HETATM   33  H1  UNL     1     -11.724   7.035  68.279  1.00  0.00     0.000 HD 
HETATM   34  H2  UNL     1     -11.788   5.283  68.396  1.00  0.00     0.000 HD 
HETATM   35  C   UNL     1     -10.428   6.158  69.637  1.00  0.00    -0.252 A  
ENDBRANCH  27  28
BRANCH  27  36
HETATM   36  N   UNL     1      -8.003   7.904  72.991  1.00  0.00    -0.123 NA 
HETATM   37  H   UNL     1      -8.756   8.113  73.645  1.00  0.00     0.000 HD 
BRANCH  36  38
HETATM   38  O   UNL     1      -6.746   7.458  73.400  1.00  0.00    -0.064 OA 
HETATM   39  C   UNL     1      -6.261   8.378  74.377  1.00  0.00    -0.125 C  
ENDBRANCH  36  38
ENDBRANCH  27  36
ENDBRANCH  24  27
ENDBRANCH   5  23
TORSDOF 7
ENDMDL
MODEL      202
REMARK 921   NORMALIZED FREE ENERGY PREDICTED BY IDOCK:   -3.57 KCAL/MOL
REMARK 922        TOTAL FREE ENERGY PREDICTED BY IDOCK:   -6.24 KCAL/MOL
REMARK 923 INTER-LIGAND FREE ENERGY PREDICTED BY IDOCK:   -6.42 KCAL/MOL
REMARK 924 INTRA-LIGAND FREE ENERGY PREDICTED BY IDOCK:    0.19 KCAL/MOL
REMARK 927      BINDING AFFINITY PREDICTED BY RF-SCORE:    0.00 PKD
ROOT
HETATM    1  C   UNL     1      -7.536  12.793  66.973  1.00  0.00     0.042 C  
HETATM    2  S   UNL     1      -9.216  12.265  66.512  1.00  0.00    -0.195 SA 
HETATM    3  C   UNL     1      -9.875  13.917  66.381  1.00  0.00    -0.295 C  
HETATM    4  C   UNL     1      -9.608  14.811  67.561  1.00  0.00    -0.208 C  
HETATM    5  CA  UNL     1      -6.747  11.782  67.866  1.00  0.00    -0.072 C  
HETATM    6  CA  UNL     1      -8.487  14.702  68.326  1.00  0.00    -0.158 C  
HETATM    7  C   UNL     1      -8.116  15.819  69.382  1.00  0.00    -0.209 C  
HETATM    8  O   UNL     1      -6.774  12.879  70.186  1.00  0.00     0.180 OA 
HETATM    9  N   UNL     1      -7.588  13.680  68.116  1.00  0.00    -0.122 N  
HETATM   10  OXT UNL     1      -9.122  16.437  69.865  1.00  0.00     0.319 OA 
HETATM   11  O   UNL     1      -6.891  16.094  69.466  1.00  0.00    -0.201 OA 
HETATM   12  C   UNL     1      -6.921  12.875  68.983  1.00  0.00    -0.058 C  
ENDROOT
BRANCH   4  13
HETATM   13  C   UNL     1     -10.595  15.962  67.623  1.00  0.00    -0.307 C  
BRANCH  13  14
HETATM   14  N   UNL     1     -10.130  17.346  67.269  1.00  0.00    -0.300 NA 
HETATM   15  C   UNL     1      -8.941  17.671  66.700  1.00  0.00    -0.265 A  
HETATM   16  C   UNL     1      -7.838  16.775  66.214  1.00  0.00    -0.334 C  
HETATM   17  C   UNL     1      -6.746  17.744  65.712  1.00  0.00    -0.223 C  
HETATM   18  C   UNL     1     -10.941  18.364  67.687  1.00  0.00    -0.121 A  
HETATM   19  C   UNL     1      -7.254  19.178  65.849  1.00  0.00    -0.293 C  
HETATM   20  C   UNL     1     -10.579  19.704  67.557  1.00  0.00    -0.577 A  
HETATM   21  C   UNL     1      -9.377  20.043  66.968  1.00  0.00    -0.510 A  
HETATM   22  C   UNL     1      -8.568  19.013  66.538  1.00  0.00    -0.316 A  
ENDBRANCH  13  14
ENDBRANCH   4  13
BRANCH   5  23
HETATM   23  N   UNL     1      -7.431  10.500  68.193  1.00  0.00    -0.088 N  
HETATM   24  C   UNL     1      -7.297   9.320  67.480  1.00  0.00    -0.087 C  
HETATM   25  O   UNL     1      -6.449   9.160  66.616  1.00  0.00    -0.065 OA 
HETATM   26  H   UNL     1      -8.046  10.490  69.007  1.00  0.00     0.000 HD 
BRANCH  24  27
HETATM   27  C   UNL     1      -8.329   8.216  67.864  1.00  0.00    -0.129 C  
BRANCH  27  28
HETATM   28  C   UNL     1      -9.364   8.500  68.867  1.00  0.00    -0.146 A  
HETATM   29  N   UNL     1     -10.305   9.505  68.666  1.00  0.00    -0.199 NA 
HETATM   30  N   UNL     1     -12.122  10.493  69.726  1.00  0.00    -0.478 NA 
HETATM   31  C   UNL     1      -9.543   7.807  70.052  1.00  0.00    -0.161 A  
HETATM   32  S   UNL     1     -10.877   8.438  70.920  1.00  0.00    -0.238 SA 
HETATM   33  H1  UNL     1     -12.275  11.177  68.984  1.00  0.00     0.000 HD 
HETATM   34  H2  UNL     1     -12.741  10.499  70.537  1.00  0.00     0.000 HD 
HETATM   35  C   UNL     1     -11.136   9.589  69.671  1.00  0.00    -0.171 A  
ENDBRANCH  27  28
BRANCH  27  36
HETATM   36  N   UNL     1      -8.404   7.025  67.336  1.00  0.00    -0.122 NA 
HETATM   37  H   UNL     1      -8.028   6.193  67.790  1.00  0.00     0.000 HD 
BRANCH  36  38
HETATM   38  O   UNL     1      -9.044   6.988  66.098  1.00  0.00    -0.162 OA 
HETATM   39  C   UNL     1      -8.474   5.914  65.351  1.00  0.00    -0.153 C  
ENDBRANCH  36  38
ENDBRANCH  27  36
ENDBRANCH  24  27
ENDBRANCH   5  23
TORSDOF 7
ENDMDL
MODEL      203
REMARK 921   NORMALIZED FREE ENERGY PREDICTED BY IDOCK:   -3.49 KCAL/MOL
REMARK 922        TOTAL FREE ENERGY PREDICTED BY IDOCK:   -6.13 KCAL/MOL
REMARK 923 INTER-LIGAND FREE ENERGY PREDICTED BY IDOCK:   -5.30 KCAL/MOL
REMARK 924 INTRA-LIGAND FREE ENERGY PREDICTED BY IDOCK:   -0.84 KCAL/MOL
REMARK 927      BINDING AFFINITY PREDICTED BY RF-SCORE:    0.00 PKD
ROOT
HETATM    1  C   UNL     1      -7.616   7.027  67.313  1.00  0.00    -0.108 C  
HETATM    2  S   UNL     1      -9.342   7.468  67.685  1.00  0.00    -0.139 SA 
HETATM    3  C   UNL     1      -9.680   8.167  66.080  1.00  0.00     0.019 C  
HETATM    4  C   UNL     1      -8.678   9.179  65.595  1.00  0.00    -0.203 C  
HETATM    5  CA  UNL     1      -6.654   7.022  68.545  1.00  0.00    -0.055 C  
HETATM    6  CA  UNL     1      -7.360   9.122  65.927  1.00  0.00    -0.094 C  
HETATM    7  C   UNL     1      -6.300  10.037  65.190  1.00  0.00    -0.114 C  
HETATM    8  O   UNL     1      -5.252   9.147  68.224  1.00  0.00    -0.037 OA 
HETATM    9  N   UNL     1      -6.899   8.186  66.826  1.00  0.00    -0.067 N  
HETATM   10  OXT UNL     1      -6.771  11.142  64.762  1.00  0.00     0.504 OA 
HETATM   11  O   UNL     1      -5.194   9.488  64.945  1.00  0.00    -0.043 OA 
HETATM   12  C   UNL     1      -6.017   8.283  67.854  1.00  0.00    -0.047 C  
ENDROOT
BRANCH   4  13
HETATM   13  C   UNL     1      -9.269  10.081  64.528  1.00  0.00    -0.262 C  
BRANCH  13  14
HETATM   14  N   UNL     1     -10.256  11.140  64.929  1.00  0.00    -0.283 NA 
HETATM   15  C   UNL     1     -10.289  11.798  66.116  1.00  0.00    -0.230 A  
HETATM   16  C   UNL     1      -9.345  11.712  67.281  1.00  0.00    -0.170 C  
HETATM   17  C   UNL     1      -9.945  12.668  68.335  1.00  0.00    -0.210 C  
HETATM   18  C   UNL     1     -11.282  11.350  64.051  1.00  0.00    -0.269 A  
HETATM   19  C   UNL     1     -11.182  13.343  67.745  1.00  0.00    -0.306 C  
HETATM   20  C   UNL     1     -12.350  12.197  64.343  1.00  0.00    -0.422 A  
HETATM   21  C   UNL     1     -12.385  12.880  65.544  1.00  0.00    -0.517 A  
HETATM   22  C   UNL     1     -11.341  12.673  66.421  1.00  0.00    -0.381 A  
ENDBRANCH  13  14
ENDBRANCH   4  13
BRANCH   5  23
HETATM   23  N   UNL     1      -7.260   7.326  69.871  1.00  0.00    -0.079 N  
HETATM   24  C   UNL     1      -6.589   7.289  71.082  1.00  0.00    -0.044 C  
HETATM   25  O   UNL     1      -5.375   7.188  71.164  1.00  0.00    -0.027 OA 
HETATM   26  H   UNL     1      -8.247   7.583  69.888  1.00  0.00     0.000 HD 
BRANCH  24  27
HETATM   27  C   UNL     1      -7.515   7.374  72.334  1.00  0.00    -0.080 C  
BRANCH  27  28
HETATM   28  C   UNL     1      -8.870   6.809  72.280  1.00  0.00    -0.131 A  
HETATM   29  N   UNL     1      -9.994   7.621  72.399  1.00  0.00    -0.189 NA 
HETATM   30  N   UNL     1     -12.314   7.474  72.425  1.00  0.00    -0.519 NA 
HETATM   31  C   UNL     1      -9.175   5.475  72.071  1.00  0.00    -0.140 A  
HETATM   32  S   UNL     1     -10.871   5.243  72.050  1.00  0.00    -0.113 SA 
HETATM   33  H1  UNL     1     -12.447   8.472  72.584  1.00  0.00     0.000 HD 
HETATM   34  H2  UNL     1     -13.134   6.873  72.344  1.00  0.00     0.000 HD 
HETATM   35  C   UNL     1     -11.097   6.924  72.318  1.00  0.00    -0.249 A  
ENDBRANCH  27  28
BRANCH  27  36
HETATM   36  N   UNL     1      -7.189   7.878  73.492  1.00  0.00    -0.115 NA 
HETATM   37  H   UNL     1      -7.867   8.312  74.118  1.00  0.00     0.000 HD 
BRANCH  36  38
HETATM   38  O   UNL     1      -5.833   7.772  73.799  1.00  0.00    -0.058 OA 
HETATM   39  C   UNL     1      -5.458   8.955  74.504  1.00  0.00    -0.119 C  
ENDBRANCH  36  38
ENDBRANCH  27  36
ENDBRANCH  24  27
ENDBRANCH   5  23
TORSDOF 7
ENDMDL
MODEL      204
REMARK 921   NORMALIZED FREE ENERGY PREDICTED BY IDOCK:   -3.48 KCAL/MOL
REMARK 922        TOTAL FREE ENERGY PREDICTED BY IDOCK:   -6.11 KCAL/MOL
REMARK 923 INTER-LIGAND FREE ENERGY PREDICTED BY IDOCK:   -6.36 KCAL/MOL
REMARK 924 INTRA-LIGAND FREE ENERGY PREDICTED BY IDOCK:    0.25 KCAL/MOL
REMARK 927      BINDING AFFINITY PREDICTED BY RF-SCORE:    0.00 PKD
ROOT
HETATM    1  C   UNL     1      -8.012  14.943  69.787  1.00  0.00     0.084 C  
HETATM    2  S   UNL     1      -9.700  15.550  69.479  1.00  0.00    -0.269 SA 
HETATM    3  C   UNL     1     -10.462  13.938  69.525  1.00  0.00     0.232 C  
HETATM    4  C   UNL     1      -9.812  12.894  68.659  1.00  0.00    -0.074 C  
HETATM    5  CA  UNL     1      -6.872  15.817  69.171  1.00  0.00    -0.168 C  
HETATM    6  CA  UNL     1      -8.477  12.887  68.395  1.00  0.00    -0.115 C  
HETATM    7  C   UNL     1      -7.794  11.636  67.708  1.00  0.00    -0.129 C  
HETATM    8  O   UNL     1      -6.058  14.428  67.173  1.00  0.00    -0.198 OA 
HETATM    9  N   UNL     1      -7.668  13.915  68.827  1.00  0.00    -0.125 N  
HETATM   10  OXT UNL     1      -8.568  10.975  66.939  1.00  0.00    -0.136 OA 
HETATM   11  O   UNL     1      -6.655  11.336  68.150  1.00  0.00    -0.056 OA 
HETATM   12  C   UNL     1      -6.664  14.590  68.210  1.00  0.00    -0.116 C  
ENDROOT
BRANCH   4  13
HETATM   13  C   UNL     1     -10.768  11.759  68.342  1.00  0.00    -0.219 C  
BRANCH  13  14
HETATM   14  N   UNL     1     -11.235  10.863  69.454  1.00  0.00    -0.250 NA 
HETATM   15  C   UNL     1     -10.570   9.791  69.953  1.00  0.00    -0.265 A  
HETATM   16  C   UNL     1      -9.206   9.267  69.604  1.00  0.00    -0.182 C  
HETATM   17  C   UNL     1      -9.040   8.008  70.484  1.00  0.00    -0.153 C  
HETATM   18  C   UNL     1     -12.507  11.093  69.898  1.00  0.00    -0.190 A  
HETATM   19  C   UNL     1     -10.272   7.860  71.374  1.00  0.00    -0.226 C  
HETATM   20  C   UNL     1     -13.133  10.260  70.825  1.00  0.00    -0.360 A  
HETATM   21  C   UNL     1     -12.458   9.174  71.347  1.00  0.00    -0.396 A  
HETATM   22  C   UNL     1     -11.171   8.954  70.904  1.00  0.00    -0.334 A  
ENDBRANCH  13  14
ENDBRANCH   4  13
BRANCH   5  23
HETATM   23  N   UNL     1      -7.288  17.055  68.455  1.00  0.00    -0.202 N  
HETATM   24  C   UNL     1      -7.703  17.111  67.134  1.00  0.00    -0.177 C  
HETATM   25  O   UNL     1      -7.955  16.115  66.475  1.00  0.00    -0.261 OA 
HETATM   26  H   UNL     1      -7.266  17.930  68.978  1.00  0.00     0.000 HD 
BRANCH  24  27
HETATM   27  C   UNL     1      -7.811  18.555  66.554  1.00  0.00    -0.258 C  
BRANCH  27  28
HETATM   28  C   UNL     1      -6.962  18.953  65.423  1.00  0.00    -0.102 A  
HETATM   29  N   UNL     1      -7.214  20.122  64.710  1.00  0.00    -0.165 NA 
HETATM   30  N   UNL     1      -6.382  21.335  62.910  1.00  0.00    -0.273 NA 
HETATM   31  C   UNL     1      -5.842  18.269  64.981  1.00  0.00    -0.100 A  
HETATM   32  S   UNL     1      -5.126  19.084  63.657  1.00  0.00    -0.226 SA 
HETATM   33  H1  UNL     1      -7.105  22.052  62.967  1.00  0.00     0.000 HD 
HETATM   34  H2  UNL     1      -5.666  21.413  62.189  1.00  0.00     0.000 HD 
HETATM   35  C   UNL     1      -6.342  20.293  63.752  1.00  0.00    -0.011 A  
ENDBRANCH  27  28
BRANCH  27  36
HETATM   36  N   UNL     1      -8.639  19.479  66.955  1.00  0.00    -0.290 NA 
HETATM   37  H   UNL     1      -8.934  20.254  66.362  1.00  0.00     0.000 HD 
BRANCH  36  38
HETATM   38  O   UNL     1      -9.088  19.315  68.266  1.00  0.00    -0.319 OA 
HETATM   39  C   UNL     1     -10.485  19.602  68.281  1.00  0.00    -0.329 C  
ENDBRANCH  36  38
ENDBRANCH  27  36
ENDBRANCH  24  27
ENDBRANCH   5  23
TORSDOF 7
ENDMDL
MODEL      205
REMARK 921   NORMALIZED FREE ENERGY PREDICTED BY IDOCK:   -3.44 KCAL/MOL
REMARK 922        TOTAL FREE ENERGY PREDICTED BY IDOCK:   -6.06 KCAL/MOL
REMARK 923 INTER-LIGAND FREE ENERGY PREDICTED BY IDOCK:   -5.87 KCAL/MOL
REMARK 924 INTRA-LIGAND FREE ENERGY PREDICTED BY IDOCK:   -0.19 KCAL/MOL
REMARK 927      BINDING AFFINITY PREDICTED BY RF-SCORE:    0.00 PKD
ROOT
HETATM    1  C   UNL     1      -9.415  10.171  70.180  1.00  0.00     0.060 C  
HETATM    2  S   UNL     1     -10.769   9.223  69.415  1.00  0.00    -0.175 SA 
HETATM    3  C   UNL     1     -10.882   8.017  70.724  1.00  0.00    -0.232 C  
HETATM    4  C   UNL     1      -9.580   7.379  71.125  1.00  0.00    -0.162 C  
HETATM    5  CA  UNL     1      -8.470  10.902  69.174  1.00  0.00    -0.055 C  
HETATM    6  CA  UNL     1      -8.389   8.035  71.055  1.00  0.00    -0.116 C  
HETATM    7  C   UNL     1      -7.092   7.432  71.729  1.00  0.00    -0.063 C  
HETATM    8  O   UNL     1      -6.326   9.492  69.226  1.00  0.00    -0.043 OA 
HETATM    9  N   UNL     1      -8.309   9.293  70.498  1.00  0.00    -0.191 N  
HETATM   10  OXT UNL     1      -7.080   6.158  71.794  1.00  0.00    -0.081 OA 
HETATM   11  O   UNL     1      -6.337   8.270  72.288  1.00  0.00    -0.054 OA 
HETATM   12  C   UNL     1      -7.406   9.845  69.648  1.00  0.00    -0.115 C  
ENDROOT
BRANCH   4  13
HETATM   13  C   UNL     1      -9.802   6.052  71.827  1.00  0.00    -0.165 C  
BRANCH  13  14
HETATM   14  N   UNL     1      -9.553   4.776  71.076  1.00  0.00    -0.164 NA 
HETATM   15  C   UNL     1      -9.597   4.617  69.728  1.00  0.00    -0.188 A  
HETATM   16  C   UNL     1      -9.822   5.641  68.653  1.00  0.00    -0.190 C  
HETATM   17  C   UNL     1      -9.799   4.831  67.338  1.00  0.00    -0.214 C  
HETATM   18  C   UNL     1      -9.396   3.659  71.848  1.00  0.00    -0.125 A  
HETATM   19  C   UNL     1      -9.495   3.370  67.661  1.00  0.00    -0.231 C  
HETATM   20  C   UNL     1      -9.297   2.382  71.299  1.00  0.00    -0.204 A  
HETATM   21  C   UNL     1      -9.329   2.213  69.929  1.00  0.00    -0.168 A  
HETATM   22  C   UNL     1      -9.475   3.344  69.153  1.00  0.00    -0.211 A  
ENDBRANCH  13  14
ENDBRANCH   4  13
BRANCH   5  23
HETATM   23  N   UNL     1      -8.806  10.783  67.728  1.00  0.00    -0.129 N  
HETATM   24  C   UNL     1      -8.964  11.848  66.856  1.00  0.00    -0.196 C  
HETATM   25  O   UNL     1      -8.652  12.993  67.143  1.00  0.00    -0.196 OA 
HETATM   26  H   UNL     1      -8.930   9.844  67.351  1.00  0.00     0.000 HD 
BRANCH  24  27
HETATM   27  C   UNL     1      -9.586  11.464  65.478  1.00  0.00    -0.228 C  
BRANCH  27  28
HETATM   28  C   UNL     1      -9.004  10.366  64.695  1.00  0.00    -0.209 A  
HETATM   29  N   UNL     1      -9.001   9.060  65.177  1.00  0.00    -0.192 NA 
HETATM   30  N   UNL     1      -8.302   6.928  64.568  1.00  0.00    -0.331 NA 
HETATM   31  C   UNL     1      -8.456  10.486  63.429  1.00  0.00    -0.148 A  
HETATM   32  S   UNL     1      -7.917   8.963  62.861  1.00  0.00    -0.168 SA 
HETATM   33  H1  UNL     1      -8.616   6.498  65.438  1.00  0.00     0.000 HD 
HETATM   34  H2  UNL     1      -7.866   6.342  63.857  1.00  0.00     0.000 HD 
HETATM   35  C   UNL     1      -8.445   8.238  64.326  1.00  0.00     0.017 A  
ENDBRANCH  27  28
BRANCH  27  36
HETATM   36  N   UNL     1     -10.641  12.008  64.939  1.00  0.00    -0.279 NA 
HETATM   37  H   UNL     1     -11.277  12.615  65.456  1.00  0.00     0.000 HD 
BRANCH  36  38
HETATM   38  O   UNL     1     -10.825  11.688  63.594  1.00  0.00    -0.372 OA 
HETATM   39  C   UNL     1     -12.227  11.722  63.332  1.00  0.00    -0.348 C  
ENDBRANCH  36  38
ENDBRANCH  27  36
ENDBRANCH  24  27
ENDBRANCH   5  23
TORSDOF 7
ENDMDL
MODEL      206
REMARK 921   NORMALIZED FREE ENERGY PREDICTED BY IDOCK:   -3.41 KCAL/MOL
REMARK 922        TOTAL FREE ENERGY PREDICTED BY IDOCK:   -6.02 KCAL/MOL
REMARK 923 INTER-LIGAND FREE ENERGY PREDICTED BY IDOCK:   -6.00 KCAL/MOL
REMARK 924 INTRA-LIGAND FREE ENERGY PREDICTED BY IDOCK:   -0.02 KCAL/MOL
REMARK 927      BINDING AFFINITY PREDICTED BY RF-SCORE:    0.00 PKD
ROOT
HETATM    1  C   UNL     1     -10.245   9.681  66.696  1.00  0.00    -0.232 C  
HETATM    2  S   UNL     1     -10.964  10.385  68.213  1.00  0.00    -0.271 SA 
HETATM    3  C   UNL     1     -10.195  11.984  68.029  1.00  0.00    -0.198 C  
HETATM    4  C   UNL     1      -8.712  11.959  67.777  1.00  0.00    -0.158 C  
HETATM    5  CA  UNL     1     -10.022   8.134  66.726  1.00  0.00    -0.279 C  
HETATM    6  CA  UNL     1      -8.100  10.950  67.101  1.00  0.00    -0.127 C  
HETATM    7  C   UNL     1      -6.597  11.088  66.627  1.00  0.00    -0.128 C  
HETATM    8  O   UNL     1      -7.480   7.897  66.983  1.00  0.00    -0.088 OA 
HETATM    9  N   UNL     1      -8.806   9.834  66.707  1.00  0.00    -0.137 N  
HETATM   10  OXT UNL     1      -5.883  11.844  67.367  1.00  0.00    -0.084 OA 
HETATM   11  O   UNL     1      -6.344  10.608  65.491  1.00  0.00    -0.126 OA 
HETATM   12  C   UNL     1      -8.496   8.513  66.745  1.00  0.00    -0.109 C  
ENDROOT
BRANCH   4  13
HETATM   13  C   UNL     1      -8.063  13.280  68.145  1.00  0.00    -0.159 C  
BRANCH  13  14
HETATM   14  N   UNL     1      -8.677  14.560  67.655  1.00  0.00    -0.173 NA 
HETATM   15  C   UNL     1      -9.554  15.340  68.336  1.00  0.00    -0.206 A  
HETATM   16  C   UNL     1     -10.076  15.192  69.737  1.00  0.00    -0.175 C  
HETATM   17  C   UNL     1     -11.065  16.366  69.906  1.00  0.00    -0.313 C  
HETATM   18  C   UNL     1      -8.412  14.879  66.352  1.00  0.00     0.134 A  
HETATM   19  C   UNL     1     -11.052  17.213  68.635  1.00  0.00    -0.057 C  
HETATM   20  C   UNL     1      -9.019  15.958  65.712  1.00  0.00    -0.095 A  
HETATM   21  C   UNL     1      -9.904  16.764  66.402  1.00  0.00    -0.312 A  
HETATM   22  C   UNL     1     -10.159  16.445  67.719  1.00  0.00    -0.262 A  
ENDBRANCH  13  14
ENDBRANCH   4  13
BRANCH   5  23
HETATM   23  N   UNL     1     -10.461   7.416  67.955  1.00  0.00    -0.235 N  
HETATM   24  C   UNL     1      -9.756   7.371  69.147  1.00  0.00    -0.165 C  
HETATM   25  O   UNL     1      -8.788   8.081  69.372  1.00  0.00    -0.142 OA 
HETATM   26  H   UNL     1     -11.350   6.919  67.916  1.00  0.00     0.000 HD 
BRANCH  24  27
HETATM   27  C   UNL     1     -10.294   6.329  70.174  1.00  0.00    -0.205 C  
BRANCH  27  28
HETATM   28  C   UNL     1      -9.883   4.922  70.070  1.00  0.00    -0.233 A  
HETATM   29  N   UNL     1      -9.247   4.440  68.930  1.00  0.00    -0.128 NA 
HETATM   30  N   UNL     1      -8.365   2.468  68.071  1.00  0.00    -0.069 NA 
HETATM   31  C   UNL     1     -10.033   3.967  71.062  1.00  0.00    -0.106 A  
HETATM   32  S   UNL     1      -9.398   2.463  70.548  1.00  0.00    -0.114 SA 
HETATM   33  H1  UNL     1      -8.107   2.888  67.178  1.00  0.00     0.000 HD 
HETATM   34  H2  UNL     1      -8.164   1.481  68.229  1.00  0.00     0.000 HD 
HETATM   35  C   UNL     1      -8.962   3.169  69.044  1.00  0.00    -0.123 A  
ENDBRANCH  27  28
BRANCH  27  36
HETATM   36  N   UNL     1     -11.072   6.588  71.188  1.00  0.00    -0.268 NA 
HETATM   37  H   UNL     1     -10.906   6.216  72.123  1.00  0.00     0.000 HD 
BRANCH  36  38
HETATM   38  O   UNL     1     -12.150   7.418  70.883  1.00  0.00    -0.307 OA 
HETATM   39  C   UNL     1     -12.378   8.259  72.013  1.00  0.00    -0.349 C  
ENDBRANCH  36  38
ENDBRANCH  27  36
ENDBRANCH  24  27
ENDBRANCH   5  23
TORSDOF 7
ENDMDL
MODEL      207
REMARK 921   NORMALIZED FREE ENERGY PREDICTED BY IDOCK:   -3.36 KCAL/MOL
REMARK 922        TOTAL FREE ENERGY PREDICTED BY IDOCK:   -5.95 KCAL/MOL
REMARK 923 INTER-LIGAND FREE ENERGY PREDICTED BY IDOCK:   -5.36 KCAL/MOL
REMARK 924 INTRA-LIGAND FREE ENERGY PREDICTED BY IDOCK:   -0.59 KCAL/MOL
REMARK 927      BINDING AFFINITY PREDICTED BY RF-SCORE:    0.00 PKD
ROOT
HETATM    1  C   UNL     1      -8.849  10.565  69.267  1.00  0.00    -0.122 C  
HETATM    2  S   UNL     1     -10.656  10.644  69.057  1.00  0.00    -0.234 SA 
HETATM    3  C   UNL     1     -10.909   8.882  69.174  1.00  0.00    -0.070 C  
HETATM    4  C   UNL     1     -10.032   8.046  68.283  1.00  0.00    -0.210 C  
HETATM    5  CA  UNL     1      -8.052  11.714  68.569  1.00  0.00    -0.145 C  
HETATM    6  CA  UNL     1      -8.770   8.420  67.936  1.00  0.00    -0.138 C  
HETATM    7  C   UNL     1      -7.790   7.401  67.225  1.00  0.00    -0.114 C  
HETATM    8  O   UNL     1      -6.980  10.559  66.543  1.00  0.00    -0.100 OA 
HETATM    9  N   UNL     1      -8.274   9.652  68.301  1.00  0.00    -0.105 N  
HETATM   10  OXT UNL     1      -8.378   6.519  66.516  1.00  0.00    -0.110 OA 
HETATM   11  O   UNL     1      -6.590   7.460  67.598  1.00  0.00    -0.056 OA 
HETATM   12  C   UNL     1      -7.548  10.571  67.614  1.00  0.00    -0.093 C  
ENDROOT
BRANCH   4  13
HETATM   13  C   UNL     1     -10.629   6.672  68.043  1.00  0.00    -0.245 C  
BRANCH  13  14
HETATM   14  N   UNL     1     -10.086   5.495  68.800  1.00  0.00    -0.175 NA 
HETATM   15  C   UNL     1      -9.717   5.483  70.106  1.00  0.00    -0.182 A  
HETATM   16  C   UNL     1      -9.814   6.572  71.136  1.00  0.00    -0.198 C  
HETATM   17  C   UNL     1      -9.195   5.956  72.409  1.00  0.00    -0.146 C  
HETATM   18  C   UNL     1      -9.830   4.381  68.051  1.00  0.00    -0.072 A  
HETATM   19  C   UNL     1      -8.813   4.505  72.123  1.00  0.00    -0.135 C  
HETATM   20  C   UNL     1      -9.197   3.257  68.581  1.00  0.00    -0.232 A  
HETATM   21  C   UNL     1      -8.829   3.233  69.912  1.00  0.00    -0.150 A  
HETATM   22  C   UNL     1      -9.101   4.355  70.667  1.00  0.00    -0.176 A  
ENDBRANCH  13  14
ENDBRANCH   4  13
BRANCH   5  23
HETATM   23  N   UNL     1      -8.852  12.754  67.863  1.00  0.00    -0.177 N  
HETATM   24  C   UNL     1      -8.332  13.890  67.266  1.00  0.00    -0.185 C  
HETATM   25  O   UNL     1      -7.135  14.059  67.090  1.00  0.00    -0.106 OA 
HETATM   26  H   UNL     1      -9.861  12.617  67.815  1.00  0.00     0.000 HD 
BRANCH  24  27
HETATM   27  C   UNL     1      -9.403  14.944  66.847  1.00  0.00    -0.241 C  
BRANCH  27  28
HETATM   28  C   UNL     1      -9.912  15.901  67.838  1.00  0.00    -0.221 A  
HETATM   29  N   UNL     1     -10.319  15.482  69.101  1.00  0.00    -0.223 NA 
HETATM   30  N   UNL     1     -11.193  16.340  71.077  1.00  0.00    -0.330 NA 
HETATM   31  C   UNL     1     -10.003  17.271  67.658  1.00  0.00    -0.297 A  
HETATM   32  S   UNL     1     -10.621  18.022  69.066  1.00  0.00     0.346 SA 
HETATM   33  H1  UNL     1     -11.258  15.428  71.529  1.00  0.00     0.000 HD 
HETATM   34  H2  UNL     1     -11.491  17.168  71.592  1.00  0.00     0.000 HD 
HETATM   35  C   UNL     1     -10.731  16.487  69.828  1.00  0.00    -0.298 A  
ENDBRANCH  27  28
BRANCH  27  36
HETATM   36  N   UNL     1      -9.888  15.104  65.647  1.00  0.00    -0.343 NA 
HETATM   37  H   UNL     1     -10.519  15.866  65.402  1.00  0.00     0.000 HD 
BRANCH  36  38
HETATM   38  O   UNL     1      -9.468  14.142  64.729  1.00  0.00     0.347 OA 
HETATM   39  C   UNL     1     -10.546  13.227  64.541  1.00  0.00    -0.419 C  
ENDBRANCH  36  38
ENDBRANCH  27  36
ENDBRANCH  24  27
ENDBRANCH   5  23
TORSDOF 7
ENDMDL
MODEL      208
REMARK 921   NORMALIZED FREE ENERGY PREDICTED BY IDOCK:   -3.35 KCAL/MOL
REMARK 922        TOTAL FREE ENERGY PREDICTED BY IDOCK:   -5.92 KCAL/MOL
REMARK 923 INTER-LIGAND FREE ENERGY PREDICTED BY IDOCK:   -6.31 KCAL/MOL
REMARK 924 INTRA-LIGAND FREE ENERGY PREDICTED BY IDOCK:    0.39 KCAL/MOL
REMARK 927      BINDING AFFINITY PREDICTED BY RF-SCORE:    0.00 PKD
ROOT
HETATM    1  C   UNL     1      -6.826  13.572  67.810  1.00  0.00    -0.163 C  
HETATM    2  S   UNL     1      -8.557  13.283  67.326  1.00  0.00    -0.200 SA 
HETATM    3  C   UNL     1      -8.864  14.963  66.811  1.00  0.00    -0.261 C  
HETATM    4  C   UNL     1      -8.473  16.022  67.806  1.00  0.00    -0.168 C  
HETATM    5  CA  UNL     1      -6.295  12.646  68.951  1.00  0.00    -0.086 C  
HETATM    6  CA  UNL     1      -7.430  15.870  68.667  1.00  0.00    -0.158 C  
HETATM    7  C   UNL     1      -6.887  17.097  69.505  1.00  0.00    -0.092 C  
HETATM    8  O   UNL     1      -6.199  14.198  70.993  1.00  0.00    -0.176 OA 
HETATM    9  N   UNL     1      -6.747  14.676  68.743  1.00  0.00    -0.084 N  
HETATM   10  OXT UNL     1      -7.768  17.982  69.768  1.00  0.00     0.501 OA 
HETATM   11  O   UNL     1      -5.636  17.148  69.634  1.00  0.00    -0.180 OA 
HETATM   12  C   UNL     1      -6.293  13.965  69.807  1.00  0.00    -0.125 C  
ENDROOT
BRANCH   4  13
HETATM   13  C   UNL     1      -9.209  17.324  67.552  1.00  0.00    -0.227 C  
BRANCH  13  14
HETATM   14  N   UNL     1      -8.436  18.526  67.092  1.00  0.00    -0.260 NA 
HETATM   15  C   UNL     1      -7.271  18.511  66.396  1.00  0.00    -0.240 A  
HETATM   16  C   UNL     1      -6.500  17.344  65.848  1.00  0.00    -0.063 C  
HETATM   17  C   UNL     1      -5.250  17.977  65.199  1.00  0.00    -0.090 C  
HETATM   18  C   UNL     1      -8.901  19.731  67.538  1.00  0.00    -0.326 A  
HETATM   19  C   UNL     1      -5.345  19.497  65.318  1.00  0.00    -0.190 C  
HETATM   20  C   UNL     1      -8.214  20.923  67.314  1.00  0.00    -0.148 A  
HETATM   21  C   UNL     1      -7.034  20.919  66.596  1.00  0.00    -0.285 A  
HETATM   22  C   UNL     1      -6.575  19.701  66.137  1.00  0.00    -0.223 A  
ENDBRANCH  13  14
ENDBRANCH   4  13
BRANCH   5  23
HETATM   23  N   UNL     1      -7.236  11.615  69.471  1.00  0.00    -0.345 N  
HETATM   24  C   UNL     1      -7.121  10.251  69.259  1.00  0.00    -0.083 C  
HETATM   25  O   UNL     1      -6.123   9.736  68.780  1.00  0.00    -0.042 OA 
HETATM   26  H   UNL     1      -8.026  11.939  70.028  1.00  0.00     0.000 HD 
BRANCH  24  27
HETATM   27  C   UNL     1      -8.380   9.427  69.670  1.00  0.00    -0.147 C  
BRANCH  27  28
HETATM   28  C   UNL     1      -8.791   8.270  68.865  1.00  0.00    -0.140 A  
HETATM   29  N   UNL     1     -10.033   8.234  68.237  1.00  0.00    -0.184 NA 
HETATM   30  N   UNL     1     -11.319   6.840  66.894  1.00  0.00    -0.792 NA 
HETATM   31  C   UNL     1      -8.013   7.153  68.611  1.00  0.00    -0.123 A  
HETATM   32  S   UNL     1      -8.855   6.051  67.606  1.00  0.00    -0.104 SA 
HETATM   33  H1  UNL     1     -12.116   7.476  66.871  1.00  0.00     0.000 HD 
HETATM   34  H2  UNL     1     -11.379   5.957  66.386  1.00  0.00     0.000 HD 
HETATM   35  C   UNL     1     -10.197   7.123  67.568  1.00  0.00    -0.212 A  
ENDBRANCH  27  28
BRANCH  27  36
HETATM   36  N   UNL     1      -9.118   9.638  70.724  1.00  0.00    -0.341 NA 
HETATM   37  H   UNL     1     -10.024  10.106  70.682  1.00  0.00     0.000 HD 
BRANCH  36  38
HETATM   38  O   UNL     1      -8.563   9.168  71.914  1.00  0.00    -0.332 OA 
HETATM   39  C   UNL     1      -9.616   8.581  72.677  1.00  0.00    -0.223 C  
ENDBRANCH  36  38
ENDBRANCH  27  36
ENDBRANCH  24  27
ENDBRANCH   5  23
TORSDOF 7
ENDMDL
MODEL      209
REMARK 921   NORMALIZED FREE ENERGY PREDICTED BY IDOCK:   -3.26 KCAL/MOL
REMARK 922        TOTAL FREE ENERGY PREDICTED BY IDOCK:   -5.80 KCAL/MOL
REMARK 923 INTER-LIGAND FREE ENERGY PREDICTED BY IDOCK:   -5.81 KCAL/MOL
REMARK 924 INTRA-LIGAND FREE ENERGY PREDICTED BY IDOCK:    0.00 KCAL/MOL
REMARK 927      BINDING AFFINITY PREDICTED BY RF-SCORE:    0.00 PKD
ROOT
HETATM    1  C   UNL     1      -6.399   6.622  68.042  1.00  0.00    -0.044 C  
HETATM    2  S   UNL     1      -8.062   6.350  67.355  1.00  0.00    -0.117 SA 
HETATM    3  C   UNL     1      -8.897   7.400  68.531  1.00  0.00    -0.126 C  
HETATM    4  C   UNL     1      -8.570   7.135  69.975  1.00  0.00    -0.141 C  
HETATM    5  CA  UNL     1      -5.401   5.436  67.848  1.00  0.00    -0.008 C  
HETATM    6  CA  UNL     1      -7.353   6.678  70.380  1.00  0.00    -0.082 C  
HETATM    7  C   UNL     1      -6.962   6.667  71.912  1.00  0.00    -0.071 C  
HETATM    8  O   UNL     1      -5.234   4.399  70.190  1.00  0.00     0.000 OA 
HETATM    9  N   UNL     1      -6.390   6.328  69.459  1.00  0.00    -0.033 N  
HETATM   10  OXT UNL     1      -7.953   6.535  72.704  1.00  0.00    -0.103 OA 
HETATM   11  O   UNL     1      -5.771   6.983  72.166  1.00  0.00    -0.037 OA 
HETATM   12  C   UNL     1      -5.537   5.273  69.406  1.00  0.00    -0.011 C  
ENDROOT
BRANCH   4  13
HETATM   13  C   UNL     1      -9.651   7.664  70.897  1.00  0.00    -0.164 C  
BRANCH  13  14
HETATM   14  N   UNL     1     -10.224   9.030  70.648  1.00  0.00    -0.211 NA 
HETATM   15  C   UNL     1     -11.376   9.523  71.167  1.00  0.00    -0.370 A  
HETATM   16  C   UNL     1     -12.323   8.900  72.154  1.00  0.00    -0.449 C  
HETATM   17  C   UNL     1     -13.456   9.938  72.309  1.00  0.00    -0.397 C  
HETATM   18  C   UNL     1      -9.573   9.778  69.707  1.00  0.00    -0.230 A  
HETATM   19  C   UNL     1     -13.120  11.169  71.470  1.00  0.00    -0.489 C  
HETATM   20  C   UNL     1     -10.061  11.006  69.265  1.00  0.00    -0.121 A  
HETATM   21  C   UNL     1     -11.226  11.521  69.797  1.00  0.00    -0.237 A  
HETATM   22  C   UNL     1     -11.873  10.768  70.755  1.00  0.00    -0.443 A  
ENDBRANCH  13  14
ENDBRANCH   4  13
BRANCH   5  23
HETATM   23  N   UNL     1      -5.902   4.254  67.092  1.00  0.00    -0.022 N  
HETATM   24  C   UNL     1      -6.059   4.195  65.717  1.00  0.00    -0.027 C  
HETATM   25  O   UNL     1      -5.619   5.047  64.962  1.00  0.00    -0.013 OA 
HETATM   26  H   UNL     1      -6.147   3.423  67.630  1.00  0.00     0.000 HD 
BRANCH  24  27
HETATM   27  C   UNL     1      -6.858   2.954  65.214  1.00  0.00    -0.044 C  
BRANCH  27  28
HETATM   28  C   UNL     1      -8.216   3.126  64.680  1.00  0.00    -0.090 A  
HETATM   29  N   UNL     1      -9.130   3.977  65.297  1.00  0.00    -0.131 NA 
HETATM   30  N   UNL     1     -11.321   4.716  65.070  1.00  0.00    -1.059 NA 
HETATM   31  C   UNL     1      -8.709   2.528  63.533  1.00  0.00    -0.085 A  
HETATM   32  S   UNL     1     -10.325   3.016  63.249  1.00  0.00    -0.207 SA 
HETATM   33  H1  UNL     1     -11.289   5.295  65.909  1.00  0.00     0.000 HD 
HETATM   34  H2  UNL     1     -12.182   4.689  64.523  1.00  0.00     0.000 HD 
HETATM   35  C   UNL     1     -10.272   3.991  64.662  1.00  0.00    -0.214 A  
ENDBRANCH  27  28
BRANCH  27  36
HETATM   36  N   UNL     1      -6.417   1.727  65.174  1.00  0.00    -0.022 NA 
HETATM   37  H   UNL     1      -6.946   0.936  65.539  1.00  0.00     0.000 HD 
BRANCH  36  38
HETATM   38  O   UNL     1      -5.159   1.591  64.588  1.00  0.00    -0.004 OA 
HETATM   39  C   UNL     1      -5.321   1.749  63.180  1.00  0.00    -0.004 C  
ENDBRANCH  36  38
ENDBRANCH  27  36
ENDBRANCH  24  27
ENDBRANCH   5  23
TORSDOF 7
ENDMDL
MODEL      210
REMARK 921   NORMALIZED FREE ENERGY PREDICTED BY IDOCK:   -3.25 KCAL/MOL
REMARK 922        TOTAL FREE ENERGY PREDICTED BY IDOCK:   -5.79 KCAL/MOL
REMARK 923 INTER-LIGAND FREE ENERGY PREDICTED BY IDOCK:   -4.65 KCAL/MOL
REMARK 924 INTRA-LIGAND FREE ENERGY PREDICTED BY IDOCK:   -1.14 KCAL/MOL
REMARK 927      BINDING AFFINITY PREDICTED BY RF-SCORE:    0.00 PKD
ROOT
HETATM    1  C   UNL     1     -11.513  11.978  67.170  1.00  0.00    -0.335 C  
HETATM    2  S   UNL     1     -10.119  11.800  66.013  1.00  0.00    -0.240 SA 
HETATM    3  C   UNL     1     -10.261  10.029  65.859  1.00  0.00    -0.205 C  
HETATM    4  C   UNL     1     -10.329   9.274  67.159  1.00  0.00    -0.330 C  
HETATM    5  CA  UNL     1     -11.403  13.186  68.155  1.00  0.00    -0.292 C  
HETATM    6  CA  UNL     1     -10.892   9.797  68.282  1.00  0.00    -0.210 C  
HETATM    7  C   UNL     1     -11.182   8.885  69.542  1.00  0.00     0.103 C  
HETATM    8  O   UNL     1     -10.829  12.084  70.401  1.00  0.00     0.910 OA 
HETATM    9  N   UNL     1     -11.330  11.103  68.309  1.00  0.00    -0.271 N  
HETATM   10  OXT UNL     1     -10.387   7.896  69.666  1.00  0.00    -0.207 OA 
HETATM   11  O   UNL     1     -12.262   9.126  70.142  1.00  0.00     0.197 OA 
HETATM   12  C   UNL     1     -11.210  12.074  69.250  1.00  0.00    -0.229 C  
ENDROOT
BRANCH   4  13
HETATM   13  C   UNL     1      -9.930   7.822  66.981  1.00  0.00    -0.244 C  
BRANCH  13  14
HETATM   14  N   UNL     1      -8.476   7.449  67.040  1.00  0.00    -0.117 NA 
HETATM   15  C   UNL     1      -7.488   8.165  67.635  1.00  0.00    -0.094 A  
HETATM   16  C   UNL     1      -7.577   9.435  68.433  1.00  0.00    -0.082 C  
HETATM   17  C   UNL     1      -6.114   9.764  68.799  1.00  0.00    -0.042 C  
HETATM   18  C   UNL     1      -8.120   6.350  66.310  1.00  0.00    -0.114 A  
HETATM   19  C   UNL     1      -5.209   8.652  68.272  1.00  0.00    -0.034 C  
HETATM   20  C   UNL     1      -6.791   5.960  66.152  1.00  0.00    -0.061 A  
HETATM   21  C   UNL     1      -5.781   6.676  66.764  1.00  0.00    -0.014 A  
HETATM   22  C   UNL     1      -6.146   7.777  67.510  1.00  0.00    -0.049 A  
ENDBRANCH  13  14
ENDBRANCH   4  13
BRANCH   5  23
HETATM   23  N   UNL     1     -10.213  14.070  68.005  1.00  0.00    -0.232 N  
HETATM   24  C   UNL     1      -9.944  15.184  68.783  1.00  0.00    -0.229 C  
HETATM   25  O   UNL     1     -10.562  15.446  69.803  1.00  0.00    -0.258 OA 
HETATM   26  H   UNL     1      -9.544  13.836  67.272  1.00  0.00     0.000 HD 
BRANCH  24  27
HETATM   27  C   UNL     1      -8.793  16.085  68.240  1.00  0.00    -0.182 C  
BRANCH  27  28
HETATM   28  C   UNL     1      -9.089  17.445  67.770  1.00  0.00    -0.243 A  
HETATM   29  N   UNL     1      -8.415  18.548  68.286  1.00  0.00    -0.310 NA 
HETATM   30  N   UNL     1      -8.341  20.861  68.071  1.00  0.00     0.248 NA 
HETATM   31  C   UNL     1      -9.997  17.770  66.776  1.00  0.00    -0.333 A  
HETATM   32  S   UNL     1     -10.018  19.461  66.512  1.00  0.00    -0.433 SA 
HETATM   33  H1  UNL     1      -7.631  20.978  68.794  1.00  0.00     0.000 HD 
HETATM   34  H2  UNL     1      -8.697  21.688  67.591  1.00  0.00     0.000 HD 
HETATM   35  C   UNL     1      -8.822  19.659  67.730  1.00  0.00    -0.322 A  
ENDBRANCH  27  28
BRANCH  27  36
HETATM   36  N   UNL     1      -7.530  15.764  68.194  1.00  0.00    -0.121 NA 
HETATM   37  H   UNL     1      -6.820  16.366  67.779  1.00  0.00     0.000 HD 
BRANCH  36  38
HETATM   38  O   UNL     1      -7.234  14.525  68.763  1.00  0.00    -0.112 OA 
HETATM   39  C   UNL     1      -6.527  14.768  69.978  1.00  0.00    -0.169 C  
ENDBRANCH  36  38
ENDBRANCH  27  36
ENDBRANCH  24  27
ENDBRANCH   5  23
TORSDOF 7
ENDMDL
MODEL      211
REMARK 921   NORMALIZED FREE ENERGY PREDICTED BY IDOCK:   -3.25 KCAL/MOL
REMARK 922        TOTAL FREE ENERGY PREDICTED BY IDOCK:   -5.79 KCAL/MOL
REMARK 923 INTER-LIGAND FREE ENERGY PREDICTED BY IDOCK:   -5.71 KCAL/MOL
REMARK 924 INTRA-LIGAND FREE ENERGY PREDICTED BY IDOCK:   -0.08 KCAL/MOL
REMARK 927      BINDING AFFINITY PREDICTED BY RF-SCORE:    0.00 PKD
ROOT
HETATM    1  C   UNL     1      -8.447   8.148  66.590  1.00  0.00    -0.128 C  
HETATM    2  S   UNL     1      -7.682   9.101  67.940  1.00  0.00    -0.093 SA 
HETATM    3  C   UNL     1      -6.863   7.701  68.682  1.00  0.00    -0.066 C  
HETATM    4  C   UNL     1      -7.739   6.505  68.937  1.00  0.00    -0.109 C  
HETATM    5  CA  UNL     1      -9.800   8.723  66.059  1.00  0.00    -0.164 C  
HETATM    6  CA  UNL     1      -8.802   6.192  68.147  1.00  0.00    -0.112 C  
HETATM    7  C   UNL     1      -9.530   4.794  68.286  1.00  0.00    -0.142 C  
HETATM    8  O   UNL     1     -11.555   7.108  67.006  1.00  0.00     0.302 OA 
HETATM    9  N   UNL     1      -9.195   7.032  67.129  1.00  0.00    -0.133 N  
HETATM   10  OXT UNL     1      -9.474   4.289  69.456  1.00  0.00    -0.153 OA 
HETATM   11  O   UNL     1      -9.894   4.267  67.202  1.00  0.00    -0.204 OA 
HETATM   12  C   UNL     1     -10.424   7.443  66.724  1.00  0.00    -0.246 C  
ENDROOT
BRANCH   4  13
HETATM   13  C   UNL     1      -7.147   5.597  69.999  1.00  0.00    -0.067 C  
BRANCH  13  14
HETATM   14  N   UNL     1      -6.703   6.190  71.306  1.00  0.00    -0.053 NA 
HETATM   15  C   UNL     1      -6.115   5.522  72.331  1.00  0.00    -0.035 A  
HETATM   16  C   UNL     1      -5.691   4.083  72.414  1.00  0.00    -0.008 C  
HETATM   17  C   UNL     1      -5.128   3.930  73.844  1.00  0.00     0.000 C  
HETATM   18  C   UNL     1      -7.052   7.496  71.508  1.00  0.00    -0.062 A  
HETATM   19  C   UNL     1      -5.169   5.287  74.542  1.00  0.00    -0.022 C  
HETATM   20  C   UNL     1      -6.835   8.145  72.722  1.00  0.00    -0.105 A  
HETATM   21  C   UNL     1      -6.226   7.476  73.766  1.00  0.00    -0.068 A  
HETATM   22  C   UNL     1      -5.866   6.162  73.553  1.00  0.00    -0.053 A  
ENDBRANCH  13  14
ENDBRANCH   4  13
BRANCH   5  23
HETATM   23  N   UNL     1     -10.278   9.993  66.675  1.00  0.00    -0.226 N  
HETATM   24  C   UNL     1     -10.388  11.206  66.017  1.00  0.00    -0.254 C  
HETATM   25  O   UNL     1     -10.285  11.315  64.805  1.00  0.00    -0.254 OA 
HETATM   26  H   UNL     1     -10.545   9.965  67.659  1.00  0.00     0.000 HD 
BRANCH  24  27
HETATM   27  C   UNL     1     -10.642  12.426  66.955  1.00  0.00    -0.229 C  
BRANCH  27  28
HETATM   28  C   UNL     1     -11.346  12.233  68.230  1.00  0.00    -0.289 A  
HETATM   29  N   UNL     1     -11.820  10.980  68.608  1.00  0.00    -0.484 NA 
HETATM   30  N   UNL     1     -12.965   9.950  70.349  1.00  0.00    -0.564 NA 
HETATM   31  C   UNL     1     -11.571  13.216  69.179  1.00  0.00    -0.316 A  
HETATM   32  S   UNL     1     -12.399  12.567  70.530  1.00  0.00    -0.175 SA 
HETATM   33  H1  UNL     1     -12.970   9.034  69.900  1.00  0.00     0.000 HD 
HETATM   34  H2  UNL     1     -13.400  10.052  71.266  1.00  0.00     0.000 HD 
HETATM   35  C   UNL     1     -12.407  11.024  69.775  1.00  0.00    -0.262 A  
ENDBRANCH  27  28
BRANCH  27  36
HETATM   36  N   UNL     1     -10.243  13.649  66.741  1.00  0.00    -0.264 NA 
HETATM   37  H   UNL     1     -10.150  14.340  67.486  1.00  0.00     0.000 HD 
BRANCH  36  38
HETATM   38  O   UNL     1      -9.954  13.931  65.407  1.00  0.00    -0.306 OA 
HETATM   39  C   UNL     1     -10.169  15.327  65.206  1.00  0.00    -0.364 C  
ENDBRANCH  36  38
ENDBRANCH  27  36
ENDBRANCH  24  27
ENDBRANCH   5  23
TORSDOF 7
ENDMDL
MODEL      212
REMARK 921   NORMALIZED FREE ENERGY PREDICTED BY IDOCK:   -3.20 KCAL/MOL
REMARK 922        TOTAL FREE ENERGY PREDICTED BY IDOCK:   -5.72 KCAL/MOL
REMARK 923 INTER-LIGAND FREE ENERGY PREDICTED BY IDOCK:   -4.88 KCAL/MOL
REMARK 924 INTRA-LIGAND FREE ENERGY PREDICTED BY IDOCK:   -0.85 KCAL/MOL
REMARK 927      BINDING AFFINITY PREDICTED BY RF-SCORE:    0.00 PKD
ROOT
HETATM    1  C   UNL     1     -12.265  15.176  68.637  1.00  0.00    -0.032 C  
HETATM    2  S   UNL     1     -11.167  15.623  70.018  1.00  0.00    -0.359 SA 
HETATM    3  C   UNL     1     -10.313  16.916  69.135  1.00  0.00    -0.319 C  
HETATM    4  C   UNL     1      -9.786  16.529  67.780  1.00  0.00    -0.235 C  
HETATM    5  CA  UNL     1     -12.728  13.684  68.617  1.00  0.00     0.950 C  
HETATM    6  CA  UNL     1     -10.399  15.607  66.990  1.00  0.00    -0.289 C  
HETATM    7  C   UNL     1      -9.972  15.423  65.478  1.00  0.00    -0.344 C  
HETATM    8  O   UNL     1     -11.362  12.655  66.703  1.00  0.00    -0.291 OA 
HETATM    9  N   UNL     1     -11.485  14.895  67.451  1.00  0.00    -0.348 N  
HETATM   10  OXT UNL     1      -8.751  15.708  65.242  1.00  0.00     0.766 OA 
HETATM   11  O   UNL     1     -10.917  15.214  64.674  1.00  0.00    -0.377 OA 
HETATM   12  C   UNL     1     -11.812  13.581  67.343  1.00  0.00    -0.384 C  
ENDROOT
BRANCH   4  13
HETATM   13  C   UNL     1      -8.669  17.453  67.333  1.00  0.00    -0.223 C  
BRANCH  13  14
HETATM   14  N   UNL     1      -7.610  17.854  68.319  1.00  0.00    -0.256 NA 
HETATM   15  C   UNL     1      -6.876  17.014  69.093  1.00  0.00    -0.240 A  
HETATM   16  C   UNL     1      -6.861  15.512  69.124  1.00  0.00    -0.155 C  
HETATM   17  C   UNL     1      -5.852  15.160  70.238  1.00  0.00    -0.147 C  
HETATM   18  C   UNL     1      -7.483  19.198  68.533  1.00  0.00    -0.325 A  
HETATM   19  C   UNL     1      -5.248  16.451  70.787  1.00  0.00    -0.172 C  
HETATM   20  C   UNL     1      -6.644  19.719  69.516  1.00  0.00    -0.388 A  
HETATM   21  C   UNL     1      -5.885  18.872  70.299  1.00  0.00    -0.214 A  
HETATM   22  C   UNL     1      -6.007  17.518  70.072  1.00  0.00    -0.188 A  
ENDBRANCH  13  14
ENDBRANCH   4  13
BRANCH   5  23
HETATM   23  N   UNL     1     -12.264  12.822  69.740  1.00  0.00    -0.204 N  
HETATM   24  C   UNL     1     -12.269  11.436  69.735  1.00  0.00    -0.265 C  
HETATM   25  O   UNL     1     -12.475  10.777  68.729  1.00  0.00    -0.366 OA 
HETATM   26  H   UNL     1     -11.916  13.288  70.577  1.00  0.00     0.000 HD 
BRANCH  24  27
HETATM   27  C   UNL     1     -11.999  10.788  71.128  1.00  0.00    -0.258 C  
BRANCH  27  28
HETATM   28  C   UNL     1     -10.974   9.744  71.261  1.00  0.00    -0.261 A  
HETATM   29  N   UNL     1      -9.638  10.069  71.479  1.00  0.00     1.112 NA 
HETATM   30  N   UNL     1      -7.570   9.047  71.763  1.00  0.00    -0.340 NA 
HETATM   31  C   UNL     1     -11.210   8.380  71.232  1.00  0.00    -0.259 A  
HETATM   32  S   UNL     1      -9.751   7.513  71.452  1.00  0.00    -0.166 SA 
HETATM   33  H1  UNL     1      -7.063   9.929  71.835  1.00  0.00     0.000 HD 
HETATM   34  H2  UNL     1      -7.051   8.172  71.837  1.00  0.00     0.000 HD 
HETATM   35  C   UNL     1      -8.896   8.998  71.574  1.00  0.00    -0.097 A  
ENDBRANCH  27  28
BRANCH  27  36
HETATM   36  N   UNL     1     -12.581  11.116  72.248  1.00  0.00     0.276 NA 
HETATM   37  H   UNL     1     -12.157  10.953  73.161  1.00  0.00     0.000 HD 
BRANCH  36  38
HETATM   38  O   UNL     1     -13.833  11.708  72.089  1.00  0.00    -0.083 OA 
HETATM   39  C   UNL     1     -13.732  13.057  72.544  1.00  0.00    -0.398 C  
ENDBRANCH  36  38
ENDBRANCH  27  36
ENDBRANCH  24  27
ENDBRANCH   5  23
TORSDOF 7
ENDMDL
MODEL      213
REMARK 921   NORMALIZED FREE ENERGY PREDICTED BY IDOCK:   -3.20 KCAL/MOL
REMARK 922        TOTAL FREE ENERGY PREDICTED BY IDOCK:   -5.72 KCAL/MOL
REMARK 923 INTER-LIGAND FREE ENERGY PREDICTED BY IDOCK:   -4.73 KCAL/MOL
REMARK 924 INTRA-LIGAND FREE ENERGY PREDICTED BY IDOCK:   -0.99 KCAL/MOL
REMARK 927      BINDING AFFINITY PREDICTED BY RF-SCORE:    0.00 PKD
ROOT
HETATM    1  C   UNL     1      -7.192  10.743  67.150  1.00  0.00    -0.100 C  
HETATM    2  S   UNL     1      -9.010  10.658  67.148  1.00  0.00    -0.136 SA 
HETATM    3  C   UNL     1      -9.255  12.424  67.198  1.00  0.00    -0.199 C  
HETATM    4  C   UNL     1      -8.484  13.149  68.268  1.00  0.00    -0.161 C  
HETATM    5  CA  UNL     1      -6.474   9.517  67.801  1.00  0.00    -0.058 C  
HETATM    6  CA  UNL     1      -7.268  12.729  68.709  1.00  0.00    -0.077 C  
HETATM    7  C   UNL     1      -6.376  13.654  69.631  1.00  0.00    -0.110 C  
HETATM    8  O   UNL     1      -5.637  10.433  70.048  1.00  0.00    -0.042 OA 
HETATM    9  N   UNL     1      -6.731  11.539  68.267  1.00  0.00    -0.061 N  
HETATM   10  OXT UNL     1      -7.042  14.458  70.364  1.00  0.00     0.099 OA 
HETATM   11  O   UNL     1      -5.142  13.625  69.390  1.00  0.00    -0.082 OA 
HETATM   12  C   UNL     1      -6.083  10.544  68.926  1.00  0.00    -0.040 C  
ENDROOT
BRANCH   4  13
HETATM   13  C   UNL     1      -9.109  14.494  68.589  1.00  0.00    -0.187 C  
BRANCH  13  14
HETATM   14  N   UNL     1      -9.245  15.518  67.500  1.00  0.00    -0.196 NA 
HETATM   15  C   UNL     1      -8.355  16.501  67.207  1.00  0.00    -0.174 A  
HETATM   16  C   UNL     1      -7.009  16.781  67.812  1.00  0.00    -0.151 C  
HETATM   17  C   UNL     1      -6.514  18.049  67.082  1.00  0.00    -0.193 C  
HETATM   18  C   UNL     1     -10.442  15.521  66.840  1.00  0.00    -0.301 A  
HETATM   19  C   UNL     1      -7.542  18.444  66.023  1.00  0.00    -0.231 C  
HETATM   20  C   UNL     1     -10.773  16.497  65.902  1.00  0.00    -0.194 A  
HETATM   21  C   UNL     1      -9.868  17.492  65.589  1.00  0.00     0.153 A  
HETATM   22  C   UNL     1      -8.657  17.479  66.248  1.00  0.00    -0.234 A  
ENDBRANCH  13  14
ENDBRANCH   4  13
BRANCH   5  23
HETATM   23  N   UNL     1      -7.344   8.414  68.296  1.00  0.00    -0.093 N  
HETATM   24  C   UNL     1      -6.902   7.304  68.998  1.00  0.00    -0.064 C  
HETATM   25  O   UNL     1      -5.773   7.214  69.454  1.00  0.00    -0.015 OA 
HETATM   26  H   UNL     1      -8.342   8.481  68.101  1.00  0.00     0.000 HD 
BRANCH  24  27
HETATM   27  C   UNL     1      -7.966   6.174  69.149  1.00  0.00    -0.108 C  
BRANCH  27  28
HETATM   28  C   UNL     1      -8.499   5.508  67.953  1.00  0.00    -0.098 A  
HETATM   29  N   UNL     1      -9.759   5.827  67.452  1.00  0.00    -0.118 NA 
HETATM   30  N   UNL     1     -11.201   5.238  65.727  1.00  0.00    -0.773 NA 
HETATM   31  C   UNL     1      -7.829   4.564  67.194  1.00  0.00    -0.097 A  
HETATM   32  S   UNL     1      -8.792   4.064  65.870  1.00  0.00    -0.128 SA 
HETATM   33  H1  UNL     1     -11.940   5.871  66.032  1.00  0.00     0.000 HD 
HETATM   34  H2  UNL     1     -11.351   4.669  64.895  1.00  0.00     0.000 HD 
HETATM   35  C   UNL     1     -10.038   5.129  66.384  1.00  0.00    -0.239 A  
ENDBRANCH  27  28
BRANCH  27  36
HETATM   36  N   UNL     1      -8.425   5.703  70.275  1.00  0.00    -0.121 NA 
HETATM   37  H   UNL     1      -9.391   5.400  70.397  1.00  0.00     0.000 HD 
BRANCH  36  38
HETATM   38  O   UNL     1      -7.479   5.649  71.299  1.00  0.00    -0.089 OA 
HETATM   39  C   UNL     1      -7.988   4.777  72.307  1.00  0.00    -0.106 C  
ENDBRANCH  36  38
ENDBRANCH  27  36
ENDBRANCH  24  27
ENDBRANCH   5  23
TORSDOF 7
ENDMDL
MODEL      214
REMARK 921   NORMALIZED FREE ENERGY PREDICTED BY IDOCK:   -2.61 KCAL/MOL
REMARK 922        TOTAL FREE ENERGY PREDICTED BY IDOCK:   -4.89 KCAL/MOL
REMARK 923 INTER-LIGAND FREE ENERGY PREDICTED BY IDOCK:   -6.04 KCAL/MOL
REMARK 924 INTRA-LIGAND FREE ENERGY PREDICTED BY IDOCK:    1.15 KCAL/MOL
REMARK 927      BINDING AFFINITY PREDICTED BY RF-SCORE:    0.00 PKD
ROOT
HETATM    1  C   UNL     1     -10.384  10.091  66.496  1.00  0.00    -0.198 C  
HETATM    2  S   UNL     1      -8.888  11.018  66.029  1.00  0.00    -0.191 SA 
HETATM    3  C   UNL     1      -7.799   9.608  66.085  1.00  0.00    -0.101 C  
HETATM    4  C   UNL     1      -7.876   8.785  67.342  1.00  0.00    -0.098 C  
HETATM    5  CA  UNL     1     -11.465  10.921  67.260  1.00  0.00    -0.019 C  
HETATM    6  CA  UNL     1      -9.023   8.649  68.061  1.00  0.00    -0.141 C  
HETATM    7  C   UNL     1      -9.133   7.573  69.215  1.00  0.00    -0.138 C  
HETATM    8  O   UNL     1     -11.266  10.089  69.679  1.00  0.00    -0.244 OA 
HETATM    9  N   UNL     1     -10.154   9.360  67.724  1.00  0.00    -0.185 N  
HETATM   10  OXT UNL     1      -8.024   7.303  69.786  1.00  0.00    -0.117 OA 
HETATM   11  O   UNL     1     -10.240   6.980  69.294  1.00  0.00    -0.175 OA 
HETATM   12  C   UNL     1     -11.061  10.024  68.486  1.00  0.00    -0.167 C  
ENDROOT
BRANCH   4  13
HETATM   13  C   UNL     1      -6.618   7.962  67.547  1.00  0.00    -0.057 C  
BRANCH  13  14
HETATM   14  N   UNL     1      -6.526   6.597  66.928  1.00  0.00    -0.042 NA 
HETATM   15  C   UNL     1      -7.141   6.191  65.788  1.00  0.00    -0.073 A  
HETATM   16  C   UNL     1      -7.986   6.978  64.826  1.00  0.00    -0.122 C  
HETATM   17  C   UNL     1      -8.421   5.947  63.763  1.00  0.00     0.100 C  
HETATM   18  C   UNL     1      -5.861   5.659  67.667  1.00  0.00    -0.013 A  
HETATM   19  C   UNL     1      -7.772   4.601  64.081  1.00  0.00    -0.078 C  
HETATM   20  C   UNL     1      -5.811   4.317  67.294  1.00  0.00    -0.023 A  
HETATM   21  C   UNL     1      -6.424   3.898  66.129  1.00  0.00    -0.037 A  
HETATM   22  C   UNL     1      -7.083   4.850  65.381  1.00  0.00    -0.063 A  
ENDBRANCH  13  14
ENDBRANCH   4  13
BRANCH   5  23
HETATM   23  N   UNL     1     -11.175  12.366  67.473  1.00  0.00    -0.275 N  
HETATM   24  C   UNL     1     -10.278  12.871  68.400  1.00  0.00    -0.237 C  
HETATM   25  O   UNL     1      -9.486  12.168  69.008  1.00  0.00     0.102 OA 
HETATM   26  H   UNL     1     -11.677  13.037  66.891  1.00  0.00     0.000 HD 
BRANCH  24  27
HETATM   27  C   UNL     1     -10.371  14.413  68.612  1.00  0.00    -0.245 C  
BRANCH  27  28
HETATM   28  C   UNL     1     -10.310  15.315  67.454  1.00  0.00    -0.256 A  
HETATM   29  N   UNL     1     -10.920  14.979  66.248  1.00  0.00    -0.336 NA 
HETATM   30  N   UNL     1     -11.229  15.822  64.104  1.00  0.00    -0.851 NA 
HETATM   31  C   UNL     1      -9.708  16.561  67.438  1.00  0.00    -0.246 A  
HETATM   32  S   UNL     1      -9.888  17.295  65.902  1.00  0.00    -0.052 SA 
HETATM   33  H1  UNL     1     -11.743  15.004  63.778  1.00  0.00     0.000 HD 
HETATM   34  H2  UNL     1     -11.071  16.595  63.457  1.00  0.00     0.000 HD 
HETATM   35  C   UNL     1     -10.754  15.917  65.353  1.00  0.00    -0.399 A  
ENDBRANCH  27  28
BRANCH  27  36
HETATM   36  N   UNL     1     -10.547  15.017  69.754  1.00  0.00    -0.363 NA 
HETATM   37  H   UNL     1      -9.874  14.965  70.519  1.00  0.00     0.000 HD 
BRANCH  36  38
HETATM   38  O   UNL     1     -11.737  15.741  69.841  1.00  0.00    -0.331 OA 
HETATM   39  C   UNL     1     -12.566  15.092  70.803  1.00  0.00    -0.370 C  
ENDBRANCH  36  38
ENDBRANCH  27  36
ENDBRANCH  24  27
ENDBRANCH   5  23
TORSDOF 7
ENDMDL
MODEL      215
REMARK 921   NORMALIZED FREE ENERGY PREDICTED BY IDOCK:   -2.39 KCAL/MOL
REMARK 922        TOTAL FREE ENERGY PREDICTED BY IDOCK:   -4.58 KCAL/MOL
REMARK 923 INTER-LIGAND FREE ENERGY PREDICTED BY IDOCK:   -3.99 KCAL/MOL
REMARK 924 INTRA-LIGAND FREE ENERGY PREDICTED BY IDOCK:   -0.59 KCAL/MOL
REMARK 927      BINDING AFFINITY PREDICTED BY RF-SCORE:    0.00 PKD
ROOT
HETATM    1  C   UNL     1      -7.081  12.809  66.784  1.00  0.00     0.574 C  
HETATM    2  S   UNL     1      -6.466  12.735  68.496  1.00  0.00    -0.091 SA 
HETATM    3  C   UNL     1      -5.558  11.216  68.276  1.00  0.00    -0.045 C  
HETATM    4  C   UNL     1      -6.332  10.089  67.649  1.00  0.00    -0.059 C  
HETATM    5  CA  UNL     1      -8.455  13.532  66.606  1.00  0.00     0.163 C  
HETATM    6  CA  UNL     1      -7.325  10.296  66.743  1.00  0.00    -0.106 C  
HETATM    7  C   UNL     1      -7.929   9.092  65.913  1.00  0.00    -0.103 C  
HETATM    8  O   UNL     1     -10.097  11.607  66.174  1.00  0.00    -0.212 OA 
HETATM    9  N   UNL     1      -7.748  11.572  66.439  1.00  0.00    -0.061 N  
HETATM   10  OXT UNL     1      -7.880   7.967  66.513  1.00  0.00    -0.094 OA 
HETATM   11  O   UNL     1      -8.195   9.347  64.710  1.00  0.00    -0.128 OA 
HETATM   12  C   UNL     1      -8.990  12.092  66.268  1.00  0.00    -0.094 C  
ENDROOT
BRANCH   4  13
HETATM   13  C   UNL     1      -5.708   8.742  67.963  1.00  0.00    -0.035 C  
BRANCH  13  14
HETATM   14  N   UNL     1      -5.749   8.226  69.373  1.00  0.00    -0.030 NA 
HETATM   15  C   UNL     1      -6.245   7.027  69.773  1.00  0.00    -0.034 A  
HETATM   16  C   UNL     1      -6.795   5.898  68.948  1.00  0.00    -0.066 C  
HETATM   17  C   UNL     1      -7.229   4.839  69.985  1.00  0.00    -0.054 C  
HETATM   18  C   UNL     1      -5.366   9.115  70.337  1.00  0.00    -0.030 A  
HETATM   19  C   UNL     1      -6.865   5.335  71.383  1.00  0.00    -0.052 C  
HETATM   20  C   UNL     1      -5.481   8.833  71.697  1.00  0.00    -0.044 A  
HETATM   21  C   UNL     1      -5.973   7.611  72.113  1.00  0.00    -0.039 A  
HETATM   22  C   UNL     1      -6.347   6.712  71.135  1.00  0.00    -0.041 A  
ENDBRANCH  13  14
ENDBRANCH   4  13
BRANCH   5  23
HETATM   23  N   UNL     1      -9.073  14.111  67.831  1.00  0.00    -0.182 N  
HETATM   24  C   UNL     1     -10.092  15.050  67.843  1.00  0.00    -0.226 C  
HETATM   25  O   UNL     1     -10.721  15.358  66.843  1.00  0.00    -0.306 OA 
HETATM   26  H   UNL     1      -8.719  13.790  68.732  1.00  0.00     0.000 HD 
BRANCH  24  27
HETATM   27  C   UNL     1     -10.359  15.692  69.239  1.00  0.00    -0.250 C  
BRANCH  27  28
HETATM   28  C   UNL     1     -11.392  15.125  70.117  1.00  0.00    -0.271 A  
HETATM   29  N   UNL     1     -12.299  15.945  70.783  1.00  0.00    -0.374 NA 
HETATM   30  N   UNL     1     -14.091  15.803  72.256  1.00  0.00    -0.452 NA 
HETATM   31  C   UNL     1     -11.603  13.775  70.341  1.00  0.00    -0.071 A  
HETATM   32  S   UNL     1     -12.922  13.542  71.406  1.00  0.00    -0.301 SA 
HETATM   33  H1  UNL     1     -14.217  16.814  72.314  1.00  0.00     0.000 HD 
HETATM   34  H2  UNL     1     -14.716  15.198  72.789  1.00  0.00     0.000 HD 
HETATM   35  C   UNL     1     -13.134  15.244  71.504  1.00  0.00    -0.438 A  
ENDBRANCH  27  28
BRANCH  27  36
HETATM   36  N   UNL     1      -9.707  16.696  69.754  1.00  0.00     0.144 NA 
HETATM   37  H   UNL     1      -9.344  16.691  70.707  1.00  0.00     0.000 HD 
BRANCH  36  38
HETATM   38  O   UNL     1      -9.550  17.780  68.890  1.00  0.00    -0.286 OA 
HETATM   39  C   UNL     1      -8.222  17.727  68.372  1.00  0.00    -0.298 C  
ENDBRANCH  36  38
ENDBRANCH  27  36
ENDBRANCH  24  27
ENDBRANCH   5  23
TORSDOF 7
ENDMDL
MODEL      216
REMARK 921   NORMALIZED FREE ENERGY PREDICTED BY IDOCK:   -2.38 KCAL/MOL
REMARK 922        TOTAL FREE ENERGY PREDICTED BY IDOCK:   -4.56 KCAL/MOL
REMARK 923 INTER-LIGAND FREE ENERGY PREDICTED BY IDOCK:   -4.21 KCAL/MOL
REMARK 924 INTRA-LIGAND FREE ENERGY PREDICTED BY IDOCK:   -0.35 KCAL/MOL
REMARK 927      BINDING AFFINITY PREDICTED BY RF-SCORE:    0.00 PKD
ROOT
HETATM    1  C   UNL     1      -5.325   7.921  67.635  1.00  0.00    -0.032 C  
HETATM    2  S   UNL     1      -5.597   8.508  65.933  1.00  0.00    -0.046 SA 
HETATM    3  C   UNL     1      -5.805  10.221  66.384  1.00  0.00    -0.066 C  
HETATM    4  C   UNL     1      -6.789  10.480  67.491  1.00  0.00    -0.075 C  
HETATM    5  CA  UNL     1      -5.774   6.449  67.906  1.00  0.00    -0.012 C  
HETATM    6  CA  UNL     1      -7.008   9.594  68.500  1.00  0.00    -0.065 C  
HETATM    7  C   UNL     1      -7.844  10.010  69.777  1.00  0.00    -0.177 C  
HETATM    8  O   UNL     1      -7.922   6.717  69.284  1.00  0.00    -0.112 OA 
HETATM    9  N   UNL     1      -6.410   8.353  68.490  1.00  0.00    -0.053 N  
HETATM   10  OXT UNL     1      -8.723  10.908  69.557  1.00  0.00     0.024 OA 
HETATM   11  O   UNL     1      -7.413   9.562  70.871  1.00  0.00    -0.259 OA 
HETATM   12  C   UNL     1      -6.892   7.118  68.786  1.00  0.00    -0.076 C  
ENDROOT
BRANCH   4  13
HETATM   13  C   UNL     1      -7.294  11.910  67.465  1.00  0.00    -0.132 C  
BRANCH  13  14
HETATM   14  N   UNL     1      -8.475  12.255  66.603  1.00  0.00    -0.113 NA 
HETATM   15  C   UNL     1      -8.927  11.542  65.541  1.00  0.00    -0.031 A  
HETATM   16  C   UNL     1      -8.444  10.228  64.998  1.00  0.00    -0.177 C  
HETATM   17  C   UNL     1      -9.335   9.970  63.763  1.00  0.00    -0.307 C  
HETATM   18  C   UNL     1      -9.051  13.469  66.853  1.00  0.00    -0.239 A  
HETATM   19  C   UNL     1     -10.360  11.096  63.647  1.00  0.00    -0.449 C  
HETATM   20  C   UNL     1     -10.064  13.991  66.051  1.00  0.00    -0.327 A  
HETATM   21  C   UNL     1     -10.539  13.267  64.975  1.00  0.00    -0.360 A  
HETATM   22  C   UNL     1      -9.962  12.037  64.734  1.00  0.00    -0.241 A  
ENDBRANCH  13  14
ENDBRANCH   4  13
BRANCH   5  23
HETATM   23  N   UNL     1      -6.320   5.689  66.747  1.00  0.00    -0.034 N  
HETATM   24  C   UNL     1      -6.638   4.341  66.756  1.00  0.00    -0.046 C  
HETATM   25  O   UNL     1      -6.683   3.677  67.780  1.00  0.00    -0.041 OA 
HETATM   26  H   UNL     1      -6.472   6.202  65.879  1.00  0.00     0.000 HD 
BRANCH  24  27
HETATM   27  C   UNL     1      -6.922   3.737  65.346  1.00  0.00    -0.061 C  
BRANCH  27  28
HETATM   28  C   UNL     1      -8.301   3.666  64.846  1.00  0.00    -0.097 A  
HETATM   29  N   UNL     1      -8.695   2.670  63.957  1.00  0.00    -0.086 NA 
HETATM   30  N   UNL     1     -10.572   1.955  62.788  1.00  0.00    -0.118 NA 
HETATM   31  C   UNL     1      -9.333   4.513  65.216  1.00  0.00    -0.160 A  
HETATM   32  S   UNL     1     -10.785   4.069  64.426  1.00  0.00    -0.049 SA 
HETATM   33  H1  UNL     1     -10.081   1.191  62.324  1.00  0.00     0.000 HD 
HETATM   34  H2  UNL     1     -11.563   2.094  62.593  1.00  0.00     0.000 HD 
HETATM   35  C   UNL     1      -9.959   2.783  63.644  1.00  0.00    -0.149 A  
ENDBRANCH  27  28
BRANCH  27  36
HETATM   36  N   UNL     1      -6.023   3.307  64.505  1.00  0.00    -0.021 NA 
HETATM   37  H   UNL     1      -5.855   2.316  64.332  1.00  0.00     0.000 HD 
BRANCH  36  38
HETATM   38  O   UNL     1      -5.310   4.319  63.863  1.00  0.00    -0.012 OA 
HETATM   39  C   UNL     1      -5.657   4.277  62.479  1.00  0.00    -0.009 C  
ENDBRANCH  36  38
ENDBRANCH  27  36
ENDBRANCH  24  27
ENDBRANCH   5  23
TORSDOF 7
ENDMDL
MODEL      217
REMARK 921   NORMALIZED FREE ENERGY PREDICTED BY IDOCK:   -2.34 KCAL/MOL
REMARK 922        TOTAL FREE ENERGY PREDICTED BY IDOCK:   -4.51 KCAL/MOL
REMARK 923 INTER-LIGAND FREE ENERGY PREDICTED BY IDOCK:   -5.61 KCAL/MOL
REMARK 924 INTRA-LIGAND FREE ENERGY PREDICTED BY IDOCK:    1.10 KCAL/MOL
REMARK 927      BINDING AFFINITY PREDICTED BY RF-SCORE:    0.00 PKD
ROOT
HETATM    1  C   UNL     1      -5.777   8.557  67.155  1.00  0.00    -0.039 C  
HETATM    2  S   UNL     1      -6.803   9.239  65.814  1.00  0.00    -0.086 SA 
HETATM    3  C   UNL     1      -6.324  10.934  66.090  1.00  0.00    -0.123 C  
HETATM    4  C   UNL     1      -6.438  11.411  67.512  1.00  0.00    -0.074 C  
HETATM    5  CA  UNL     1      -6.325   7.246  67.805  1.00  0.00    -0.048 C  
HETATM    6  CA  UNL     1      -6.258  10.587  68.579  1.00  0.00    -0.046 C  
HETATM    7  C   UNL     1      -6.122  11.173  70.042  1.00  0.00    -0.134 C  
HETATM    8  O   UNL     1      -7.217   8.028  70.081  1.00  0.00    -0.055 OA 
HETATM    9  N   UNL     1      -6.071   9.233  68.401  1.00  0.00    -0.045 N  
HETATM   10  OXT UNL     1      -6.741  12.274  70.224  1.00  0.00     0.124 OA 
HETATM   11  O   UNL     1      -5.275  10.599  70.775  1.00  0.00    -0.070 OA 
HETATM   12  C   UNL     1      -6.578   8.160  69.059  1.00  0.00    -0.048 C  
ENDROOT
BRANCH   4  13
HETATM   13  C   UNL     1      -6.526  12.924  67.587  1.00  0.00    -0.157 C  
BRANCH  13  14
HETATM   14  N   UNL     1      -7.842  13.596  67.315  1.00  0.00    -0.136 NA 
HETATM   15  C   UNL     1      -8.031  14.916  67.065  1.00  0.00    -0.135 A  
HETATM   16  C   UNL     1      -7.017  16.015  66.919  1.00  0.00    -0.139 C  
HETATM   17  C   UNL     1      -7.859  17.288  66.684  1.00  0.00    -0.295 C  
HETATM   18  C   UNL     1      -8.947  12.807  67.467  1.00  0.00    -0.192 A  
HETATM   19  C   UNL     1      -9.336  16.903  66.629  1.00  0.00    -0.278 C  
HETATM   20  C   UNL     1     -10.242  13.317  67.386  1.00  0.00    -0.229 A  
HETATM   21  C   UNL     1     -10.443  14.657  67.120  1.00  0.00    -0.268 A  
HETATM   22  C   UNL     1      -9.324  15.447  66.956  1.00  0.00    -0.238 A  
ENDBRANCH  13  14
ENDBRANCH   4  13
BRANCH   5  23
HETATM   23  N   UNL     1      -7.580   6.684  67.230  1.00  0.00    -0.098 N  
HETATM   24  C   UNL     1      -8.838   7.247  67.361  1.00  0.00    -0.119 C  
HETATM   25  O   UNL     1      -9.019   8.372  67.801  1.00  0.00    -0.136 OA 
HETATM   26  H   UNL     1      -7.505   5.817  66.699  1.00  0.00     0.000 HD 
BRANCH  24  27
HETATM   27  C   UNL     1     -10.008   6.320  66.909  1.00  0.00    -0.169 C  
BRANCH  27  28
HETATM   28  C   UNL     1      -9.817   5.401  65.779  1.00  0.00     0.022 A  
HETATM   29  N   UNL     1     -10.803   4.488  65.419  1.00  0.00    -0.195 NA 
HETATM   30  N   UNL     1     -11.206   2.810  63.862  1.00  0.00    -0.576 NA 
HETATM   31  C   UNL     1      -8.707   5.367  64.952  1.00  0.00    -0.096 A  
HETATM   32  S   UNL     1      -8.897   4.171  63.742  1.00  0.00    -0.128 SA 
HETATM   33  H1  UNL     1     -12.121   2.574  64.245  1.00  0.00     0.000 HD 
HETATM   34  H2  UNL     1     -10.864   2.294  63.051  1.00  0.00     0.000 HD 
HETATM   35  C   UNL     1     -10.438   3.773  64.387  1.00  0.00    -0.216 A  
ENDBRANCH  27  28
BRANCH  27  36
HETATM   36  N   UNL     1     -11.178   6.236  67.478  1.00  0.00    -0.614 NA 
HETATM   37  H   UNL     1     -12.033   6.031  66.960  1.00  0.00     0.000 HD 
BRANCH  36  38
HETATM   38  O   UNL     1     -11.162   6.453  68.855  1.00  0.00    -0.343 OA 
HETATM   39  C   UNL     1     -10.514   5.333  69.458  1.00  0.00    -0.234 C  
ENDBRANCH  36  38
ENDBRANCH  27  36
ENDBRANCH  24  27
ENDBRANCH   5  23
TORSDOF 7
ENDMDL
MODEL      218
REMARK 921   NORMALIZED FREE ENERGY PREDICTED BY IDOCK:   -2.33 KCAL/MOL
REMARK 922        TOTAL FREE ENERGY PREDICTED BY IDOCK:   -4.49 KCAL/MOL
REMARK 923 INTER-LIGAND FREE ENERGY PREDICTED BY IDOCK:   -3.74 KCAL/MOL
REMARK 924 INTRA-LIGAND FREE ENERGY PREDICTED BY IDOCK:   -0.75 KCAL/MOL
REMARK 927      BINDING AFFINITY PREDICTED BY RF-SCORE:    0.00 PKD
ROOT
HETATM    1  C   UNL     1      -5.922   9.820  67.935  1.00  0.00    -0.050 C  
HETATM    2  S   UNL     1      -7.505   9.491  67.099  1.00  0.00    -0.091 SA 
HETATM    3  C   UNL     1      -7.681  11.136  66.431  1.00  0.00    -0.124 C  
HETATM    4  C   UNL     1      -7.512  12.254  67.423  1.00  0.00    -0.160 C  
HETATM    5  CA  UNL     1      -5.661   8.966  69.217  1.00  0.00    -0.035 C  
HETATM    6  CA  UNL     1      -6.685  12.160  68.500  1.00  0.00    -0.071 C  
HETATM    7  C   UNL     1      -6.332  13.438  69.363  1.00  0.00    -0.111 C  
HETATM    8  O   UNL     1      -6.007  10.637  71.135  1.00  0.00    -0.320 OA 
HETATM    9  N   UNL     1      -6.043  10.978  68.795  1.00  0.00    -0.043 N  
HETATM   10  OXT UNL     1      -7.244  14.331  69.374  1.00  0.00    -0.121 OA 
HETATM   11  O   UNL     1      -5.140  13.506  69.762  1.00  0.00    -0.084 OA 
HETATM   12  C   UNL     1      -5.839  10.334  69.973  1.00  0.00    -0.057 C  
ENDROOT
BRANCH   4  13
HETATM   13  C   UNL     1      -8.166  13.533  66.937  1.00  0.00     0.067 C  
BRANCH  13  14
HETATM   14  N   UNL     1      -9.665  13.610  66.869  1.00  0.00    -0.254 NA 
HETATM   15  C   UNL     1     -10.455  14.473  67.555  1.00  0.00    -0.253 A  
HETATM   16  C   UNL     1     -10.070  15.596  68.476  1.00  0.00    -0.211 C  
HETATM   17  C   UNL     1     -11.415  16.171  68.969  1.00  0.00    -0.323 C  
HETATM   18  C   UNL     1     -10.271  12.625  66.141  1.00  0.00    -0.258 A  
HETATM   19  C   UNL     1     -12.556  15.425  68.279  1.00  0.00     0.918 C  
HETATM   20  C   UNL     1     -11.657  12.479  66.096  1.00  0.00    -0.448 A  
HETATM   21  C   UNL     1     -12.469  13.361  66.782  1.00  0.00    -0.162 A  
HETATM   22  C   UNL     1     -11.852  14.360  67.505  1.00  0.00    -0.418 A  
ENDBRANCH  13  14
ENDBRANCH   4  13
BRANCH   5  23
HETATM   23  N   UNL     1      -6.700   7.961  69.578  1.00  0.00    -0.042 N  
HETATM   24  C   UNL     1      -6.521   6.588  69.557  1.00  0.00    -0.043 C  
HETATM   25  O   UNL     1      -5.427   6.063  69.425  1.00  0.00    -0.010 OA 
HETATM   26  H   UNL     1      -7.614   8.312  69.862  1.00  0.00     0.000 HD 
BRANCH  24  27
HETATM   27  C   UNL     1      -7.838   5.766  69.705  1.00  0.00    -0.096 C  
BRANCH  27  28
HETATM   28  C   UNL     1      -8.334   5.415  71.042  1.00  0.00    -0.119 A  
HETATM   29  N   UNL     1      -7.578   4.628  71.907  1.00  0.00    -0.085 NA 
HETATM   30  N   UNL     1      -7.683   3.699  74.035  1.00  0.00    -0.069 NA 
HETATM   31  C   UNL     1      -9.532   5.840  71.591  1.00  0.00    -0.152 A  
HETATM   32  S   UNL     1      -9.715   5.229  73.179  1.00  0.00    -0.146 SA 
HETATM   33  H1  UNL     1      -6.781   3.230  73.953  1.00  0.00     0.000 HD 
HETATM   34  H2  UNL     1      -8.214   3.599  74.900  1.00  0.00     0.000 HD 
HETATM   35  C   UNL     1      -8.195   4.440  73.043  1.00  0.00    -0.095 A  
ENDBRANCH  27  28
BRANCH  27  36
HETATM   36  N   UNL     1      -8.607   5.373  68.727  1.00  0.00    -0.099 NA 
HETATM   37  H   UNL     1      -9.111   6.023  68.124  1.00  0.00     0.000 HD 
BRANCH  36  38
HETATM   38  O   UNL     1      -8.679   3.989  68.577  1.00  0.00    -0.091 OA 
HETATM   39  C   UNL     1      -7.874   3.635  67.454  1.00  0.00    -0.079 C  
ENDBRANCH  36  38
ENDBRANCH  27  36
ENDBRANCH  24  27
ENDBRANCH   5  23
TORSDOF 7
ENDMDL
MODEL      219
REMARK 921   NORMALIZED FREE ENERGY PREDICTED BY IDOCK:   -2.16 KCAL/MOL
REMARK 922        TOTAL FREE ENERGY PREDICTED BY IDOCK:   -4.26 KCAL/MOL
REMARK 923 INTER-LIGAND FREE ENERGY PREDICTED BY IDOCK:   -5.06 KCAL/MOL
REMARK 924 INTRA-LIGAND FREE ENERGY PREDICTED BY IDOCK:    0.80 KCAL/MOL
REMARK 927      BINDING AFFINITY PREDICTED BY RF-SCORE:    0.00 PKD
ROOT
HETATM    1  C   UNL     1      -6.374  10.421  67.522  1.00  0.00    -0.058 C  
HETATM    2  S   UNL     1      -8.113  10.274  67.005  1.00  0.00    -0.123 SA 
HETATM    3  C   UNL     1      -8.416  12.030  66.950  1.00  0.00    -0.172 C  
HETATM    4  C   UNL     1      -8.004  12.793  68.180  1.00  0.00    -0.156 C  
HETATM    5  CA  UNL     1      -5.834   9.228  68.375  1.00  0.00    -0.041 C  
HETATM    6  CA  UNL     1      -6.951  12.419  68.957  1.00  0.00    -0.071 C  
HETATM    7  C   UNL     1      -6.388  13.383  70.077  1.00  0.00    -0.031 C  
HETATM    8  O   UNL     1      -5.700  10.195  70.748  1.00  0.00    -0.073 OA 
HETATM    9  N   UNL     1      -6.275  11.244  68.709  1.00  0.00    -0.044 N  
HETATM   10  OXT UNL     1      -7.259  14.171  70.574  1.00  0.00     0.454 OA 
HETATM   11  O   UNL     1      -5.135  13.395  70.196  1.00  0.00    -0.084 OA 
HETATM   12  C   UNL     1      -5.811  10.279  69.544  1.00  0.00    -0.038 C  
ENDROOT
BRANCH   4  13
HETATM   13  C   UNL     1      -8.735  14.118  68.285  1.00  0.00    -0.181 C  
BRANCH  13  14
HETATM   14  N   UNL     1      -9.483  14.638  67.091  1.00  0.00    -0.221 NA 
HETATM   15  C   UNL     1     -10.470  13.993  66.420  1.00  0.00    -0.284 A  
HETATM   16  C   UNL     1     -11.117  12.669  66.713  1.00  0.00    -0.318 C  
HETATM   17  C   UNL     1     -12.133  12.474  65.567  1.00  0.00    -0.481 C  
HETATM   18  C   UNL     1      -9.021  15.817  66.575  1.00  0.00    -0.306 A  
HETATM   19  C   UNL     1     -12.112  13.709  64.669  1.00  0.00    -0.449 C  
HETATM   20  C   UNL     1      -9.519  16.356  65.390  1.00  0.00     0.377 A  
HETATM   21  C   UNL     1     -10.532  15.712  64.707  1.00  0.00    -0.107 A  
HETATM   22  C   UNL     1     -11.003  14.529  65.239  1.00  0.00    -0.366 A  
ENDBRANCH  13  14
ENDBRANCH   4  13
BRANCH   5  23
HETATM   23  N   UNL     1      -6.775   8.100  68.623  1.00  0.00    -0.057 N  
HETATM   24  C   UNL     1      -7.264   7.241  67.652  1.00  0.00    -0.091 C  
HETATM   25  O   UNL     1      -6.819   7.204  66.515  1.00  0.00    -0.061 OA 
HETATM   26  H   UNL     1      -7.082   7.948  69.583  1.00  0.00     0.000 HD 
BRANCH  24  27
HETATM   27  C   UNL     1      -8.439   6.334  68.128  1.00  0.00    -0.114 C  
BRANCH  27  28
HETATM   28  C   UNL     1      -8.873   5.203  67.296  1.00  0.00    -0.105 A  
HETATM   29  N   UNL     1      -9.931   5.332  66.402  1.00  0.00    -0.184 NA 
HETATM   30  N   UNL     1     -11.130   4.077  64.855  1.00  0.00    -0.760 NA 
HETATM   31  C   UNL     1      -8.281   3.952  67.273  1.00  0.00    -0.098 A  
HETATM   32  S   UNL     1      -9.073   2.935  66.147  1.00  0.00    -0.098 SA 
HETATM   33  H1  UNL     1     -11.769   4.838  64.625  1.00  0.00     0.000 HD 
HETATM   34  H2  UNL     1     -11.240   3.180  64.383  1.00  0.00     0.000 HD 
HETATM   35  C   UNL     1     -10.150   4.216  65.758  1.00  0.00    -0.164 A  
ENDBRANCH  27  28
BRANCH  27  36
HETATM   36  N   UNL     1      -9.082   6.449  69.257  1.00  0.00    -0.136 NA 
HETATM   37  H   UNL     1      -8.664   6.219  70.158  1.00  0.00     0.000 HD 
BRANCH  36  38
HETATM   38  O   UNL     1     -10.391   6.911  69.125  1.00  0.00    -0.180 OA 
HETATM   39  C   UNL     1     -10.701   7.666  70.295  1.00  0.00    -0.239 C  
ENDBRANCH  36  38
ENDBRANCH  27  36
ENDBRANCH  24  27
ENDBRANCH   5  23
TORSDOF 7
ENDMDL
MODEL      220
REMARK 921   NORMALIZED FREE ENERGY PREDICTED BY IDOCK:   -2.13 KCAL/MOL
REMARK 922        TOTAL FREE ENERGY PREDICTED BY IDOCK:   -4.22 KCAL/MOL
REMARK 923 INTER-LIGAND FREE ENERGY PREDICTED BY IDOCK:   -4.71 KCAL/MOL
REMARK 924 INTRA-LIGAND FREE ENERGY PREDICTED BY IDOCK:    0.50 KCAL/MOL
REMARK 927      BINDING AFFINITY PREDICTED BY RF-SCORE:    0.00 PKD
ROOT
HETATM    1  C   UNL     1      -5.515   8.551  67.076  1.00  0.00    -0.037 C  
HETATM    2  S   UNL     1      -6.794   8.612  65.782  1.00  0.00    -0.068 SA 
HETATM    3  C   UNL     1      -6.863  10.393  65.707  1.00  0.00    -0.132 C  
HETATM    4  C   UNL     1      -7.025  11.087  67.032  1.00  0.00    -0.117 C  
HETATM    5  CA  UNL     1      -5.571   7.292  68.001  1.00  0.00    -0.025 C  
HETATM    6  CA  UNL     1      -6.519  10.583  68.190  1.00  0.00    -0.062 C  
HETATM    7  C   UNL     1      -6.477  11.462  69.505  1.00  0.00    -0.122 C  
HETATM    8  O   UNL     1      -6.507   8.207  70.209  1.00  0.00    -0.036 OA 
HETATM    9  N   UNL     1      -5.923   9.341  68.218  1.00  0.00    -0.045 N  
HETATM   10  OXT UNL     1      -7.400  12.339  69.577  1.00  0.00     0.184 OA 
HETATM   11  O   UNL     1      -5.443  11.327  70.210  1.00  0.00    -0.085 OA 
HETATM   12  C   UNL     1      -6.015   8.318  69.107  1.00  0.00    -0.038 C  
ENDROOT
BRANCH   4  13
HETATM   13  C   UNL     1      -7.585  12.486  66.863  1.00  0.00     0.082 C  
BRANCH  13  14
HETATM   14  N   UNL     1      -9.035  12.658  66.510  1.00  0.00    -0.164 NA 
HETATM   15  C   UNL     1      -9.892  13.556  67.058  1.00  0.00    -0.251 A  
HETATM   16  C   UNL     1      -9.627  14.634  68.070  1.00  0.00    -0.212 C  
HETATM   17  C   UNL     1     -11.008  15.283  68.313  1.00  0.00    -0.276 C  
HETATM   18  C   UNL     1      -9.545  11.727  65.649  1.00  0.00    -0.220 A  
HETATM   19  C   UNL     1     -12.034  14.623  67.394  1.00  0.00    -0.309 C  
HETATM   20  C   UNL     1     -10.902  11.668  65.336  1.00  0.00    -0.336 A  
HETATM   21  C   UNL     1     -11.779  12.586  65.879  1.00  0.00    -0.480 A  
HETATM   22  C   UNL     1     -11.257  13.531  66.738  1.00  0.00    -0.327 A  
ENDBRANCH  13  14
ENDBRANCH   4  13
BRANCH   5  23
HETATM   23  N   UNL     1      -6.617   6.278  67.693  1.00  0.00    -0.053 N  
HETATM   24  C   UNL     1      -7.963   6.403  67.997  1.00  0.00    -0.109 C  
HETATM   25  O   UNL     1      -8.462   7.450  68.379  1.00  0.00    -0.124 OA 
HETATM   26  H   UNL     1      -6.319   5.424  67.221  1.00  0.00     0.000 HD 
BRANCH  24  27
HETATM   27  C   UNL     1      -8.787   5.090  67.821  1.00  0.00    -0.103 C  
BRANCH  27  28
HETATM   28  C   UNL     1      -8.674   4.318  66.577  1.00  0.00    -0.113 A  
HETATM   29  N   UNL     1      -7.435   4.067  65.995  1.00  0.00    -0.086 NA 
HETATM   30  N   UNL     1      -6.507   3.005  64.147  1.00  0.00    -0.030 NA 
HETATM   31  C   UNL     1      -9.730   3.741  65.893  1.00  0.00    -0.129 A  
HETATM   32  S   UNL     1      -9.165   2.906  64.509  1.00  0.00    -0.138 SA 
HETATM   33  H1  UNL     1      -5.552   3.274  64.381  1.00  0.00     0.000 HD 
HETATM   34  H2  UNL     1      -6.671   2.446  63.310  1.00  0.00     0.000 HD 
HETATM   35  C   UNL     1      -7.555   3.360  64.902  1.00  0.00    -0.077 A  
ENDBRANCH  27  28
BRANCH  27  36
HETATM   36  N   UNL     1      -9.569   4.555  68.717  1.00  0.00    -0.157 NA 
HETATM   37  H   UNL     1      -9.474   3.589  69.029  1.00  0.00     0.000 HD 
BRANCH  36  38
HETATM   38  O   UNL     1     -10.547   5.418  69.210  1.00  0.00    -0.258 OA 
HETATM   39  C   UNL     1     -10.444   5.416  70.633  1.00  0.00    -0.259 C  
ENDBRANCH  36  38
ENDBRANCH  27  36
ENDBRANCH  24  27
ENDBRANCH   5  23
TORSDOF 7
ENDMDL
MODEL      221
REMARK 921   NORMALIZED FREE ENERGY PREDICTED BY IDOCK:   -1.86 KCAL/MOL
REMARK 922        TOTAL FREE ENERGY PREDICTED BY IDOCK:   -3.83 KCAL/MOL
REMARK 923 INTER-LIGAND FREE ENERGY PREDICTED BY IDOCK:   -3.37 KCAL/MOL
REMARK 924 INTRA-LIGAND FREE ENERGY PREDICTED BY IDOCK:   -0.46 KCAL/MOL
REMARK 927      BINDING AFFINITY PREDICTED BY RF-SCORE:    0.00 PKD
ROOT
HETATM    1  C   UNL     1      -8.311  14.469  66.788  1.00  0.00    -0.006 C  
HETATM    2  S   UNL     1      -8.415  14.550  68.604  1.00  0.00    -0.145 SA 
HETATM    3  C   UNL     1      -8.964  12.866  68.809  1.00  0.00     0.182 C  
HETATM    4  C   UNL     1     -10.133  12.461  67.953  1.00  0.00    -0.208 C  
HETATM    5  CA  UNL     1      -8.549  15.827  66.051  1.00  0.00    -0.016 C  
HETATM    6  CA  UNL     1     -10.355  12.987  66.718  1.00  0.00    -0.254 C  
HETATM    7  C   UNL     1     -11.429  12.351  65.748  1.00  0.00    -0.370 C  
HETATM    8  O   UNL     1     -10.895  15.562  65.045  1.00  0.00    -0.407 OA 
HETATM    9  N   UNL     1      -9.568  14.010  66.236  1.00  0.00    -0.284 N  
HETATM   10  OXT UNL     1     -12.400  11.778  66.346  1.00  0.00    -0.058 OA 
HETATM   11  O   UNL     1     -11.102  12.312  64.533  1.00  0.00    -0.296 OA 
HETATM   12  C   UNL     1      -9.881  15.148  65.564  1.00  0.00    -0.321 C  
ENDROOT
BRANCH   4  13
HETATM   13  C   UNL     1     -10.854  11.257  68.528  1.00  0.00    -0.205 C  
BRANCH  13  14
HETATM   14  N   UNL     1     -10.082   9.994  68.785  1.00  0.00    -0.176 NA 
HETATM   15  C   UNL     1     -10.478   8.735  68.471  1.00  0.00    -0.175 A  
HETATM   16  C   UNL     1     -11.709   8.274  67.743  1.00  0.00     2.396 C  
HETATM   17  C   UNL     1     -11.602   6.733  67.741  1.00  0.00     0.537 C  
HETATM   18  C   UNL     1      -8.938  10.143  69.518  1.00  0.00    -0.188 A  
HETATM   19  C   UNL     1     -10.286   6.326  68.402  1.00  0.00    -0.237 C  
HETATM   20  C   UNL     1      -8.188   9.053  69.956  1.00  0.00    -0.128 A  
HETATM   21  C   UNL     1      -8.577   7.768  69.631  1.00  0.00    -0.135 A  
HETATM   22  C   UNL     1      -9.726   7.624  68.881  1.00  0.00    -0.156 A  
ENDBRANCH  13  14
ENDBRANCH   4  13
BRANCH   5  23
HETATM   23  N   UNL     1      -8.784  17.023  66.907  1.00  0.00    -0.216 N  
HETATM   24  C   UNL     1      -8.119  18.232  66.786  1.00  0.00    -0.250 C  
HETATM   25  O   UNL     1      -7.403  18.504  65.835  1.00  0.00    -0.378 OA 
HETATM   26  H   UNL     1      -9.489  16.946  67.639  1.00  0.00     0.000 HD 
BRANCH  24  27
HETATM   27  C   UNL     1      -8.351  19.216  67.974  1.00  0.00    -0.305 C  
BRANCH  27  28
HETATM   28  C   UNL     1      -7.350  19.316  69.045  1.00  0.00    -0.345 A  
HETATM   29  N   UNL     1      -6.744  18.180  69.574  1.00  0.00    -0.163 NA 
HETATM   30  N   UNL     1      -5.184  17.568  71.185  1.00  0.00    -0.349 NA 
HETATM   31  C   UNL     1      -6.882  20.496  69.597  1.00  0.00     0.278 A  
HETATM   32  S   UNL     1      -5.702  20.172  70.795  1.00  0.00    -0.304 SA 
HETATM   33  H1  UNL     1      -5.292  16.568  71.013  1.00  0.00     0.000 HD 
HETATM   34  H2  UNL     1      -4.522  17.878  71.896  1.00  0.00     0.000 HD 
HETATM   35  C   UNL     1      -5.883  18.488  70.507  1.00  0.00    -0.065 A  
ENDBRANCH  27  28
BRANCH  27  36
HETATM   36  N   UNL     1      -9.362  20.027  68.107  1.00  0.00    -0.295 NA 
HETATM   37  H   UNL     1      -9.255  21.039  68.182  1.00  0.00     0.000 HD 
BRANCH  36  38
HETATM   38  O   UNL     1     -10.604  19.393  68.137  1.00  0.00    -0.391 OA 
HETATM   39  C   UNL     1     -11.173  19.499  66.833  1.00  0.00     0.063 C  
ENDBRANCH  36  38
ENDBRANCH  27  36
ENDBRANCH  24  27
ENDBRANCH   5  23
TORSDOF 7
ENDMDL
MODEL      222
REMARK 921   NORMALIZED FREE ENERGY PREDICTED BY IDOCK:   -1.49 KCAL/MOL
REMARK 922        TOTAL FREE ENERGY PREDICTED BY IDOCK:   -3.31 KCAL/MOL
REMARK 923 INTER-LIGAND FREE ENERGY PREDICTED BY IDOCK:   -1.94 KCAL/MOL
REMARK 924 INTRA-LIGAND FREE ENERGY PREDICTED BY IDOCK:   -1.37 KCAL/MOL
REMARK 927      BINDING AFFINITY PREDICTED BY RF-SCORE:    0.00 PKD
ROOT
HETATM    1  C   UNL     1     -11.497  12.077  65.535  1.00  0.00    -0.313 C  
HETATM    2  S   UNL     1     -10.100  12.350  64.400  1.00  0.00    -0.227 SA 
HETATM    3  C   UNL     1     -10.017  10.660  63.836  1.00  0.00    -0.326 C  
HETATM    4  C   UNL     1      -9.979   9.620  64.923  1.00  0.00     0.086 C  
HETATM    5  CA  UNL     1     -11.535  13.026  66.776  1.00  0.00    -0.345 C  
HETATM    6  CA  UNL     1     -10.595   9.792  66.124  1.00  0.00     0.052 C  
HETATM    7  C   UNL     1     -10.759   8.583  67.131  1.00  0.00    -0.139 C  
HETATM    8  O   UNL     1     -10.810  11.511  68.717  1.00  0.00    -0.196 OA 
HETATM    9  N   UNL     1     -11.197  10.990  66.443  1.00  0.00    -0.077 N  
HETATM   10  OXT UNL     1      -9.843   7.699  67.040  1.00  0.00    -0.177 OA 
HETATM   11  O   UNL     1     -11.856   8.539  67.746  1.00  0.00     2.045 OA 
HETATM   12  C   UNL     1     -11.195  11.722  67.586  1.00  0.00    -0.281 C  
ENDROOT
BRANCH   4  13
HETATM   13  C   UNL     1      -9.399   8.311  64.422  1.00  0.00     1.383 C  
BRANCH  13  14
HETATM   14  N   UNL     1      -7.918   8.079  64.523  1.00  0.00    -0.147 NA 
HETATM   15  C   UNL     1      -7.247   6.984  64.085  1.00  0.00    -0.069 A  
HETATM   16  C   UNL     1      -7.760   5.783  63.342  1.00  0.00    -0.089 C  
HETATM   17  C   UNL     1      -6.522   4.877  63.172  1.00  0.00    -0.026 C  
HETATM   18  C   UNL     1      -7.224   9.013  65.239  1.00  0.00    -0.088 A  
HETATM   19  C   UNL     1      -5.302   5.589  63.752  1.00  0.00    -0.013 C  
HETATM   20  C   UNL     1      -5.870   8.866  65.538  1.00  0.00    -0.051 A  
HETATM   21  C   UNL     1      -5.177   7.760  65.087  1.00  0.00    -0.029 A  
HETATM   22  C   UNL     1      -5.880   6.826  64.354  1.00  0.00    -0.032 A  
ENDBRANCH  13  14
ENDBRANCH   4  13
BRANCH   5  23
HETATM   23  N   UNL     1     -10.468  14.062  66.862  1.00  0.00    -0.274 N  
HETATM   24  C   UNL     1     -10.287  14.932  67.925  1.00  0.00    -0.237 C  
HETATM   25  O   UNL     1     -10.869  14.808  68.991  1.00  0.00    -0.229 OA 
HETATM   26  H   UNL     1      -9.822  14.136  66.078  1.00  0.00     0.000 HD 
BRANCH  24  27
HETATM   27  C   UNL     1      -9.283  16.092  67.641  1.00  0.00    -0.205 C  
BRANCH  27  28
HETATM   28  C   UNL     1      -9.789  17.439  67.345  1.00  0.00    -0.281 A  
HETATM   29  N   UNL     1     -10.323  17.750  66.098  1.00  0.00    -0.435 NA 
HETATM   30  N   UNL     1     -11.251  19.542  64.944  1.00  0.00     0.121 NA 
HETATM   31  C   UNL     1      -9.833  18.494  68.241  1.00  0.00    -0.363 A  
HETATM   32  S   UNL     1     -10.521  19.878  67.505  1.00  0.00    -0.358 SA 
HETATM   33  H1  UNL     1     -11.369  19.016  64.078  1.00  0.00     0.000 HD 
HETATM   34  H2  UNL     1     -11.548  20.517  64.974  1.00  0.00     0.000 HD 
HETATM   35  C   UNL     1     -10.720  18.994  66.045  1.00  0.00    -0.337 A  
ENDBRANCH  27  28
BRANCH  27  36
HETATM   36  N   UNL     1      -7.983  16.003  67.682  1.00  0.00    -0.138 NA 
HETATM   37  H   UNL     1      -7.410  16.554  68.321  1.00  0.00     0.000 HD 
BRANCH  36  38
HETATM   38  O   UNL     1      -7.444  15.091  66.775  1.00  0.00    -0.012 OA 
HETATM   39  C   UNL     1      -6.827  14.049  67.529  1.00  0.00    -0.131 C  
ENDBRANCH  36  38
ENDBRANCH  27  36
ENDBRANCH  24  27
ENDBRANCH   5  23
TORSDOF 7
ENDMDL
MODEL      223
REMARK 921   NORMALIZED FREE ENERGY PREDICTED BY IDOCK:   -1.46 KCAL/MOL
REMARK 922        TOTAL FREE ENERGY PREDICTED BY IDOCK:   -3.26 KCAL/MOL
REMARK 923 INTER-LIGAND FREE ENERGY PREDICTED BY IDOCK:   -3.89 KCAL/MOL
REMARK 924 INTRA-LIGAND FREE ENERGY PREDICTED BY IDOCK:    0.63 KCAL/MOL
REMARK 927      BINDING AFFINITY PREDICTED BY RF-SCORE:    0.00 PKD
ROOT
HETATM    1  C   UNL     1      -8.023  14.393  69.718  1.00  0.00     0.447 C  
HETATM    2  S   UNL     1      -9.593  15.315  69.754  1.00  0.00    -0.023 SA 
HETATM    3  C   UNL     1     -10.625  13.870  69.921  1.00  0.00     0.509 C  
HETATM    4  C   UNL     1     -10.359  12.771  68.928  1.00  0.00    -0.055 C  
HETATM    5  CA  UNL     1      -6.875  15.076  68.907  1.00  0.00    -0.103 C  
HETATM    6  CA  UNL     1      -9.124  12.534  68.410  1.00  0.00    -0.135 C  
HETATM    7  C   UNL     1      -8.832  11.217  67.583  1.00  0.00    -0.138 C  
HETATM    8  O   UNL     1      -6.729  13.668  66.766  1.00  0.00     0.413 OA 
HETATM    9  N   UNL     1      -8.068  13.373  68.693  1.00  0.00    -0.091 N  
HETATM   10  OXT UNL     1      -9.847  10.750  66.968  1.00  0.00    -0.179 OA 
HETATM   11  O   UNL     1      -7.707  10.691  67.789  1.00  0.00    -0.098 OA 
HETATM   12  C   UNL     1      -7.088  13.884  67.904  1.00  0.00    -0.163 C  
ENDROOT
BRANCH   4  13
HETATM   13  C   UNL     1     -11.555  11.849  68.785  1.00  0.00    -0.309 C  
BRANCH  13  14
HETATM   14  N   UNL     1     -11.926  10.948  69.928  1.00  0.00    -0.325 NA 
HETATM   15  C   UNL     1     -11.465   9.689  70.138  1.00  0.00    -0.189 A  
HETATM   16  C   UNL     1     -10.441   8.905  69.367  1.00  0.00    -0.228 C  
HETATM   17  C   UNL     1     -10.389   7.535  70.078  1.00  0.00    -0.222 C  
HETATM   18  C   UNL     1     -12.918  11.412  70.745  1.00  0.00    -0.049 A  
HETATM   19  C   UNL     1     -11.324   7.566  71.284  1.00  0.00    -0.284 C  
HETATM   20  C   UNL     1     -13.469  10.635  71.763  1.00  0.00    -0.325 A  
HETATM   21  C   UNL     1     -12.997   9.358  71.992  1.00  0.00    -0.508 A  
HETATM   22  C   UNL     1     -11.987   8.898  71.172  1.00  0.00    -0.344 A  
ENDBRANCH  13  14
ENDBRANCH   4  13
BRANCH   5  23
HETATM   23  N   UNL     1      -7.175  16.405  68.306  1.00  0.00    -0.145 N  
HETATM   24  C   UNL     1      -7.628  16.611  67.013  1.00  0.00    -0.202 C  
HETATM   25  O   UNL     1      -8.013  15.704  66.292  1.00  0.00    -0.071 OA 
HETATM   26  H   UNL     1      -7.036  17.228  68.892  1.00  0.00     0.000 HD 
BRANCH  24  27
HETATM   27  C   UNL     1      -7.594  18.100  66.549  1.00  0.00    -0.241 C  
BRANCH  27  28
HETATM   28  C   UNL     1      -8.709  18.996  66.887  1.00  0.00    -0.303 A  
HETATM   29  N   UNL     1      -9.131  19.156  68.204  1.00  0.00    -0.312 NA 
HETATM   30  N   UNL     1     -10.724  20.306  69.445  1.00  0.00    -0.182 NA 
HETATM   31  C   UNL     1      -9.408  19.780  65.985  1.00  0.00    -0.298 A  
HETATM   32  S   UNL     1     -10.608  20.696  66.792  1.00  0.00     0.946 SA 
HETATM   33  H1  UNL     1     -10.438  19.891  70.332  1.00  0.00     0.000 HD 
HETATM   34  H2  UNL     1     -11.492  20.978  69.440  1.00  0.00     0.000 HD 
HETATM   35  C   UNL     1     -10.127  19.998  68.286  1.00  0.00    -0.400 A  
ENDBRANCH  27  28
BRANCH  27  36
HETATM   36  N   UNL     1      -6.620  18.675  65.901  1.00  0.00    -0.235 NA 
HETATM   37  H   UNL     1      -6.002  19.366  66.328  1.00  0.00     0.000 HD 
BRANCH  36  38
HETATM   38  O   UNL     1      -6.496  18.265  64.574  1.00  0.00     0.002 OA 
HETATM   39  C   UNL     1      -5.163  18.557  64.157  1.00  0.00    -0.048 C  
ENDBRANCH  36  38
ENDBRANCH  27  36
ENDBRANCH  24  27
ENDBRANCH   5  23
TORSDOF 7
ENDMDL
MODEL      224
REMARK 921   NORMALIZED FREE ENERGY PREDICTED BY IDOCK:   -1.40 KCAL/MOL
REMARK 922        TOTAL FREE ENERGY PREDICTED BY IDOCK:   -3.18 KCAL/MOL
REMARK 923 INTER-LIGAND FREE ENERGY PREDICTED BY IDOCK:   -4.74 KCAL/MOL
REMARK 924 INTRA-LIGAND FREE ENERGY PREDICTED BY IDOCK:    1.56 KCAL/MOL
REMARK 927      BINDING AFFINITY PREDICTED BY RF-SCORE:    0.00 PKD
ROOT
HETATM    1  C   UNL     1      -7.657  12.023  69.488  1.00  0.00     0.553 C  
HETATM    2  S   UNL     1      -9.280  12.650  68.952  1.00  0.00     0.445 SA 
HETATM    3  C   UNL     1      -9.921  11.055  68.478  1.00  0.00    -0.193 C  
HETATM    4  C   UNL     1      -9.032  10.248  67.572  1.00  0.00    -0.138 C  
HETATM    5  CA  UNL     1      -6.476  13.037  69.345  1.00  0.00    -0.094 C  
HETATM    6  CA  UNL     1      -7.674  10.327  67.616  1.00  0.00    -0.090 C  
HETATM    7  C   UNL     1      -6.776   9.279  66.843  1.00  0.00    -0.076 C  
HETATM    8  O   UNL     1      -5.163  12.152  67.325  1.00  0.00    -0.100 OA 
HETATM    9  N   UNL     1      -7.048  11.247  68.429  1.00  0.00    -0.076 N  
HETATM   10  OXT UNL     1      -7.322   8.793  65.797  1.00  0.00    -0.083 OA 
HETATM   11  O   UNL     1      -5.738   8.909  67.451  1.00  0.00    -0.038 OA 
HETATM   12  C   UNL     1      -5.985  12.064  68.211  1.00  0.00    -0.051 C  
ENDROOT
BRANCH   4  13
HETATM   13  C   UNL     1      -9.818   9.195  66.813  1.00  0.00    -0.226 C  
BRANCH  13  14
HETATM   14  N   UNL     1     -10.078   7.866  67.462  1.00  0.00    -0.193 NA 
HETATM   15  C   UNL     1      -9.930   7.574  68.779  1.00  0.00    -0.172 A  
HETATM   16  C   UNL     1      -9.556   8.476  69.921  1.00  0.00    -0.171 C  
HETATM   17  C   UNL     1      -9.516   7.544  71.151  1.00  0.00    -0.163 C  
HETATM   18  C   UNL     1     -10.366   6.840  66.606  1.00  0.00    -0.149 A  
HETATM   19  C   UNL     1      -9.932   6.138  70.723  1.00  0.00    -0.229 C  
HETATM   20  C   UNL     1     -10.495   5.522  67.042  1.00  0.00    -0.336 A  
HETATM   21  C   UNL     1     -10.357   5.218  68.382  1.00  0.00    -0.178 A  
HETATM   22  C   UNL     1     -10.080   6.259  69.243  1.00  0.00    -0.213 A  
ENDBRANCH  13  14
ENDBRANCH   4  13
BRANCH   5  23
HETATM   23  N   UNL     1      -6.816  14.396  68.840  1.00  0.00    -0.096 N  
HETATM   24  C   UNL     1      -7.124  14.705  67.525  1.00  0.00    -0.178 C  
HETATM   25  O   UNL     1      -7.338  13.853  66.677  1.00  0.00     0.548 OA 
HETATM   26  H   UNL     1      -6.822  15.160  69.516  1.00  0.00     0.000 HD 
BRANCH  24  27
HETATM   27  C   UNL     1      -7.164  16.233  67.215  1.00  0.00    -0.188 C  
BRANCH  27  28
HETATM   28  C   UNL     1      -8.446  16.883  66.912  1.00  0.00    -0.214 A  
HETATM   29  N   UNL     1      -9.127  16.614  65.728  1.00  0.00    -0.494 NA 
HETATM   30  N   UNL     1     -11.070  17.218  64.605  1.00  0.00    -0.959 NA 
HETATM   31  C   UNL     1      -9.116  17.763  67.744  1.00  0.00    -0.249 A  
HETATM   32  S   UNL     1     -10.585  18.268  67.026  1.00  0.00    -0.296 SA 
HETATM   33  H1  UNL     1     -10.867  16.637  63.792  1.00  0.00     0.000 HD 
HETATM   34  H2  UNL     1     -11.931  17.765  64.617  1.00  0.00     0.000 HD 
HETATM   35  C   UNL     1     -10.244  17.289  65.657  1.00  0.00    -0.124 A  
ENDBRANCH  27  28
BRANCH  27  36
HETATM   36  N   UNL     1      -6.142  17.042  67.238  1.00  0.00    -0.138 NA 
HETATM   37  H   UNL     1      -5.813  17.543  66.413  1.00  0.00     0.000 HD 
BRANCH  36  38
HETATM   38  O   UNL     1      -5.538  17.165  68.489  1.00  0.00    -0.133 OA 
HETATM   39  C   UNL     1      -6.373  18.002  69.289  1.00  0.00    -0.249 C  
ENDBRANCH  36  38
ENDBRANCH  27  36
ENDBRANCH  24  27
ENDBRANCH   5  23
TORSDOF 7
ENDMDL
MODEL      225
REMARK 921   NORMALIZED FREE ENERGY PREDICTED BY IDOCK:    0.80 KCAL/MOL
REMARK 922        TOTAL FREE ENERGY PREDICTED BY IDOCK:   -0.08 KCAL/MOL
REMARK 923 INTER-LIGAND FREE ENERGY PREDICTED BY IDOCK:    0.55 KCAL/MOL
REMARK 924 INTRA-LIGAND FREE ENERGY PREDICTED BY IDOCK:   -0.63 KCAL/MOL
REMARK 927      BINDING AFFINITY PREDICTED BY RF-SCORE:    0.00 PKD
ROOT
HETATM    1  C   UNL     1      -7.689  10.441  66.793  1.00  0.00    -0.114 C  
HETATM    2  S   UNL     1      -9.027  10.215  68.005  1.00  0.00    -0.125 SA 
HETATM    3  C   UNL     1      -8.898   8.437  68.060  1.00  0.00    -0.142 C  
HETATM    4  C   UNL     1      -8.900   7.751  66.721  1.00  0.00    -0.154 C  
HETATM    5  CA  UNL     1      -7.831  11.700  65.878  1.00  0.00     0.431 C  
HETATM    6  CA  UNL     1      -8.386   8.327  65.600  1.00  0.00    -0.148 C  
HETATM    7  C   UNL     1      -8.166   7.480  64.283  1.00  0.00     0.005 C  
HETATM    8  O   UNL     1      -8.524  10.722  63.609  1.00  0.00    -0.119 OA 
HETATM    9  N   UNL     1      -7.935   9.628  65.621  1.00  0.00    -0.111 N  
HETATM   10  OXT UNL     1      -8.977   6.505  64.146  1.00  0.00     0.587 OA 
HETATM   11  O   UNL     1      -7.113   7.742  63.644  1.00  0.00    -0.068 OA 
HETATM   12  C   UNL     1      -8.089  10.649  64.738  1.00  0.00    -0.004 C  
ENDROOT
BRANCH   4  13
HETATM   13  C   UNL     1      -9.307   6.294  66.842  1.00  0.00    -0.136 C  
BRANCH  13  14
HETATM   14  N   UNL     1      -8.331   5.306  67.414  1.00  0.00    -0.107 NA 
HETATM   15  C   UNL     1      -8.635   4.246  68.205  1.00  0.00    -0.095 A  
HETATM   16  C   UNL     1      -9.978   3.739  68.648  1.00  0.00     0.210 C  
HETATM   17  C   UNL     1      -9.655   2.536  69.560  1.00  0.00    -0.043 C  
HETATM   18  C   UNL     1      -7.011   5.597  67.212  1.00  0.00    -0.065 A  
HETATM   19  C   UNL     1      -8.143   2.319  69.579  1.00  0.00    -0.061 C  
HETATM   20  C   UNL     1      -5.987   4.855  67.798  1.00  0.00    -0.023 A  
HETATM   21  C   UNL     1      -6.288   3.767  68.594  1.00  0.00    -0.033 A  
HETATM   22  C   UNL     1      -7.621   3.470  68.785  1.00  0.00    -0.053 A  
ENDBRANCH  13  14
ENDBRANCH   4  13
BRANCH   5  23
HETATM   23  N   UNL     1      -9.003  12.585  66.131  1.00  0.00    -0.426 N  
HETATM   24  C   UNL     1      -9.599  13.407  65.189  1.00  0.00     0.217 C  
HETATM   25  O   UNL     1      -9.342  13.345  63.997  1.00  0.00     0.884 OA 
HETATM   26  H   UNL     1      -9.397  12.585  67.071  1.00  0.00     0.000 HD 
BRANCH  24  27
HETATM   27  C   UNL     1     -10.619  14.429  65.780  1.00  0.00    -0.318 C  
BRANCH  27  28
HETATM   28  C   UNL     1     -10.242  15.842  65.915  1.00  0.00    -0.355 A  
HETATM   29  N   UNL     1      -9.374  16.263  66.918  1.00  0.00    -0.216 NA 
HETATM   30  N   UNL     1      -8.381  18.202  67.729  1.00  0.00    -0.247 NA 
HETATM   31  C   UNL     1     -10.650  16.865  65.076  1.00  0.00     0.024 A  
HETATM   32  S   UNL     1      -9.962  18.354  65.566  1.00  0.00     0.790 SA 
HETATM   33  H1  UNL     1      -7.908  17.725  68.496  1.00  0.00     0.000 HD 
HETATM   34  H2  UNL     1      -8.254  19.208  67.620  1.00  0.00     0.000 HD 
HETATM   35  C   UNL     1      -9.165  17.552  66.859  1.00  0.00    -0.265 A  
ENDBRANCH  27  28
BRANCH  27  36
HETATM   36  N   UNL     1     -11.842  14.161  66.145  1.00  0.00    -0.391 NA 
HETATM   37  H   UNL     1     -12.380  14.767  66.765  1.00  0.00     0.000 HD 
BRANCH  36  38
HETATM   38  O   UNL     1     -12.350  12.975  65.616  1.00  0.00    -0.448 OA 
HETATM   39  C   UNL     1     -12.657  12.113  66.710  1.00  0.00     1.669 C  
ENDBRANCH  36  38
ENDBRANCH  27  36
ENDBRANCH  24  27
ENDBRANCH   5  23
TORSDOF 7
ENDMDL
MODEL      226
REMARK 921   NORMALIZED FREE ENERGY PREDICTED BY IDOCK:    1.31 KCAL/MOL
REMARK 922        TOTAL FREE ENERGY PREDICTED BY IDOCK:    0.63 KCAL/MOL
REMARK 923 INTER-LIGAND FREE ENERGY PREDICTED BY IDOCK:   -1.26 KCAL/MOL
REMARK 924 INTRA-LIGAND FREE ENERGY PREDICTED BY IDOCK:    1.90 KCAL/MOL
REMARK 927      BINDING AFFINITY PREDICTED BY RF-SCORE:    0.00 PKD
ROOT
HETATM    1  C   UNL     1     -11.681  16.001  68.725  1.00  0.00    -0.299 C  
HETATM    2  S   UNL     1     -11.166  16.318  67.008  1.00  0.00     0.263 SA 
HETATM    3  C   UNL     1     -12.311  15.163  66.279  1.00  0.00     0.571 C  
HETATM    4  C   UNL     1     -12.303  13.783  66.879  1.00  0.00    -0.328 C  
HETATM    5  CA  UNL     1     -10.567  16.214  69.800  1.00  0.00    -0.312 C  
HETATM    6  CA  UNL     1     -12.020  13.556  68.190  1.00  0.00    -0.341 C  
HETATM    7  C   UNL     1     -12.280  12.137  68.841  1.00  0.00     0.028 C  
HETATM    8  O   UNL     1      -9.926  13.825  70.485  1.00  0.00     2.265 OA 
HETATM    9  N   UNL     1     -11.613  14.584  69.012  1.00  0.00    -0.281 N  
HETATM   10  OXT UNL     1     -12.190  11.163  68.022  1.00  0.00    -0.584 OA 
HETATM   11  O   UNL     1     -12.732  12.159  70.015  1.00  0.00     0.090 OA 
HETATM   12  C   UNL     1     -10.638  14.650  69.956  1.00  0.00     0.068 C  
ENDROOT
BRANCH   4  13
HETATM   13  C   UNL     1     -12.877  12.756  65.922  1.00  0.00     0.638 C  
BRANCH  13  14
HETATM   14  N   UNL     1     -11.945  11.980  65.035  1.00  0.00    -0.299 NA 
HETATM   15  C   UNL     1     -10.655  11.662  65.311  1.00  0.00    -0.281 A  
HETATM   16  C   UNL     1      -9.854  11.918  66.556  1.00  0.00    -0.225 C  
HETATM   17  C   UNL     1      -8.452  11.357  66.234  1.00  0.00    -0.138 C  
HETATM   18  C   UNL     1     -12.424  11.691  63.788  1.00  0.00    -0.178 A  
HETATM   19  C   UNL     1      -8.477  10.726  64.843  1.00  0.00    -0.055 C  
HETATM   20  C   UNL     1     -11.632  11.100  62.805  1.00  0.00     1.117 A  
HETATM   21  C   UNL     1     -10.321  10.763  63.082  1.00  0.00    -0.066 A  
HETATM   22  C   UNL     1      -9.846  11.046  64.345  1.00  0.00    -0.351 A  
ENDBRANCH  13  14
ENDBRANCH   4  13
BRANCH   5  23
HETATM   23  N   UNL     1      -9.244  16.691  69.311  1.00  0.00    -0.150 N  
HETATM   24  C   UNL     1      -8.290  15.901  68.692  1.00  0.00    -0.195 C  
HETATM   25  O   UNL     1      -8.517  14.763  68.310  1.00  0.00    -0.139 OA 
HETATM   26  H   UNL     1      -9.024  17.678  69.442  1.00  0.00     0.000 HD 
BRANCH  24  27
HETATM   27  C   UNL     1      -6.895  16.580  68.535  1.00  0.00    -0.151 C  
BRANCH  27  28
HETATM   28  C   UNL     1      -6.761  18.029  68.736  1.00  0.00    -0.248 A  
HETATM   29  N   UNL     1      -7.073  18.929  67.720  1.00  0.00    -0.226 NA 
HETATM   30  N   UNL     1      -7.104  21.215  67.302  1.00  0.00    -0.616 NA 
HETATM   31  C   UNL     1      -6.372  18.643  69.914  1.00  0.00    -0.102 A  
HETATM   32  S   UNL     1      -6.374  20.345  69.733  1.00  0.00    -0.113 SA 
HETATM   33  H1  UNL     1      -7.411  21.107  66.336  1.00  0.00     0.000 HD 
HETATM   34  H2  UNL     1      -6.951  22.154  67.669  1.00  0.00     0.000 HD 
HETATM   35  C   UNL     1      -6.892  20.165  68.106  1.00  0.00    -0.291 A  
ENDBRANCH  27  28
BRANCH  27  36
HETATM   36  N   UNL     1      -5.773  15.968  68.273  1.00  0.00    -0.102 NA 
HETATM   37  H   UNL     1      -5.123  16.286  67.555  1.00  0.00     0.000 HD 
BRANCH  36  38
HETATM   38  O   UNL     1      -5.539  14.842  69.062  1.00  0.00    -0.095 OA 
HETATM   39  C   UNL     1      -5.627  15.247  70.427  1.00  0.00    -0.138 C  
ENDBRANCH  36  38
ENDBRANCH  27  36
ENDBRANCH  24  27
ENDBRANCH   5  23
TORSDOF 7
ENDMDL
MODEL      227
REMARK 921   NORMALIZED FREE ENERGY PREDICTED BY IDOCK:    1.55 KCAL/MOL
REMARK 922        TOTAL FREE ENERGY PREDICTED BY IDOCK:    0.97 KCAL/MOL
REMARK 923 INTER-LIGAND FREE ENERGY PREDICTED BY IDOCK:   -0.11 KCAL/MOL
REMARK 924 INTRA-LIGAND FREE ENERGY PREDICTED BY IDOCK:    1.08 KCAL/MOL
REMARK 927      BINDING AFFINITY PREDICTED BY RF-SCORE:    0.00 PKD
ROOT
HETATM    1  C   UNL     1      -6.465  10.635  66.638  1.00  0.00    -0.100 C  
HETATM    2  S   UNL     1      -7.287  10.470  68.254  1.00  0.00    -0.091 SA 
HETATM    3  C   UNL     1      -6.433   8.975  68.718  1.00  0.00    -0.053 C  
HETATM    4  C   UNL     1      -6.453   7.877  67.690  1.00  0.00    -0.056 C  
HETATM    5  CA  UNL     1      -7.309  11.353  65.537  1.00  0.00     0.677 C  
HETATM    6  CA  UNL     1      -6.482   8.125  66.352  1.00  0.00    -0.051 C  
HETATM    7  C   UNL     1      -6.234   6.964  65.307  1.00  0.00    -0.036 C  
HETATM    8  O   UNL     1      -8.027   9.439  63.984  1.00  0.00    -0.126 OA 
HETATM    9  N   UNL     1      -6.611   9.412  65.877  1.00  0.00    -0.075 N  
HETATM   10  OXT UNL     1      -6.584   5.808  65.718  1.00  0.00    -0.042 OA 
HETATM   11  O   UNL     1      -5.552   7.284  64.299  1.00  0.00    -0.032 OA 
HETATM   12  C   UNL     1      -7.360   9.929  64.870  1.00  0.00    -0.136 C  
ENDROOT
BRANCH   4  13
HETATM   13  C   UNL     1      -6.190   6.521  68.317  1.00  0.00    -0.032 C  
BRANCH  13  14
HETATM   14  N   UNL     1      -7.010   6.089  69.499  1.00  0.00    -0.065 NA 
HETATM   15  C   UNL     1      -6.565   5.940  70.773  1.00  0.00    -0.044 A  
HETATM   16  C   UNL     1      -5.208   6.227  71.349  1.00  0.00    -0.021 C  
HETATM   17  C   UNL     1      -5.325   5.815  72.833  1.00  0.00    -0.023 C  
HETATM   18  C   UNL     1      -8.287   5.691  69.215  1.00  0.00    -0.107 A  
HETATM   19  C   UNL     1      -6.757   5.364  73.112  1.00  0.00    -0.077 C  
HETATM   20  C   UNL     1      -9.124   5.134  70.180  1.00  0.00    -0.167 A  
HETATM   21  C   UNL     1      -8.683   4.990  71.481  1.00  0.00    -0.141 A  
HETATM   22  C   UNL     1      -7.399   5.404  71.765  1.00  0.00    -0.090 A  
ENDBRANCH  13  14
ENDBRANCH   4  13
BRANCH   5  23
HETATM   23  N   UNL     1      -8.652  11.856  65.941  1.00  0.00    -0.388 N  
HETATM   24  C   UNL     1      -9.830  11.133  65.866  1.00  0.00    -0.232 C  
HETATM   25  O   UNL     1      -9.859   9.933  65.638  1.00  0.00    -0.266 OA 
HETATM   26  H   UNL     1      -8.706  12.808  66.302  1.00  0.00     0.000 HD 
BRANCH  24  27
HETATM   27  C   UNL     1     -11.121  11.981  66.084  1.00  0.00    -0.322 C  
BRANCH  27  28
HETATM   28  C   UNL     1     -11.379  13.150  65.233  1.00  0.00    -0.296 A  
HETATM   29  N   UNL     1     -12.460  13.993  65.476  1.00  0.00    -0.487 NA 
HETATM   30  N   UNL     1     -13.465  15.906  64.621  1.00  0.00     1.472 NA 
HETATM   31  C   UNL     1     -10.592  13.558  64.169  1.00  0.00    -0.158 A  
HETATM   32  S   UNL     1     -11.228  14.982  63.464  1.00  0.00     2.493 SA 
HETATM   33  H1  UNL     1     -14.224  15.900  65.303  1.00  0.00     0.000 HD 
HETATM   34  H2  UNL     1     -13.437  16.648  63.922  1.00  0.00     0.000 HD 
HETATM   35  C   UNL     1     -12.505  14.972  64.612  1.00  0.00    -0.117 A  
ENDBRANCH  27  28
BRANCH  27  36
HETATM   36  N   UNL     1     -12.061  11.730  66.952  1.00  0.00    -0.401 NA 
HETATM   37  H   UNL     1     -13.047  11.665  66.698  1.00  0.00     0.000 HD 
BRANCH  36  38
HETATM   38  O   UNL     1     -11.602  11.558  68.258  1.00  0.00    -0.279 OA 
HETATM   39  C   UNL     1     -10.622  12.564  68.505  1.00  0.00    -0.243 C  
ENDBRANCH  36  38
ENDBRANCH  27  36
ENDBRANCH  24  27
ENDBRANCH   5  23
TORSDOF 7
ENDMDL
MODEL      228
REMARK 921   NORMALIZED FREE ENERGY PREDICTED BY IDOCK:    1.93 KCAL/MOL
REMARK 922        TOTAL FREE ENERGY PREDICTED BY IDOCK:    1.51 KCAL/MOL
REMARK 923 INTER-LIGAND FREE ENERGY PREDICTED BY IDOCK:   -1.01 KCAL/MOL
REMARK 924 INTRA-LIGAND FREE ENERGY PREDICTED BY IDOCK:    2.52 KCAL/MOL
REMARK 927      BINDING AFFINITY PREDICTED BY RF-SCORE:    0.00 PKD
ROOT
HETATM    1  C   UNL     1      -7.189  14.681  68.172  1.00  0.00    -0.124 C  
HETATM    2  S   UNL     1      -7.660  13.207  67.214  1.00  0.00    -0.011 SA 
HETATM    3  C   UNL     1      -8.934  14.025  66.273  1.00  0.00     0.086 C  
HETATM    4  C   UNL     1      -9.930  14.809  67.084  1.00  0.00    -0.236 C  
HETATM    5  CA  UNL     1      -6.620  14.389  69.598  1.00  0.00    -0.147 C  
HETATM    6  CA  UNL     1      -9.603  15.421  68.255  1.00  0.00    -0.205 C  
HETATM    7  C   UNL     1     -10.594  16.448  68.936  1.00  0.00    -0.307 C  
HETATM    8  O   UNL     1      -8.536  15.071  71.164  1.00  0.00     2.119 OA 
HETATM    9  N   UNL     1      -8.355  15.252  68.813  1.00  0.00    -0.165 N  
HETATM   10  OXT UNL     1     -11.826  16.226  68.691  1.00  0.00    -0.255 OA 
HETATM   11  O   UNL     1     -10.050  17.454  69.461  1.00  0.00    -0.141 OA 
HETATM   12  C   UNL     1      -7.964  15.037  70.096  1.00  0.00     0.487 C  
ENDROOT
BRANCH   4  13
HETATM   13  C   UNL     1     -11.223  15.024  66.321  1.00  0.00    -0.309 C  
BRANCH  13  14
HETATM   14  N   UNL     1     -11.634  14.025  65.278  1.00  0.00    -0.326 NA 
HETATM   15  C   UNL     1     -11.235  12.730  65.207  1.00  0.00    -0.293 A  
HETATM   16  C   UNL     1     -10.370  11.944  66.152  1.00  0.00    -0.261 C  
HETATM   17  C   UNL     1     -10.253  10.550  65.499  1.00  0.00    -0.325 C  
HETATM   18  C   UNL     1     -12.375  14.525  64.244  1.00  0.00    -0.369 A  
HETATM   19  C   UNL     1     -11.102  10.524  64.229  1.00  0.00     1.091 C  
HETATM   20  C   UNL     1     -12.714  13.756  63.132  1.00  0.00     0.806 A  
HETATM   21  C   UNL     1     -12.322  12.434  63.057  1.00  0.00    -0.093 A  
HETATM   22  C   UNL     1     -11.584  11.931  64.109  1.00  0.00    -0.434 A  
ENDBRANCH  13  14
ENDBRANCH   4  13
BRANCH   5  23
HETATM   23  N   UNL     1      -6.484  12.958  69.987  1.00  0.00    -0.363 N  
HETATM   24  C   UNL     1      -5.837  11.987  69.240  1.00  0.00    -0.074 C  
HETATM   25  O   UNL     1      -5.141  12.249  68.272  1.00  0.00    -0.052 OA 
HETATM   26  H   UNL     1      -6.900  12.671  70.872  1.00  0.00     0.000 HD 
BRANCH  24  27
HETATM   27  C   UNL     1      -6.081  10.528  69.733  1.00  0.00    -0.065 C  
BRANCH  27  28
HETATM   28  C   UNL     1      -7.227   9.766  69.221  1.00  0.00    -0.072 A  
HETATM   29  N   UNL     1      -8.527  10.064  69.620  1.00  0.00    -0.178 NA 
HETATM   30  N   UNL     1     -10.712   9.349  69.282  1.00  0.00    -0.262 NA 
HETATM   31  C   UNL     1      -7.159   8.741  68.292  1.00  0.00    -0.078 A  
HETATM   32  S   UNL     1      -8.724   8.141  67.945  1.00  0.00    -0.127 SA 
HETATM   33  H1  UNL     1     -11.111  10.024  69.935  1.00  0.00     0.000 HD 
HETATM   34  H2  UNL     1     -11.337   8.709  68.792  1.00  0.00     0.000 HD 
HETATM   35  C   UNL     1      -9.396   9.276  69.045  1.00  0.00    -0.151 A  
ENDBRANCH  27  28
BRANCH  27  36
HETATM   36  N   UNL     1      -5.319   9.863  70.557  1.00  0.00    -0.040 NA 
HETATM   37  H   UNL     1      -4.301   9.927  70.545  1.00  0.00     0.000 HD 
BRANCH  36  38
HETATM   38  O   UNL     1      -6.016   9.057  71.456  1.00  0.00    -0.055 OA 
HETATM   39  C   UNL     1      -5.330   9.114  72.706  1.00  0.00    -0.080 C  
ENDBRANCH  36  38
ENDBRANCH  27  36
ENDBRANCH  24  27
ENDBRANCH   5  23
TORSDOF 7
ENDMDL
MODEL      229
REMARK 921   NORMALIZED FREE ENERGY PREDICTED BY IDOCK:    2.74 KCAL/MOL
REMARK 922        TOTAL FREE ENERGY PREDICTED BY IDOCK:    2.65 KCAL/MOL
REMARK 923 INTER-LIGAND FREE ENERGY PREDICTED BY IDOCK:    2.15 KCAL/MOL
REMARK 924 INTRA-LIGAND FREE ENERGY PREDICTED BY IDOCK:    0.49 KCAL/MOL
REMARK 927      BINDING AFFINITY PREDICTED BY RF-SCORE:    0.00 PKD
ROOT
HETATM    1  C   UNL     1      -6.090  14.028  67.320  1.00  0.00     0.484 C  
HETATM    2  S   UNL     1      -7.784  13.848  66.677  1.00  0.00     1.251 SA 
HETATM    3  C   UNL     1      -8.471  15.169  67.658  1.00  0.00    -0.160 C  
HETATM    4  C   UNL     1      -8.158  15.108  69.129  1.00  0.00    -0.214 C  
HETATM    5  CA  UNL     1      -5.244  12.714  67.331  1.00  0.00    -0.043 C  
HETATM    6  CA  UNL     1      -6.999  14.581  69.611  1.00  0.00    -0.122 C  
HETATM    7  C   UNL     1      -6.591  14.774  71.127  1.00  0.00     0.574 C  
HETATM    8  O   UNL     1      -5.171  12.064  69.812  1.00  0.00    -0.069 OA 
HETATM    9  N   UNL     1      -6.097  13.971  68.766  1.00  0.00    -0.082 N  
HETATM   10  OXT UNL     1      -7.580  14.895  71.923  1.00  0.00     2.691 OA 
HETATM   11  O   UNL     1      -5.367  14.982  71.332  1.00  0.00    -0.130 OA 
HETATM   12  C   UNL     1      -5.377  12.827  68.893  1.00  0.00    -0.067 C  
ENDROOT
BRANCH   4  13
HETATM   13  C   UNL     1      -9.156  15.907  69.945  1.00  0.00     0.287 C  
BRANCH  13  14
HETATM   14  N   UNL     1     -10.482  15.292  70.288  1.00  0.00    -0.243 NA 
HETATM   15  C   UNL     1     -10.860  14.013  70.040  1.00  0.00     0.301 A  
HETATM   16  C   UNL     1     -10.069  12.880  69.449  1.00  0.00     0.677 C  
HETATM   17  C   UNL     1     -11.066  11.703  69.390  1.00  0.00    -0.268 C  
HETATM   18  C   UNL     1     -11.422  16.156  70.776  1.00  0.00    -0.378 A  
HETATM   19  C   UNL     1     -12.393  12.144  70.006  1.00  0.00    -0.167 C  
HETATM   20  C   UNL     1     -12.740  15.766  71.010  1.00  0.00    -0.453 A  
HETATM   21  C   UNL     1     -13.130  14.463  70.771  1.00  0.00    -0.344 A  
HETATM   22  C   UNL     1     -12.175  13.593  70.290  1.00  0.00    -0.423 A  
ENDBRANCH  13  14
ENDBRANCH   4  13
BRANCH   5  23
HETATM   23  N   UNL     1      -5.893  11.493  66.777  1.00  0.00    -0.134 N  
HETATM   24  C   UNL     1      -5.707  10.205  67.253  1.00  0.00    -0.045 C  
HETATM   25  O   UNL     1      -5.137   9.963  68.305  1.00  0.00    -0.037 OA 
HETATM   26  H   UNL     1      -6.523  11.615  65.985  1.00  0.00     0.000 HD 
BRANCH  24  27
HETATM   27  C   UNL     1      -6.277   9.088  66.326  1.00  0.00    -0.064 C  
BRANCH  27  28
HETATM   28  C   UNL     1      -6.756   7.829  66.910  1.00  0.00    -0.067 A  
HETATM   29  N   UNL     1      -5.910   6.733  67.054  1.00  0.00    -0.014 NA 
HETATM   30  N   UNL     1      -5.936   4.541  67.825  1.00  0.00    -0.023 NA 
HETATM   31  C   UNL     1      -8.032   7.607  67.401  1.00  0.00    -0.119 A  
HETATM   32  S   UNL     1      -8.168   6.016  68.020  1.00  0.00    -0.113 SA 
HETATM   33  H1  UNL     1      -4.962   4.365  67.575  1.00  0.00     0.000 HD 
HETATM   34  H2  UNL     1      -6.475   3.793  68.261  1.00  0.00     0.000 HD 
HETATM   35  C   UNL     1      -6.529   5.720  67.599  1.00  0.00    -0.047 A  
ENDBRANCH  27  28
BRANCH  27  36
HETATM   36  N   UNL     1      -6.420   9.169  65.032  1.00  0.00    -0.065 NA 
HETATM   37  H   UNL     1      -5.629   9.206  64.388  1.00  0.00     0.000 HD 
BRANCH  36  38
HETATM   38  O   UNL     1      -7.747   9.202  64.605  1.00  0.00    -0.106 OA 
HETATM   39  C   UNL     1      -7.740   9.166  63.178  1.00  0.00    -0.114 C  
ENDBRANCH  36  38
ENDBRANCH  27  36
ENDBRANCH  24  27
ENDBRANCH   5  23
TORSDOF 7
ENDMDL
MODEL      230
REMARK 921   NORMALIZED FREE ENERGY PREDICTED BY IDOCK:    3.13 KCAL/MOL
REMARK 922        TOTAL FREE ENERGY PREDICTED BY IDOCK:    3.20 KCAL/MOL
REMARK 923 INTER-LIGAND FREE ENERGY PREDICTED BY IDOCK:    1.73 KCAL/MOL
REMARK 924 INTRA-LIGAND FREE ENERGY PREDICTED BY IDOCK:    1.47 KCAL/MOL
REMARK 927      BINDING AFFINITY PREDICTED BY RF-SCORE:    0.00 PKD
ROOT
HETATM    1  C   UNL     1      -6.089  14.031  67.322  1.00  0.00     0.484 C  
HETATM    2  S   UNL     1      -7.785  13.858  66.682  1.00  0.00     1.251 SA 
HETATM    3  C   UNL     1      -8.460  15.194  67.652  1.00  0.00    -0.160 C  
HETATM    4  C   UNL     1      -8.146  15.144  69.123  1.00  0.00    -0.214 C  
HETATM    5  CA  UNL     1      -5.254  12.711  67.343  1.00  0.00    -0.043 C  
HETATM    6  CA  UNL     1      -6.991  14.613  69.608  1.00  0.00    -0.149 C  
HETATM    7  C   UNL     1      -6.579  14.817  71.122  1.00  0.00     0.574 C  
HETATM    8  O   UNL     1      -5.182  12.083  69.831  1.00  0.00    -0.071 OA 
HETATM    9  N   UNL     1      -6.095  13.988  68.769  1.00  0.00    -0.082 N  
HETATM   10  OXT UNL     1      -7.567  14.952  71.918  1.00  0.00     2.691 OA 
HETATM   11  O   UNL     1      -5.354  15.017  71.324  1.00  0.00    -0.136 OA 
HETATM   12  C   UNL     1      -5.384  12.839  68.905  1.00  0.00    -0.067 C  
ENDROOT
BRANCH   4  13
HETATM   13  C   UNL     1      -9.137  15.959  69.932  1.00  0.00     0.287 C  
BRANCH  13  14
HETATM   14  N   UNL     1     -10.466  15.355  70.287  1.00  0.00    -0.286 NA 
HETATM   15  C   UNL     1     -10.955  14.173  69.835  1.00  0.00     0.050 A  
HETATM   16  C   UNL     1     -10.306  13.145  68.953  1.00  0.00    -0.068 C  
HETATM   17  C   UNL     1     -11.385  12.056  68.771  1.00  0.00    -0.331 C  
HETATM   18  C   UNL     1     -11.292  16.149  71.033  1.00  0.00    -0.338 A  
HETATM   19  C   UNL     1     -12.613  12.430  69.599  1.00  0.00     0.333 C  
HETATM   20  C   UNL     1     -12.606  15.787  71.325  1.00  0.00    -0.504 A  
HETATM   21  C   UNL     1     -13.108  14.581  70.879  1.00  0.00    -0.405 A  
HETATM   22  C   UNL     1     -12.267  13.779  70.136  1.00  0.00    -0.425 A  
ENDBRANCH  13  14
ENDBRANCH   4  13
BRANCH   5  23
HETATM   23  N   UNL     1      -5.913  11.489  66.802  1.00  0.00    -0.134 N  
HETATM   24  C   UNL     1      -5.739  10.206  67.292  1.00  0.00    -0.045 C  
HETATM   25  O   UNL     1      -5.172   9.970  68.347  1.00  0.00    -0.036 OA 
HETATM   26  H   UNL     1      -6.541  11.609  66.008  1.00  0.00     0.000 HD 
BRANCH  24  27
HETATM   27  C   UNL     1      -6.317   9.084  66.376  1.00  0.00    -0.065 C  
BRANCH  27  28
HETATM   28  C   UNL     1      -7.724   9.136  65.957  1.00  0.00    -0.095 A  
HETATM   29  N   UNL     1      -8.076   9.493  64.658  1.00  0.00    -0.127 NA 
HETATM   30  N   UNL     1      -9.962   9.796  63.334  1.00  0.00    -0.288 NA 
HETATM   31  C   UNL     1      -8.810   8.810  66.751  1.00  0.00    -0.129 A  
HETATM   32  S   UNL     1     -10.269   8.979  65.871  1.00  0.00     0.473 SA 
HETATM   33  H1  UNL     1      -9.428  10.089  62.515  1.00  0.00     0.000 HD 
HETATM   34  H2  UNL     1     -10.978   9.750  63.269  1.00  0.00     0.000 HD 
HETATM   35  C   UNL     1      -9.372   9.471  64.492  1.00  0.00    -0.098 A  
ENDBRANCH  27  28
BRANCH  27  36
HETATM   36  N   UNL     1      -5.647   8.079  65.884  1.00  0.00    -0.036 NA 
HETATM   37  H   UNL     1      -5.271   8.075  64.936  1.00  0.00     0.000 HD 
BRANCH  36  38
HETATM   38  O   UNL     1      -5.489   7.010  66.766  1.00  0.00    -0.020 OA 
HETATM   39  C   UNL     1      -6.771   6.411  66.949  1.00  0.00    -0.060 C  
ENDBRANCH  36  38
ENDBRANCH  27  36
ENDBRANCH  24  27
ENDBRANCH   5  23
TORSDOF 7
ENDMDL
MODEL      231
REMARK 921   NORMALIZED FREE ENERGY PREDICTED BY IDOCK:    5.86 KCAL/MOL
REMARK 922        TOTAL FREE ENERGY PREDICTED BY IDOCK:    7.05 KCAL/MOL
REMARK 923 INTER-LIGAND FREE ENERGY PREDICTED BY IDOCK:   -3.84 KCAL/MOL
REMARK 924 INTRA-LIGAND FREE ENERGY PREDICTED BY IDOCK:   10.89 KCAL/MOL
REMARK 927      BINDING AFFINITY PREDICTED BY RF-SCORE:    0.00 PKD
ROOT
HETATM    1  C   UNL     1     -10.307  10.259  66.385  1.00  0.00    -0.195 C  
HETATM    2  S   UNL     1      -9.043  11.203  65.477  1.00  0.00    -0.163 SA 
HETATM    3  C   UNL     1      -8.194   9.770  64.842  1.00  0.00    -0.142 C  
HETATM    4  C   UNL     1      -7.838   8.727  65.866  1.00  0.00    -0.102 C  
HETATM    5  CA  UNL     1     -10.876  10.967  67.656  1.00  0.00    -0.266 C  
HETATM    6  CA  UNL     1      -8.595   8.498  66.974  1.00  0.00    -0.121 C  
HETATM    7  C   UNL     1      -8.339   7.227  67.880  1.00  0.00    -0.119 C  
HETATM    8  O   UNL     1      -9.792   9.684  69.597  1.00  0.00    -0.188 OA 
HETATM    9  N   UNL     1      -9.676   9.300  67.267  1.00  0.00    -0.158 N  
HETATM   10  OXT UNL     1      -7.132   6.814  67.874  1.00  0.00    -0.080 OA 
HETATM   11  O   UNL     1      -9.374   6.670  68.329  1.00  0.00    -0.122 OA 
HETATM   12  C   UNL     1     -10.106   9.839  68.436  1.00  0.00    -0.166 C  
ENDROOT
BRANCH   4  13
HETATM   13  C   UNL     1      -6.709   7.835  65.384  1.00  0.00    -0.045 C  
BRANCH  13  14
HETATM   14  N   UNL     1      -6.605   6.434  65.914  1.00  0.00    -0.046 NA 
HETATM   15  C   UNL     1      -7.635   5.571  66.108  1.00  0.00    -0.091 A  
HETATM   16  C   UNL     1      -9.093   5.738  65.791  1.00  0.00    -0.122 C  
HETATM   17  C   UNL     1      -9.748   4.430  66.284  1.00  0.00    -0.224 C  
HETATM   18  C   UNL     1      -5.365   6.062  66.355  1.00  0.00    -0.009 A  
HETATM   19  C   UNL     1      -8.659   3.499  66.814  1.00  0.00    -0.113 C  
HETATM   20  C   UNL     1      -5.138   4.848  67.000  1.00  0.00    -0.008 A  
HETATM   21  C   UNL     1      -6.178   3.959  67.191  1.00  0.00    -0.036 A  
HETATM   22  C   UNL     1      -7.425   4.333  66.733  1.00  0.00    -0.081 A  
ENDBRANCH  13  14
ENDBRANCH   4  13
BRANCH   5  23
HETATM   23  N   UNL     1     -10.362  12.334  67.950  1.00  0.00    -0.203 N  
HETATM   24  C   UNL     1     -11.124  13.384  68.436  1.00  0.00    -0.273 C  
HETATM   25  O   UNL     1     -12.261  13.240  68.857  1.00  0.00    -0.275 OA 
HETATM   26  H   UNL     1      -9.373  12.510  67.780  1.00  0.00     0.000 HD 
BRANCH  24  27
HETATM   27  C   UNL     1     -10.411  14.771  68.388  1.00  0.00    -0.243 C  
BRANCH  27  28
HETATM   28  C   UNL     1      -9.101  14.941  69.030  1.00  0.00    -0.175 A  
HETATM   29  N   UNL     1      -8.445  13.867  69.624  1.00  0.00     0.857 NA 
HETATM   30  N   UNL     1      -6.484  13.381  70.773  1.00  0.00    -0.398 NA 
HETATM   31  C   UNL     1      -8.380  16.122  69.079  1.00  0.00    -0.247 A  
HETATM   32  S   UNL     1      -6.893  15.883  69.893  1.00  0.00     0.101 SA 
HETATM   33  H1  UNL     1      -6.724  12.400  70.913  1.00  0.00     0.000 HD 
HETATM   34  H2  UNL     1      -5.597  13.728  71.137  1.00  0.00     0.000 HD 
HETATM   35  C   UNL     1      -7.296  14.230  70.129  1.00  0.00     0.471 A  
ENDBRANCH  27  28
BRANCH  27  36
HETATM   36  N   UNL     1     -10.852  15.835  67.776  1.00  0.00    -0.310 NA 
HETATM   37  H   UNL     1     -11.837  16.101  67.767  1.00  0.00     0.000 HD 
BRANCH  36  38
HETATM   38  O   UNL     1      -9.861  16.577  67.135  1.00  0.00    -0.244 OA 
HETATM   39  C   UNL     1     -10.148  16.560  65.737  1.00  0.00    -0.303 C  
ENDBRANCH  36  38
ENDBRANCH  27  36
ENDBRANCH  24  27
ENDBRANCH   5  23
TORSDOF 7
ENDMDL
MODEL      232
REMARK 921   NORMALIZED FREE ENERGY PREDICTED BY IDOCK:    9.58 KCAL/MOL
REMARK 922        TOTAL FREE ENERGY PREDICTED BY IDOCK:   12.29 KCAL/MOL
REMARK 923 INTER-LIGAND FREE ENERGY PREDICTED BY IDOCK:    8.42 KCAL/MOL
REMARK 924 INTRA-LIGAND FREE ENERGY PREDICTED BY IDOCK:    3.87 KCAL/MOL
REMARK 927      BINDING AFFINITY PREDICTED BY RF-SCORE:    0.00 PKD
ROOT
HETATM    1  C   UNL     1      -7.646  12.987  70.615  1.00  0.00     4.068 C  
HETATM    2  S   UNL     1      -9.300  13.369  69.957  1.00  0.00     3.328 SA 
HETATM    3  C   UNL     1      -9.812  11.667  69.808  1.00  0.00     1.244 C  
HETATM    4  C   UNL     1      -8.847  10.766  69.086  1.00  0.00    -0.098 C  
HETATM    5  CA  UNL     1      -6.541  14.039  70.277  1.00  0.00     0.043 C  
HETATM    6  CA  UNL     1      -7.500  10.956  69.120  1.00  0.00    -0.130 C  
HETATM    7  C   UNL     1      -6.512   9.846  68.577  1.00  0.00    -0.050 C  
HETATM    8  O   UNL     1      -5.126  12.873  68.481  1.00  0.00    -0.058 OA 
HETATM    9  N   UNL     1      -6.960  12.064  69.735  1.00  0.00     0.152 N  
HETATM   10  OXT UNL     1      -7.000   9.122  67.647  1.00  0.00    -0.076 OA 
HETATM   11  O   UNL     1      -5.462   9.685  69.251  1.00  0.00    -0.036 OA 
HETATM   12  C   UNL     1      -5.957  12.900  69.363  1.00  0.00    -0.103 C  
ENDROOT
BRANCH   4  13
HETATM   13  C   UNL     1      -9.538   9.526  68.550  1.00  0.00    -0.142 C  
BRANCH  13  14
HETATM   14  N   UNL     1      -9.386   8.226  69.286  1.00  0.00    -0.154 NA 
HETATM   15  C   UNL     1      -9.556   6.985  68.764  1.00  0.00    -0.139 A  
HETATM   16  C   UNL     1      -9.855   6.576  67.350  1.00  0.00    -0.163 C  
HETATM   17  C   UNL     1      -9.969   5.037  67.409  1.00  0.00    -0.214 C  
HETATM   18  C   UNL     1      -9.184   8.333  70.634  1.00  0.00    -0.152 A  
HETATM   19  C   UNL     1      -9.669   4.571  68.832  1.00  0.00    -0.224 C  
HETATM   20  C   UNL     1      -9.162   7.220  71.473  1.00  0.00    -0.150 A  
HETATM   21  C   UNL     1      -9.322   5.953  70.948  1.00  0.00    -0.180 A  
HETATM   22  C   UNL     1      -9.513   5.849  69.586  1.00  0.00    -0.172 A  
ENDBRANCH  13  14
ENDBRANCH   4  13
BRANCH   5  23
HETATM   23  N   UNL     1      -6.970  15.241  69.509  1.00  0.00    -0.177 N  
HETATM   24  C   UNL     1      -8.282  15.651  69.338  1.00  0.00    -0.236 C  
HETATM   25  O   UNL     1      -9.214  15.173  69.966  1.00  0.00    -0.021 OA 
HETATM   26  H   UNL     1      -6.241  15.805  69.074  1.00  0.00     0.000 HD 
BRANCH  24  27
HETATM   27  C   UNL     1      -8.472  16.768  68.266  1.00  0.00    -0.222 C  
BRANCH  27  28
HETATM   28  C   UNL     1      -9.474  17.822  68.479  1.00  0.00    -0.304 A  
HETATM   29  N   UNL     1      -9.551  18.509  69.688  1.00  0.00     0.372 NA 
HETATM   30  N   UNL     1     -10.790  20.184  70.718  1.00  0.00     1.133 NA 
HETATM   31  C   UNL     1     -10.386  18.264  67.536  1.00  0.00    -0.398 A  
HETATM   32  S   UNL     1     -11.352  19.523  68.179  1.00  0.00     1.458 SA 
HETATM   33  H1  UNL     1     -10.285  20.114  71.602  1.00  0.00     0.000 HD 
HETATM   34  H2  UNL     1     -11.540  20.869  70.632  1.00  0.00     0.000 HD 
HETATM   35  C   UNL     1     -10.502  19.405  69.667  1.00  0.00     0.691 A  
ENDBRANCH  27  28
BRANCH  27  36
HETATM   36  N   UNL     1      -7.778  16.901  67.171  1.00  0.00    -0.167 NA 
HETATM   37  H   UNL     1      -8.187  16.807  66.241  1.00  0.00     0.000 HD 
BRANCH  36  38
HETATM   38  O   UNL     1      -6.428  17.181  67.379  1.00  0.00    -0.130 OA 
HETATM   39  C   UNL     1      -6.223  18.559  67.069  1.00  0.00    -0.173 C  
ENDBRANCH  36  38
ENDBRANCH  27  36
ENDBRANCH  24  27
ENDBRANCH   5  23
TORSDOF 7
ENDMDL
MODEL      233
REMARK 921   NORMALIZED FREE ENERGY PREDICTED BY IDOCK:   12.44 KCAL/MOL
REMARK 922        TOTAL FREE ENERGY PREDICTED BY IDOCK:   16.33 KCAL/MOL
REMARK 923 INTER-LIGAND FREE ENERGY PREDICTED BY IDOCK:   13.45 KCAL/MOL
REMARK 924 INTRA-LIGAND FREE ENERGY PREDICTED BY IDOCK:    2.88 KCAL/MOL
REMARK 927      BINDING AFFINITY PREDICTED BY RF-SCORE:    0.00 PKD
ROOT
HETATM    1  C   UNL     1      -8.431  12.797  68.152  1.00  0.00    -0.177 C  
HETATM    2  S   UNL     1      -8.397  13.588  69.792  1.00  0.00     2.036 SA 
HETATM    3  C   UNL     1      -9.587  12.483  70.529  1.00  0.00     6.042 C  
HETATM    4  C   UNL     1     -10.861  12.298  69.751  1.00  0.00     0.368 C  
HETATM    5  CA  UNL     1      -8.119  13.750  66.953  1.00  0.00     0.145 C  
HETATM    6  CA  UNL     1     -10.907  12.363  68.393  1.00  0.00    -0.238 C  
HETATM    7  C   UNL     1     -12.199  11.904  67.603  1.00  0.00     0.462 C  
HETATM    8  O   UNL     1     -10.411  14.102  65.853  1.00  0.00    -0.288 OA 
HETATM    9  N   UNL     1      -9.791  12.717  67.666  1.00  0.00    -0.206 N  
HETATM   10  OXT UNL     1     -13.287  12.044  68.255  1.00  0.00     3.392 OA 
HETATM   11  O   UNL     1     -11.981  11.284  66.530  1.00  0.00    -0.139 OA 
HETATM   12  C   UNL     1      -9.637  13.541  66.597  1.00  0.00    -0.278 C  
ENDROOT
BRANCH   4  13
HETATM   13  C   UNL     1     -11.988  11.801  70.637  1.00  0.00    -0.222 C  
BRANCH  13  14
HETATM   14  N   UNL     1     -12.407  10.362  70.552  1.00  0.00    -0.316 NA 
HETATM   15  C   UNL     1     -11.693   9.351  69.994  1.00  0.00     0.068 A  
HETATM   16  C   UNL     1     -10.313   9.371  69.401  1.00  0.00    -0.222 C  
HETATM   17  C   UNL     1     -10.086   7.927  68.902  1.00  0.00    -0.203 C  
HETATM   18  C   UNL     1     -13.682  10.094  70.965  1.00  0.00     0.138 A  
HETATM   19  C   UNL     1     -11.301   7.078  69.272  1.00  0.00    -0.047 C  
HETATM   20  C   UNL     1     -14.263   8.836  70.818  1.00  0.00     0.339 A  
HETATM   21  C   UNL     1     -13.539   7.799  70.263  1.00  0.00     1.723 A  
HETATM   22  C   UNL     1     -12.249   8.071  69.858  1.00  0.00     1.060 A  
ENDBRANCH  13  14
ENDBRANCH   4  13
BRANCH   5  23
HETATM   23  N   UNL     1      -7.788  15.163  67.286  1.00  0.00    -0.198 N  
HETATM   24  C   UNL     1      -6.746  15.566  68.106  1.00  0.00    -0.127 C  
HETATM   25  O   UNL     1      -5.870  14.805  68.487  1.00  0.00    -0.087 OA 
HETATM   26  H   UNL     1      -8.374  15.891  66.878  1.00  0.00     0.000 HD 
BRANCH  24  27
HETATM   27  C   UNL     1      -6.792  17.071  68.511  1.00  0.00    -0.179 C  
BRANCH  27  28
HETATM   28  C   UNL     1      -8.063  17.676  68.929  1.00  0.00    -0.162 A  
HETATM   29  N   UNL     1      -8.208  19.058  69.018  1.00  0.00    -0.251 NA 
HETATM   30  N   UNL     1      -9.797  20.659  69.580  1.00  0.00     0.656 NA 
HETATM   31  C   UNL     1      -9.224  16.982  69.225  1.00  0.00     0.042 A  
HETATM   32  S   UNL     1     -10.483  18.065  69.638  1.00  0.00     0.929 SA 
HETATM   33  H1  UNL     1      -9.162  21.444  69.437  1.00  0.00     0.000 HD 
HETATM   34  H2  UNL     1     -10.756  20.847  69.870  1.00  0.00     0.000 HD 
HETATM   35  C   UNL     1      -9.414  19.388  69.399  1.00  0.00    -0.049 A  
ENDBRANCH  27  28
BRANCH  27  36
HETATM   36  N   UNL     1      -5.769  17.878  68.564  1.00  0.00    -0.170 NA 
HETATM   37  H   UNL     1      -4.909  17.651  69.063  1.00  0.00     0.000 HD 
BRANCH  36  38
HETATM   38  O   UNL     1      -5.953  19.079  67.879  1.00  0.00    -0.199 OA 
HETATM   39  C   UNL     1      -6.432  18.760  66.574  1.00  0.00    -0.191 C  
ENDBRANCH  36  38
ENDBRANCH  27  36
ENDBRANCH  24  27
ENDBRANCH   5  23
TORSDOF 7
ENDMDL
MODEL      234
REMARK 921   NORMALIZED FREE ENERGY PREDICTED BY IDOCK:   14.75 KCAL/MOL
REMARK 922        TOTAL FREE ENERGY PREDICTED BY IDOCK:   19.58 KCAL/MOL
REMARK 923 INTER-LIGAND FREE ENERGY PREDICTED BY IDOCK:   20.54 KCAL/MOL
REMARK 924 INTRA-LIGAND FREE ENERGY PREDICTED BY IDOCK:   -0.96 KCAL/MOL
REMARK 927      BINDING AFFINITY PREDICTED BY RF-SCORE:    0.00 PKD
ROOT
HETATM    1  C   UNL     1      -5.434  12.655  70.337  1.00  0.00    -0.154 C  
HETATM    2  S   UNL     1      -6.434  12.253  68.869  1.00  0.00    -0.096 SA 
HETATM    3  C   UNL     1      -6.763  13.949  68.428  1.00  0.00    -0.099 C  
HETATM    4  C   UNL     1      -7.283  14.815  69.543  1.00  0.00    -0.160 C  
HETATM    5  CA  UNL     1      -5.470  11.585  71.475  1.00  0.00     0.202 C  
HETATM    6  CA  UNL     1      -6.937  14.621  70.845  1.00  0.00     0.777 C  
HETATM    7  C   UNL     1      -7.286  15.702  71.945  1.00  0.00     4.562 C  
HETATM    8  O   UNL     1      -6.945  12.668  73.275  1.00  0.00     5.757 OA 
HETATM    9  N   UNL     1      -6.172  13.537  71.216  1.00  0.00     0.298 N  
HETATM   10  OXT UNL     1      -8.331  16.389  71.691  1.00  0.00     7.003 OA 
HETATM   11  O   UNL     1      -6.399  15.886  72.818  1.00  0.00     2.515 OA 
HETATM   12  C   UNL     1      -6.273  12.681  72.266  1.00  0.00     3.010 C  
ENDROOT
BRANCH   4  13
HETATM   13  C   UNL     1      -8.011  16.034  69.009  1.00  0.00    -0.224 C  
BRANCH  13  14
HETATM   14  N   UNL     1      -9.359  15.861  68.371  1.00  0.00    -0.197 NA 
HETATM   15  C   UNL     1     -10.529  15.633  69.019  1.00  0.00    -0.229 A  
HETATM   16  C   UNL     1     -10.807  15.568  70.494  1.00  0.00    -0.353 C  
HETATM   17  C   UNL     1     -12.312  15.238  70.589  1.00  0.00    -0.427 C  
HETATM   18  C   UNL     1      -9.361  15.804  67.005  1.00  0.00    -0.220 A  
HETATM   19  C   UNL     1     -12.899  15.185  69.180  1.00  0.00     0.543 C  
HETATM   20  C   UNL     1     -10.511  15.510  66.274  1.00  0.00    -0.313 A  
HETATM   21  C   UNL     1     -11.708  15.288  66.926  1.00  0.00     0.010 A  
HETATM   22  C   UNL     1     -11.704  15.358  68.303  1.00  0.00    -0.313 A  
ENDBRANCH  13  14
ENDBRANCH   4  13
BRANCH   5  23
HETATM   23  N   UNL     1      -6.267  10.354  71.214  1.00  0.00     0.192 N  
HETATM   24  C   UNL     1      -6.228   9.201  71.981  1.00  0.00     0.021 C  
HETATM   25  O   UNL     1      -5.675   9.146  73.068  1.00  0.00    -0.181 OA 
HETATM   26  H   UNL     1      -6.890  10.360  70.407  1.00  0.00     0.000 HD 
BRANCH  24  27
HETATM   27  C   UNL     1      -6.940   7.973  71.334  1.00  0.00    -0.054 C  
BRANCH  27  28
HETATM   28  C   UNL     1      -8.080   7.347  72.016  1.00  0.00    -0.094 A  
HETATM   29  N   UNL     1      -9.355   7.901  71.943  1.00  0.00    -0.145 NA 
HETATM   30  N   UNL     1     -11.517   7.524  72.711  1.00  0.00    -0.522 NA 
HETATM   31  C   UNL     1      -8.033   6.168  72.740  1.00  0.00    -0.106 A  
HETATM   32  S   UNL     1      -9.585   5.773  73.346  1.00  0.00    -0.145 SA 
HETATM   33  H1  UNL     1     -11.896   8.364  72.274  1.00  0.00     0.000 HD 
HETATM   34  H2  UNL     1     -12.143   6.919  73.241  1.00  0.00     0.000 HD 
HETATM   35  C   UNL     1     -10.224   7.188  72.611  1.00  0.00    -0.200 A  
ENDBRANCH  27  28
BRANCH  27  36
HETATM   36  N   UNL     1      -6.647   7.442  70.180  1.00  0.00    -0.042 NA 
HETATM   37  H   UNL     1      -6.522   6.439  70.047  1.00  0.00     0.000 HD 
BRANCH  36  38
HETATM   38  O   UNL     1      -6.518   8.365  69.142  1.00  0.00    -0.042 OA 
HETATM   39  C   UNL     1      -5.131   8.459  68.820  1.00  0.00    -0.029 C  
ENDBRANCH  36  38
ENDBRANCH  27  36
ENDBRANCH  24  27
ENDBRANCH   5  23
TORSDOF 7
ENDMDL
MODEL      235
REMARK 921   NORMALIZED FREE ENERGY PREDICTED BY IDOCK:   14.81 KCAL/MOL
REMARK 922        TOTAL FREE ENERGY PREDICTED BY IDOCK:   19.66 KCAL/MOL
REMARK 923 INTER-LIGAND FREE ENERGY PREDICTED BY IDOCK:   18.80 KCAL/MOL
REMARK 924 INTRA-LIGAND FREE ENERGY PREDICTED BY IDOCK:    0.86 KCAL/MOL
REMARK 927      BINDING AFFINITY PREDICTED BY RF-SCORE:    0.00 PKD
ROOT
HETATM    1  C   UNL     1      -7.699  12.936  70.853  1.00  0.00     5.932 C  
HETATM    2  S   UNL     1      -9.376  13.314  70.252  1.00  0.00     4.766 SA 
HETATM    3  C   UNL     1      -9.759  11.639  69.776  1.00  0.00     1.363 C  
HETATM    4  C   UNL     1      -8.728  10.964  68.913  1.00  0.00    -0.144 C  
HETATM    5  CA  UNL     1      -6.675  14.111  70.740  1.00  0.00     0.428 C  
HETATM    6  CA  UNL     1      -7.399  11.242  69.004  1.00  0.00    -0.115 C  
HETATM    7  C   UNL     1      -6.330  10.330  68.278  1.00  0.00    -0.048 C  
HETATM    8  O   UNL     1      -5.173  13.413  68.779  1.00  0.00    -0.068 OA 
HETATM    9  N   UNL     1      -6.945  12.249  69.827  1.00  0.00     0.210 N  
HETATM   10  OXT UNL     1      -6.759   9.762  67.219  1.00  0.00    -0.073 OA 
HETATM   11  O   UNL     1      -5.271  10.121  68.926  1.00  0.00    -0.036 OA 
HETATM   12  C   UNL     1      -6.006  13.212  69.637  1.00  0.00    -0.116 C  
ENDROOT
BRANCH   4  13
HETATM   13  C   UNL     1      -9.323   9.802  68.140  1.00  0.00    -0.128 C  
BRANCH  13  14
HETATM   14  N   UNL     1      -9.025   8.398  68.583  1.00  0.00    -0.140 NA 
HETATM   15  C   UNL     1      -9.111   7.281  67.818  1.00  0.00    -0.124 A  
HETATM   16  C   UNL     1      -9.439   7.146  66.358  1.00  0.00    -0.177 C  
HETATM   17  C   UNL     1      -9.417   5.624  66.096  1.00  0.00    -0.157 C  
HETATM   18  C   UNL     1      -8.771   8.243  69.917  1.00  0.00    -0.134 A  
HETATM   19  C   UNL     1      -9.012   4.906  67.381  1.00  0.00    -0.111 C  
HETATM   20  C   UNL     1      -8.614   6.989  70.504  1.00  0.00    -0.141 A  
HETATM   21  C   UNL     1      -8.688   5.847  69.730  1.00  0.00    -0.129 A  
HETATM   22  C   UNL     1      -8.933   6.009  68.382  1.00  0.00    -0.114 A  
ENDBRANCH  13  14
ENDBRANCH   4  13
BRANCH   5  23
HETATM   23  N   UNL     1      -7.191  15.402  70.205  1.00  0.00     0.133 N  
HETATM   24  C   UNL     1      -7.015  15.855  68.908  1.00  0.00    -0.143 C  
HETATM   25  O   UNL     1      -6.581  15.149  68.012  1.00  0.00    -0.117 OA 
HETATM   26  H   UNL     1      -7.715  15.999  70.845  1.00  0.00     0.000 HD 
BRANCH  24  27
HETATM   27  C   UNL     1      -7.407  17.349  68.690  1.00  0.00    -0.244 C  
BRANCH  27  28
HETATM   28  C   UNL     1      -7.714  17.834  67.338  1.00  0.00    -0.202 A  
HETATM   29  N   UNL     1      -6.762  18.511  66.582  1.00  0.00    -0.187 NA 
HETATM   30  N   UNL     1      -6.516  19.528  64.507  1.00  0.00    -0.382 NA 
HETATM   31  C   UNL     1      -8.913  17.645  66.671  1.00  0.00    -0.265 A  
HETATM   32  S   UNL     1      -8.846  18.341  65.109  1.00  0.00     3.150 SA 
HETATM   33  H1  UNL     1      -5.558  19.829  64.687  1.00  0.00     0.000 HD 
HETATM   34  H2  UNL     1      -6.943  19.753  63.608  1.00  0.00     0.000 HD 
HETATM   35  C   UNL     1      -7.233  18.848  65.411  1.00  0.00     0.087 A  
ENDBRANCH  27  28
BRANCH  27  36
HETATM   36  N   UNL     1      -7.540  18.247  69.626  1.00  0.00     0.371 NA 
HETATM   37  H   UNL     1      -7.000  19.112  69.645  1.00  0.00     0.000 HD 
BRANCH  36  38
HETATM   38  O   UNL     1      -8.484  17.923  70.600  1.00  0.00     3.888 OA 
HETATM   39  C   UNL     1      -9.628  18.748  70.380  1.00  0.00     1.968 C  
ENDBRANCH  36  38
ENDBRANCH  27  36
ENDBRANCH  24  27
ENDBRANCH   5  23
TORSDOF 7
ENDMDL
MODEL      236
REMARK 921   NORMALIZED FREE ENERGY PREDICTED BY IDOCK:   15.82 KCAL/MOL
REMARK 922        TOTAL FREE ENERGY PREDICTED BY IDOCK:   21.09 KCAL/MOL
REMARK 923 INTER-LIGAND FREE ENERGY PREDICTED BY IDOCK:   20.15 KCAL/MOL
REMARK 924 INTRA-LIGAND FREE ENERGY PREDICTED BY IDOCK:    0.95 KCAL/MOL
REMARK 927      BINDING AFFINITY PREDICTED BY RF-SCORE:    0.00 PKD
ROOT
HETATM    1  C   UNL     1      -7.231  15.114  68.219  1.00  0.00    -0.110 C  
HETATM    2  S   UNL     1      -7.918  14.521  69.798  1.00  0.00     0.487 SA 
HETATM    3  C   UNL     1      -7.689  12.790  69.435  1.00  0.00     0.642 C  
HETATM    4  C   UNL     1      -8.224  12.336  68.104  1.00  0.00    -0.168 C  
HETATM    5  CA  UNL     1      -7.810  16.475  67.716  1.00  0.00    -0.152 C  
HETATM    6  CA  UNL     1      -8.262  13.148  67.013  1.00  0.00    -0.051 C  
HETATM    7  C   UNL     1      -8.578  12.563  65.578  1.00  0.00     1.183 C  
HETATM    8  O   UNL     1      -9.348  15.797  65.777  1.00  0.00    -0.329 OA 
HETATM    9  N   UNL     1      -7.909  14.477  67.110  1.00  0.00    -0.164 N  
HETATM   10  OXT UNL     1      -9.322  11.526  65.588  1.00  0.00    -0.224 OA 
HETATM   11  O   UNL     1      -7.910  13.059  64.634  1.00  0.00     5.470 OA 
HETATM   12  C   UNL     1      -8.473  15.598  66.592  1.00  0.00    -0.288 C  
ENDROOT
BRANCH   4  13
HETATM   13  C   UNL     1      -8.468  10.839  68.083  1.00  0.00    -0.125 C  
BRANCH  13  14
HETATM   14  N   UNL     1      -7.452   9.922  68.702  1.00  0.00    -0.074 NA 
HETATM   15  C   UNL     1      -7.427   9.510  69.995  1.00  0.00    -0.126 A  
HETATM   16  C   UNL     1      -8.405   9.780  71.103  1.00  0.00     0.807 C  
HETATM   17  C   UNL     1      -7.798   9.074  72.334  1.00  0.00     0.413 C  
HETATM   18  C   UNL     1      -6.395   9.589  67.902  1.00  0.00    -0.054 A  
HETATM   19  C   UNL     1      -6.520   8.351  71.912  1.00  0.00    -0.067 C  
HETATM   20  C   UNL     1      -5.304   8.862  68.375  1.00  0.00    -0.038 A  
HETATM   21  C   UNL     1      -5.276   8.429  69.686  1.00  0.00    -0.030 A  
HETATM   22  C   UNL     1      -6.351   8.757  70.486  1.00  0.00    -0.038 A  
ENDBRANCH  13  14
ENDBRANCH   4  13
BRANCH   5  23
HETATM   23  N   UNL     1      -8.807  17.148  68.595  1.00  0.00    -0.270 N  
HETATM   24  C   UNL     1      -8.693  17.286  69.969  1.00  0.00     2.016 C  
HETATM   25  O   UNL     1      -7.664  17.038  70.577  1.00  0.00     2.432 OA 
HETATM   26  H   UNL     1      -9.638  17.536  68.151  1.00  0.00     0.000 HD 
BRANCH  24  27
HETATM   27  C   UNL     1      -9.994  17.775  70.676  1.00  0.00     2.667 C  
BRANCH  27  28
HETATM   28  C   UNL     1     -11.064  16.815  70.981  1.00  0.00     0.457 A  
HETATM   29  N   UNL     1     -11.679  16.796  72.229  1.00  0.00    -0.187 NA 
HETATM   30  N   UNL     1     -13.328  15.643  73.394  1.00  0.00    -0.644 NA 
HETATM   31  C   UNL     1     -11.591  15.892  70.093  1.00  0.00    -0.351 A  
HETATM   32  S   UNL     1     -12.838  14.988  70.839  1.00  0.00    -0.409 SA 
HETATM   33  H1  UNL     1     -13.189  16.170  74.256  1.00  0.00     0.000 HD 
HETATM   34  H2  UNL     1     -14.041  14.914  73.372  1.00  0.00     0.000 HD 
HETATM   35  C   UNL     1     -12.605  15.875  72.291  1.00  0.00    -0.454 A  
ENDBRANCH  27  28
BRANCH  27  36
HETATM   36  N   UNL     1     -10.231  18.990  71.083  1.00  0.00     1.383 NA 
HETATM   37  H   UNL     1     -10.753  19.669  70.529  1.00  0.00     0.000 HD 
BRANCH  36  38
HETATM   38  O   UNL     1      -9.708  19.283  72.343  1.00  0.00     3.475 OA 
HETATM   39  C   UNL     1      -9.414  20.679  72.372  1.00  0.00     3.067 C  
ENDBRANCH  36  38
ENDBRANCH  27  36
ENDBRANCH  24  27
ENDBRANCH   5  23
TORSDOF 7
ENDMDL
MODEL      237
REMARK 921   NORMALIZED FREE ENERGY PREDICTED BY IDOCK:   17.17 KCAL/MOL
REMARK 922        TOTAL FREE ENERGY PREDICTED BY IDOCK:   22.99 KCAL/MOL
REMARK 923 INTER-LIGAND FREE ENERGY PREDICTED BY IDOCK:   16.38 KCAL/MOL
REMARK 924 INTRA-LIGAND FREE ENERGY PREDICTED BY IDOCK:    6.61 KCAL/MOL
REMARK 927      BINDING AFFINITY PREDICTED BY RF-SCORE:    0.00 PKD
ROOT
HETATM    1  C   UNL     1      -9.567  14.098  64.559  1.00  0.00     1.386 C  
HETATM    2  S   UNL     1     -11.320  13.899  65.010  1.00  0.00    -0.352 SA 
HETATM    3  C   UNL     1     -11.535  15.580  65.567  1.00  0.00    -0.001 C  
HETATM    4  C   UNL     1     -10.503  16.070  66.546  1.00  0.00    -0.303 C  
HETATM    5  CA  UNL     1      -8.705  12.799  64.669  1.00  0.00     2.408 C  
HETATM    6  CA  UNL     1      -9.215  15.633  66.533  1.00  0.00    -0.293 C  
HETATM    7  C   UNL     1      -8.105  16.360  67.395  1.00  0.00    -0.153 C  
HETATM    8  O   UNL     1      -7.293  13.190  66.776  1.00  0.00     0.284 OA 
HETATM    9  N   UNL     1      -8.820  14.625  65.681  1.00  0.00     0.725 N  
HETATM   10  OXT UNL     1      -8.547  16.917  68.454  1.00  0.00    -0.222 OA 
HETATM   11  O   UNL     1      -6.981  16.471  66.840  1.00  0.00    -0.194 OA 
HETATM   12  C   UNL     1      -8.023  13.543  65.875  1.00  0.00     2.745 C  
ENDROOT
BRANCH   4  13
HETATM   13  C   UNL     1     -11.014  17.252  67.348  1.00  0.00    -0.053 C  
BRANCH  13  14
HETATM   14  N   UNL     1     -10.677  18.644  66.897  1.00  0.00    -0.370 NA 
HETATM   15  C   UNL     1      -9.511  19.301  67.125  1.00  0.00    -0.323 A  
HETATM   16  C   UNL     1      -8.258  18.816  67.796  1.00  0.00    -0.285 C  
HETATM   17  C   UNL     1      -7.314  20.038  67.780  1.00  0.00    -0.329 C  
HETATM   18  C   UNL     1     -11.702  19.339  66.317  1.00  0.00     1.843 A  
HETATM   19  C   UNL     1      -8.002  21.187  67.045  1.00  0.00     0.154 C  
HETATM   20  C   UNL     1     -11.587  20.685  65.973  1.00  0.00     2.759 A  
HETATM   21  C   UNL     1     -10.400  21.357  66.191  1.00  0.00     3.500 A  
HETATM   22  C   UNL     1      -9.365  20.648  66.765  1.00  0.00    -0.306 A  
ENDBRANCH  13  14
ENDBRANCH   4  13
BRANCH   5  23
HETATM   23  N   UNL     1      -9.415  11.554  65.078  1.00  0.00    -0.359 N  
HETATM   24  C   UNL     1      -8.852  10.518  65.805  1.00  0.00    -0.175 C  
HETATM   25  O   UNL     1      -7.765  10.607  66.354  1.00  0.00    -0.128 OA 
HETATM   26  H   UNL     1     -10.391  11.458  64.800  1.00  0.00     0.000 HD 
BRANCH  24  27
HETATM   27  C   UNL     1      -9.719   9.223  65.855  1.00  0.00    -0.285 C  
BRANCH  27  28
HETATM   28  C   UNL     1      -9.865   8.489  67.119  1.00  0.00    -0.206 A  
HETATM   29  N   UNL     1     -11.042   7.814  67.428  1.00  0.00     0.036 NA 
HETATM   30  N   UNL     1     -11.973   6.525  69.124  1.00  0.00    -0.195 NA 
HETATM   31  C   UNL     1      -8.882   8.352  68.085  1.00  0.00    -0.142 A  
HETATM   32  S   UNL     1      -9.449   7.398  69.387  1.00  0.00    -0.154 SA 
HETATM   33  H1  UNL     1     -12.871   6.422  68.651  1.00  0.00     0.000 HD 
HETATM   34  H2  UNL     1     -11.841   6.082  70.033  1.00  0.00     0.000 HD 
HETATM   35  C   UNL     1     -10.962   7.223  68.592  1.00  0.00     0.014 A  
ENDBRANCH  27  28
BRANCH  27  36
HETATM   36  N   UNL     1     -10.395   8.719  64.860  1.00  0.00     1.670 NA 
HETATM   37  H   UNL     1     -11.193   9.192  64.436  1.00  0.00     0.000 HD 
BRANCH  36  38
HETATM   38  O   UNL     1      -9.934   7.476  64.427  1.00  0.00     3.491 OA 
HETATM   39  C   UNL     1      -8.799   7.138  65.222  1.00  0.00     0.187 C  
ENDBRANCH  36  38
ENDBRANCH  27  36
ENDBRANCH  24  27
ENDBRANCH   5  23
TORSDOF 7
ENDMDL
MODEL      238
REMARK 921   NORMALIZED FREE ENERGY PREDICTED BY IDOCK:   20.70 KCAL/MOL
REMARK 922        TOTAL FREE ENERGY PREDICTED BY IDOCK:   27.97 KCAL/MOL
REMARK 923 INTER-LIGAND FREE ENERGY PREDICTED BY IDOCK:   25.47 KCAL/MOL
REMARK 924 INTRA-LIGAND FREE ENERGY PREDICTED BY IDOCK:    2.49 KCAL/MOL
REMARK 927      BINDING AFFINITY PREDICTED BY RF-SCORE:    0.00 PKD
ROOT
HETATM    1  C   UNL     1     -11.343  16.457  70.061  1.00  0.00    -0.175 C  
HETATM    2  S   UNL     1     -10.227  17.224  68.845  1.00  0.00    -0.335 SA 
HETATM    3  C   UNL     1     -11.379  17.131  67.486  1.00  0.00     0.363 C  
HETATM    4  C   UNL     1     -12.004  15.781  67.265  1.00  0.00     0.635 C  
HETATM    5  CA  UNL     1     -10.631  15.671  71.209  1.00  0.00     0.410 C  
HETATM    6  CA  UNL     1     -12.248  14.910  68.281  1.00  0.00     0.020 C  
HETATM    7  C   UNL     1     -13.141  13.625  68.049  1.00  0.00     2.762 C  
HETATM    8  O   UNL     1     -11.039  13.212  70.600  1.00  0.00     0.892 OA 
HETATM    9  N   UNL     1     -11.825  15.186  69.563  1.00  0.00    -0.316 N  
HETATM   10  OXT UNL     1     -13.105  13.171  66.857  1.00  0.00     0.730 OA 
HETATM   11  O   UNL     1     -13.917  13.331  68.995  1.00  0.00     5.255 OA 
HETATM   12  C   UNL     1     -11.241  14.403  70.506  1.00  0.00     0.033 C  
ENDROOT
BRANCH   4  13
HETATM   13  C   UNL     1     -12.531  15.636  65.849  1.00  0.00     1.467 C  
BRANCH  13  14
HETATM   14  N   UNL     1     -12.076  14.475  65.013  1.00  0.00    -0.398 NA 
HETATM   15  C   UNL     1     -10.903  13.804  65.143  1.00  0.00    -0.345 A  
HETATM   16  C   UNL     1      -9.813  13.975  66.162  1.00  0.00    -0.319 C  
HETATM   17  C   UNL     1      -8.735  12.949  65.750  1.00  0.00     0.896 C  
HETATM   18  C   UNL     1     -12.875  14.168  63.947  1.00  0.00     0.604 A  
HETATM   19  C   UNL     1      -9.240  12.155  64.547  1.00  0.00     0.474 C  
HETATM   20  C   UNL     1     -12.518  13.210  63.000  1.00  0.00     0.100 A  
HETATM   21  C   UNL     1     -11.332  12.514  63.132  1.00  0.00    -0.165 A  
HETATM   22  C   UNL     1     -10.534  12.819  64.215  1.00  0.00    -0.423 A  
ENDBRANCH  13  14
ENDBRANCH   4  13
BRANCH   5  23
HETATM   23  N   UNL     1      -9.141  15.680  71.205  1.00  0.00     2.176 N  
HETATM   24  C   UNL     1      -8.342  14.922  70.365  1.00  0.00     1.188 C  
HETATM   25  O   UNL     1      -8.781  14.309  69.406  1.00  0.00     0.180 OA 
HETATM   26  H   UNL     1      -8.674  16.293  71.873  1.00  0.00     0.000 HD 
BRANCH  24  27
HETATM   27  C   UNL     1      -6.832  14.908  70.756  1.00  0.00     0.498 C  
BRANCH  27  28
HETATM   28  C   UNL     1      -6.226  16.094  71.375  1.00  0.00     1.609 A  
HETATM   29  N   UNL     1      -6.003  17.256  70.641  1.00  0.00     0.201 NA 
HETATM   30  N   UNL     1      -5.134  19.396  70.897  1.00  0.00    -0.208 NA 
HETATM   31  C   UNL     1      -5.864  16.207  72.707  1.00  0.00     2.054 A  
HETATM   32  S   UNL     1      -5.222  17.762  73.024  1.00  0.00     6.010 SA 
HETATM   33  H1  UNL     1      -5.279  19.650  69.920  1.00  0.00     0.000 HD 
HETATM   34  H2  UNL     1      -4.725  20.083  71.529  1.00  0.00     0.000 HD 
HETATM   35  C   UNL     1      -5.464  18.190  71.378  1.00  0.00     0.055 A  
ENDBRANCH  27  28
BRANCH  27  36
HETATM   36  N   UNL     1      -6.019  13.896  70.625  1.00  0.00    -0.271 NA 
HETATM   37  H   UNL     1      -5.101  13.862  71.068  1.00  0.00     0.000 HD 
BRANCH  36  38
HETATM   38  O   UNL     1      -6.514  12.865  69.827  1.00  0.00    -0.096 OA 
HETATM   39  C   UNL     1      -5.512  11.851  69.764  1.00  0.00    -0.087 C  
ENDBRANCH  36  38
ENDBRANCH  27  36
ENDBRANCH  24  27
ENDBRANCH   5  23
TORSDOF 7
ENDMDL
MODEL      239
REMARK 921   NORMALIZED FREE ENERGY PREDICTED BY IDOCK:   24.52 KCAL/MOL
REMARK 922        TOTAL FREE ENERGY PREDICTED BY IDOCK:   33.35 KCAL/MOL
REMARK 923 INTER-LIGAND FREE ENERGY PREDICTED BY IDOCK:   32.40 KCAL/MOL
REMARK 924 INTRA-LIGAND FREE ENERGY PREDICTED BY IDOCK:    0.95 KCAL/MOL
REMARK 927      BINDING AFFINITY PREDICTED BY RF-SCORE:    0.00 PKD
ROOT
HETATM    1  C   UNL     1      -5.640  12.701  70.540  1.00  0.00    -0.171 C  
HETATM    2  S   UNL     1      -6.850  12.086  69.328  1.00  0.00    -0.020 SA 
HETATM    3  C   UNL     1      -7.660  13.658  69.094  1.00  0.00     0.140 C  
HETATM    4  C   UNL     1      -8.073  14.362  70.358  1.00  0.00     1.622 C  
HETATM    5  CA  UNL     1      -5.146  11.642  71.577  1.00  0.00    -0.026 C  
HETATM    6  CA  UNL     1      -7.381  14.244  71.523  1.00  0.00     3.175 C  
HETATM    7  C   UNL     1      -7.687  15.198  72.747  1.00  0.00     7.208 C  
HETATM    8  O   UNL     1      -6.338  12.322  73.746  1.00  0.00     2.447 OA 
HETATM    9  N   UNL     1      -6.320  13.371  71.628  1.00  0.00     1.119 N  
HETATM   10  OXT UNL     1      -8.891  15.617  72.796  1.00  0.00     8.292 OA 
HETATM   11  O   UNL     1      -6.678  15.582  73.395  1.00  0.00     3.582 OA 
HETATM   12  C   UNL     1      -5.958  12.506  72.610  1.00  0.00     2.384 C  
ENDROOT
BRANCH   4  13
HETATM   13  C   UNL     1      -9.171  15.376  70.096  1.00  0.00     0.416 C  
BRANCH  13  14
HETATM   14  N   UNL     1      -9.366  15.903  68.703  1.00  0.00    -0.202 NA 
HETATM   15  C   UNL     1      -8.730  16.968  68.153  1.00  0.00    -0.233 A  
HETATM   16  C   UNL     1      -7.646  17.835  68.728  1.00  0.00    -0.260 C  
HETATM   17  C   UNL     1      -7.378  18.892  67.635  1.00  0.00    -0.239 C  
HETATM   18  C   UNL     1     -10.374  15.318  67.989  1.00  0.00    -0.244 A  
HETATM   19  C   UNL     1      -8.254  18.586  66.422  1.00  0.00    -0.289 C  
HETATM   20  C   UNL     1     -10.768  15.788  66.738  1.00  0.00    -0.293 A  
HETATM   21  C   UNL     1     -10.119  16.864  66.165  1.00  0.00    -0.347 A  
HETATM   22  C   UNL     1      -9.094  17.443  66.885  1.00  0.00    -0.258 A  
ENDBRANCH  13  14
ENDBRANCH   4  13
BRANCH   5  23
HETATM   23  N   UNL     1      -5.677  10.258  71.429  1.00  0.00     0.003 N  
HETATM   24  C   UNL     1      -6.801   9.763  72.070  1.00  0.00     1.056 C  
HETATM   25  O   UNL     1      -7.586  10.474  72.677  1.00  0.00     4.746 OA 
HETATM   26  H   UNL     1      -5.173   9.627  70.807  1.00  0.00     0.000 HD 
BRANCH  24  27
HETATM   27  C   UNL     1      -6.974   8.217  71.962  1.00  0.00    -0.081 C  
BRANCH  27  28
HETATM   28  C   UNL     1      -7.860   7.651  70.935  1.00  0.00    -0.090 A  
HETATM   29  N   UNL     1      -9.134   7.193  71.257  1.00  0.00    -0.150 NA 
HETATM   30  N   UNL     1     -10.993   6.221  70.256  1.00  0.00    -0.306 NA 
HETATM   31  C   UNL     1      -7.564   7.552  69.586  1.00  0.00    -0.094 A  
HETATM   32  S   UNL     1      -8.878   6.861  68.734  1.00  0.00    -0.131 SA 
HETATM   33  H1  UNL     1     -11.515   6.147  71.129  1.00  0.00     0.000 HD 
HETATM   34  H2  UNL     1     -11.425   5.890  69.394  1.00  0.00     0.000 HD 
HETATM   35  C   UNL     1      -9.758   6.737  70.203  1.00  0.00    -0.167 A  
ENDBRANCH  27  28
BRANCH  27  36
HETATM   36  N   UNL     1      -6.357   7.327  72.688  1.00  0.00    -0.051 NA 
HETATM   37  H   UNL     1      -5.713   7.575  73.439  1.00  0.00     0.000 HD 
BRANCH  36  38
HETATM   38  O   UNL     1      -6.653   6.007  72.350  1.00  0.00    -0.063 OA 
HETATM   39  C   UNL     1      -6.897   5.297  73.563  1.00  0.00    -0.079 C  
ENDBRANCH  36  38
ENDBRANCH  27  36
ENDBRANCH  24  27
ENDBRANCH   5  23
TORSDOF 7
ENDMDL
MODEL      240
REMARK 921   NORMALIZED FREE ENERGY PREDICTED BY IDOCK:   25.47 KCAL/MOL
REMARK 922        TOTAL FREE ENERGY PREDICTED BY IDOCK:   34.68 KCAL/MOL
REMARK 923 INTER-LIGAND FREE ENERGY PREDICTED BY IDOCK:   32.33 KCAL/MOL
REMARK 924 INTRA-LIGAND FREE ENERGY PREDICTED BY IDOCK:    2.35 KCAL/MOL
REMARK 927      BINDING AFFINITY PREDICTED BY RF-SCORE:    0.00 PKD
ROOT
HETATM    1  C   UNL     1      -5.434  12.655  70.337  1.00  0.00    -0.154 C  
HETATM    2  S   UNL     1      -6.444  12.267  68.872  1.00  0.00    -0.096 SA 
HETATM    3  C   UNL     1      -6.775  13.968  68.449  1.00  0.00    -0.099 C  
HETATM    4  C   UNL     1      -7.287  14.823  69.576  1.00  0.00    -0.148 C  
HETATM    5  CA  UNL     1      -5.463  11.574  71.465  1.00  0.00     0.202 C  
HETATM    6  CA  UNL     1      -6.933  14.616  70.873  1.00  0.00     0.777 C  
HETATM    7  C   UNL     1      -7.275  15.687  71.986  1.00  0.00     4.929 C  
HETATM    8  O   UNL     1      -6.925  12.640  73.285  1.00  0.00     5.757 OA 
HETATM    9  N   UNL     1      -6.166  13.529  71.230  1.00  0.00     0.298 N  
HETATM   10  OXT UNL     1      -8.321  16.376  71.745  1.00  0.00     7.710 OA 
HETATM   11  O   UNL     1      -6.382  15.863  72.855  1.00  0.00     2.575 OA 
HETATM   12  C   UNL     1      -6.260  12.663  72.272  1.00  0.00     3.010 C  
ENDROOT
BRANCH   4  13
HETATM   13  C   UNL     1      -8.019  16.047  69.058  1.00  0.00    -0.224 C  
BRANCH  13  14
HETATM   14  N   UNL     1      -9.372  15.880  68.427  1.00  0.00    -0.197 NA 
HETATM   15  C   UNL     1     -10.537  15.646  69.081  1.00  0.00    -0.237 A  
HETATM   16  C   UNL     1     -10.805  15.567  70.557  1.00  0.00    -0.353 C  
HETATM   17  C   UNL     1     -12.310  15.237  70.659  1.00  0.00    -0.427 C  
HETATM   18  C   UNL     1      -9.383  15.836  67.061  1.00  0.00    -0.220 A  
HETATM   19  C   UNL     1     -12.906  15.197  69.254  1.00  0.00     0.441 C  
HETATM   20  C   UNL     1     -10.538  15.549  66.335  1.00  0.00    -0.312 A  
HETATM   21  C   UNL     1     -11.731  15.321  66.993  1.00  0.00    -0.020 A  
HETATM   22  C   UNL     1     -11.717  15.378  68.371  1.00  0.00    -0.332 A  
ENDBRANCH  13  14
ENDBRANCH   4  13
BRANCH   5  23
HETATM   23  N   UNL     1      -6.262  10.345  71.198  1.00  0.00     0.107 N  
HETATM   24  C   UNL     1      -7.577  10.149  71.587  1.00  0.00     2.533 C  
HETATM   25  O   UNL     1      -8.280  11.046  72.024  1.00  0.00     7.821 OA 
HETATM   26  H   UNL     1      -5.804   9.590  70.688  1.00  0.00     0.000 HD 
BRANCH  24  27
HETATM   27  C   UNL     1      -8.081   8.681  71.431  1.00  0.00    -0.151 C  
BRANCH  27  28
HETATM   28  C   UNL     1      -9.214   8.389  70.542  1.00  0.00    -0.151 A  
HETATM   29  N   UNL     1      -9.041   8.288  69.165  1.00  0.00    -0.147 NA 
HETATM   30  N   UNL     1     -10.268   7.891  67.231  1.00  0.00    -0.244 NA 
HETATM   31  C   UNL     1     -10.514   8.147  70.953  1.00  0.00    -0.202 A  
HETATM   32  S   UNL     1     -11.517   7.820  69.605  1.00  0.00     0.421 SA 
HETATM   33  H1  UNL     1      -9.466   8.008  66.612  1.00  0.00     0.000 HD 
HETATM   34  H2  UNL     1     -11.177   7.670  66.825  1.00  0.00     0.000 HD 
HETATM   35  C   UNL     1     -10.167   8.017  68.561  1.00  0.00    -0.207 A  
ENDBRANCH  27  28
BRANCH  27  36
HETATM   36  N   UNL     1      -7.557   7.630  71.997  1.00  0.00    -0.080 NA 
HETATM   37  H   UNL     1      -6.682   7.210  71.683  1.00  0.00     0.000 HD 
BRANCH  36  38
HETATM   38  O   UNL     1      -8.296   7.129  73.069  1.00  0.00    -0.104 OA 
HETATM   39  C   UNL     1      -9.315   6.288  72.532  1.00  0.00    -0.146 C  
ENDBRANCH  36  38
ENDBRANCH  27  36
ENDBRANCH  24  27
ENDBRANCH   5  23
TORSDOF 7
ENDMDL
MODEL      241
REMARK 921   NORMALIZED FREE ENERGY PREDICTED BY IDOCK:   33.42 KCAL/MOL
REMARK 922        TOTAL FREE ENERGY PREDICTED BY IDOCK:   45.88 KCAL/MOL
REMARK 923 INTER-LIGAND FREE ENERGY PREDICTED BY IDOCK:   39.23 KCAL/MOL
REMARK 924 INTRA-LIGAND FREE ENERGY PREDICTED BY IDOCK:    6.65 KCAL/MOL
REMARK 927      BINDING AFFINITY PREDICTED BY RF-SCORE:    0.00 PKD
ROOT
HETATM    1  C   UNL     1      -7.710  17.384  71.153  1.00  0.00     6.586 C  
HETATM    2  S   UNL     1      -8.916  18.297  70.140  1.00  0.00     2.693 SA 
HETATM    3  C   UNL     1     -10.287  17.218  70.510  1.00  0.00     1.346 C  
HETATM    4  C   UNL     1     -10.020  15.750  70.316  1.00  0.00     0.138 C  
HETATM    5  CA  UNL     1      -6.230  17.473  70.658  1.00  0.00     0.800 C  
HETATM    6  CA  UNL     1      -8.792  15.196  70.504  1.00  0.00     1.391 C  
HETATM    7  C   UNL     1      -8.609  13.626  70.552  1.00  0.00     4.441 C  
HETATM    8  O   UNL     1      -5.796  15.157  69.639  1.00  0.00    -0.102 OA 
HETATM    9  N   UNL     1      -7.696  15.987  70.775  1.00  0.00     2.334 N  
HETATM   10  OXT UNL     1      -9.468  12.979  69.864  1.00  0.00     1.960 OA 
HETATM   11  O   UNL     1      -7.783  13.206  71.403  1.00  0.00     5.576 OA 
HETATM   12  C   UNL     1      -6.422  15.952  70.307  1.00  0.00     0.142 C  
ENDROOT
BRANCH   4  13
HETATM   13  C   UNL     1     -11.308  14.968  70.138  1.00  0.00    -0.269 C  
BRANCH  13  14
HETATM   14  N   UNL     1     -11.712  14.524  68.762  1.00  0.00    -0.312 NA 
HETATM   15  C   UNL     1     -11.517  13.292  68.228  1.00  0.00    -0.316 A  
HETATM   16  C   UNL     1     -10.938  12.058  68.859  1.00  0.00    -0.277 C  
HETATM   17  C   UNL     1     -10.947  11.005  67.730  1.00  0.00    -0.323 C  
HETATM   18  C   UNL     1     -12.203  15.506  67.947  1.00  0.00     0.538 A  
HETATM   19  C   UNL     1     -11.590  11.617  66.487  1.00  0.00    -0.166 C  
HETATM   20  C   UNL     1     -12.489  15.281  66.601  1.00  0.00     1.030 A  
HETATM   21  C   UNL     1     -12.305  14.027  66.053  1.00  0.00    -0.504 A  
HETATM   22  C   UNL     1     -11.821  13.037  66.882  1.00  0.00    -0.442 A  
ENDBRANCH  13  14
ENDBRANCH   4  13
BRANCH   5  23
HETATM   23  N   UNL     1      -5.972  18.320  69.460  1.00  0.00    -0.244 N  
HETATM   24  C   UNL     1      -6.778  18.377  68.335  1.00  0.00    -0.230 C  
HETATM   25  O   UNL     1      -7.893  17.880  68.292  1.00  0.00    -0.264 OA 
HETATM   26  H   UNL     1      -5.135  18.903  69.469  1.00  0.00     0.000 HD 
BRANCH  24  27
HETATM   27  C   UNL     1      -6.139  19.120  67.122  1.00  0.00    -0.171 C  
BRANCH  27  28
HETATM   28  C   UNL     1      -6.293  18.575  65.767  1.00  0.00    -0.256 A  
HETATM   29  N   UNL     1      -5.686  19.183  64.672  1.00  0.00    -0.251 NA 
HETATM   30  N   UNL     1      -5.488  18.937  62.370  1.00  0.00    -0.329 NA 
HETATM   31  C   UNL     1      -6.990  17.424  65.441  1.00  0.00     0.995 A  
HETATM   32  S   UNL     1      -6.900  17.125  63.758  1.00  0.00    12.828 SA 
HETATM   33  H1  UNL     1      -4.920  19.776  62.256  1.00  0.00     0.000 HD 
HETATM   34  H2  UNL     1      -5.719  18.382  61.546  1.00  0.00     0.000 HD 
HETATM   35  C   UNL     1      -5.943  18.538  63.565  1.00  0.00     1.527 A  
ENDBRANCH  27  28
BRANCH  27  36
HETATM   36  N   UNL     1      -5.488  20.249  67.176  1.00  0.00    -0.166 NA 
HETATM   37  H   UNL     1      -4.471  20.299  67.240  1.00  0.00     0.000 HD 
BRANCH  36  38
HETATM   38  O   UNL     1      -6.301  21.381  67.139  1.00  0.00    -0.441 OA 
HETATM   39  C   UNL     1      -7.513  21.062  67.821  1.00  0.00    -0.032 C  
ENDBRANCH  36  38
ENDBRANCH  27  36
ENDBRANCH  24  27
ENDBRANCH   5  23
TORSDOF 7
ENDMDL
MODEL      242
REMARK 921   NORMALIZED FREE ENERGY PREDICTED BY IDOCK:   38.01 KCAL/MOL
REMARK 922        TOTAL FREE ENERGY PREDICTED BY IDOCK:   52.36 KCAL/MOL
REMARK 923 INTER-LIGAND FREE ENERGY PREDICTED BY IDOCK:   48.65 KCAL/MOL
REMARK 924 INTRA-LIGAND FREE ENERGY PREDICTED BY IDOCK:    3.71 KCAL/MOL
REMARK 927      BINDING AFFINITY PREDICTED BY RF-SCORE:    0.00 PKD
ROOT
HETATM    1  C   UNL     1      -7.181  15.261  68.530  1.00  0.00    -0.114 C  
HETATM    2  S   UNL     1      -7.556  15.095  70.304  1.00  0.00     0.724 SA 
HETATM    3  C   UNL     1      -8.131  13.411  70.191  1.00  0.00     2.720 C  
HETATM    4  C   UNL     1      -9.160  13.152  69.124  1.00  0.00     0.662 C  
HETATM    5  CA  UNL     1      -7.306  16.711  67.961  1.00  0.00    -0.156 C  
HETATM    6  CA  UNL     1      -9.193  13.847  67.954  1.00  0.00    -0.198 C  
HETATM    7  C   UNL     1     -10.111  13.372  66.757  1.00  0.00    -0.260 C  
HETATM    8  O   UNL     1      -9.475  16.638  66.592  1.00  0.00    -0.230 OA 
HETATM    9  N   UNL     1      -8.342  14.909  67.740  1.00  0.00    -0.148 N  
HETATM   10  OXT UNL     1     -11.161  12.744  67.120  1.00  0.00    -0.259 OA 
HETATM   11  O   UNL     1      -9.606  13.493  65.611  1.00  0.00    -0.141 OA 
HETATM   12  C   UNL     1      -8.551  16.134  67.193  1.00  0.00    -0.187 C  
ENDROOT
BRANCH   4  13
HETATM   13  C   UNL     1      -9.959  11.896  69.413  1.00  0.00     0.568 C  
BRANCH  13  14
HETATM   14  N   UNL     1      -9.322  10.786  70.199  1.00  0.00     0.803 NA 
HETATM   15  C   UNL     1      -7.992  10.532  70.292  1.00  0.00     0.668 A  
HETATM   16  C   UNL     1      -6.831  11.299  69.726  1.00  0.00    -0.059 C  
HETATM   17  C   UNL     1      -5.589  10.482  70.144  1.00  0.00    -0.063 C  
HETATM   18  C   UNL     1     -10.188   9.887  70.756  1.00  0.00    -0.060 A  
HETATM   19  C   UNL     1      -6.037   9.299  70.999  1.00  0.00    -0.068 C  
HETATM   20  C   UNL     1      -9.748   8.729  71.395  1.00  0.00    -0.351 A  
HETATM   21  C   UNL     1      -8.396   8.469  71.505  1.00  0.00    -0.210 A  
HETATM   22  C   UNL     1      -7.526   9.385  70.952  1.00  0.00    -0.097 A  
ENDBRANCH  13  14
ENDBRANCH   4  13
BRANCH   5  23
HETATM   23  N   UNL     1      -7.664  17.784  68.930  1.00  0.00    -0.243 N  
HETATM   24  C   UNL     1      -7.232  17.848  70.245  1.00  0.00     1.740 C  
HETATM   25  O   UNL     1      -6.352  17.128  70.690  1.00  0.00     0.538 OA 
HETATM   26  H   UNL     1      -8.275  18.530  68.599  1.00  0.00     0.000 HD 
BRANCH  24  27
HETATM   27  C   UNL     1      -7.973  18.910  71.114  1.00  0.00     4.792 C  
BRANCH  27  28
HETATM   28  C   UNL     1      -9.344  18.651  71.573  1.00  0.00     6.713 A  
HETATM   29  N   UNL     1      -9.612  17.669  72.522  1.00  0.00    10.024 NA 
HETATM   30  N   UNL     1     -11.403  16.724  73.663  1.00  0.00     0.895 NA 
HETATM   31  C   UNL     1     -10.470  19.348  71.169  1.00  0.00     2.654 A  
HETATM   32  S   UNL     1     -11.863  18.749  71.963  1.00  0.00     9.847 SA 
HETATM   33  H1  UNL     1     -10.824  16.045  74.157  1.00  0.00     0.000 HD 
HETATM   34  H2  UNL     1     -12.408  16.733  73.836  1.00  0.00     0.000 HD 
HETATM   35  C   UNL     1     -10.889  17.605  72.795  1.00  0.00     3.194 A  
ENDBRANCH  27  28
BRANCH  27  36
HETATM   36  N   UNL     1      -7.470  20.038  71.534  1.00  0.00     0.934 NA 
HETATM   37  H   UNL     1      -7.561  20.912  71.016  1.00  0.00     0.000 HD 
BRANCH  36  38
HETATM   38  O   UNL     1      -6.796  19.945  72.751  1.00  0.00     1.082 OA 
HETATM   39  C   UNL     1      -5.822  20.987  72.784  1.00  0.00     2.930 C  
ENDBRANCH  36  38
ENDBRANCH  27  36
ENDBRANCH  24  27
ENDBRANCH   5  23
TORSDOF 7
ENDMDL
MODEL      243
REMARK 921   NORMALIZED FREE ENERGY PREDICTED BY IDOCK:   46.83 KCAL/MOL
REMARK 922        TOTAL FREE ENERGY PREDICTED BY IDOCK:   64.78 KCAL/MOL
REMARK 923 INTER-LIGAND FREE ENERGY PREDICTED BY IDOCK:   53.97 KCAL/MOL
REMARK 924 INTRA-LIGAND FREE ENERGY PREDICTED BY IDOCK:   10.80 KCAL/MOL
REMARK 927      BINDING AFFINITY PREDICTED BY RF-SCORE:    0.00 PKD
ROOT
HETATM    1  C   UNL     1     -11.394  16.479  70.120  1.00  0.00    -0.055 C  
HETATM    2  S   UNL     1     -10.046  17.213  69.140  1.00  0.00    -0.206 SA 
HETATM    3  C   UNL     1     -10.890  17.076  67.575  1.00  0.00    -0.203 C  
HETATM    4  C   UNL     1     -11.460  15.718  67.269  1.00  0.00     0.032 C  
HETATM    5  CA  UNL     1     -10.938  15.730  71.414  1.00  0.00    -0.012 C  
HETATM    6  CA  UNL     1     -11.913  14.877  68.238  1.00  0.00    -0.212 C  
HETATM    7  C   UNL     1     -12.743  13.583  67.863  1.00  0.00     1.018 C  
HETATM    8  O   UNL     1     -11.220  13.252  70.807  1.00  0.00     0.746 OA 
HETATM    9  N   UNL     1     -11.766  15.192  69.571  1.00  0.00    -0.308 N  
HETATM   10  OXT UNL     1     -12.461  13.094  66.719  1.00  0.00    -0.303 OA 
HETATM   11  O   UNL     1     -13.699  13.315  68.636  1.00  0.00     4.365 OA 
HETATM   12  C   UNL     1     -11.393  14.440  70.638  1.00  0.00    -0.028 C  
ENDROOT
BRANCH   4  13
HETATM   13  C   UNL     1     -11.681  15.530  65.780  1.00  0.00     0.296 C  
BRANCH  13  14
HETATM   14  N   UNL     1     -11.413  14.187  65.163  1.00  0.00    -0.323 NA 
HETATM   15  C   UNL     1     -10.886  13.107  65.792  1.00  0.00    -0.273 A  
HETATM   16  C   UNL     1     -10.511  12.932  67.236  1.00  0.00    -0.236 C  
HETATM   17  C   UNL     1      -9.932  11.502  67.314  1.00  0.00    -0.212 C  
HETATM   18  C   UNL     1     -11.605  14.112  63.811  1.00  0.00     0.174 A  
HETATM   19  C   UNL     1     -10.042  10.847  65.939  1.00  0.00    -0.307 C  
HETATM   20  C   UNL     1     -11.267  12.978  63.074  1.00  0.00     0.726 A  
HETATM   21  C   UNL     1     -10.741  11.870  63.709  1.00  0.00    -0.476 A  
HETATM   22  C   UNL     1     -10.561  11.947  65.074  1.00  0.00    -0.335 A  
ENDBRANCH  13  14
ENDBRANCH   4  13
BRANCH   5  23
HETATM   23  N   UNL     1      -9.481  15.743  71.720  1.00  0.00     3.650 N  
HETATM   24  C   UNL     1      -8.878  16.519  72.696  1.00  0.00    14.777 C  
HETATM   25  O   UNL     1      -9.511  17.133  73.540  1.00  0.00    11.432 OA 
HETATM   26  H   UNL     1      -8.880  15.133  71.167  1.00  0.00     0.000 HD 
BRANCH  24  27
HETATM   27  C   UNL     1      -7.321  16.553  72.620  1.00  0.00    11.325 C  
BRANCH  27  28
HETATM   28  C   UNL     1      -6.577  15.323  72.317  1.00  0.00     2.310 A  
HETATM   29  N   UNL     1      -6.450  14.307  73.260  1.00  0.00     0.524 NA 
HETATM   30  N   UNL     1      -5.481  12.210  73.511  1.00  0.00     0.318 NA 
HETATM   31  C   UNL     1      -5.982  15.025  71.103  1.00  0.00     0.179 A  
HETATM   32  S   UNL     1      -5.244  13.481  71.160  1.00  0.00    -0.181 SA 
HETATM   33  H1  UNL     1      -5.788  12.104  74.478  1.00  0.00     0.000 HD 
HETATM   34  H2  UNL     1      -4.944  11.458  73.079  1.00  0.00     0.000 HD 
HETATM   35  C   UNL     1      -5.760  13.303  72.788  1.00  0.00     0.722 A  
ENDBRANCH  27  28
BRANCH  27  36
HETATM   36  N   UNL     1      -6.573  17.612  72.761  1.00  0.00     4.872 NA 
HETATM   37  H   UNL     1      -6.484  18.114  73.645  1.00  0.00     0.000 HD 
BRANCH  36  38
HETATM   38  O   UNL     1      -5.905  18.000  71.600  1.00  0.00     0.523 OA 
HETATM   39  C   UNL     1      -5.398  19.316  71.815  1.00  0.00    -0.342 C  
ENDBRANCH  36  38
ENDBRANCH  27  36
ENDBRANCH  24  27
ENDBRANCH   5  23
TORSDOF 7
ENDMDL
