MODEL        1
REMARK 921   NORMALIZED FREE ENERGY PREDICTED BY IDOCK:   -7.05 KCAL/MOL
REMARK 922        TOTAL FREE ENERGY PREDICTED BY IDOCK:   -8.94 KCAL/MOL
REMARK 923 INTER-LIGAND FREE ENERGY PREDICTED BY IDOCK:   -8.29 KCAL/MOL
REMARK 924 INTRA-LIGAND FREE ENERGY PREDICTED BY IDOCK:   -0.66 KCAL/MOL
REMARK 927      BINDING AFFINITY PREDICTED BY RF-SCORE:    0.00 PKD
ROOT
HETATM    1  C   UNL     1     -12.206  14.127  66.429  1.00  0.00    -0.446 C  
HETATM    2  S   UNL     1     -11.544  12.809  67.476  1.00  0.00    -0.367 SA 
HETATM    3  C   UNL     1     -11.833  13.721  69.003  1.00  0.00    -0.357 C  
HETATM    4  C   UNL     1     -11.337  15.154  68.979  1.00  0.00    -0.307 C  
HETATM    5  C   UNL     1     -11.015  15.646  70.376  1.00  0.00    -0.366 C  
HETATM    6  CA  UNL     1     -11.153  15.898  67.850  1.00  0.00    -0.317 C  
HETATM    7  N   UNL     1     -11.430  15.338  66.633  1.00  0.00    -0.186 N  
HETATM    8  C   UNL     1     -10.621  17.320  67.965  1.00  0.00    -0.394 C  
HETATM    9  C   UNL     1     -11.155  15.558  65.329  1.00  0.00    -0.338 C  
HETATM   10  O   UNL     1     -10.533  18.036  66.827  1.00  0.00    -0.354 OA 
HETATM   11  OXT UNL     1     -10.351  17.860  69.028  1.00  0.00    -0.361 OA 
HETATM   12  O   UNL     1     -10.611  16.504  64.809  1.00  0.00    -0.684 OA 
HETATM   13  CA  UNL     1     -11.699  14.136  64.947  1.00  0.00    -0.392 C  
ENDROOT
BRANCH  13  14
HETATM   14  N   UNL     1     -10.673  13.123  64.623  1.00  0.00    -0.358 N  
HETATM   15  H   UNL     1      -9.744  13.251  65.022  1.00  0.00     0.000 HD 
HETATM   16  C   UNL     1     -10.874  12.019  63.823  1.00  0.00    -0.420 C  
HETATM   17  O   UNL     1     -11.958  11.730  63.333  1.00  0.00    -0.474 OA 
BRANCH  16  18
HETATM   18  CA  UNL     1      -9.564  11.208  63.586  1.00  0.00    -0.288 C  
HETATM   19  H2  UNL     1     -10.057  10.815  61.584  1.00  0.00     0.000 HD 
HETATM   20  N   UNL     1      -9.757  10.310  62.417  1.00  0.00    -0.700 NA 
HETATM   21  H1  UNL     1      -8.900   9.779  62.263  1.00  0.00     0.000 HD 
BRANCH  18  22
HETATM   22  C   UNL     1      -9.242  10.437  64.849  1.00  0.00    -0.263 C  
HETATM   23  C   UNL     1     -10.160   9.780  65.592  1.00  0.00    -0.282 C  
HETATM   24  C   UNL     1      -9.853   9.062  66.876  1.00  0.00    -0.288 C  
HETATM   25  C   UNL     1      -8.438   9.240  67.336  1.00  0.00    -0.122 C  
HETATM   26  C   UNL     1      -7.505   9.867  66.604  1.00  0.00    -0.099 C  
HETATM   27  C   UNL     1      -7.779  10.462  65.251  1.00  0.00    -0.124 C  
ENDBRANCH  18  22
ENDBRANCH  16  18
ENDBRANCH  13  14
TORSDOF 3
ENDMDL
MODEL        2
REMARK 921   NORMALIZED FREE ENERGY PREDICTED BY IDOCK:   -6.95 KCAL/MOL
REMARK 922        TOTAL FREE ENERGY PREDICTED BY IDOCK:   -8.83 KCAL/MOL
REMARK 923 INTER-LIGAND FREE ENERGY PREDICTED BY IDOCK:   -8.26 KCAL/MOL
REMARK 924 INTRA-LIGAND FREE ENERGY PREDICTED BY IDOCK:   -0.57 KCAL/MOL
REMARK 927      BINDING AFFINITY PREDICTED BY RF-SCORE:    0.00 PKD
ROOT
HETATM    1  C   UNL     1     -10.974  10.081  69.403  1.00  0.00    -0.244 C  
HETATM    2  S   UNL     1      -9.273  10.688  69.326  1.00  0.00    -0.039 SA 
HETATM    3  C   UNL     1      -8.563   9.103  69.809  1.00  0.00    -0.142 C  
HETATM    4  C   UNL     1      -9.214   8.472  71.025  1.00  0.00    -0.227 C  
HETATM    5  C   UNL     1      -8.250   7.553  71.747  1.00  0.00    -0.114 C  
HETATM    6  CA  UNL     1     -10.486   8.727  71.451  1.00  0.00    -0.284 C  
HETATM    7  N   UNL     1     -11.256   9.612  70.749  1.00  0.00    -0.307 N  
HETATM    8  C   UNL     1     -11.008   8.045  72.708  1.00  0.00    -0.382 C  
HETATM    9  C   UNL     1     -12.376  10.347  70.928  1.00  0.00    -0.381 C  
HETATM   10  O   UNL     1     -12.295   8.271  73.039  1.00  0.00    -0.205 OA 
HETATM   11  OXT UNL     1     -10.355   7.253  73.373  1.00  0.00    -0.294 OA 
HETATM   12  O   UNL     1     -13.168  10.327  71.840  1.00  0.00    -0.437 OA 
HETATM   13  CA  UNL     1     -12.075  11.171  69.626  1.00  0.00    -0.336 C  
ENDROOT
BRANCH  13  14
HETATM   14  N   UNL     1     -11.571  12.544  69.840  1.00  0.00    -0.496 N  
HETATM   15  H   UNL     1     -11.115  12.745  70.730  1.00  0.00     0.000 HD 
HETATM   16  C   UNL     1     -11.671  13.575  68.931  1.00  0.00    -0.339 C  
HETATM   17  O   UNL     1     -12.147  13.443  67.811  1.00  0.00    -0.338 OA 
BRANCH  16  18
HETATM   18  CA  UNL     1     -11.143  14.927  69.503  1.00  0.00    -0.281 C  
HETATM   19  H2  UNL     1      -9.177  14.529  68.884  1.00  0.00     0.000 HD 
HETATM   20  N   UNL     1      -9.677  14.817  69.725  1.00  0.00    -0.426 NA 
HETATM   21  H1  UNL     1      -9.332  15.701  70.099  1.00  0.00     0.000 HD 
BRANCH  18  22
HETATM   22  C   UNL     1     -11.892  15.232  70.783  1.00  0.00    -0.381 C  
HETATM   23  C   UNL     1     -11.296  15.454  71.976  1.00  0.00    -0.466 C  
HETATM   24  C   UNL     1     -12.038  15.700  73.259  1.00  0.00    -0.600 C  
HETATM   25  C   UNL     1     -13.524  15.559  73.127  1.00  0.00    -0.585 C  
HETATM   26  C   UNL     1     -14.137  15.362  71.950  1.00  0.00    -0.636 C  
HETATM   27  C   UNL     1     -13.402  15.258  70.643  1.00  0.00    -0.320 C  
ENDBRANCH  18  22
ENDBRANCH  16  18
ENDBRANCH  13  14
TORSDOF 3
ENDMDL
MODEL        3
REMARK 921   NORMALIZED FREE ENERGY PREDICTED BY IDOCK:   -6.88 KCAL/MOL
REMARK 922        TOTAL FREE ENERGY PREDICTED BY IDOCK:   -8.74 KCAL/MOL
REMARK 923 INTER-LIGAND FREE ENERGY PREDICTED BY IDOCK:   -8.27 KCAL/MOL
REMARK 924 INTRA-LIGAND FREE ENERGY PREDICTED BY IDOCK:   -0.47 KCAL/MOL
REMARK 927      BINDING AFFINITY PREDICTED BY RF-SCORE:    0.00 PKD
ROOT
HETATM    1  C   UNL     1     -11.792  12.591  66.919  1.00  0.00    -0.334 C  
HETATM    2  S   UNL     1     -10.208  11.986  66.291  1.00  0.00    -0.229 SA 
HETATM    3  C   UNL     1     -10.474  10.311  66.899  1.00  0.00    -0.229 C  
HETATM    4  C   UNL     1     -10.929  10.237  68.344  1.00  0.00    -0.308 C  
HETATM    5  C   UNL     1     -10.534   8.917  68.976  1.00  0.00    -0.231 C  
HETATM    6  CA  UNL     1     -11.570  11.239  69.014  1.00  0.00    -0.319 C  
HETATM    7  N   UNL     1     -11.836  12.410  68.360  1.00  0.00    -0.332 N  
HETATM    8  C   UNL     1     -11.948  11.044  70.476  1.00  0.00    -0.379 C  
HETATM    9  C   UNL     1     -12.161  13.687  68.659  1.00  0.00    -0.290 C  
HETATM   10  O   UNL     1     -12.648  12.033  71.066  1.00  0.00    -0.364 OA 
HETATM   11  OXT UNL     1     -11.723  10.020  71.105  1.00  0.00    -0.345 OA 
HETATM   12  O   UNL     1     -12.455  14.175  69.724  1.00  0.00    -0.332 OA 
HETATM   13  CA  UNL     1     -11.875  14.132  67.180  1.00  0.00    -0.423 C  
ENDROOT
BRANCH  13  14
HETATM   14  N   UNL     1     -10.617  14.879  66.968  1.00  0.00    -0.283 N  
HETATM   15  H   UNL     1      -9.934  14.875  67.726  1.00  0.00     0.000 HD 
HETATM   16  C   UNL     1     -10.295  15.581  65.827  1.00  0.00    -0.363 C  
HETATM   17  O   UNL     1     -11.007  15.614  64.832  1.00  0.00    -0.422 OA 
BRANCH  16  18
HETATM   18  CA  UNL     1      -8.946  16.351  65.961  1.00  0.00    -0.272 C  
HETATM   19  H2  UNL     1      -7.842  14.575  66.149  1.00  0.00     0.000 HD 
HETATM   20  N   UNL     1      -7.951  15.469  66.627  1.00  0.00    -0.305 NA 
HETATM   21  H1  UNL     1      -7.068  15.973  66.715  1.00  0.00     0.000 HD 
BRANCH  18  22
HETATM   22  C   UNL     1      -9.194  17.622  66.746  1.00  0.00    -0.281 C  
HETATM   23  C   UNL     1      -8.520  17.967  67.866  1.00  0.00    -0.251 C  
HETATM   24  C   UNL     1      -8.803  19.199  68.678  1.00  0.00    -0.404 C  
HETATM   25  C   UNL     1      -9.997  19.968  68.201  1.00  0.00    -0.533 C  
HETATM   26  C   UNL     1     -10.666  19.657  67.080  1.00  0.00    -0.587 C  
HETATM   27  C   UNL     1     -10.294  18.506  66.188  1.00  0.00    -0.457 C  
ENDBRANCH  18  22
ENDBRANCH  16  18
ENDBRANCH  13  14
TORSDOF 3
ENDMDL
MODEL        4
REMARK 921   NORMALIZED FREE ENERGY PREDICTED BY IDOCK:   -6.80 KCAL/MOL
REMARK 922        TOTAL FREE ENERGY PREDICTED BY IDOCK:   -8.65 KCAL/MOL
REMARK 923 INTER-LIGAND FREE ENERGY PREDICTED BY IDOCK:   -8.09 KCAL/MOL
REMARK 924 INTRA-LIGAND FREE ENERGY PREDICTED BY IDOCK:   -0.56 KCAL/MOL
REMARK 927      BINDING AFFINITY PREDICTED BY RF-SCORE:    0.00 PKD
ROOT
HETATM    1  C   UNL     1     -10.308  15.113  67.001  1.00  0.00    -0.271 C  
HETATM    2  S   UNL     1      -9.092  13.776  66.930  1.00  0.00    -0.219 SA 
HETATM    3  C   UNL     1      -7.878  14.673  67.914  1.00  0.00    -0.136 C  
HETATM    4  C   UNL     1      -7.637  16.100  67.461  1.00  0.00    -0.173 C  
HETATM    5  C   UNL     1      -6.251  16.572  67.848  1.00  0.00    -0.148 C  
HETATM    6  CA  UNL     1      -8.528  16.855  66.753  1.00  0.00    -0.234 C  
HETATM    7  N   UNL     1      -9.736  16.312  66.413  1.00  0.00    -0.269 N  
HETATM    8  C   UNL     1      -8.148  18.269  66.335  1.00  0.00    -0.258 C  
HETATM    9  C   UNL     1     -10.744  16.545  65.544  1.00  0.00    -0.256 C  
HETATM   10  O   UNL     1      -9.092  18.998  65.708  1.00  0.00    -0.384 OA 
HETATM   11  OXT UNL     1      -7.078  18.794  66.607  1.00  0.00    -0.202 OA 
HETATM   12  O   UNL     1     -10.923  17.490  64.813  1.00  0.00    -0.950 OA 
HETATM   13  CA  UNL     1     -11.363  15.133  65.844  1.00  0.00    -0.225 C  
ENDROOT
BRANCH  13  14
HETATM   14  N   UNL     1     -11.170  14.112  64.793  1.00  0.00    -0.364 N  
HETATM   15  H   UNL     1     -10.307  14.153  64.251  1.00  0.00     0.000 HD 
HETATM   16  C   UNL     1     -12.065  13.110  64.488  1.00  0.00    -0.404 C  
HETATM   17  O   UNL     1     -13.107  12.927  65.104  1.00  0.00    -0.753 OA 
BRANCH  16  18
HETATM   18  CA  UNL     1     -11.618  12.266  63.256  1.00  0.00    -0.351 C  
HETATM   19  H2  UNL     1     -13.590  12.052  62.568  1.00  0.00     0.000 HD 
HETATM   20  N   UNL     1     -12.776  11.471  62.769  1.00  0.00    -0.746 NA 
HETATM   21  H1  UNL     1     -12.483  10.919  61.963  1.00  0.00     0.000 HD 
BRANCH  18  22
HETATM   22  C   UNL     1     -10.458  11.386  63.671  1.00  0.00    -0.472 C  
HETATM   23  C   UNL     1      -9.343  11.200  62.930  1.00  0.00    -0.385 C  
HETATM   24  C   UNL     1      -8.216  10.283  63.313  1.00  0.00    -0.164 C  
HETATM   25  C   UNL     1      -8.489   9.486  64.552  1.00  0.00    -0.191 C  
HETATM   26  C   UNL     1      -9.576   9.671  65.315  1.00  0.00    -0.347 C  
HETATM   27  C   UNL     1     -10.637  10.692  65.008  1.00  0.00    -0.187 C  
ENDBRANCH  18  22
ENDBRANCH  16  18
ENDBRANCH  13  14
TORSDOF 3
ENDMDL
MODEL        5
REMARK 921   NORMALIZED FREE ENERGY PREDICTED BY IDOCK:   -6.78 KCAL/MOL
REMARK 922        TOTAL FREE ENERGY PREDICTED BY IDOCK:   -8.63 KCAL/MOL
REMARK 923 INTER-LIGAND FREE ENERGY PREDICTED BY IDOCK:   -8.22 KCAL/MOL
REMARK 924 INTRA-LIGAND FREE ENERGY PREDICTED BY IDOCK:   -0.41 KCAL/MOL
REMARK 927      BINDING AFFINITY PREDICTED BY RF-SCORE:    0.00 PKD
ROOT
HETATM    1  C   UNL     1      -9.372  11.245  66.847  1.00  0.00    -0.177 C  
HETATM    2  S   UNL     1      -9.767   9.730  65.943  1.00  0.00    -0.281 SA 
HETATM    3  C   UNL     1     -10.277  10.613  64.456  1.00  0.00    -0.329 C  
HETATM    4  C   UNL     1     -11.238  11.758  64.709  1.00  0.00    -0.333 C  
HETATM    5  C   UNL     1     -12.097  12.031  63.490  1.00  0.00    -0.628 C  
HETATM    6  CA  UNL     1     -11.358  12.432  65.890  1.00  0.00    -0.356 C  
HETATM    7  N   UNL     1     -10.564  12.071  66.943  1.00  0.00    -0.223 N  
HETATM    8  C   UNL     1     -12.386  13.547  66.018  1.00  0.00    -0.433 C  
HETATM    9  C   UNL     1     -10.522  12.233  68.284  1.00  0.00    -0.226 C  
HETATM   10  O   UNL     1     -12.408  14.231  67.179  1.00  0.00    -0.360 OA 
HETATM   11  OXT UNL     1     -13.123  13.900  65.109  1.00  0.00    -0.773 OA 
HETATM   12  O   UNL     1     -11.206  12.932  68.994  1.00  0.00    -0.257 OA 
HETATM   13  CA  UNL     1      -9.408  11.134  68.408  1.00  0.00    -0.185 C  
ENDROOT
BRANCH  13  14
HETATM   14  N   UNL     1      -9.852   9.828  68.939  1.00  0.00    -0.166 N  
HETATM   15  H   UNL     1     -10.569   9.326  68.415  1.00  0.00     0.000 HD 
HETATM   16  C   UNL     1      -9.373   9.236  70.088  1.00  0.00    -0.228 C  
HETATM   17  O   UNL     1      -8.476   9.713  70.769  1.00  0.00    -0.245 OA 
BRANCH  16  18
HETATM   18  CA  UNL     1     -10.126   7.915  70.435  1.00  0.00    -0.194 C  
HETATM   19  H2  UNL     1      -9.279   6.894  68.808  1.00  0.00     0.000 HD 
HETATM   20  N   UNL     1     -10.197   7.065  69.217  1.00  0.00    -0.180 NA 
HETATM   21  H1  UNL     1     -10.689   6.201  69.444  1.00  0.00     0.000 HD 
BRANCH  18  22
HETATM   22  C   UNL     1     -11.500   8.269  70.963  1.00  0.00    -0.303 C  
HETATM   23  C   UNL     1     -11.832   9.481  71.462  1.00  0.00    -0.478 C  
HETATM   24  C   UNL     1     -13.178   9.818  72.039  1.00  0.00    -0.557 C  
HETATM   25  C   UNL     1     -14.103   8.642  72.126  1.00  0.00    -0.511 C  
HETATM   26  C   UNL     1     -13.803   7.437  71.616  1.00  0.00    -0.490 C  
HETATM   27  C   UNL     1     -12.510   7.138  70.910  1.00  0.00    -0.302 C  
ENDBRANCH  18  22
ENDBRANCH  16  18
ENDBRANCH  13  14
TORSDOF 3
ENDMDL
MODEL        6
REMARK 921   NORMALIZED FREE ENERGY PREDICTED BY IDOCK:   -6.76 KCAL/MOL
REMARK 922        TOTAL FREE ENERGY PREDICTED BY IDOCK:   -8.60 KCAL/MOL
REMARK 923 INTER-LIGAND FREE ENERGY PREDICTED BY IDOCK:   -8.08 KCAL/MOL
REMARK 924 INTRA-LIGAND FREE ENERGY PREDICTED BY IDOCK:   -0.52 KCAL/MOL
REMARK 927      BINDING AFFINITY PREDICTED BY RF-SCORE:    0.00 PKD
ROOT
HETATM    1  C   UNL     1     -11.635  14.240  68.182  1.00  0.00    -0.332 C  
HETATM    2  S   UNL     1      -9.954  14.541  68.778  1.00  0.00    -0.212 SA 
HETATM    3  C   UNL     1      -9.915  16.234  68.159  1.00  0.00    -0.239 C  
HETATM    4  C   UNL     1     -10.375  16.385  66.722  1.00  0.00    -0.293 C  
HETATM    5  C   UNL     1      -9.752  17.604  66.073  1.00  0.00    -0.155 C  
HETATM    6  CA  UNL     1     -11.204  15.516  66.072  1.00  0.00    -0.107 C  
HETATM    7  N   UNL     1     -11.672  14.419  66.741  1.00  0.00    -0.386 N  
HETATM    8  C   UNL     1     -11.566  15.772  64.616  1.00  0.00    -0.218 C  
HETATM    9  C   UNL     1     -12.235  13.224  66.459  1.00  0.00    -0.327 C  
HETATM   10  O   UNL     1     -12.450  14.929  64.046  1.00  0.00    -0.807 OA 
HETATM   11  OXT UNL     1     -11.166  16.733  63.974  1.00  0.00    -1.089 OA 
HETATM   12  O   UNL     1     -12.635  12.794  65.402  1.00  0.00    -0.607 OA 
HETATM   13  CA  UNL     1     -12.009  12.741  67.935  1.00  0.00    -0.266 C  
ENDROOT
BRANCH  13  14
HETATM   14  N   UNL     1     -10.909  11.773  68.131  1.00  0.00    -0.206 N  
HETATM   15  H   UNL     1     -10.210  11.699  67.392  1.00  0.00     0.000 HD 
HETATM   16  C   UNL     1     -10.755  10.962  69.235  1.00  0.00    -0.231 C  
HETATM   17  O   UNL     1     -11.496  10.998  70.208  1.00  0.00    -0.301 OA 
BRANCH  16  18
HETATM   18  CA  UNL     1      -9.557   9.975  69.086  1.00  0.00    -0.210 C  
HETATM   19  H2  UNL     1      -8.348  11.430  68.176  1.00  0.00     0.000 HD 
HETATM   20  N   UNL     1      -8.653  10.471  68.014  1.00  0.00    -0.119 NA 
HETATM   21  H1  UNL     1      -7.870   9.825  67.917  1.00  0.00     0.000 HD 
BRANCH  18  22
HETATM   22  C   UNL     1     -10.104   8.597  68.776  1.00  0.00    -0.210 C  
HETATM   23  C   UNL     1     -10.336   7.646  69.708  1.00  0.00    -0.223 C  
HETATM   24  C   UNL     1     -10.826   6.260  69.397  1.00  0.00    -0.404 C  
HETATM   25  C   UNL     1     -10.924   5.975  67.929  1.00  0.00    -0.334 C  
HETATM   26  C   UNL     1     -10.721   6.910  66.989  1.00  0.00    -0.432 C  
HETATM   27  C   UNL     1     -10.370   8.337  67.305  1.00  0.00    -0.372 C  
ENDBRANCH  18  22
ENDBRANCH  16  18
ENDBRANCH  13  14
TORSDOF 3
ENDMDL
MODEL        7
REMARK 921   NORMALIZED FREE ENERGY PREDICTED BY IDOCK:   -6.75 KCAL/MOL
REMARK 922        TOTAL FREE ENERGY PREDICTED BY IDOCK:   -8.59 KCAL/MOL
REMARK 923 INTER-LIGAND FREE ENERGY PREDICTED BY IDOCK:   -8.06 KCAL/MOL
REMARK 924 INTRA-LIGAND FREE ENERGY PREDICTED BY IDOCK:   -0.53 KCAL/MOL
REMARK 927      BINDING AFFINITY PREDICTED BY RF-SCORE:    0.00 PKD
ROOT
HETATM    1  C   UNL     1      -9.998  10.957  67.814  1.00  0.00    -0.176 C  
HETATM    2  S   UNL     1     -10.225   9.375  66.967  1.00  0.00    -0.256 SA 
HETATM    3  C   UNL     1     -10.033  10.096  65.326  1.00  0.00    -0.311 C  
HETATM    4  C   UNL     1     -10.863  11.343  65.091  1.00  0.00    -0.302 C  
HETATM    5  C   UNL     1     -11.170  11.527  63.618  1.00  0.00    -0.451 C  
HETATM    6  CA  UNL     1     -11.320  12.174  66.073  1.00  0.00    -0.358 C  
HETATM    7  N   UNL     1     -11.023  11.888  67.376  1.00  0.00    -0.248 N  
HETATM    8  C   UNL     1     -12.170  13.381  65.700  1.00  0.00    -0.463 C  
HETATM    9  C   UNL     1     -11.457  12.220  68.612  1.00  0.00    -0.307 C  
HETATM   10  O   UNL     1     -12.528  14.211  66.699  1.00  0.00    -0.426 OA 
HETATM   11  OXT UNL     1     -12.469  13.673  64.550  1.00  0.00    -0.565 OA 
HETATM   12  O   UNL     1     -12.258  13.063  68.943  1.00  0.00    -0.232 OA 
HETATM   13  CA  UNL     1     -10.619  11.055  69.248  1.00  0.00    -0.201 C  
ENDROOT
BRANCH  13  14
HETATM   14  N   UNL     1     -11.393   9.874  69.685  1.00  0.00    -0.387 N  
HETATM   15  H   UNL     1     -12.129   9.538  69.064  1.00  0.00     0.000 HD 
HETATM   16  C   UNL     1     -11.197   9.191  70.865  1.00  0.00    -0.295 C  
HETATM   17  O   UNL     1     -10.311   9.464  71.663  1.00  0.00    -0.309 OA 
BRANCH  16  18
HETATM   18  CA  UNL     1     -12.250   8.061  71.081  1.00  0.00    -0.245 C  
HETATM   19  H2  UNL     1     -13.381   9.237  72.401  1.00  0.00     0.000 HD 
HETATM   20  N   UNL     1     -12.966   8.307  72.361  1.00  0.00    -0.561 NA 
HETATM   21  H1  UNL     1     -13.654   7.567  72.502  1.00  0.00     0.000 HD 
BRANCH  18  22
HETATM   22  C   UNL     1     -11.531   6.728  71.079  1.00  0.00    -0.372 C  
HETATM   23  C   UNL     1     -11.277   6.000  72.190  1.00  0.00    -0.341 C  
HETATM   24  C   UNL     1     -10.515   4.705  72.197  1.00  0.00    -0.219 C  
HETATM   25  C   UNL     1      -9.944   4.340  70.860  1.00  0.00    -0.225 C  
HETATM   26  C   UNL     1     -10.202   5.035  69.741  1.00  0.00    -0.336 C  
HETATM   27  C   UNL     1     -11.084   6.251  69.709  1.00  0.00    -0.473 C  
ENDBRANCH  18  22
ENDBRANCH  16  18
ENDBRANCH  13  14
TORSDOF 3
ENDMDL
MODEL        8
REMARK 921   NORMALIZED FREE ENERGY PREDICTED BY IDOCK:   -6.69 KCAL/MOL
REMARK 922        TOTAL FREE ENERGY PREDICTED BY IDOCK:   -8.52 KCAL/MOL
REMARK 923 INTER-LIGAND FREE ENERGY PREDICTED BY IDOCK:   -8.20 KCAL/MOL
REMARK 924 INTRA-LIGAND FREE ENERGY PREDICTED BY IDOCK:   -0.32 KCAL/MOL
REMARK 927      BINDING AFFINITY PREDICTED BY RF-SCORE:    0.00 PKD
ROOT
HETATM    1  C   UNL     1      -9.866  15.889  68.607  1.00  0.00    -0.212 C  
HETATM    2  S   UNL     1      -8.535  14.726  68.228  1.00  0.00    -0.158 SA 
HETATM    3  C   UNL     1      -7.353  15.546  69.314  1.00  0.00    -0.202 C  
HETATM    4  C   UNL     1      -7.280  17.050  69.134  1.00  0.00    -0.209 C  
HETATM    5  C   UNL     1      -5.924  17.586  69.546  1.00  0.00    -0.246 C  
HETATM    6  CA  UNL     1      -8.281  17.826  68.624  1.00  0.00    -0.271 C  
HETATM    7  N   UNL     1      -9.450  17.231  68.238  1.00  0.00    -0.273 N  
HETATM    8  C   UNL     1      -8.066  19.325  68.470  1.00  0.00    -0.366 C  
HETATM    9  C   UNL     1     -10.528  17.514  67.473  1.00  0.00    -0.355 C  
HETATM   10  O   UNL     1      -9.113  20.054  68.037  1.00  0.00    -0.322 OA 
HETATM   11  OXT UNL     1      -7.037  19.901  68.793  1.00  0.00    -0.325 OA 
HETATM   12  O   UNL     1     -10.843  18.555  66.947  1.00  0.00    -0.337 OA 
HETATM   13  CA  UNL     1     -10.988  16.013  67.523  1.00  0.00    -0.261 C  
ENDROOT
BRANCH  13  14
HETATM   14  N   UNL     1     -10.764  15.234  66.287  1.00  0.00    -0.310 N  
HETATM   15  H   UNL     1      -9.849  15.310  65.842  1.00  0.00     0.000 HD 
HETATM   16  C   UNL     1     -11.694  14.412  65.689  1.00  0.00    -0.356 C  
HETATM   17  O   UNL     1     -12.804  14.198  66.157  1.00  0.00    -0.377 OA 
BRANCH  16  18
HETATM   18  CA  UNL     1     -11.186  13.820  64.339  1.00  0.00    -0.352 C  
HETATM   19  H2  UNL     1     -12.696  14.779  63.241  1.00  0.00     0.000 HD 
HETATM   20  N   UNL     1     -12.297  13.847  63.351  1.00  0.00    -1.139 NA 
HETATM   21  H1  UNL     1     -11.964  13.460  62.468  1.00  0.00     0.000 HD 
BRANCH  18  22
HETATM   22  C   UNL     1     -10.682  12.414  64.590  1.00  0.00    -0.339 C  
HETATM   23  C   UNL     1     -10.667  11.819  65.803  1.00  0.00    -0.328 C  
HETATM   24  C   UNL     1     -10.116  10.446  66.065  1.00  0.00    -0.307 C  
HETATM   25  C   UNL     1      -9.461   9.826  64.868  1.00  0.00    -0.331 C  
HETATM   26  C   UNL     1      -9.485  10.388  63.650  1.00  0.00    -0.353 C  
HETATM   27  C   UNL     1     -10.163  11.698  63.357  1.00  0.00    -0.471 C  
ENDBRANCH  18  22
ENDBRANCH  16  18
ENDBRANCH  13  14
TORSDOF 3
ENDMDL
MODEL        9
REMARK 921   NORMALIZED FREE ENERGY PREDICTED BY IDOCK:   -6.63 KCAL/MOL
REMARK 922        TOTAL FREE ENERGY PREDICTED BY IDOCK:   -8.45 KCAL/MOL
REMARK 923 INTER-LIGAND FREE ENERGY PREDICTED BY IDOCK:   -8.15 KCAL/MOL
REMARK 924 INTRA-LIGAND FREE ENERGY PREDICTED BY IDOCK:   -0.31 KCAL/MOL
REMARK 927      BINDING AFFINITY PREDICTED BY RF-SCORE:    0.00 PKD
ROOT
HETATM    1  C   UNL     1     -12.007  14.312  67.603  1.00  0.00    -0.365 C  
HETATM    2  S   UNL     1     -10.811  14.252  68.958  1.00  0.00    -0.244 SA 
HETATM    3  C   UNL     1     -10.844  16.034  69.220  1.00  0.00    -0.300 C  
HETATM    4  C   UNL     1     -10.692  16.855  67.954  1.00  0.00    -0.344 C  
HETATM    5  C   UNL     1     -10.101  18.219  68.252  1.00  0.00    -0.406 C  
HETATM    6  CA  UNL     1     -10.998  16.417  66.698  1.00  0.00     0.024 C  
HETATM    7  N   UNL     1     -11.481  15.148  66.537  1.00  0.00    -0.239 N  
HETATM    8  C   UNL     1     -10.771  17.336  65.505  1.00  0.00    -0.100 C  
HETATM    9  C   UNL     1     -11.640  14.241  65.548  1.00  0.00    -0.338 C  
HETATM   10  O   UNL     1     -11.163  16.883  64.298  1.00  0.00    -1.204 OA 
HETATM   11  OXT UNL     1     -10.333  18.474  65.598  1.00  0.00    -0.594 OA 
HETATM   12  O   UNL     1     -11.480  14.368  64.357  1.00  0.00    -0.354 OA 
HETATM   13  CA  UNL     1     -11.954  13.115  66.596  1.00  0.00    -0.389 C  
ENDROOT
BRANCH  13  14
HETATM   14  N   UNL     1     -10.870  12.138  66.831  1.00  0.00    -0.239 N  
HETATM   15  H   UNL     1      -9.984  12.295  66.351  1.00  0.00     0.000 HD 
HETATM   16  C   UNL     1     -10.963  11.032  67.647  1.00  0.00    -0.275 C  
HETATM   17  O   UNL     1     -11.954  10.769  68.316  1.00  0.00    -0.520 OA 
BRANCH  16  18
HETATM   18  CA  UNL     1      -9.684  10.142  67.593  1.00  0.00    -0.161 C  
HETATM   19  H2  UNL     1      -8.932  11.159  65.918  1.00  0.00     0.000 HD 
HETATM   20  N   UNL     1      -9.111  10.202  66.223  1.00  0.00    -0.151 NA 
HETATM   21  H1  UNL     1      -8.275   9.620  66.188  1.00  0.00     0.000 HD 
BRANCH  18  22
HETATM   22  C   UNL     1     -10.064   8.730  67.989  1.00  0.00    -0.241 C  
HETATM   23  C   UNL     1     -10.565   7.811  67.134  1.00  0.00    -0.401 C  
HETATM   24  C   UNL     1     -10.996   6.429  67.535  1.00  0.00    -0.454 C  
HETATM   25  C   UNL     1     -10.935   6.189  69.014  1.00  0.00    -0.436 C  
HETATM   26  C   UNL     1     -10.420   7.078  69.877  1.00  0.00    -0.234 C  
HETATM   27  C   UNL     1      -9.856   8.406  69.457  1.00  0.00    -0.181 C  
ENDBRANCH  18  22
ENDBRANCH  16  18
ENDBRANCH  13  14
TORSDOF 3
ENDMDL
MODEL       10
REMARK 921   NORMALIZED FREE ENERGY PREDICTED BY IDOCK:   -6.48 KCAL/MOL
REMARK 922        TOTAL FREE ENERGY PREDICTED BY IDOCK:   -8.27 KCAL/MOL
REMARK 923 INTER-LIGAND FREE ENERGY PREDICTED BY IDOCK:   -8.02 KCAL/MOL
REMARK 924 INTRA-LIGAND FREE ENERGY PREDICTED BY IDOCK:   -0.25 KCAL/MOL
REMARK 927      BINDING AFFINITY PREDICTED BY RF-SCORE:    0.00 PKD
ROOT
HETATM    1  C   UNL     1     -11.726  14.428  67.805  1.00  0.00    -0.376 C  
HETATM    2  S   UNL     1     -10.328  14.145  68.916  1.00  0.00    -0.152 SA 
HETATM    3  C   UNL     1     -10.104  15.898  69.268  1.00  0.00    -0.249 C  
HETATM    4  C   UNL     1     -10.079  16.784  68.038  1.00  0.00    -0.284 C  
HETATM    5  C   UNL     1      -9.289  18.052  68.291  1.00  0.00    -0.299 C  
HETATM    6  CA  UNL     1     -10.649  16.470  66.837  1.00  0.00    -0.238 C  
HETATM    7  N   UNL     1     -11.300  15.275  66.704  1.00  0.00    -0.236 N  
HETATM    8  C   UNL     1     -10.526  17.440  65.671  1.00  0.00    -0.165 C  
HETATM    9  C   UNL     1     -11.734  14.461  65.717  1.00  0.00    -0.362 C  
HETATM   10  O   UNL     1     -11.174  17.118  64.534  1.00  0.00    -1.104 OA 
HETATM   11  OXT UNL     1      -9.948  18.516  65.739  1.00  0.00    -0.515 OA 
HETATM   12  O   UNL     1     -11.770  14.654  64.524  1.00  0.00    -0.412 OA 
HETATM   13  CA  UNL     1     -11.991  13.305  66.747  1.00  0.00    -0.382 C  
ENDROOT
BRANCH  13  14
HETATM   14  N   UNL     1     -11.006  12.203  66.733  1.00  0.00    -0.266 N  
HETATM   15  H   UNL     1     -10.187  12.312  66.134  1.00  0.00     0.000 HD 
HETATM   16  C   UNL     1     -11.107  11.041  67.465  1.00  0.00    -0.302 C  
HETATM   17  O   UNL     1     -12.012  10.820  68.258  1.00  0.00    -0.520 OA 
BRANCH  16  18
HETATM   18  CA  UNL     1      -9.962  10.032  67.143  1.00  0.00    -0.201 C  
HETATM   19  H2  UNL     1      -9.790  10.714  65.165  1.00  0.00     0.000 HD 
HETATM   20  N   UNL     1      -9.893   9.834  65.671  1.00  0.00    -0.296 NA 
HETATM   21  H1  UNL     1      -9.144   9.174  65.461  1.00  0.00     0.000 HD 
BRANCH  18  22
HETATM   22  C   UNL     1     -10.241   8.738  67.879  1.00  0.00    -0.272 C  
HETATM   23  C   UNL     1      -9.963   8.532  69.185  1.00  0.00    -0.194 C  
HETATM   24  C   UNL     1     -10.186   7.231  69.903  1.00  0.00    -0.210 C  
HETATM   25  C   UNL     1     -10.640   6.122  69.003  1.00  0.00    -0.341 C  
HETATM   26  C   UNL     1     -10.945   6.309  67.710  1.00  0.00    -0.427 C  
HETATM   27  C   UNL     1     -10.858   7.645  67.026  1.00  0.00    -0.219 C  
ENDBRANCH  18  22
ENDBRANCH  16  18
ENDBRANCH  13  14
TORSDOF 3
ENDMDL
MODEL       11
REMARK 921   NORMALIZED FREE ENERGY PREDICTED BY IDOCK:   -6.47 KCAL/MOL
REMARK 922        TOTAL FREE ENERGY PREDICTED BY IDOCK:   -8.26 KCAL/MOL
REMARK 923 INTER-LIGAND FREE ENERGY PREDICTED BY IDOCK:   -7.91 KCAL/MOL
REMARK 924 INTRA-LIGAND FREE ENERGY PREDICTED BY IDOCK:   -0.35 KCAL/MOL
REMARK 927      BINDING AFFINITY PREDICTED BY RF-SCORE:    0.00 PKD
ROOT
HETATM    1  C   UNL     1     -11.353  13.363  67.560  1.00  0.00    -0.298 C  
HETATM    2  S   UNL     1      -9.579  13.416  67.906  1.00  0.00    -0.222 SA 
HETATM    3  C   UNL     1      -9.471  15.201  67.682  1.00  0.00    -0.201 C  
HETATM    4  C   UNL     1     -10.133  15.713  66.418  1.00  0.00    -0.301 C  
HETATM    5  C   UNL     1      -9.504  17.013  65.957  1.00  0.00    -0.195 C  
HETATM    6  CA  UNL     1     -11.135  15.073  65.745  1.00  0.00    -0.346 C  
HETATM    7  N   UNL     1     -11.597  13.879  66.224  1.00  0.00    -0.349 N  
HETATM    8  C   UNL     1     -11.693  15.685  64.468  1.00  0.00    -0.220 C  
HETATM    9  C   UNL     1     -12.311  12.819  65.786  1.00  0.00    -0.323 C  
HETATM   10  O   UNL     1     -12.733  15.054  63.889  1.00  0.00    -0.775 OA 
HETATM   11  OXT UNL     1     -11.306  16.745  63.997  1.00  0.00    -1.153 OA 
HETATM   12  O   UNL     1     -12.911  12.675  64.747  1.00  0.00    -0.816 OA 
HETATM   13  CA  UNL     1     -11.906  11.989  67.056  1.00  0.00    -0.176 C  
ENDROOT
BRANCH  13  14
HETATM   14  N   UNL     1     -10.889  10.939  66.837  1.00  0.00    -0.266 N  
HETATM   15  H   UNL     1     -10.408  10.931  65.938  1.00  0.00     0.000 HD 
HETATM   16  C   UNL     1     -10.541   9.970  67.752  1.00  0.00    -0.261 C  
HETATM   17  O   UNL     1     -11.008   9.910  68.882  1.00  0.00    -0.220 OA 
BRANCH  16  18
HETATM   18  CA  UNL     1      -9.517   8.945  67.175  1.00  0.00    -0.157 C  
HETATM   19  H2  UNL     1      -9.843   9.587  65.203  1.00  0.00     0.000 HD 
HETATM   20  N   UNL     1      -9.819   8.719  65.737  1.00  0.00    -0.458 NA 
HETATM   21  H1  UNL     1      -9.150   8.048  65.360  1.00  0.00     0.000 HD 
BRANCH  18  22
HETATM   22  C   UNL     1      -9.608   7.668  67.983  1.00  0.00    -0.159 C  
HETATM   23  C   UNL     1     -10.611   6.768  67.871  1.00  0.00    -0.296 C  
HETATM   24  C   UNL     1     -10.734   5.529  68.711  1.00  0.00    -0.195 C  
HETATM   25  C   UNL     1      -9.696   5.432  69.789  1.00  0.00    -0.248 C  
HETATM   26  C   UNL     1      -8.680   6.300  69.904  1.00  0.00    -0.141 C  
HETATM   27  C   UNL     1      -8.475   7.461  68.972  1.00  0.00    -0.129 C  
ENDBRANCH  18  22
ENDBRANCH  16  18
ENDBRANCH  13  14
TORSDOF 3
ENDMDL
MODEL       12
REMARK 921   NORMALIZED FREE ENERGY PREDICTED BY IDOCK:   -6.40 KCAL/MOL
REMARK 922        TOTAL FREE ENERGY PREDICTED BY IDOCK:   -8.18 KCAL/MOL
REMARK 923 INTER-LIGAND FREE ENERGY PREDICTED BY IDOCK:   -7.64 KCAL/MOL
REMARK 924 INTRA-LIGAND FREE ENERGY PREDICTED BY IDOCK:   -0.55 KCAL/MOL
REMARK 927      BINDING AFFINITY PREDICTED BY RF-SCORE:    0.00 PKD
ROOT
HETATM    1  C   UNL     1      -9.850  11.165  67.625  1.00  0.00    -0.174 C  
HETATM    2  S   UNL     1      -9.950   9.543  66.833  1.00  0.00    -0.234 SA 
HETATM    3  C   UNL     1      -9.744  10.213  65.173  1.00  0.00    -0.304 C  
HETATM    4  C   UNL     1     -10.639  11.397  64.861  1.00  0.00    -0.368 C  
HETATM    5  C   UNL     1     -10.904  11.508  63.373  1.00  0.00    -0.423 C  
HETATM    6  CA  UNL     1     -11.181  12.233  65.795  1.00  0.00    -0.337 C  
HETATM    7  N   UNL     1     -10.914  12.013  67.118  1.00  0.00    -0.255 N  
HETATM    8  C   UNL     1     -12.089  13.371  65.348  1.00  0.00    -0.421 C  
HETATM    9  C   UNL     1     -11.412  12.363  68.325  1.00  0.00    -0.310 C  
HETATM   10  O   UNL     1     -12.533  14.213  66.301  1.00  0.00    -0.466 OA 
HETATM   11  OXT UNL     1     -12.364  13.602  64.179  1.00  0.00    -0.592 OA 
HETATM   12  O   UNL     1     -12.273  13.166  68.596  1.00  0.00    -0.252 OA 
HETATM   13  CA  UNL     1     -10.527  11.276  69.032  1.00  0.00    -0.194 C  
ENDROOT
BRANCH  13  14
HETATM   14  N   UNL     1     -11.243  10.066  69.488  1.00  0.00    -0.320 N  
HETATM   15  H   UNL     1     -11.142   9.220  68.927  1.00  0.00     0.000 HD 
HETATM   16  C   UNL     1     -12.036   9.990  70.612  1.00  0.00    -0.292 C  
HETATM   17  O   UNL     1     -12.190  10.921  71.393  1.00  0.00    -0.315 OA 
BRANCH  16  18
HETATM   18  CA  UNL     1     -12.738   8.606  70.755  1.00  0.00     0.233 C  
HETATM   19  H2  UNL     1     -14.633   9.483  70.974  1.00  0.00     0.000 HD 
HETATM   20  N   UNL     1     -14.043   8.794  71.442  1.00  0.00    -0.546 NA 
HETATM   21  H1  UNL     1     -14.502   7.888  71.535  1.00  0.00     0.000 HD 
BRANCH  18  22
HETATM   22  C   UNL     1     -11.820   7.678  71.523  1.00  0.00    -0.323 C  
HETATM   23  C   UNL     1     -11.406   7.898  72.790  1.00  0.00    -0.453 C  
HETATM   24  C   UNL     1     -10.450   7.009  73.534  1.00  0.00    -0.413 C  
HETATM   25  C   UNL     1      -9.889   5.900  72.696  1.00  0.00    -0.180 C  
HETATM   26  C   UNL     1     -10.302   5.650  71.444  1.00  0.00    -0.287 C  
HETATM   27  C   UNL     1     -11.365   6.454  70.749  1.00  0.00    -0.411 C  
ENDBRANCH  18  22
ENDBRANCH  16  18
ENDBRANCH  13  14
TORSDOF 3
ENDMDL
MODEL       13
REMARK 921   NORMALIZED FREE ENERGY PREDICTED BY IDOCK:   -6.39 KCAL/MOL
REMARK 922        TOTAL FREE ENERGY PREDICTED BY IDOCK:   -8.17 KCAL/MOL
REMARK 923 INTER-LIGAND FREE ENERGY PREDICTED BY IDOCK:   -7.51 KCAL/MOL
REMARK 924 INTRA-LIGAND FREE ENERGY PREDICTED BY IDOCK:   -0.66 KCAL/MOL
REMARK 927      BINDING AFFINITY PREDICTED BY RF-SCORE:    0.00 PKD
ROOT
HETATM    1  C   UNL     1     -11.977  13.682  66.281  1.00  0.00    -0.423 C  
HETATM    2  S   UNL     1     -12.042  14.466  64.653  1.00  0.00    -0.469 SA 
HETATM    3  C   UNL     1     -11.846  12.908  63.767  1.00  0.00    -0.504 C  
HETATM    4  C   UNL     1     -10.712  12.040  64.276  1.00  0.00    -0.382 C  
HETATM    5  C   UNL     1     -10.188  11.127  63.185  1.00  0.00    -0.347 C  
HETATM    6  CA  UNL     1     -10.189  12.096  65.537  1.00  0.00    -0.265 C  
HETATM    7  N   UNL     1     -10.707  12.992  66.430  1.00  0.00    -0.280 N  
HETATM    8  C   UNL     1      -9.029  11.184  65.910  1.00  0.00    -0.199 C  
HETATM    9  C   UNL     1     -10.362  13.572  67.601  1.00  0.00    -0.239 C  
HETATM   10  O   UNL     1      -8.604  11.224  67.188  1.00  0.00    -0.139 OA 
HETATM   11  OXT UNL     1      -8.527  10.374  65.144  1.00  0.00    -0.165 OA 
HETATM   12  O   UNL     1      -9.426  13.334  68.327  1.00  0.00    -0.214 OA 
HETATM   13  CA  UNL     1     -11.534  14.607  67.463  1.00  0.00    -0.361 C  
ENDROOT
BRANCH  13  14
HETATM   14  N   UNL     1     -11.135  15.978  67.079  1.00  0.00    -0.154 N  
HETATM   15  H   UNL     1     -11.128  16.204  66.084  1.00  0.00     0.000 HD 
HETATM   16  C   UNL     1     -10.772  16.974  67.959  1.00  0.00    -0.365 C  
HETATM   17  O   UNL     1     -10.794  16.839  69.176  1.00  0.00    -0.324 OA 
BRANCH  16  18
HETATM   18  CA  UNL     1     -10.299  18.269  67.232  1.00  0.00    -0.390 C  
HETATM   19  H2  UNL     1     -11.395  17.811  65.501  1.00  0.00     0.000 HD 
HETATM   20  N   UNL     1     -10.447  18.081  65.765  1.00  0.00    -0.601 NA 
HETATM   21  H1  UNL     1     -10.138  18.928  65.289  1.00  0.00     0.000 HD 
BRANCH  18  22
HETATM   22  C   UNL     1      -8.864  18.546  67.628  1.00  0.00    -0.284 C  
HETATM   23  C   UNL     1      -8.490  19.506  68.505  1.00  0.00    -0.374 C  
HETATM   24  C   UNL     1      -7.064  19.820  68.856  1.00  0.00    -0.358 C  
HETATM   25  C   UNL     1      -6.065  19.047  68.049  1.00  0.00    -0.228 C  
HETATM   26  C   UNL     1      -6.413  18.076  67.193  1.00  0.00    -0.193 C  
HETATM   27  C   UNL     1      -7.837  17.662  66.947  1.00  0.00    -0.252 C  
ENDBRANCH  18  22
ENDBRANCH  16  18
ENDBRANCH  13  14
TORSDOF 3
ENDMDL
MODEL       14
REMARK 921   NORMALIZED FREE ENERGY PREDICTED BY IDOCK:   -6.39 KCAL/MOL
REMARK 922        TOTAL FREE ENERGY PREDICTED BY IDOCK:   -8.17 KCAL/MOL
REMARK 923 INTER-LIGAND FREE ENERGY PREDICTED BY IDOCK:   -7.49 KCAL/MOL
REMARK 924 INTRA-LIGAND FREE ENERGY PREDICTED BY IDOCK:   -0.68 KCAL/MOL
REMARK 927      BINDING AFFINITY PREDICTED BY RF-SCORE:    0.00 PKD
ROOT
HETATM    1  C   UNL     1      -8.179  15.772  69.099  1.00  0.00    -0.247 C  
HETATM    2  S   UNL     1      -7.194  14.580  68.161  1.00  0.00    -0.148 SA 
HETATM    3  C   UNL     1      -6.073  15.837  67.519  1.00  0.00    -0.133 C  
HETATM    4  C   UNL     1      -6.767  17.053  66.935  1.00  0.00    -0.252 C  
HETATM    5  C   UNL     1      -5.901  17.729  65.890  1.00  0.00    -0.215 C  
HETATM    6  CA  UNL     1      -8.025  17.468  67.264  1.00  0.00    -0.205 C  
HETATM    7  N   UNL     1      -8.739  16.755  68.187  1.00  0.00    -0.212 N  
HETATM    8  C   UNL     1      -8.615  18.693  66.580  1.00  0.00    -0.297 C  
HETATM    9  C   UNL     1     -10.021  16.615  68.590  1.00  0.00    -0.261 C  
HETATM   10  O   UNL     1      -9.828  19.106  66.998  1.00  0.00    -0.311 OA 
HETATM   11  OXT UNL     1      -8.020  19.357  65.743  1.00  0.00    -0.432 OA 
HETATM   12  O   UNL     1     -10.997  17.255  68.278  1.00  0.00    -0.336 OA 
HETATM   13  CA  UNL     1      -9.647  15.336  69.421  1.00  0.00    -0.244 C  
ENDROOT
BRANCH  13  14
HETATM   14  N   UNL     1     -10.068  14.047  68.834  1.00  0.00    -0.383 N  
HETATM   15  H   UNL     1      -9.347  13.468  68.404  1.00  0.00     0.000 HD 
HETATM   16  C   UNL     1     -11.359  13.565  68.823  1.00  0.00    -0.290 C  
HETATM   17  O   UNL     1     -12.298  14.141  69.355  1.00  0.00    -0.326 OA 
BRANCH  16  18
HETATM   18  CA  UNL     1     -11.489  12.228  68.030  1.00  0.00    -0.321 C  
HETATM   19  H2  UNL     1     -10.256  11.197  69.379  1.00  0.00     0.000 HD 
HETATM   20  N   UNL     1     -10.342  11.348  68.374  1.00  0.00    -0.188 NA 
HETATM   21  H1  UNL     1     -10.428  10.474  67.855  1.00  0.00     0.000 HD 
BRANCH  18  22
HETATM   22  C   UNL     1     -11.536  12.550  66.551  1.00  0.00    -0.418 C  
HETATM   23  C   UNL     1     -12.145  13.639  66.029  1.00  0.00    -0.480 C  
HETATM   24  C   UNL     1     -12.241  13.931  64.559  1.00  0.00    -0.451 C  
HETATM   25  C   UNL     1     -11.699  12.833  63.694  1.00  0.00    -0.587 C  
HETATM   26  C   UNL     1     -11.070  11.756  64.190  1.00  0.00    -0.442 C  
HETATM   27  C   UNL     1     -10.847  11.534  65.659  1.00  0.00    -0.310 C  
ENDBRANCH  18  22
ENDBRANCH  16  18
ENDBRANCH  13  14
TORSDOF 3
ENDMDL
MODEL       15
REMARK 921   NORMALIZED FREE ENERGY PREDICTED BY IDOCK:   -6.36 KCAL/MOL
REMARK 922        TOTAL FREE ENERGY PREDICTED BY IDOCK:   -8.13 KCAL/MOL
REMARK 923 INTER-LIGAND FREE ENERGY PREDICTED BY IDOCK:   -7.77 KCAL/MOL
REMARK 924 INTRA-LIGAND FREE ENERGY PREDICTED BY IDOCK:   -0.37 KCAL/MOL
REMARK 927      BINDING AFFINITY PREDICTED BY RF-SCORE:    0.00 PKD
ROOT
HETATM    1  C   UNL     1     -12.025  14.676  68.535  1.00  0.00    -0.263 C  
HETATM    2  S   UNL     1     -10.963  14.875  69.985  1.00  0.00    -0.165 SA 
HETATM    3  C   UNL     1     -10.825  16.660  69.782  1.00  0.00    -0.237 C  
HETATM    4  C   UNL     1     -10.477  17.103  68.374  1.00  0.00    -0.376 C  
HETATM    5  C   UNL     1      -9.770  18.444  68.380  1.00  0.00    -0.379 C  
HETATM    6  CA  UNL     1     -10.721  16.377  67.244  1.00  0.00    -0.257 C  
HETATM    7  N   UNL     1     -11.324  15.155  67.357  1.00  0.00    -0.327 N  
HETATM    8  C   UNL     1     -10.295  16.929  65.890  1.00  0.00    -0.315 C  
HETATM    9  C   UNL     1     -11.494  14.036  66.619  1.00  0.00    -0.364 C  
HETATM   10  O   UNL     1     -10.630  16.209  64.801  1.00  0.00    -0.630 OA 
HETATM   11  OXT UNL     1      -9.746  18.011  65.739  1.00  0.00    -0.521 OA 
HETATM   12  O   UNL     1     -11.221  13.833  65.460  1.00  0.00    -0.296 OA 
HETATM   13  CA  UNL     1     -12.017  13.255  67.877  1.00  0.00    -0.309 C  
ENDROOT
BRANCH  13  14
HETATM   14  N   UNL     1     -11.069  12.288  68.470  1.00  0.00    -0.232 N  
HETATM   15  H   UNL     1     -10.073  12.491  68.381  1.00  0.00     0.000 HD 
HETATM   16  C   UNL     1     -11.425  11.134  69.133  1.00  0.00    -0.298 C  
HETATM   17  O   UNL     1     -12.586  10.812  69.350  1.00  0.00    -0.314 OA 
BRANCH  16  18
HETATM   18  CA  UNL     1     -10.190  10.275  69.540  1.00  0.00    -0.236 C  
HETATM   19  H2  UNL     1      -9.090  10.890  67.861  1.00  0.00     0.000 HD 
HETATM   20  N   UNL     1      -9.356  10.026  68.334  1.00  0.00    -0.136 NA 
HETATM   21  H1  UNL     1      -8.548   9.464  68.600  1.00  0.00     0.000 HD 
BRANCH  18  22
HETATM   22  C   UNL     1     -10.685   8.987  70.164  1.00  0.00    -0.258 C  
HETATM   23  C   UNL     1     -10.892   7.841  69.478  1.00  0.00    -0.157 C  
HETATM   24  C   UNL     1     -11.436   6.579  70.084  1.00  0.00    -0.477 C  
HETATM   25  C   UNL     1     -11.853   6.734  71.515  1.00  0.00    -0.378 C  
HETATM   26  C   UNL     1     -11.635   7.854  72.222  1.00  0.00    -0.406 C  
HETATM   27  C   UNL     1     -10.958   9.070  71.655  1.00  0.00    -0.435 C  
ENDBRANCH  18  22
ENDBRANCH  16  18
ENDBRANCH  13  14
TORSDOF 3
ENDMDL
MODEL       16
REMARK 921   NORMALIZED FREE ENERGY PREDICTED BY IDOCK:   -6.34 KCAL/MOL
REMARK 922        TOTAL FREE ENERGY PREDICTED BY IDOCK:   -8.11 KCAL/MOL
REMARK 923 INTER-LIGAND FREE ENERGY PREDICTED BY IDOCK:   -7.86 KCAL/MOL
REMARK 924 INTRA-LIGAND FREE ENERGY PREDICTED BY IDOCK:   -0.25 KCAL/MOL
REMARK 927      BINDING AFFINITY PREDICTED BY RF-SCORE:    0.00 PKD
ROOT
HETATM    1  C   UNL     1     -10.572  15.690  67.501  1.00  0.00    -0.297 C  
HETATM    2  S   UNL     1      -9.153  14.692  68.011  1.00  0.00    -0.195 SA 
HETATM    3  C   UNL     1      -8.391  16.040  68.933  1.00  0.00    -0.231 C  
HETATM    4  C   UNL     1      -8.312  17.350  68.174  1.00  0.00    -0.240 C  
HETATM    5  C   UNL     1      -7.167  18.207  68.675  1.00  0.00    -0.288 C  
HETATM    6  CA  UNL     1      -9.130  17.704  67.140  1.00  0.00    -0.244 C  
HETATM    7  N   UNL     1     -10.104  16.834  66.736  1.00  0.00    -0.285 N  
HETATM    8  C   UNL     1      -8.925  19.043  66.444  1.00  0.00    -0.324 C  
HETATM    9  C   UNL     1     -10.901  16.629  65.664  1.00  0.00    -0.137 C  
HETATM   10  O   UNL     1      -9.809  19.376  65.483  1.00  0.00    -0.297 OA 
HETATM   11  OXT UNL     1      -8.064  19.850  66.763  1.00  0.00    -0.290 OA 
HETATM   12  O   UNL     1     -11.070  17.325  64.690  1.00  0.00    -1.052 OA 
HETATM   13  CA  UNL     1     -11.307  15.212  66.204  1.00  0.00    -0.220 C  
ENDROOT
BRANCH  13  14
HETATM   14  N   UNL     1     -10.688  14.062  65.513  1.00  0.00    -0.300 N  
HETATM   15  H   UNL     1      -9.748  14.188  65.139  1.00  0.00     0.000 HD 
HETATM   16  C   UNL     1     -11.283  12.832  65.333  1.00  0.00    -0.292 C  
HETATM   17  O   UNL     1     -12.384  12.543  65.783  1.00  0.00    -0.627 OA 
BRANCH  16  18
HETATM   18  CA  UNL     1     -10.413  11.870  64.467  1.00  0.00    -0.296 C  
HETATM   19  H2  UNL     1     -11.612  12.161  62.769  1.00  0.00     0.000 HD 
HETATM   20  N   UNL     1     -11.222  11.393  63.315  1.00  0.00    -0.838 NA 
HETATM   21  H1  UNL     1     -10.652  10.764  62.749  1.00  0.00     0.000 HD 
BRANCH  18  22
HETATM   22  C   UNL     1      -9.942  10.728  65.344  1.00  0.00    -0.330 C  
HETATM   23  C   UNL     1     -10.125  10.673  66.682  1.00  0.00    -0.270 C  
HETATM   24  C   UNL     1      -9.610   9.569  67.561  1.00  0.00    -0.176 C  
HETATM   25  C   UNL     1      -8.756   8.575  66.834  1.00  0.00    -0.137 C  
HETATM   26  C   UNL     1      -8.580   8.597  65.504  1.00  0.00    -0.200 C  
HETATM   27  C   UNL     1      -9.214   9.621  64.604  1.00  0.00    -0.293 C  
ENDBRANCH  18  22
ENDBRANCH  16  18
ENDBRANCH  13  14
TORSDOF 3
ENDMDL
MODEL       17
REMARK 921   NORMALIZED FREE ENERGY PREDICTED BY IDOCK:   -6.31 KCAL/MOL
REMARK 922        TOTAL FREE ENERGY PREDICTED BY IDOCK:   -8.07 KCAL/MOL
REMARK 923 INTER-LIGAND FREE ENERGY PREDICTED BY IDOCK:   -7.53 KCAL/MOL
REMARK 924 INTRA-LIGAND FREE ENERGY PREDICTED BY IDOCK:   -0.54 KCAL/MOL
REMARK 927      BINDING AFFINITY PREDICTED BY RF-SCORE:    0.00 PKD
ROOT
HETATM    1  C   UNL     1     -11.602  12.039  66.440  1.00  0.00    -0.313 C  
HETATM    2  S   UNL     1     -10.128  12.117  65.395  1.00  0.00    -0.249 SA 
HETATM    3  C   UNL     1     -10.014  10.327  65.223  1.00  0.00    -0.317 C  
HETATM    4  C   UNL     1     -10.121   9.565  66.531  1.00  0.00    -0.326 C  
HETATM    5  C   UNL     1      -9.414   8.228  66.446  1.00  0.00    -0.287 C  
HETATM    6  CA  UNL     1     -10.732  10.033  67.659  1.00  0.00    -0.284 C  
HETATM    7  N   UNL     1     -11.299  11.277  67.640  1.00  0.00    -0.286 N  
HETATM    8  C   UNL     1     -10.745   9.175  68.917  1.00  0.00    -0.141 C  
HETATM    9  C   UNL     1     -11.726  12.210  68.518  1.00  0.00    -0.330 C  
HETATM   10  O   UNL     1     -11.428   9.650  69.976  1.00  0.00    -0.225 OA 
HETATM   11  OXT UNL     1     -10.244   8.062  68.985  1.00  0.00    -0.201 OA 
HETATM   12  O   UNL     1     -11.842  12.138  69.719  1.00  0.00    -0.314 OA 
HETATM   13  CA  UNL     1     -11.841  13.275  67.370  1.00  0.00    -0.366 C  
ENDROOT
BRANCH  13  14
HETATM   14  N   UNL     1     -10.780  14.304  67.342  1.00  0.00    -0.279 N  
HETATM   15  H   UNL     1     -10.006  14.163  66.694  1.00  0.00     0.000 HD 
HETATM   16  C   UNL     1     -10.756  15.439  68.123  1.00  0.00    -0.271 C  
HETATM   17  O   UNL     1     -11.654  15.744  68.897  1.00  0.00    -0.357 OA 
BRANCH  16  18
HETATM   18  CA  UNL     1      -9.446  16.263  67.936  1.00  0.00    -0.218 C  
HETATM   19  H2  UNL     1      -8.489  15.284  69.526  1.00  0.00     0.000 HD 
HETATM   20  N   UNL     1      -8.672  16.234  69.204  1.00  0.00    -0.240 NA 
HETATM   21  H1  UNL     1      -7.815  16.774  69.081  1.00  0.00     0.000 HD 
BRANCH  18  22
HETATM   22  C   UNL     1      -9.821  17.674  67.530  1.00  0.00    -0.299 C  
HETATM   23  C   UNL     1     -10.219  18.026  66.287  1.00  0.00    -0.381 C  
HETATM   24  C   UNL     1     -10.536  19.433  65.868  1.00  0.00    -0.551 C  
HETATM   25  C   UNL     1     -10.254  20.452  66.930  1.00  0.00    -0.417 C  
HETATM   26  C   UNL     1      -9.881  20.123  68.176  1.00  0.00    -0.460 C  
HETATM   27  C   UNL     1      -9.702  18.704  68.638  1.00  0.00    -0.418 C  
ENDBRANCH  18  22
ENDBRANCH  16  18
ENDBRANCH  13  14
TORSDOF 3
ENDMDL
MODEL       18
REMARK 921   NORMALIZED FREE ENERGY PREDICTED BY IDOCK:   -6.30 KCAL/MOL
REMARK 922        TOTAL FREE ENERGY PREDICTED BY IDOCK:   -8.06 KCAL/MOL
REMARK 923 INTER-LIGAND FREE ENERGY PREDICTED BY IDOCK:   -7.59 KCAL/MOL
REMARK 924 INTRA-LIGAND FREE ENERGY PREDICTED BY IDOCK:   -0.47 KCAL/MOL
REMARK 927      BINDING AFFINITY PREDICTED BY RF-SCORE:    0.00 PKD
ROOT
HETATM    1  C   UNL     1     -11.620  12.273  68.068  1.00  0.00    -0.349 C  
HETATM    2  S   UNL     1      -9.930  11.772  67.666  1.00  0.00    -0.197 SA 
HETATM    3  C   UNL     1     -10.216  10.045  68.094  1.00  0.00    -0.175 C  
HETATM    4  C   UNL     1     -10.895   9.839  69.434  1.00  0.00    -0.256 C  
HETATM    5  C   UNL     1     -10.549   8.485  70.021  1.00  0.00    -0.230 C  
HETATM    6  CA  UNL     1     -11.680  10.762  70.063  1.00  0.00    -0.336 C  
HETATM    7  N   UNL     1     -11.890  11.973  69.464  1.00  0.00    -0.323 N  
HETATM    8  C   UNL     1     -12.281  10.436  71.423  1.00  0.00    -0.362 C  
HETATM    9  C   UNL     1     -12.316  13.211  69.800  1.00  0.00    -0.102 C  
HETATM   10  O   UNL     1     -13.111  11.350  71.963  1.00  0.00    -0.487 OA 
HETATM   11  OXT UNL     1     -12.116   9.371  72.002  1.00  0.00    -0.362 OA 
HETATM   12  O   UNL     1     -12.800  13.600  70.836  1.00  0.00    -0.307 OA 
HETATM   13  CA  UNL     1     -11.814  13.784  68.427  1.00  0.00    -0.376 C  
ENDROOT
BRANCH  13  14
HETATM   14  N   UNL     1     -10.574  14.586  68.483  1.00  0.00    -0.245 N  
HETATM   15  H   UNL     1      -9.999  14.505  69.321  1.00  0.00     0.000 HD 
HETATM   16  C   UNL     1     -10.133  15.434  67.490  1.00  0.00    -0.233 C  
HETATM   17  O   UNL     1     -10.707  15.572  66.418  1.00  0.00    -0.305 OA 
BRANCH  16  18
HETATM   18  CA  UNL     1      -8.849  16.217  67.902  1.00  0.00    -0.183 C  
HETATM   19  H2  UNL     1      -8.384  14.844  69.420  1.00  0.00     0.000 HD 
HETATM   20  N   UNL     1      -8.487  15.851  69.296  1.00  0.00    -0.252 NA 
HETATM   21  H1  UNL     1      -7.647  16.364  69.565  1.00  0.00     0.000 HD 
BRANCH  18  22
HETATM   22  C   UNL     1      -9.123  17.699  67.755  1.00  0.00    -0.247 C  
HETATM   23  C   UNL     1      -9.796  18.440  68.664  1.00  0.00    -0.403 C  
HETATM   24  C   UNL     1     -10.119  19.898  68.495  1.00  0.00    -0.538 C  
HETATM   25  C   UNL     1      -9.730  20.445  67.155  1.00  0.00    -0.601 C  
HETATM   26  C   UNL     1      -9.041  19.735  66.248  1.00  0.00    -0.444 C  
HETATM   27  C   UNL     1      -8.592  18.318  66.476  1.00  0.00    -0.283 C  
ENDBRANCH  18  22
ENDBRANCH  16  18
ENDBRANCH  13  14
TORSDOF 3
ENDMDL
MODEL       19
REMARK 921   NORMALIZED FREE ENERGY PREDICTED BY IDOCK:   -6.28 KCAL/MOL
REMARK 922        TOTAL FREE ENERGY PREDICTED BY IDOCK:   -8.04 KCAL/MOL
REMARK 923 INTER-LIGAND FREE ENERGY PREDICTED BY IDOCK:   -8.01 KCAL/MOL
REMARK 924 INTRA-LIGAND FREE ENERGY PREDICTED BY IDOCK:   -0.03 KCAL/MOL
REMARK 927      BINDING AFFINITY PREDICTED BY RF-SCORE:    0.00 PKD
ROOT
HETATM    1  C   UNL     1     -10.025  17.738  66.344  1.00  0.00    -0.344 C  
HETATM    2  S   UNL     1     -10.631  18.982  67.509  1.00  0.00    -0.444 SA 
HETATM    3  C   UNL     1      -9.486  20.248  66.931  1.00  0.00    -0.397 C  
HETATM    4  C   UNL     1      -8.047  19.783  66.816  1.00  0.00    -0.333 C  
HETATM    5  C   UNL     1      -7.083  20.943  66.960  1.00  0.00    -0.379 C  
HETATM    6  CA  UNL     1      -7.656  18.485  66.652  1.00  0.00    -0.238 C  
HETATM    7  N   UNL     1      -8.610  17.508  66.581  1.00  0.00    -0.246 N  
HETATM    8  C   UNL     1      -6.173  18.151  66.579  1.00  0.00    -0.180 C  
HETATM    9  C   UNL     1      -8.699  16.165  66.704  1.00  0.00    -0.265 C  
HETATM   10  O   UNL     1      -5.844  16.866  66.338  1.00  0.00    -0.320 OA 
HETATM   11  OXT UNL     1      -5.283  18.987  66.646  1.00  0.00    -0.141 OA 
HETATM   12  O   UNL     1      -7.817  15.346  66.810  1.00  0.00    -0.201 OA 
HETATM   13  CA  UNL     1     -10.265  16.247  66.757  1.00  0.00    -0.280 C  
ENDROOT
BRANCH  13  14
HETATM   14  N   UNL     1     -10.872  16.049  68.090  1.00  0.00    -0.310 N  
HETATM   15  H   UNL     1     -10.538  16.640  68.851  1.00  0.00     0.000 HD 
HETATM   16  C   UNL     1     -11.854  15.128  68.385  1.00  0.00    -0.267 C  
HETATM   17  O   UNL     1     -12.372  14.403  67.546  1.00  0.00    -0.273 OA 
BRANCH  16  18
HETATM   18  CA  UNL     1     -12.200  15.092  69.905  1.00  0.00    -0.314 C  
HETATM   19  H2  UNL     1     -11.071  16.817  70.300  1.00  0.00     0.000 HD 
HETATM   20  N   UNL     1     -11.174  15.865  70.652  1.00  0.00    -0.363 NA 
HETATM   21  H1  UNL     1     -11.401  15.842  71.647  1.00  0.00     0.000 HD 
BRANCH  18  22
HETATM   22  C   UNL     1     -12.259  13.646  70.350  1.00  0.00    -0.434 C  
HETATM   23  C   UNL     1     -11.667  12.624  69.692  1.00  0.00    -0.373 C  
HETATM   24  C   UNL     1     -11.771  11.182  70.100  1.00  0.00    -0.439 C  
HETATM   25  C   UNL     1     -12.703  10.952  71.250  1.00  0.00    -0.542 C  
HETATM   26  C   UNL     1     -13.283  11.952  71.932  1.00  0.00    -0.467 C  
HETATM   27  C   UNL     1     -13.065  13.404  71.613  1.00  0.00    -0.463 C  
ENDBRANCH  18  22
ENDBRANCH  16  18
ENDBRANCH  13  14
TORSDOF 3
ENDMDL
MODEL       20
REMARK 921   NORMALIZED FREE ENERGY PREDICTED BY IDOCK:   -6.26 KCAL/MOL
REMARK 922        TOTAL FREE ENERGY PREDICTED BY IDOCK:   -8.01 KCAL/MOL
REMARK 923 INTER-LIGAND FREE ENERGY PREDICTED BY IDOCK:   -7.46 KCAL/MOL
REMARK 924 INTRA-LIGAND FREE ENERGY PREDICTED BY IDOCK:   -0.55 KCAL/MOL
REMARK 927      BINDING AFFINITY PREDICTED BY RF-SCORE:    0.00 PKD
ROOT
HETATM    1  C   UNL     1      -9.595  10.694  68.871  1.00  0.00    -0.196 C  
HETATM    2  S   UNL     1      -9.100   8.970  69.103  1.00  0.00    -0.142 SA 
HETATM    3  C   UNL     1      -8.013   8.968  67.666  1.00  0.00    -0.101 C  
HETATM    4  C   UNL     1      -8.640   9.538  66.408  1.00  0.00    -0.143 C  
HETATM    5  C   UNL     1      -7.995   8.960  65.164  1.00  0.00    -0.122 C  
HETATM    6  CA  UNL     1      -9.682  10.420  66.385  1.00  0.00    -0.201 C  
HETATM    7  N   UNL     1     -10.221  10.842  67.569  1.00  0.00    -0.188 N  
HETATM    8  C   UNL     1     -10.236  10.893  65.048  1.00  0.00    -0.303 C  
HETATM    9  C   UNL     1     -11.351  11.432  68.015  1.00  0.00    -0.303 C  
HETATM   10  O   UNL     1     -11.211  11.823  65.083  1.00  0.00    -0.302 OA 
HETATM   11  OXT UNL     1      -9.794  10.538  63.965  1.00  0.00    -0.302 OA 
HETATM   12  O   UNL     1     -12.264  11.915  67.387  1.00  0.00    -0.502 OA 
HETATM   13  CA  UNL     1     -10.971  11.095  69.501  1.00  0.00    -0.220 C  
ENDROOT
BRANCH  13  14
HETATM   14  N   UNL     1     -11.730   9.989  70.121  1.00  0.00    -0.371 N  
HETATM   15  H   UNL     1     -11.552   9.046  69.778  1.00  0.00     0.000 HD 
HETATM   16  C   UNL     1     -12.660  10.134  71.128  1.00  0.00    -0.386 C  
HETATM   17  O   UNL     1     -12.919  11.206  71.658  1.00  0.00    -0.445 OA 
BRANCH  16  18
HETATM   18  CA  UNL     1     -13.365   8.790  71.486  1.00  0.00    -0.313 C  
HETATM   19  H2  UNL     1     -14.851   9.758  72.609  1.00  0.00     0.000 HD 
HETATM   20  N   UNL     1     -14.190   8.987  72.707  1.00  0.00    -1.052 NA 
HETATM   21  H1  UNL     1     -14.651   8.108  72.940  1.00  0.00     0.000 HD 
BRANCH  18  22
HETATM   22  C   UNL     1     -12.303   7.728  71.682  1.00  0.00    -0.348 C  
HETATM   23  C   UNL     1     -12.105   6.688  70.841  1.00  0.00    -0.379 C  
HETATM   24  C   UNL     1     -11.090   5.603  71.064  1.00  0.00    -0.202 C  
HETATM   25  C   UNL     1     -10.385   5.704  72.382  1.00  0.00    -0.245 C  
HETATM   26  C   UNL     1     -10.549   6.739  73.220  1.00  0.00    -0.335 C  
HETATM   27  C   UNL     1     -11.459   7.900  72.931  1.00  0.00    -0.357 C  
ENDBRANCH  18  22
ENDBRANCH  16  18
ENDBRANCH  13  14
TORSDOF 3
ENDMDL
MODEL       21
REMARK 921   NORMALIZED FREE ENERGY PREDICTED BY IDOCK:   -6.24 KCAL/MOL
REMARK 922        TOTAL FREE ENERGY PREDICTED BY IDOCK:   -7.99 KCAL/MOL
REMARK 923 INTER-LIGAND FREE ENERGY PREDICTED BY IDOCK:   -7.42 KCAL/MOL
REMARK 924 INTRA-LIGAND FREE ENERGY PREDICTED BY IDOCK:   -0.57 KCAL/MOL
REMARK 927      BINDING AFFINITY PREDICTED BY RF-SCORE:    0.00 PKD
ROOT
HETATM    1  C   UNL     1      -9.999  10.088  69.134  1.00  0.00    -0.204 C  
HETATM    2  S   UNL     1     -11.277  11.366  69.088  1.00  0.00    -0.296 SA 
HETATM    3  C   UNL     1     -11.899  10.966  70.731  1.00  0.00    -0.319 C  
HETATM    4  C   UNL     1     -12.146   9.488  70.963  1.00  0.00    -0.398 C  
HETATM    5  C   UNL     1     -13.207   9.268  72.023  1.00  0.00    -0.519 C  
HETATM    6  CA  UNL     1     -11.535   8.477  70.278  1.00  0.00    -0.060 C  
HETATM    7  N   UNL     1     -10.626   8.789  69.306  1.00  0.00    -0.221 N  
HETATM    8  C   UNL     1     -11.897   7.031  70.591  1.00  0.00    -0.330 C  
HETATM    9  C   UNL     1     -10.027   8.196  68.249  1.00  0.00    -0.186 C  
HETATM   10  O   UNL     1     -11.207   6.072  69.943  1.00  0.00    -0.386 OA 
HETATM   11  OXT UNL     1     -12.709   6.703  71.444  1.00  0.00    -0.304 OA 
HETATM   12  O   UNL     1     -10.053   7.039  67.903  1.00  0.00    -0.154 OA 
HETATM   13  CA  UNL     1      -9.493   9.582  67.741  1.00  0.00    -0.131 C  
ENDROOT
BRANCH  13  14
HETATM   14  N   UNL     1     -10.195  10.148  66.570  1.00  0.00    -0.229 N  
HETATM   15  H   UNL     1     -11.186  10.362  66.673  1.00  0.00     0.000 HD 
HETATM   16  C   UNL     1      -9.613  10.409  65.348  1.00  0.00    -0.246 C  
HETATM   17  O   UNL     1      -8.422  10.246  65.120  1.00  0.00    -0.155 OA 
BRANCH  16  18
HETATM   18  CA  UNL     1     -10.647  10.899  64.288  1.00  0.00    -0.266 C  
HETATM   19  H2  UNL     1      -9.749   9.779  62.757  1.00  0.00     0.000 HD 
HETATM   20  N   UNL     1     -10.062  10.733  62.931  1.00  0.00    -0.717 NA 
HETATM   21  H1  UNL     1     -10.738  11.054  62.238  1.00  0.00     0.000 HD 
BRANCH  18  22
HETATM   22  C   UNL     1     -10.994  12.342  64.586  1.00  0.00    -0.344 C  
HETATM   23  C   UNL     1     -10.094  13.351  64.607  1.00  0.00    -0.256 C  
HETATM   24  C   UNL     1     -10.426  14.773  64.958  1.00  0.00    -0.443 C  
HETATM   25  C   UNL     1     -11.842  14.963  65.409  1.00  0.00    -0.188 C  
HETATM   26  C   UNL     1     -12.757  13.982  65.374  1.00  0.00    -0.499 C  
HETATM   27  C   UNL     1     -12.460  12.592  64.886  1.00  0.00    -0.564 C  
ENDBRANCH  18  22
ENDBRANCH  16  18
ENDBRANCH  13  14
TORSDOF 3
ENDMDL
MODEL       22
REMARK 921   NORMALIZED FREE ENERGY PREDICTED BY IDOCK:   -6.24 KCAL/MOL
REMARK 922        TOTAL FREE ENERGY PREDICTED BY IDOCK:   -7.99 KCAL/MOL
REMARK 923 INTER-LIGAND FREE ENERGY PREDICTED BY IDOCK:   -7.84 KCAL/MOL
REMARK 924 INTRA-LIGAND FREE ENERGY PREDICTED BY IDOCK:   -0.14 KCAL/MOL
REMARK 927      BINDING AFFINITY PREDICTED BY RF-SCORE:    0.00 PKD
ROOT
HETATM    1  C   UNL     1      -9.714  15.697  67.016  1.00  0.00    -0.227 C  
HETATM    2  S   UNL     1     -10.700  16.345  68.387  1.00  0.00    -0.342 SA 
HETATM    3  C   UNL     1      -9.970  17.989  68.286  1.00  0.00    -0.371 C  
HETATM    4  C   UNL     1      -8.455  17.997  68.217  1.00  0.00    -0.293 C  
HETATM    5  C   UNL     1      -7.888  19.292  68.762  1.00  0.00    -0.388 C  
HETATM    6  CA  UNL     1      -7.688  16.960  67.769  1.00  0.00    -0.173 C  
HETATM    7  N   UNL     1      -8.303  15.816  67.343  1.00  0.00    -0.158 N  
HETATM    8  C   UNL     1      -6.172  17.089  67.779  1.00  0.00    -0.139 C  
HETATM    9  C   UNL     1      -7.989  14.523  67.105  1.00  0.00    -0.138 C  
HETATM   10  O   UNL     1      -5.466  16.068  67.253  1.00  0.00    -0.285 OA 
HETATM   11  OXT UNL     1      -5.576  18.087  68.158  1.00  0.00    -0.157 OA 
HETATM   12  O   UNL     1      -6.906  13.987  67.093  1.00  0.00    -0.153 OA 
HETATM   13  CA  UNL     1      -9.509  14.145  67.002  1.00  0.00    -0.251 C  
ENDROOT
BRANCH  13  14
HETATM   14  N   UNL     1     -10.069  13.421  68.162  1.00  0.00    -0.238 N  
HETATM   15  H   UNL     1      -9.536  13.443  69.032  1.00  0.00     0.000 HD 
HETATM   16  C   UNL     1     -11.255  12.719  68.161  1.00  0.00    -0.272 C  
HETATM   17  O   UNL     1     -12.006  12.667  67.197  1.00  0.00    -0.437 OA 
BRANCH  16  18
HETATM   18  CA  UNL     1     -11.508  11.976  69.509  1.00  0.00    -0.282 C  
HETATM   19  H2  UNL     1     -11.670  10.112  68.559  1.00  0.00     0.000 HD 
HETATM   20  N   UNL     1     -12.186  10.684  69.227  1.00  0.00    -0.669 NA 
HETATM   21  H1  UNL     1     -12.352  10.198  70.108  1.00  0.00     0.000 HD 
BRANCH  18  22
HETATM   22  C   UNL     1     -12.340  12.872  70.402  1.00  0.00    -0.333 C  
HETATM   23  C   UNL     1     -12.524  14.195  70.191  1.00  0.00    -0.391 C  
HETATM   24  C   UNL     1     -13.302  15.097  71.106  1.00  0.00    -0.535 C  
HETATM   25  C   UNL     1     -13.766  14.421  72.361  1.00  0.00    -0.590 C  
HETATM   26  C   UNL     1     -13.615  13.106  72.580  1.00  0.00    -0.595 C  
HETATM   27  C   UNL     1     -12.962  12.174  71.597  1.00  0.00    -0.427 C  
ENDBRANCH  18  22
ENDBRANCH  16  18
ENDBRANCH  13  14
TORSDOF 3
ENDMDL
MODEL       23
REMARK 921   NORMALIZED FREE ENERGY PREDICTED BY IDOCK:   -6.23 KCAL/MOL
REMARK 922        TOTAL FREE ENERGY PREDICTED BY IDOCK:   -7.98 KCAL/MOL
REMARK 923 INTER-LIGAND FREE ENERGY PREDICTED BY IDOCK:   -7.46 KCAL/MOL
REMARK 924 INTRA-LIGAND FREE ENERGY PREDICTED BY IDOCK:   -0.52 KCAL/MOL
REMARK 927      BINDING AFFINITY PREDICTED BY RF-SCORE:    0.00 PKD
ROOT
HETATM    1  C   UNL     1     -11.503  14.913  67.232  1.00  0.00    -0.340 C  
HETATM    2  S   UNL     1     -10.357  13.771  66.424  1.00  0.00    -0.296 SA 
HETATM    3  C   UNL     1     -11.288  12.308  66.913  1.00  0.00    -0.333 C  
HETATM    4  C   UNL     1     -11.672  12.273  68.380  1.00  0.00    -0.390 C  
HETATM    5  C   UNL     1     -11.852  10.848  68.866  1.00  0.00    -0.340 C  
HETATM    6  CA  UNL     1     -11.794  13.371  69.182  1.00  0.00    -0.336 C  
HETATM    7  N   UNL     1     -11.562  14.609  68.652  1.00  0.00    -0.298 N  
HETATM    8  C   UNL     1     -12.158  13.192  70.650  1.00  0.00    -0.264 C  
HETATM    9  C   UNL     1     -11.296  15.863  69.081  1.00  0.00    -0.366 C  
HETATM   10  O   UNL     1     -12.344  14.312  71.377  1.00  0.00    -0.334 OA 
HETATM   11  OXT UNL     1     -12.367  12.106  71.171  1.00  0.00    -0.306 OA 
HETATM   12  O   UNL     1     -11.310  16.308  70.204  1.00  0.00    -0.349 OA 
HETATM   13  CA  UNL     1     -10.909  16.307  67.626  1.00  0.00    -0.293 C  
ENDROOT
BRANCH  13  14
HETATM   14  N   UNL     1      -9.463  16.473  67.370  1.00  0.00    -0.226 N  
HETATM   15  H   UNL     1      -8.820  15.893  67.910  1.00  0.00     0.000 HD 
HETATM   16  C   UNL     1      -8.915  17.351  66.461  1.00  0.00    -0.260 C  
HETATM   17  O   UNL     1      -9.584  18.059  65.719  1.00  0.00    -0.505 OA 
BRANCH  16  18
HETATM   18  CA  UNL     1      -7.356  17.366  66.511  1.00  0.00    -0.277 C  
HETATM   19  H2  UNL     1      -7.244  15.270  66.544  1.00  0.00     0.000 HD 
HETATM   20  N   UNL     1      -6.879  16.070  67.061  1.00  0.00    -0.236 NA 
HETATM   21  H1  UNL     1      -5.860  16.080  67.094  1.00  0.00     0.000 HD 
BRANCH  18  22
HETATM   22  C   UNL     1      -6.914  18.541  67.358  1.00  0.00    -0.208 C  
HETATM   23  C   UNL     1      -6.999  19.833  66.967  1.00  0.00    -0.235 C  
HETATM   24  C   UNL     1      -6.509  20.996  67.781  1.00  0.00    -0.407 C  
HETATM   25  C   UNL     1      -5.795  20.590  69.035  1.00  0.00    -0.387 C  
HETATM   26  C   UNL     1      -5.719  19.318  69.453  1.00  0.00    -0.258 C  
HETATM   27  C   UNL     1      -6.335  18.166  68.709  1.00  0.00    -0.216 C  
ENDBRANCH  18  22
ENDBRANCH  16  18
ENDBRANCH  13  14
TORSDOF 3
ENDMDL
MODEL       24
REMARK 921   NORMALIZED FREE ENERGY PREDICTED BY IDOCK:   -6.16 KCAL/MOL
REMARK 922        TOTAL FREE ENERGY PREDICTED BY IDOCK:   -7.90 KCAL/MOL
REMARK 923 INTER-LIGAND FREE ENERGY PREDICTED BY IDOCK:   -7.48 KCAL/MOL
REMARK 924 INTRA-LIGAND FREE ENERGY PREDICTED BY IDOCK:   -0.42 KCAL/MOL
REMARK 927      BINDING AFFINITY PREDICTED BY RF-SCORE:    0.00 PKD
ROOT
HETATM    1  C   UNL     1      -9.670  13.969  66.542  1.00  0.00    -0.295 C  
HETATM    2  S   UNL     1     -10.974  15.157  66.939  1.00  0.00    -0.311 SA 
HETATM    3  C   UNL     1     -10.146  16.520  66.099  1.00  0.00    -0.348 C  
HETATM    4  C   UNL     1      -8.681  16.676  66.457  1.00  0.00    -0.317 C  
HETATM    5  C   UNL     1      -8.220  18.108  66.270  1.00  0.00    -0.243 C  
HETATM    6  CA  UNL     1      -7.882  15.676  66.932  1.00  0.00    -0.223 C  
HETATM    7  N   UNL     1      -8.414  14.429  67.108  1.00  0.00    -0.213 N  
HETATM    8  C   UNL     1      -6.430  15.975  67.279  1.00  0.00    -0.165 C  
HETATM    9  C   UNL     1      -8.124  13.287  67.769  1.00  0.00    -0.166 C  
HETATM   10  O   UNL     1      -5.666  14.936  67.668  1.00  0.00    -0.290 OA 
HETATM   11  OXT UNL     1      -5.912  17.075  67.147  1.00  0.00    -0.133 OA 
HETATM   12  O   UNL     1      -7.121  12.982  68.370  1.00  0.00    -0.087 OA 
HETATM   13  CA  UNL     1      -9.566  12.732  67.495  1.00  0.00    -0.192 C  
ENDROOT
BRANCH  13  14
HETATM   14  N   UNL     1     -10.487  12.744  68.652  1.00  0.00    -0.325 N  
HETATM   15  H   UNL     1     -10.234  13.329  69.448  1.00  0.00     0.000 HD 
HETATM   16  C   UNL     1     -11.661  12.027  68.738  1.00  0.00    -0.311 C  
HETATM   17  O   UNL     1     -12.096  11.335  67.827  1.00  0.00    -0.631 OA 
BRANCH  16  18
HETATM   18  CA  UNL     1     -12.345  12.170  70.131  1.00  0.00    -0.145 C  
HETATM   19  H2  UNL     1     -11.888  14.215  70.252  1.00  0.00     0.000 HD 
HETATM   20  N   UNL     1     -11.799  13.370  70.817  1.00  0.00    -0.498 NA 
HETATM   21  H1  UNL     1     -12.247  13.463  71.728  1.00  0.00     0.000 HD 
BRANCH  18  22
HETATM   22  C   UNL     1     -12.097  10.901  70.921  1.00  0.00    -0.455 C  
HETATM   23  C   UNL     1     -10.937  10.208  70.898  1.00  0.00    -0.241 C  
HETATM   24  C   UNL     1     -10.707   8.920  71.635  1.00  0.00    -0.418 C  
HETATM   25  C   UNL     1     -11.934   8.393  72.316  1.00  0.00    -0.455 C  
HETATM   26  C   UNL     1     -13.088   9.075  72.371  1.00  0.00    -0.487 C  
HETATM   27  C   UNL     1     -13.276  10.433  71.754  1.00  0.00    -0.529 C  
ENDBRANCH  18  22
ENDBRANCH  16  18
ENDBRANCH  13  14
TORSDOF 3
ENDMDL
MODEL       25
REMARK 921   NORMALIZED FREE ENERGY PREDICTED BY IDOCK:   -6.16 KCAL/MOL
REMARK 922        TOTAL FREE ENERGY PREDICTED BY IDOCK:   -7.90 KCAL/MOL
REMARK 923 INTER-LIGAND FREE ENERGY PREDICTED BY IDOCK:   -7.37 KCAL/MOL
REMARK 924 INTRA-LIGAND FREE ENERGY PREDICTED BY IDOCK:   -0.52 KCAL/MOL
REMARK 927      BINDING AFFINITY PREDICTED BY RF-SCORE:    0.00 PKD
ROOT
HETATM    1  C   UNL     1     -11.146  16.407  67.359  1.00  0.00    -0.062 C  
HETATM    2  S   UNL     1     -10.144  16.207  65.867  1.00  0.00    -0.361 SA 
HETATM    3  C   UNL     1     -11.199  14.910  65.193  1.00  0.00    -0.386 C  
HETATM    4  C   UNL     1     -11.537  13.806  66.175  1.00  0.00    -0.369 C  
HETATM    5  C   UNL     1     -11.841  12.507  65.457  1.00  0.00    -0.491 C  
HETATM    6  CA  UNL     1     -11.526  13.939  67.534  1.00  0.00    -0.340 C  
HETATM    7  N   UNL     1     -11.189  15.146  68.080  1.00  0.00    -0.306 N  
HETATM    8  C   UNL     1     -11.860  12.738  68.409  1.00  0.00    -0.310 C  
HETATM    9  C   UNL     1     -10.789  15.645  69.271  1.00  0.00    -0.250 C  
HETATM   10  O   UNL     1     -11.911  12.944  69.740  1.00  0.00    -0.313 OA 
HETATM   11  OXT UNL     1     -12.158  11.638  67.968  1.00  0.00    -0.597 OA 
HETATM   12  O   UNL     1     -10.723  15.100  70.347  1.00  0.00    -0.256 OA 
HETATM   13  CA  UNL     1     -10.406  17.011  68.599  1.00  0.00    -0.351 C  
ENDROOT
BRANCH  13  14
HETATM   14  N   UNL     1      -8.959  17.252  68.417  1.00  0.00    -0.262 N  
HETATM   15  H   UNL     1      -8.363  16.439  68.261  1.00  0.00     0.000 HD 
HETATM   16  C   UNL     1      -8.352  18.489  68.441  1.00  0.00    -0.332 C  
HETATM   17  O   UNL     1      -8.968  19.539  68.565  1.00  0.00    -0.349 OA 
BRANCH  16  18
HETATM   18  CA  UNL     1      -6.800  18.393  68.330  1.00  0.00    -0.241 C  
HETATM   19  H2  UNL     1      -6.561  18.315  70.414  1.00  0.00     0.000 HD 
HETATM   20  N   UNL     1      -6.196  18.833  69.615  1.00  0.00    -0.265 NA 
HETATM   21  H1  UNL     1      -5.180  18.771  69.542  1.00  0.00     0.000 HD 
BRANCH  18  22
HETATM   22  C   UNL     1      -6.348  19.251  67.166  1.00  0.00    -0.195 C  
HETATM   23  C   UNL     1      -5.842  20.498  67.294  1.00  0.00    -0.226 C  
HETATM   24  C   UNL     1      -5.447  21.372  66.138  1.00  0.00    -0.265 C  
HETATM   25  C   UNL     1      -5.777  20.781  64.800  1.00  0.00    -0.278 C  
HETATM   26  C   UNL     1      -6.257  19.537  64.650  1.00  0.00    -0.271 C  
HETATM   27  C   UNL     1      -6.519  18.608  65.802  1.00  0.00    -0.296 C  
ENDBRANCH  18  22
ENDBRANCH  16  18
ENDBRANCH  13  14
TORSDOF 3
ENDMDL
MODEL       26
REMARK 921   NORMALIZED FREE ENERGY PREDICTED BY IDOCK:   -6.14 KCAL/MOL
REMARK 922        TOTAL FREE ENERGY PREDICTED BY IDOCK:   -7.88 KCAL/MOL
REMARK 923 INTER-LIGAND FREE ENERGY PREDICTED BY IDOCK:   -7.43 KCAL/MOL
REMARK 924 INTRA-LIGAND FREE ENERGY PREDICTED BY IDOCK:   -0.45 KCAL/MOL
REMARK 927      BINDING AFFINITY PREDICTED BY RF-SCORE:    0.00 PKD
ROOT
HETATM    1  C   UNL     1      -9.741  10.650  67.442  1.00  0.00    -0.167 C  
HETATM    2  S   UNL     1      -9.874   9.196  66.376  1.00  0.00    -0.288 SA 
HETATM    3  C   UNL     1      -9.817  10.162  64.856  1.00  0.00    -0.319 C  
HETATM    4  C   UNL     1     -10.757  11.352  64.836  1.00  0.00    -0.350 C  
HETATM    5  C   UNL     1     -11.145  11.721  63.418  1.00  0.00    -0.448 C  
HETATM    6  CA  UNL     1     -11.238  11.986  65.946  1.00  0.00    -0.337 C  
HETATM    7  N   UNL     1     -10.860  11.540  67.182  1.00  0.00    -0.253 N  
HETATM    8  C   UNL     1     -12.201  13.154  65.785  1.00  0.00    -0.456 C  
HETATM    9  C   UNL     1     -11.263  11.648  68.466  1.00  0.00    -0.256 C  
HETATM   10  O   UNL     1     -12.582  13.794  66.908  1.00  0.00    -0.252 OA 
HETATM   11  OXT UNL     1     -12.575  13.583  64.703  1.00  0.00    -0.593 OA 
HETATM   12  O   UNL     1     -12.116  12.359  68.945  1.00  0.00    -0.265 OA 
HETATM   13  CA  UNL     1     -10.303  10.482  68.893  1.00  0.00    -0.208 C  
ENDROOT
BRANCH  13  14
HETATM   14  N   UNL     1     -10.955   9.185  69.173  1.00  0.00    -0.424 N  
HETATM   15  H   UNL     1     -11.638   8.846  68.496  1.00  0.00     0.000 HD 
HETATM   16  C   UNL     1     -10.713   8.398  70.278  1.00  0.00    -0.234 C  
HETATM   17  O   UNL     1      -9.877   8.671  71.130  1.00  0.00    -0.186 OA 
BRANCH  16  18
HETATM   18  CA  UNL     1     -11.643   7.148  70.336  1.00  0.00    -0.258 C  
HETATM   19  H2  UNL     1     -12.352   7.646  72.247  1.00  0.00     0.000 HD 
HETATM   20  N   UNL     1     -11.956   6.844  71.757  1.00  0.00    -0.317 NA 
HETATM   21  H1  UNL     1     -12.565   6.027  71.794  1.00  0.00     0.000 HD 
BRANCH  18  22
HETATM   22  C   UNL     1     -10.941   5.995  69.649  1.00  0.00    -0.470 C  
HETATM   23  C   UNL     1     -10.272   5.017  70.300  1.00  0.00    -0.328 C  
HETATM   24  C   UNL     1      -9.527   3.904  69.620  1.00  0.00    -0.263 C  
HETATM   25  C   UNL     1      -9.485   4.037  68.128  1.00  0.00    -0.215 C  
HETATM   26  C   UNL     1     -10.161   4.985  67.460  1.00  0.00    -0.201 C  
HETATM   27  C   UNL     1     -11.024   6.014  68.134  1.00  0.00    -0.340 C  
ENDBRANCH  18  22
ENDBRANCH  16  18
ENDBRANCH  13  14
TORSDOF 3
ENDMDL
MODEL       27
REMARK 921   NORMALIZED FREE ENERGY PREDICTED BY IDOCK:   -6.14 KCAL/MOL
REMARK 922        TOTAL FREE ENERGY PREDICTED BY IDOCK:   -7.87 KCAL/MOL
REMARK 923 INTER-LIGAND FREE ENERGY PREDICTED BY IDOCK:   -7.40 KCAL/MOL
REMARK 924 INTRA-LIGAND FREE ENERGY PREDICTED BY IDOCK:   -0.48 KCAL/MOL
REMARK 927      BINDING AFFINITY PREDICTED BY RF-SCORE:    0.00 PKD
ROOT
HETATM    1  C   UNL     1     -11.743  13.396  67.183  1.00  0.00    -0.379 C  
HETATM    2  S   UNL     1     -10.325  12.339  66.804  1.00  0.00    -0.219 SA 
HETATM    3  C   UNL     1     -11.036  10.897  67.618  1.00  0.00    -0.313 C  
HETATM    4  C   UNL     1     -11.580  11.168  69.007  1.00  0.00    -0.392 C  
HETATM    5  C   UNL     1     -11.564   9.914  69.857  1.00  0.00    -0.184 C  
HETATM    6  CA  UNL     1     -11.990  12.389  69.461  1.00  0.00    -0.261 C  
HETATM    7  N   UNL     1     -11.917  13.467  68.623  1.00  0.00    -0.358 N  
HETATM    8  C   UNL     1     -12.490  12.529  70.892  1.00  0.00    -0.269 C  
HETATM    9  C   UNL     1     -11.930  14.816  68.703  1.00  0.00    -0.257 C  
HETATM   10  O   UNL     1     -12.956  13.738  71.264  1.00  0.00    -0.338 OA 
HETATM   11  OXT UNL     1     -12.566  11.597  71.680  1.00  0.00    -0.277 OA 
HETATM   12  O   UNL     1     -12.156  15.526  69.654  1.00  0.00    -0.351 OA 
HETATM   13  CA  UNL     1     -11.455  14.934  67.211  1.00  0.00    -0.340 C  
ENDROOT
BRANCH  13  14
HETATM   14  N   UNL     1     -10.041  15.318  67.018  1.00  0.00    -0.245 N  
HETATM   15  H   UNL     1      -9.343  14.847  67.593  1.00  0.00     0.000 HD 
HETATM   16  C   UNL     1      -9.591  16.262  66.121  1.00  0.00    -0.331 C  
HETATM   17  O   UNL     1     -10.325  16.853  65.339  1.00  0.00    -0.609 OA 
BRANCH  16  18
HETATM   18  CA  UNL     1      -8.057  16.514  66.240  1.00  0.00    -0.306 C  
HETATM   19  H2  UNL     1      -7.712  14.612  67.057  1.00  0.00     0.000 HD 
HETATM   20  N   UNL     1      -7.493  15.588  67.257  1.00  0.00    -0.210 NA 
HETATM   21  H1  UNL     1      -6.489  15.754  67.334  1.00  0.00     0.000 HD 
BRANCH  18  22
HETATM   22  C   UNL     1      -7.836  17.967  66.608  1.00  0.00    -0.272 C  
HETATM   23  C   UNL     1      -8.512  18.613  67.584  1.00  0.00    -0.284 C  
HETATM   24  C   UNL     1      -8.336  20.068  67.914  1.00  0.00    -0.297 C  
HETATM   25  C   UNL     1      -7.417  20.787  66.973  1.00  0.00    -0.328 C  
HETATM   26  C   UNL     1      -6.719  20.162  66.013  1.00  0.00    -0.270 C  
HETATM   27  C   UNL     1      -6.787  18.679  65.775  1.00  0.00    -0.307 C  
ENDBRANCH  18  22
ENDBRANCH  16  18
ENDBRANCH  13  14
TORSDOF 3
ENDMDL
MODEL       28
REMARK 921   NORMALIZED FREE ENERGY PREDICTED BY IDOCK:   -6.13 KCAL/MOL
REMARK 922        TOTAL FREE ENERGY PREDICTED BY IDOCK:   -7.86 KCAL/MOL
REMARK 923 INTER-LIGAND FREE ENERGY PREDICTED BY IDOCK:   -7.39 KCAL/MOL
REMARK 924 INTRA-LIGAND FREE ENERGY PREDICTED BY IDOCK:   -0.47 KCAL/MOL
REMARK 927      BINDING AFFINITY PREDICTED BY RF-SCORE:    0.00 PKD
ROOT
HETATM    1  C   UNL     1     -11.728  12.496  66.684  1.00  0.00    -0.387 C  
HETATM    2  S   UNL     1     -10.215  11.702  66.092  1.00  0.00    -0.235 SA 
HETATM    3  C   UNL     1     -10.602  10.123  66.870  1.00  0.00    -0.200 C  
HETATM    4  C   UNL     1     -11.025  10.229  68.322  1.00  0.00    -0.315 C  
HETATM    5  C   UNL     1     -10.723   8.950  69.076  1.00  0.00    -0.148 C  
HETATM    6  CA  UNL     1     -11.564  11.343  68.899  1.00  0.00    -0.323 C  
HETATM    7  N   UNL     1     -11.751  12.462  68.136  1.00  0.00    -0.341 N  
HETATM    8  C   UNL     1     -11.920  11.324  70.379  1.00  0.00    -0.380 C  
HETATM    9  C   UNL     1     -11.962  13.785  68.310  1.00  0.00    -0.357 C  
HETATM   10  O   UNL     1     -12.522  12.421  70.880  1.00  0.00    -0.371 OA 
HETATM   11  OXT UNL     1     -11.764  10.352  71.104  1.00  0.00    -0.352 OA 
HETATM   12  O   UNL     1     -12.189  14.398  69.327  1.00  0.00    -0.306 OA 
HETATM   13  CA  UNL     1     -11.678  14.057  66.791  1.00  0.00    -0.407 C  
ENDROOT
BRANCH  13  14
HETATM   14  N   UNL     1     -10.370  14.672  66.484  1.00  0.00    -0.276 N  
HETATM   15  H   UNL     1      -9.674  14.089  66.018  1.00  0.00     0.000 HD 
HETATM   16  C   UNL     1     -10.016  15.971  66.777  1.00  0.00    -0.258 C  
HETATM   17  O   UNL     1     -10.783  16.780  67.283  1.00  0.00    -0.298 OA 
BRANCH  16  18
HETATM   18  CA  UNL     1      -8.529  16.278  66.426  1.00  0.00    -0.330 C  
HETATM   19  H2  UNL     1      -7.980  14.256  66.563  1.00  0.00     0.000 HD 
HETATM   20  N   UNL     1      -7.677  15.163  66.917  1.00  0.00    -0.288 NA 
HETATM   21  H1  UNL     1      -6.703  15.364  66.687  1.00  0.00     0.000 HD 
BRANCH  18  22
HETATM   22  C   UNL     1      -8.150  17.603  67.053  1.00  0.00    -0.243 C  
HETATM   23  C   UNL     1      -8.206  18.791  66.411  1.00  0.00    -0.299 C  
HETATM   24  C   UNL     1      -7.777  20.099  67.012  1.00  0.00    -0.350 C  
HETATM   25  C   UNL     1      -7.158  19.958  68.370  1.00  0.00    -0.330 C  
HETATM   26  C   UNL     1      -7.114  18.794  69.035  1.00  0.00    -0.324 C  
HETATM   27  C   UNL     1      -7.673  17.510  68.491  1.00  0.00    -0.272 C  
ENDBRANCH  18  22
ENDBRANCH  16  18
ENDBRANCH  13  14
TORSDOF 3
ENDMDL
MODEL       29
REMARK 921   NORMALIZED FREE ENERGY PREDICTED BY IDOCK:   -6.12 KCAL/MOL
REMARK 922        TOTAL FREE ENERGY PREDICTED BY IDOCK:   -7.85 KCAL/MOL
REMARK 923 INTER-LIGAND FREE ENERGY PREDICTED BY IDOCK:   -7.33 KCAL/MOL
REMARK 924 INTRA-LIGAND FREE ENERGY PREDICTED BY IDOCK:   -0.52 KCAL/MOL
REMARK 927      BINDING AFFINITY PREDICTED BY RF-SCORE:    0.00 PKD
ROOT
HETATM    1  C   UNL     1      -9.515  10.065  69.624  1.00  0.00    -0.223 C  
HETATM    2  S   UNL     1     -10.900   9.923  70.777  1.00  0.00    -0.264 SA 
HETATM    3  C   UNL     1     -10.856   8.121  70.789  1.00  0.00    -0.228 C  
HETATM    4  C   UNL     1     -10.794   7.489  69.411  1.00  0.00    -0.161 C  
HETATM    5  C   UNL     1     -11.383   6.093  69.422  1.00  0.00    -0.401 C  
HETATM    6  CA  UNL     1     -10.317   8.105  68.290  1.00  0.00    -0.197 C  
HETATM    7  N   UNL     1      -9.852   9.387  68.384  1.00  0.00    -0.156 N  
HETATM    8  C   UNL     1     -10.338   7.365  66.960  1.00  0.00    -0.314 C  
HETATM    9  C   UNL     1      -9.574  10.428  67.568  1.00  0.00    -0.156 C  
HETATM   10  O   UNL     1      -9.783   7.988  65.902  1.00  0.00    -0.029 OA 
HETATM   11  OXT UNL     1     -10.752   6.222  66.824  1.00  0.00    -0.290 OA 
HETATM   12  O   UNL     1      -9.551  10.470  66.361  1.00  0.00    -0.167 OA 
HETATM   13  CA  UNL     1      -9.451  11.394  68.799  1.00  0.00    -0.119 C  
ENDROOT
BRANCH  13  14
HETATM   14  N   UNL     1     -10.586  12.320  69.002  1.00  0.00    -0.409 N  
HETATM   15  H   UNL     1     -11.471  11.919  69.312  1.00  0.00     0.000 HD 
HETATM   16  C   UNL     1     -10.541  13.683  68.805  1.00  0.00    -0.231 C  
HETATM   17  O   UNL     1      -9.524  14.285  68.488  1.00  0.00    -0.205 OA 
BRANCH  16  18
HETATM   18  CA  UNL     1     -11.933  14.359  68.997  1.00  0.00    -0.307 C  
HETATM   19  H2  UNL     1     -11.610  15.691  67.407  1.00  0.00     0.000 HD 
HETATM   20  N   UNL     1     -11.900  15.713  68.385  1.00  0.00    -0.467 NA 
HETATM   21  H1  UNL     1     -12.811  16.155  68.510  1.00  0.00     0.000 HD 
BRANCH  18  22
HETATM   22  C   UNL     1     -12.241  14.412  70.479  1.00  0.00    -0.411 C  
HETATM   23  C   UNL     1     -13.049  13.536  71.118  1.00  0.00    -0.285 C  
HETATM   24  C   UNL     1     -13.402  13.620  72.575  1.00  0.00    -0.638 C  
HETATM   25  C   UNL     1     -12.869  14.847  73.250  1.00  0.00    -0.646 C  
HETATM   26  C   UNL     1     -12.046  15.716  72.643  1.00  0.00    -0.565 C  
HETATM   27  C   UNL     1     -11.577  15.555  71.224  1.00  0.00    -0.462 C  
ENDBRANCH  18  22
ENDBRANCH  16  18
ENDBRANCH  13  14
TORSDOF 3
ENDMDL
MODEL       30
REMARK 921   NORMALIZED FREE ENERGY PREDICTED BY IDOCK:   -6.12 KCAL/MOL
REMARK 922        TOTAL FREE ENERGY PREDICTED BY IDOCK:   -7.85 KCAL/MOL
REMARK 923 INTER-LIGAND FREE ENERGY PREDICTED BY IDOCK:   -7.48 KCAL/MOL
REMARK 924 INTRA-LIGAND FREE ENERGY PREDICTED BY IDOCK:   -0.37 KCAL/MOL
REMARK 927      BINDING AFFINITY PREDICTED BY RF-SCORE:    0.00 PKD
ROOT
HETATM    1  C   UNL     1      -8.430  14.272  66.706  1.00  0.00    -0.020 C  
HETATM    2  S   UNL     1      -7.655  14.214  68.338  1.00  0.00    -0.140 SA 
HETATM    3  C   UNL     1      -7.932  12.444  68.535  1.00  0.00    -0.110 C  
HETATM    4  C   UNL     1      -9.346  11.995  68.221  1.00  0.00    -0.197 C  
HETATM    5  C   UNL     1      -9.699  10.727  68.972  1.00  0.00    -0.201 C  
HETATM    6  CA  UNL     1     -10.215  12.663  67.406  1.00  0.00    -0.217 C  
HETATM    7  N   UNL     1      -9.809  13.826  66.813  1.00  0.00    -0.267 N  
HETATM    8  C   UNL     1     -11.620  12.116  67.197  1.00  0.00    -0.335 C  
HETATM    9  C   UNL     1     -10.358  14.903  66.210  1.00  0.00    -0.294 C  
HETATM   10  O   UNL     1     -12.410  12.769  66.322  1.00  0.00    -0.521 OA 
HETATM   11  OXT UNL     1     -12.032  11.085  67.711  1.00  0.00    -0.609 OA 
HETATM   12  O   UNL     1     -11.506  15.097  65.885  1.00  0.00    -0.284 OA 
HETATM   13  CA  UNL     1      -8.988  15.667  66.268  1.00  0.00    -0.342 C  
ENDROOT
BRANCH  13  14
HETATM   14  N   UNL     1      -8.893  16.735  67.285  1.00  0.00    -0.201 N  
HETATM   15  H   UNL     1      -8.229  16.601  68.047  1.00  0.00     0.000 HD 
HETATM   16  C   UNL     1      -9.632  17.898  67.284  1.00  0.00    -0.273 C  
HETATM   17  O   UNL     1     -10.420  18.196  66.396  1.00  0.00    -0.379 OA 
BRANCH  16  18
HETATM   18  CA  UNL     1      -9.378  18.766  68.554  1.00  0.00    -0.350 C  
HETATM   19  H2  UNL     1     -11.425  19.150  68.817  1.00  0.00     0.000 HD 
HETATM   20  N   UNL     1     -10.545  19.663  68.768  1.00  0.00    -0.443 NA 
HETATM   21  H1  UNL     1     -10.378  20.230  69.599  1.00  0.00     0.000 HD 
BRANCH  18  22
HETATM   22  C   UNL     1      -8.093  19.542  68.356  1.00  0.00    -0.377 C  
HETATM   23  C   UNL     1      -7.156  19.716  69.315  1.00  0.00    -0.366 C  
HETATM   24  C   UNL     1      -5.907  20.533  69.139  1.00  0.00    -0.392 C  
HETATM   25  C   UNL     1      -5.843  21.252  67.826  1.00  0.00    -0.410 C  
HETATM   26  C   UNL     1      -6.749  21.076  66.852  1.00  0.00    -0.388 C  
HETATM   27  C   UNL     1      -7.924  20.146  66.975  1.00  0.00    -0.362 C  
ENDBRANCH  18  22
ENDBRANCH  16  18
ENDBRANCH  13  14
TORSDOF 3
ENDMDL
MODEL       31
REMARK 921   NORMALIZED FREE ENERGY PREDICTED BY IDOCK:   -6.05 KCAL/MOL
REMARK 922        TOTAL FREE ENERGY PREDICTED BY IDOCK:   -7.77 KCAL/MOL
REMARK 923 INTER-LIGAND FREE ENERGY PREDICTED BY IDOCK:   -7.35 KCAL/MOL
REMARK 924 INTRA-LIGAND FREE ENERGY PREDICTED BY IDOCK:   -0.42 KCAL/MOL
REMARK 927      BINDING AFFINITY PREDICTED BY RF-SCORE:    0.00 PKD
ROOT
HETATM    1  C   UNL     1     -10.227   9.918  69.831  1.00  0.00    -0.257 C  
HETATM    2  S   UNL     1     -11.615  11.012  69.446  1.00  0.00    -0.342 SA 
HETATM    3  C   UNL     1     -12.425  10.733  71.031  1.00  0.00    -0.420 C  
HETATM    4  C   UNL     1     -12.544   9.273  71.424  1.00  0.00    -0.411 C  
HETATM    5  C   UNL     1     -13.719   9.049  72.354  1.00  0.00    -0.539 C  
HETATM    6  CA  UNL     1     -11.734   8.273  70.968  1.00  0.00    -0.270 C  
HETATM    7  N   UNL     1     -10.730   8.580  70.091  1.00  0.00    -0.234 N  
HETATM    8  C   UNL     1     -11.980   6.841  71.421  1.00  0.00    -0.355 C  
HETATM    9  C   UNL     1      -9.923   7.946  69.212  1.00  0.00    -0.190 C  
HETATM   10  O   UNL     1     -11.104   5.905  71.004  1.00  0.00    -0.284 OA 
HETATM   11  OXT UNL     1     -12.869   6.516  72.195  1.00  0.00    -0.218 OA 
HETATM   12  O   UNL     1      -9.773   6.762  69.023  1.00  0.00    -0.145 OA 
HETATM   13  CA  UNL     1      -9.472   9.319  68.598  1.00  0.00    -0.146 C  
ENDROOT
BRANCH  13  14
HETATM   14  N   UNL     1     -10.050   9.651  67.279  1.00  0.00    -0.197 N  
HETATM   15  H   UNL     1     -10.970   9.271  67.059  1.00  0.00     0.000 HD 
HETATM   16  C   UNL     1      -9.442  10.436  66.322  1.00  0.00    -0.171 C  
HETATM   17  O   UNL     1      -8.365  10.992  66.491  1.00  0.00    -0.152 OA 
BRANCH  16  18
HETATM   18  CA  UNL     1     -10.263  10.503  64.998  1.00  0.00    -0.295 C  
HETATM   19  H2  UNL     1      -8.763   9.517  63.908  1.00  0.00     0.000 HD 
HETATM   20  N   UNL     1      -9.333  10.361  63.846  1.00  0.00    -0.256 NA 
HETATM   21  H1  UNL     1      -9.870  10.405  62.980  1.00  0.00     0.000 HD 
BRANCH  18  22
HETATM   22  C   UNL     1     -11.014  11.818  64.964  1.00  0.00    -0.357 C  
HETATM   23  C   UNL     1     -11.556  12.410  66.051  1.00  0.00    -0.455 C  
HETATM   24  C   UNL     1     -12.350  13.685  66.012  1.00  0.00    -0.493 C  
HETATM   25  C   UNL     1     -12.597  14.193  64.623  1.00  0.00    -0.285 C  
HETATM   26  C   UNL     1     -12.050  13.634  63.533  1.00  0.00    -0.341 C  
HETATM   27  C   UNL     1     -11.137  12.441  63.586  1.00  0.00    -0.535 C  
ENDBRANCH  18  22
ENDBRANCH  16  18
ENDBRANCH  13  14
TORSDOF 3
ENDMDL
MODEL       32
REMARK 921   NORMALIZED FREE ENERGY PREDICTED BY IDOCK:   -6.02 KCAL/MOL
REMARK 922        TOTAL FREE ENERGY PREDICTED BY IDOCK:   -7.73 KCAL/MOL
REMARK 923 INTER-LIGAND FREE ENERGY PREDICTED BY IDOCK:   -7.24 KCAL/MOL
REMARK 924 INTRA-LIGAND FREE ENERGY PREDICTED BY IDOCK:   -0.48 KCAL/MOL
REMARK 927      BINDING AFFINITY PREDICTED BY RF-SCORE:    0.00 PKD
ROOT
HETATM    1  C   UNL     1      -9.449  10.367  67.748  1.00  0.00    -0.145 C  
HETATM    2  S   UNL     1      -9.139   8.705  67.106  1.00  0.00    -0.136 SA 
HETATM    3  C   UNL     1      -8.642   9.302  65.479  1.00  0.00    -0.152 C  
HETATM    4  C   UNL     1      -9.592  10.314  64.869  1.00  0.00    -0.365 C  
HETATM    5  C   UNL     1      -9.513  10.296  63.355  1.00  0.00    -0.340 C  
HETATM    6  CA  UNL     1     -10.446  11.110  65.576  1.00  0.00    -0.256 C  
HETATM    7  N   UNL     1     -10.470  11.011  66.940  1.00  0.00    -0.235 N  
HETATM    8  C   UNL     1     -11.370  12.067  64.835  1.00  0.00    -0.310 C  
HETATM    9  C   UNL     1     -11.279  11.350  67.967  1.00  0.00    -0.281 C  
HETATM   10  O   UNL     1     -12.135  12.885  65.583  1.00  0.00    -0.414 OA 
HETATM   11  OXT UNL     1     -11.391  12.185  63.618  1.00  0.00    -0.397 OA 
HETATM   12  O   UNL     1     -12.281  12.025  67.964  1.00  0.00    -0.454 OA 
HETATM   13  CA  UNL     1     -10.446  10.454  68.952  1.00  0.00    -0.212 C  
ENDROOT
BRANCH  13  14
HETATM   14  N   UNL     1     -11.077   9.177  69.346  1.00  0.00    -0.428 N  
HETATM   15  H   UNL     1     -11.513   8.621  68.610  1.00  0.00     0.000 HD 
HETATM   16  C   UNL     1     -11.123   8.678  70.629  1.00  0.00    -0.249 C  
HETATM   17  O   UNL     1     -10.589   9.226  71.585  1.00  0.00    -0.349 OA 
BRANCH  16  18
HETATM   18  CA  UNL     1     -11.957   7.365  70.729  1.00  0.00    -0.230 C  
HETATM   19  H2  UNL     1     -13.065   8.081  72.362  1.00  0.00     0.000 HD 
HETATM   20  N   UNL     1     -12.525   7.257  72.099  1.00  0.00    -0.492 NA 
HETATM   21  H1  UNL     1     -13.071   6.397  72.164  1.00  0.00     0.000 HD 
BRANCH  18  22
HETATM   22  C   UNL     1     -11.054   6.196  70.394  1.00  0.00    -0.420 C  
HETATM   23  C   UNL     1     -10.754   5.806  69.135  1.00  0.00    -0.370 C  
HETATM   24  C   UNL     1      -9.905   4.612  68.799  1.00  0.00    -0.201 C  
HETATM   25  C   UNL     1      -9.509   3.804  69.997  1.00  0.00    -0.264 C  
HETATM   26  C   UNL     1      -9.776   4.185  71.256  1.00  0.00    -0.255 C  
HETATM   27  C   UNL     1     -10.502   5.456  71.598  1.00  0.00    -0.291 C  
ENDBRANCH  18  22
ENDBRANCH  16  18
ENDBRANCH  13  14
TORSDOF 3
ENDMDL
MODEL       33
REMARK 921   NORMALIZED FREE ENERGY PREDICTED BY IDOCK:   -6.00 KCAL/MOL
REMARK 922        TOTAL FREE ENERGY PREDICTED BY IDOCK:   -7.71 KCAL/MOL
REMARK 923 INTER-LIGAND FREE ENERGY PREDICTED BY IDOCK:   -7.61 KCAL/MOL
REMARK 924 INTRA-LIGAND FREE ENERGY PREDICTED BY IDOCK:   -0.11 KCAL/MOL
REMARK 927      BINDING AFFINITY PREDICTED BY RF-SCORE:    0.00 PKD
ROOT
HETATM    1  C   UNL     1      -9.355  15.702  67.403  1.00  0.00    -0.210 C  
HETATM    2  S   UNL     1     -10.999  16.451  67.476  1.00  0.00    -0.111 SA 
HETATM    3  C   UNL     1     -10.423  18.050  66.878  1.00  0.00    -0.341 C  
HETATM    4  C   UNL     1      -9.189  18.575  67.586  1.00  0.00    -0.292 C  
HETATM    5  C   UNL     1      -9.126  20.088  67.529  1.00  0.00    -0.457 C  
HETATM    6  CA  UNL     1      -8.271  17.799  68.234  1.00  0.00    -0.285 C  
HETATM    7  N   UNL     1      -8.450  16.444  68.264  1.00  0.00    -0.188 N  
HETATM    8  C   UNL     1      -7.088  18.458  68.931  1.00  0.00    -0.276 C  
HETATM    9  C   UNL     1      -8.008  15.378  68.967  1.00  0.00    -0.202 C  
HETATM   10  O   UNL     1      -6.172  17.643  69.487  1.00  0.00    -0.242 OA 
HETATM   11  OXT UNL     1      -6.891  19.665  68.939  1.00  0.00    -0.314 OA 
HETATM   12  O   UNL     1      -7.130  15.315  69.794  1.00  0.00    -0.186 OA 
HETATM   13  CA  UNL     1      -9.127  14.471  68.342  1.00  0.00    -0.191 C  
ENDROOT
BRANCH  13  14
HETATM   14  N   UNL     1     -10.256  14.139  69.237  1.00  0.00    -0.431 N  
HETATM   15  H   UNL     1     -10.262  14.564  70.164  1.00  0.00     0.000 HD 
HETATM   16  C   UNL     1     -11.302  13.301  68.916  1.00  0.00    -0.288 C  
HETATM   17  O   UNL     1     -11.433  12.777  67.817  1.00  0.00    -0.283 OA 
BRANCH  16  18
HETATM   18  CA  UNL     1     -12.271  13.070  70.115  1.00  0.00    -0.272 C  
HETATM   19  H2  UNL     1     -11.955  15.005  70.865  1.00  0.00     0.000 HD 
HETATM   20  N   UNL     1     -11.943  14.040  71.194  1.00  0.00    -0.469 NA 
HETATM   21  H1  UNL     1     -12.577  13.889  71.978  1.00  0.00     0.000 HD 
BRANCH  18  22
HETATM   22  C   UNL     1     -12.129  11.635  70.578  1.00  0.00    -0.458 C  
HETATM   23  C   UNL     1     -11.212  10.768  70.094  1.00  0.00    -0.345 C  
HETATM   24  C   UNL     1     -11.106   9.329  70.510  1.00  0.00    -0.317 C  
HETATM   25  C   UNL     1     -12.200   8.893  71.437  1.00  0.00    -0.374 C  
HETATM   26  C   UNL     1     -13.106   9.741  71.948  1.00  0.00    -0.544 C  
HETATM   27  C   UNL     1     -13.124  11.212  71.643  1.00  0.00    -0.529 C  
ENDBRANCH  18  22
ENDBRANCH  16  18
ENDBRANCH  13  14
TORSDOF 3
ENDMDL
MODEL       34
REMARK 921   NORMALIZED FREE ENERGY PREDICTED BY IDOCK:   -5.97 KCAL/MOL
REMARK 922        TOTAL FREE ENERGY PREDICTED BY IDOCK:   -7.67 KCAL/MOL
REMARK 923 INTER-LIGAND FREE ENERGY PREDICTED BY IDOCK:   -7.09 KCAL/MOL
REMARK 924 INTRA-LIGAND FREE ENERGY PREDICTED BY IDOCK:   -0.58 KCAL/MOL
REMARK 927      BINDING AFFINITY PREDICTED BY RF-SCORE:    0.00 PKD
ROOT
HETATM    1  C   UNL     1     -10.565  10.428  68.120  1.00  0.00    -0.211 C  
HETATM    2  S   UNL     1      -9.071  11.374  67.740  1.00  0.00    -0.163 SA 
HETATM    3  C   UNL     1      -8.040   9.904  67.584  1.00  0.00    -0.110 C  
HETATM    4  C   UNL     1      -8.185   8.916  68.726  1.00  0.00    -0.115 C  
HETATM    5  C   UNL     1      -6.928   8.086  68.894  1.00  0.00    -0.062 C  
HETATM    6  CA  UNL     1      -9.280   8.811  69.535  1.00  0.00    -0.149 C  
HETATM    7  N   UNL     1     -10.343   9.645  69.324  1.00  0.00    -0.199 N  
HETATM    8  C   UNL     1      -9.283   7.792  70.666  1.00  0.00    -0.161 C  
HETATM    9  C   UNL     1     -11.437  10.080  69.986  1.00  0.00    -0.248 C  
HETATM   10  O   UNL     1     -10.418   7.676  71.383  1.00  0.00    -0.208 OA 
HETATM   11  OXT UNL     1      -8.354   7.032  70.899  1.00  0.00    -0.126 OA 
HETATM   12  O   UNL     1     -11.892   9.710  71.043  1.00  0.00    -0.299 OA 
HETATM   13  CA  UNL     1     -11.674  11.199  68.910  1.00  0.00    -0.337 C  
ENDROOT
BRANCH  13  14
HETATM   14  N   UNL     1     -11.318  12.572  69.326  1.00  0.00    -0.351 N  
HETATM   15  H   UNL     1     -10.767  12.678  70.177  1.00  0.00     0.000 HD 
HETATM   16  C   UNL     1     -11.671  13.721  68.651  1.00  0.00    -0.356 C  
HETATM   17  O   UNL     1     -12.282  13.719  67.591  1.00  0.00    -0.337 OA 
BRANCH  16  18
HETATM   18  CA  UNL     1     -11.237  15.014  69.407  1.00  0.00    -0.284 C  
HETATM   19  H2  UNL     1      -9.218  14.745  68.903  1.00  0.00     0.000 HD 
HETATM   20  N   UNL     1      -9.789  14.921  69.729  1.00  0.00    -0.445 NA 
HETATM   21  H1  UNL     1      -9.505  15.767  70.224  1.00  0.00     0.000 HD 
BRANCH  18  22
HETATM   22  C   UNL     1     -12.089  15.151  70.652  1.00  0.00    -0.378 C  
HETATM   23  C   UNL     1     -13.439  15.223  70.644  1.00  0.00    -0.257 C  
HETATM   24  C   UNL     1     -14.283  15.416  71.872  1.00  0.00    -0.640 C  
HETATM   25  C   UNL     1     -13.482  15.646  73.118  1.00  0.00    -0.620 C  
HETATM   26  C   UNL     1     -12.144  15.556  73.153  1.00  0.00    -0.591 C  
HETATM   27  C   UNL     1     -11.307  15.220  71.950  1.00  0.00    -0.447 C  
ENDBRANCH  18  22
ENDBRANCH  16  18
ENDBRANCH  13  14
TORSDOF 3
ENDMDL
MODEL       35
REMARK 921   NORMALIZED FREE ENERGY PREDICTED BY IDOCK:   -5.93 KCAL/MOL
REMARK 922        TOTAL FREE ENERGY PREDICTED BY IDOCK:   -7.62 KCAL/MOL
REMARK 923 INTER-LIGAND FREE ENERGY PREDICTED BY IDOCK:   -7.17 KCAL/MOL
REMARK 924 INTRA-LIGAND FREE ENERGY PREDICTED BY IDOCK:   -0.45 KCAL/MOL
REMARK 927      BINDING AFFINITY PREDICTED BY RF-SCORE:    0.00 PKD
ROOT
HETATM    1  C   UNL     1     -11.183  12.209  65.902  1.00  0.00    -0.339 C  
HETATM    2  S   UNL     1     -10.530  13.276  64.597  1.00  0.00    -0.387 SA 
HETATM    3  C   UNL     1     -10.504  11.956  63.371  1.00  0.00    -0.441 C  
HETATM    4  C   UNL     1      -9.864  10.668  63.853  1.00  0.00    -0.398 C  
HETATM    5  C   UNL     1      -9.301   9.869  62.694  1.00  0.00    -0.249 C  
HETATM    6  CA  UNL     1      -9.759  10.289  65.160  1.00  0.00    -0.300 C  
HETATM    7  N   UNL     1     -10.260  11.111  66.131  1.00  0.00    -0.237 N  
HETATM    8  C   UNL     1      -9.065   8.980  65.510  1.00  0.00    -0.214 C  
HETATM    9  C   UNL     1     -10.146  11.291  67.466  1.00  0.00    -0.183 C  
HETATM   10  O   UNL     1      -9.058   8.616  66.807  1.00  0.00    -0.136 OA 
HETATM   11  OXT UNL     1      -8.593   8.217  64.678  1.00  0.00    -0.106 OA 
HETATM   12  O   UNL     1      -9.580  10.608  68.286  1.00  0.00    -0.153 OA 
HETATM   13  CA  UNL     1     -10.889  12.671  67.369  1.00  0.00    -0.243 C  
ENDROOT
BRANCH  13  14
HETATM   14  N   UNL     1     -10.033  13.869  67.495  1.00  0.00    -0.237 N  
HETATM   15  H   UNL     1      -9.048  13.772  67.250  1.00  0.00     0.000 HD 
HETATM   16  C   UNL     1     -10.462  15.108  67.918  1.00  0.00    -0.245 C  
HETATM   17  O   UNL     1     -11.629  15.362  68.187  1.00  0.00    -0.347 OA 
BRANCH  16  18
HETATM   18  CA  UNL     1      -9.293  16.132  68.049  1.00  0.00    -0.203 C  
HETATM   19  H2  UNL     1      -8.537  15.192  69.767  1.00  0.00     0.000 HD 
HETATM   20  N   UNL     1      -8.800  16.126  69.451  1.00  0.00    -0.188 NA 
HETATM   21  H1  UNL     1      -8.035  16.795  69.536  1.00  0.00     0.000 HD 
BRANCH  18  22
HETATM   22  C   UNL     1      -9.800  17.496  67.629  1.00  0.00    -0.291 C  
HETATM   23  C   UNL     1     -10.183  17.810  66.371  1.00  0.00    -0.365 C  
HETATM   24  C   UNL     1     -10.632  19.177  65.940  1.00  0.00    -0.495 C  
HETATM   25  C   UNL     1     -10.503  20.215  67.014  1.00  0.00    -0.435 C  
HETATM   26  C   UNL     1     -10.148  19.922  68.274  1.00  0.00    -0.571 C  
HETATM   27  C   UNL     1      -9.837  18.527  68.742  1.00  0.00    -0.411 C  
ENDBRANCH  18  22
ENDBRANCH  16  18
ENDBRANCH  13  14
TORSDOF 3
ENDMDL
MODEL       36
REMARK 921   NORMALIZED FREE ENERGY PREDICTED BY IDOCK:   -5.90 KCAL/MOL
REMARK 922        TOTAL FREE ENERGY PREDICTED BY IDOCK:   -7.60 KCAL/MOL
REMARK 923 INTER-LIGAND FREE ENERGY PREDICTED BY IDOCK:   -7.00 KCAL/MOL
REMARK 924 INTRA-LIGAND FREE ENERGY PREDICTED BY IDOCK:   -0.59 KCAL/MOL
REMARK 927      BINDING AFFINITY PREDICTED BY RF-SCORE:    0.00 PKD
ROOT
HETATM    1  C   UNL     1      -9.044  15.273  66.003  1.00  0.00    -0.209 C  
HETATM    2  S   UNL     1     -10.726  15.317  65.340  1.00  0.00    -0.419 SA 
HETATM    3  C   UNL     1     -10.701  17.100  65.081  1.00  0.00     0.004 C  
HETATM    4  C   UNL     1     -10.209  17.897  66.274  1.00  0.00    -0.363 C  
HETATM    5  C   UNL     1     -10.782  19.300  66.269  1.00  0.00    -0.477 C  
HETATM    6  CA  UNL     1      -9.395  17.411  67.256  1.00  0.00    -0.238 C  
HETATM    7  N   UNL     1      -8.974  16.112  67.187  1.00  0.00    -0.194 N  
HETATM    8  C   UNL     1      -8.997  18.313  68.417  1.00  0.00    -0.309 C  
HETATM    9  C   UNL     1      -8.442  15.174  68.001  1.00  0.00    -0.148 C  
HETATM   10  O   UNL     1      -8.129  17.809  69.316  1.00  0.00    -0.003 OA 
HETATM   11  OXT UNL     1      -9.355  19.477  68.527  1.00  0.00    -0.354 OA 
HETATM   12  O   UNL     1      -8.035  15.282  69.133  1.00  0.00    -0.180 OA 
HETATM   13  CA  UNL     1      -8.711  14.057  66.930  1.00  0.00    -0.164 C  
ENDROOT
BRANCH  13  14
HETATM   14  N   UNL     1      -9.844  13.152  67.219  1.00  0.00    -0.228 N  
HETATM   15  H   UNL     1     -10.706  13.296  66.695  1.00  0.00     0.000 HD 
HETATM   16  C   UNL     1      -9.825  12.129  68.142  1.00  0.00    -0.207 C  
HETATM   17  O   UNL     1      -8.832  11.824  68.791  1.00  0.00    -0.102 OA 
BRANCH  16  18
HETATM   18  CA  UNL     1     -11.212  11.433  68.289  1.00  0.00    -0.263 C  
HETATM   19  H2  UNL     1     -11.500  11.358  66.211  1.00  0.00     0.000 HD 
HETATM   20  N   UNL     1     -11.999  11.659  67.048  1.00  0.00    -0.539 NA 
HETATM   21  H1  UNL     1     -12.907  11.203  67.144  1.00  0.00     0.000 HD 
BRANCH  18  22
HETATM   22  C   UNL     1     -11.905  11.995  69.512  1.00  0.00    -0.390 C  
HETATM   23  C   UNL     1     -12.006  13.314  69.788  1.00  0.00    -0.391 C  
HETATM   24  C   UNL     1     -12.642  13.873  71.029  1.00  0.00    -0.444 C  
HETATM   25  C   UNL     1     -13.058  12.821  72.013  1.00  0.00    -0.474 C  
HETATM   26  C   UNL     1     -12.988  11.507  71.751  1.00  0.00    -0.500 C  
HETATM   27  C   UNL     1     -12.483  10.950  70.449  1.00  0.00    -0.411 C  
ENDBRANCH  18  22
ENDBRANCH  16  18
ENDBRANCH  13  14
TORSDOF 3
ENDMDL
MODEL       37
REMARK 921   NORMALIZED FREE ENERGY PREDICTED BY IDOCK:   -5.87 KCAL/MOL
REMARK 922        TOTAL FREE ENERGY PREDICTED BY IDOCK:   -7.56 KCAL/MOL
REMARK 923 INTER-LIGAND FREE ENERGY PREDICTED BY IDOCK:   -6.84 KCAL/MOL
REMARK 924 INTRA-LIGAND FREE ENERGY PREDICTED BY IDOCK:   -0.72 KCAL/MOL
REMARK 927      BINDING AFFINITY PREDICTED BY RF-SCORE:    0.00 PKD
ROOT
HETATM    1  C   UNL     1     -11.904  12.481  66.529  1.00  0.00    -0.367 C  
HETATM    2  S   UNL     1     -11.178  13.938  65.743  1.00  0.00    -0.308 SA 
HETATM    3  C   UNL     1     -10.882  13.089  64.181  1.00  0.00    -0.405 C  
HETATM    4  C   UNL     1     -10.204  11.740  64.321  1.00  0.00    -0.344 C  
HETATM    5  C   UNL     1      -9.429  11.383  63.069  1.00  0.00    -0.380 C  
HETATM    6  CA  UNL     1     -10.239  10.961  65.442  1.00  0.00    -0.277 C  
HETATM    7  N   UNL     1     -10.930  11.403  66.536  1.00  0.00    -0.286 N  
HETATM    8  C   UNL     1      -9.489   9.637  65.460  1.00  0.00    -0.266 C  
HETATM    9  C   UNL     1     -11.006  11.144  67.860  1.00  0.00    -0.253 C  
HETATM   10  O   UNL     1      -9.621   8.871  66.561  1.00  0.00    -0.191 OA 
HETATM   11  OXT UNL     1      -8.850   9.204  64.511  1.00  0.00    -0.189 OA 
HETATM   12  O   UNL     1     -10.497  10.253  68.498  1.00  0.00    -0.173 OA 
HETATM   13  CA  UNL     1     -11.844  12.452  68.093  1.00  0.00    -0.315 C  
ENDROOT
BRANCH  13  14
HETATM   14  N   UNL     1     -11.116  13.575  68.720  1.00  0.00    -0.255 N  
HETATM   15  H   UNL     1     -10.108  13.624  68.571  1.00  0.00     0.000 HD 
HETATM   16  C   UNL     1     -11.692  14.563  69.489  1.00  0.00    -0.314 C  
HETATM   17  O   UNL     1     -12.897  14.642  69.692  1.00  0.00    -0.057 OA 
BRANCH  16  18
HETATM   18  CA  UNL     1     -10.638  15.538  70.095  1.00  0.00    -0.320 C  
HETATM   19  H2  UNL     1     -11.765  15.821  71.843  1.00  0.00     0.000 HD 
HETATM   20  N   UNL     1     -11.296  16.379  71.129  1.00  0.00    -0.451 NA 
HETATM   21  H1  UNL     1     -10.606  17.017  71.525  1.00  0.00     0.000 HD 
BRANCH  18  22
HETATM   22  C   UNL     1     -10.053  16.371  68.973  1.00  0.00    -0.262 C  
HETATM   23  C   UNL     1     -10.781  17.169  68.160  1.00  0.00    -0.366 C  
HETATM   24  C   UNL     1     -10.212  17.951  67.011  1.00  0.00    -0.359 C  
HETATM   25  C   UNL     1      -8.760  17.675  66.761  1.00  0.00    -0.277 C  
HETATM   26  C   UNL     1      -8.013  16.906  67.568  1.00  0.00    -0.186 C  
HETATM   27  C   UNL     1      -8.551  16.237  68.801  1.00  0.00    -0.240 C  
ENDBRANCH  18  22
ENDBRANCH  16  18
ENDBRANCH  13  14
TORSDOF 3
ENDMDL
MODEL       38
REMARK 921   NORMALIZED FREE ENERGY PREDICTED BY IDOCK:   -5.86 KCAL/MOL
REMARK 922        TOTAL FREE ENERGY PREDICTED BY IDOCK:   -7.55 KCAL/MOL
REMARK 923 INTER-LIGAND FREE ENERGY PREDICTED BY IDOCK:   -7.06 KCAL/MOL
REMARK 924 INTRA-LIGAND FREE ENERGY PREDICTED BY IDOCK:   -0.49 KCAL/MOL
REMARK 927      BINDING AFFINITY PREDICTED BY RF-SCORE:    0.00 PKD
ROOT
HETATM    1  C   UNL     1     -11.980  13.146  67.343  1.00  0.00    -0.327 C  
HETATM    2  S   UNL     1     -11.307  12.719  68.966  1.00  0.00    -0.296 SA 
HETATM    3  C   UNL     1     -11.636  14.350  69.659  1.00  0.00    -0.292 C  
HETATM    4  C   UNL     1     -11.168  15.503  68.793  1.00  0.00    -0.316 C  
HETATM    5  C   UNL     1     -10.877  16.734  69.628  1.00  0.00    -0.205 C  
HETATM    6  CA  UNL     1     -10.983  15.440  67.442  1.00  0.00    -0.312 C  
HETATM    7  N   UNL     1     -11.231  14.263  66.792  1.00  0.00    -0.322 N  
HETATM    8  C   UNL     1     -10.481  16.668  66.694  1.00  0.00    -0.258 C  
HETATM    9  C   UNL     1     -10.942  13.676  65.610  1.00  0.00    -0.290 C  
HETATM   10  O   UNL     1     -10.392  16.576  65.353  1.00  0.00    -0.558 OA 
HETATM   11  OXT UNL     1     -10.238  17.739  67.232  1.00  0.00    -0.324 OA 
HETATM   12  O   UNL     1     -10.410  14.145  64.631  1.00  0.00    -0.432 OA 
HETATM   13  CA  UNL     1     -11.452  12.291  66.143  1.00  0.00    -0.374 C  
ENDROOT
BRANCH  13  14
HETATM   14  N   UNL     1     -10.401  11.308  66.479  1.00  0.00    -0.232 N  
HETATM   15  H   UNL     1     -10.040  11.313  67.433  1.00  0.00     0.000 HD 
HETATM   16  C   UNL     1      -9.871  10.384  65.605  1.00  0.00    -0.259 C  
HETATM   17  O   UNL     1     -10.261  10.245  64.453  1.00  0.00    -0.298 OA 
BRANCH  16  18
HETATM   18  CA  UNL     1      -8.702   9.568  66.236  1.00  0.00    -0.143 C  
HETATM   19  H2  UNL     1      -7.250  10.638  65.164  1.00  0.00     0.000 HD 
HETATM   20  N   UNL     1      -7.510   9.671  65.354  1.00  0.00    -0.106 NA 
HETATM   21  H1  UNL     1      -6.745   9.137  65.768  1.00  0.00     0.000 HD 
BRANCH  18  22
HETATM   22  C   UNL     1      -9.157   8.134  66.413  1.00  0.00    -0.226 C  
HETATM   23  C   UNL     1      -8.559   7.071  65.831  1.00  0.00    -0.152 C  
HETATM   24  C   UNL     1      -9.043   5.654  65.958  1.00  0.00    -0.164 C  
HETATM   25  C   UNL     1     -10.338   5.529  66.700  1.00  0.00    -0.322 C  
HETATM   26  C   UNL     1     -10.936   6.566  67.305  1.00  0.00    -0.475 C  
HETATM   27  C   UNL     1     -10.377   7.961  67.299  1.00  0.00    -0.377 C  
ENDBRANCH  18  22
ENDBRANCH  16  18
ENDBRANCH  13  14
TORSDOF 3
ENDMDL
MODEL       39
REMARK 921   NORMALIZED FREE ENERGY PREDICTED BY IDOCK:   -5.86 KCAL/MOL
REMARK 922        TOTAL FREE ENERGY PREDICTED BY IDOCK:   -7.54 KCAL/MOL
REMARK 923 INTER-LIGAND FREE ENERGY PREDICTED BY IDOCK:   -7.33 KCAL/MOL
REMARK 924 INTRA-LIGAND FREE ENERGY PREDICTED BY IDOCK:   -0.21 KCAL/MOL
REMARK 927      BINDING AFFINITY PREDICTED BY RF-SCORE:    0.00 PKD
ROOT
HETATM    1  C   UNL     1     -11.160  10.107  68.856  1.00  0.00    -0.207 C  
HETATM    2  S   UNL     1      -9.362  10.153  68.661  1.00  0.00    -0.168 SA 
HETATM    3  C   UNL     1      -9.139   8.470  69.265  1.00  0.00    -0.153 C  
HETATM    4  C   UNL     1      -9.873   8.167  70.557  1.00  0.00    -0.194 C  
HETATM    5  C   UNL     1      -9.190   7.055  71.328  1.00  0.00    -0.152 C  
HETATM    6  CA  UNL     1     -10.977   8.834  71.003  1.00  0.00    -0.268 C  
HETATM    7  N   UNL     1     -11.485   9.856  70.249  1.00  0.00    -0.273 N  
HETATM    8  C   UNL     1     -11.602   8.447  72.336  1.00  0.00    -0.380 C  
HETATM    9  C   UNL     1     -12.315  10.911  70.399  1.00  0.00    -0.351 C  
HETATM   10  O   UNL     1     -12.736   9.083  72.691  1.00  0.00    -0.351 OA 
HETATM   11  OXT UNL     1     -11.179   7.547  73.049  1.00  0.00    -0.361 OA 
HETATM   12  O   UNL     1     -13.017  11.207  71.337  1.00  0.00    -0.408 OA 
HETATM   13  CA  UNL     1     -11.861  11.498  69.016  1.00  0.00    -0.343 C  
ENDROOT
BRANCH  13  14
HETATM   14  N   UNL     1     -10.952  12.662  69.081  1.00  0.00    -0.414 N  
HETATM   15  H   UNL     1     -10.042  12.523  69.520  1.00  0.00     0.000 HD 
HETATM   16  C   UNL     1     -11.238  13.919  68.596  1.00  0.00    -0.270 C  
HETATM   17  O   UNL     1     -12.272  14.193  68.001  1.00  0.00    -0.310 OA 
BRANCH  16  18
HETATM   18  CA  UNL     1     -10.117  14.953  68.920  1.00  0.00    -0.236 C  
HETATM   19  H2  UNL     1     -10.191  14.531  70.975  1.00  0.00     0.000 HD 
HETATM   20  N   UNL     1     -10.215  15.339  70.352  1.00  0.00    -0.478 NA 
HETATM   21  H1  UNL     1      -9.482  16.015  70.564  1.00  0.00     0.000 HD 
BRANCH  18  22
HETATM   22  C   UNL     1     -10.279  16.143  67.998  1.00  0.00    -0.252 C  
HETATM   23  C   UNL     1     -10.232  16.069  66.648  1.00  0.00    -0.295 C  
HETATM   24  C   UNL     1     -10.336  17.256  65.733  1.00  0.00    -0.245 C  
HETATM   25  C   UNL     1     -10.377  18.568  66.457  1.00  0.00    -0.447 C  
HETATM   26  C   UNL     1     -10.447  18.663  67.793  1.00  0.00    -0.457 C  
HETATM   27  C   UNL     1     -10.488  17.469  68.705  1.00  0.00    -0.318 C  
ENDBRANCH  18  22
ENDBRANCH  16  18
ENDBRANCH  13  14
TORSDOF 3
ENDMDL
MODEL       40
REMARK 921   NORMALIZED FREE ENERGY PREDICTED BY IDOCK:   -5.84 KCAL/MOL
REMARK 922        TOTAL FREE ENERGY PREDICTED BY IDOCK:   -7.52 KCAL/MOL
REMARK 923 INTER-LIGAND FREE ENERGY PREDICTED BY IDOCK:   -6.97 KCAL/MOL
REMARK 924 INTRA-LIGAND FREE ENERGY PREDICTED BY IDOCK:   -0.56 KCAL/MOL
REMARK 927      BINDING AFFINITY PREDICTED BY RF-SCORE:    0.00 PKD
ROOT
HETATM    1  C   UNL     1      -8.632  16.617  66.232  1.00  0.00    -0.324 C  
HETATM    2  S   UNL     1     -10.195  17.512  66.081  1.00  0.00    -0.282 SA 
HETATM    3  C   UNL     1      -9.402  19.131  66.094  1.00  0.00    -0.239 C  
HETATM    4  C   UNL     1      -8.388  19.320  67.205  1.00  0.00    -0.309 C  
HETATM    5  C   UNL     1      -8.241  20.784  67.570  1.00  0.00    -0.186 C  
HETATM    6  CA  UNL     1      -7.722  18.309  67.836  1.00  0.00    -0.243 C  
HETATM    7  N   UNL     1      -7.965  17.017  67.459  1.00  0.00    -0.172 N  
HETATM    8  C   UNL     1      -6.747  18.637  68.958  1.00  0.00    -0.276 C  
HETATM    9  C   UNL     1      -7.785  15.769  67.942  1.00  0.00    -0.133 C  
HETATM   10  O   UNL     1      -6.058  17.609  69.493  1.00  0.00    -0.231 OA 
HETATM   11  OXT UNL     1      -6.502  19.774  69.336  1.00  0.00    -0.312 OA 
HETATM   12  O   UNL     1      -7.172  15.405  68.918  1.00  0.00    -0.121 OA 
HETATM   13  CA  UNL     1      -8.729  15.177  66.837  1.00  0.00    -0.259 C  
ENDROOT
BRANCH  13  14
HETATM   14  N   UNL     1     -10.075  14.772  67.295  1.00  0.00    -0.235 N  
HETATM   15  H   UNL     1     -10.872  15.293  66.930  1.00  0.00     0.000 HD 
HETATM   16  C   UNL     1     -10.337  13.745  68.176  1.00  0.00    -0.252 C  
HETATM   17  O   UNL     1      -9.470  13.015  68.637  1.00  0.00    -0.134 OA 
BRANCH  16  18
HETATM   18  CA  UNL     1     -11.850  13.645  68.542  1.00  0.00    -0.371 C  
HETATM   19  H2  UNL     1     -12.448  13.926  66.549  1.00  0.00     0.000 HD 
HETATM   20  N   UNL     1     -12.649  14.303  67.475  1.00  0.00    -0.409 NA 
HETATM   21  H1  UNL     1     -13.638  14.238  67.715  1.00  0.00     0.000 HD 
BRANCH  18  22
HETATM   22  C   UNL     1     -12.061  14.295  69.894  1.00  0.00    -0.404 C  
HETATM   23  C   UNL     1     -11.571  15.507  70.238  1.00  0.00    -0.355 C  
HETATM   24  C   UNL     1     -11.731  16.129  71.596  1.00  0.00    -0.558 C  
HETATM   25  C   UNL     1     -12.388  15.224  72.594  1.00  0.00    -0.482 C  
HETATM   26  C   UNL     1     -12.901  14.028  72.269  1.00  0.00    -0.403 C  
HETATM   27  C   UNL     1     -12.869  13.467  70.875  1.00  0.00    -0.279 C  
ENDBRANCH  18  22
ENDBRANCH  16  18
ENDBRANCH  13  14
TORSDOF 3
ENDMDL
MODEL       41
REMARK 921   NORMALIZED FREE ENERGY PREDICTED BY IDOCK:   -5.83 KCAL/MOL
REMARK 922        TOTAL FREE ENERGY PREDICTED BY IDOCK:   -7.51 KCAL/MOL
REMARK 923 INTER-LIGAND FREE ENERGY PREDICTED BY IDOCK:   -7.17 KCAL/MOL
REMARK 924 INTRA-LIGAND FREE ENERGY PREDICTED BY IDOCK:   -0.34 KCAL/MOL
REMARK 927      BINDING AFFINITY PREDICTED BY RF-SCORE:    0.00 PKD
ROOT
HETATM    1  C   UNL     1     -11.670  14.508  66.660  1.00  0.00    -0.371 C  
HETATM    2  S   UNL     1     -10.154  14.657  65.686  1.00  0.00    -0.374 SA 
HETATM    3  C   UNL     1     -10.308  13.006  64.980  1.00  0.00    -0.318 C  
HETATM    4  C   UNL     1     -10.595  11.916  65.995  1.00  0.00    -0.304 C  
HETATM    5  C   UNL     1     -10.098  10.570  65.508  1.00  0.00    -0.349 C  
HETATM    6  CA  UNL     1     -11.180  12.117  67.212  1.00  0.00    -0.306 C  
HETATM    7  N   UNL     1     -11.547  13.384  67.571  1.00  0.00    -0.323 N  
HETATM    8  C   UNL     1     -11.384  10.936  68.151  1.00  0.00    -0.315 C  
HETATM    9  C   UNL     1     -11.867  14.068  68.692  1.00  0.00    -0.361 C  
HETATM   10  O   UNL     1     -12.037  11.175  69.305  1.00  0.00    -0.338 OA 
HETATM   11  OXT UNL     1     -11.065   9.787  67.878  1.00  0.00    -0.236 OA 
HETATM   12  O   UNL     1     -12.050  13.659  69.814  1.00  0.00    -0.320 OA 
HETATM   13  CA  UNL     1     -11.761  15.431  67.920  1.00  0.00    -0.184 C  
ENDROOT
BRANCH  13  14
HETATM   14  N   UNL     1     -10.554  16.236  68.205  1.00  0.00    -0.294 N  
HETATM   15  H   UNL     1      -9.869  15.844  68.851  1.00  0.00     0.000 HD 
HETATM   16  C   UNL     1     -10.282  17.474  67.664  1.00  0.00    -0.343 C  
HETATM   17  O   UNL     1     -10.999  18.021  66.837  1.00  0.00    -0.158 OA 
BRANCH  16  18
HETATM   18  CA  UNL     1      -8.984  18.108  68.251  1.00  0.00    -0.296 C  
HETATM   19  H2  UNL     1     -10.048  19.150  69.730  1.00  0.00     0.000 HD 
HETATM   20  N   UNL     1      -9.346  19.332  69.012  1.00  0.00    -0.343 NA 
HETATM   21  H1  UNL     1      -8.496  19.746  69.396  1.00  0.00     0.000 HD 
BRANCH  18  22
HETATM   22  C   UNL     1      -8.037  18.408  67.107  1.00  0.00    -0.244 C  
HETATM   23  C   UNL     1      -7.103  17.545  66.648  1.00  0.00    -0.268 C  
HETATM   24  C   UNL     1      -6.125  17.861  65.553  1.00  0.00    -0.139 C  
HETATM   25  C   UNL     1      -6.193  19.283  65.082  1.00  0.00    -0.312 C  
HETATM   26  C   UNL     1      -7.126  20.148  65.507  1.00  0.00    -0.315 C  
HETATM   27  C   UNL     1      -8.196  19.789  66.499  1.00  0.00    -0.363 C  
ENDBRANCH  18  22
ENDBRANCH  16  18
ENDBRANCH  13  14
TORSDOF 3
ENDMDL
MODEL       42
REMARK 921   NORMALIZED FREE ENERGY PREDICTED BY IDOCK:   -5.79 KCAL/MOL
REMARK 922        TOTAL FREE ENERGY PREDICTED BY IDOCK:   -7.47 KCAL/MOL
REMARK 923 INTER-LIGAND FREE ENERGY PREDICTED BY IDOCK:   -6.81 KCAL/MOL
REMARK 924 INTRA-LIGAND FREE ENERGY PREDICTED BY IDOCK:   -0.66 KCAL/MOL
REMARK 927      BINDING AFFINITY PREDICTED BY RF-SCORE:    0.00 PKD
ROOT
HETATM    1  C   UNL     1     -12.512  11.785  69.710  1.00  0.00     0.012 C  
HETATM    2  S   UNL     1     -12.584  10.905  71.288  1.00  0.00    -0.417 SA 
HETATM    3  C   UNL     1     -13.478  12.232  72.119  1.00  0.00    -0.327 C  
HETATM    4  C   UNL     1     -12.882  13.611  71.912  1.00  0.00    -0.381 C  
HETATM    5  C   UNL     1     -13.227  14.536  73.062  1.00  0.00    -0.575 C  
HETATM    6  CA  UNL     1     -12.096  13.972  70.855  1.00  0.00    -0.329 C  
HETATM    7  N   UNL     1     -11.808  13.043  69.895  1.00  0.00    -0.325 N  
HETATM    8  C   UNL     1     -11.538  15.387  70.783  1.00  0.00    -0.347 C  
HETATM    9  C   UNL     1     -10.914  12.858  68.898  1.00  0.00    -0.228 C  
HETATM   10  O   UNL     1     -10.835  15.714  69.681  1.00  0.00    -0.239 OA 
HETATM   11  OXT UNL     1     -11.761  16.249  71.621  1.00  0.00    -0.480 OA 
HETATM   12  O   UNL     1     -10.089  13.622  68.456  1.00  0.00    -0.231 OA 
HETATM   13  CA  UNL     1     -11.354  11.358  68.747  1.00  0.00    -0.271 C  
ENDROOT
BRANCH  13  14
HETATM   14  N   UNL     1     -10.414  10.357  69.293  1.00  0.00    -0.220 N  
HETATM   15  H   UNL     1      -9.941  10.583  70.167  1.00  0.00     0.000 HD 
HETATM   16  C   UNL     1     -10.126   9.141  68.711  1.00  0.00    -0.197 C  
HETATM   17  O   UNL     1     -10.670   8.735  67.693  1.00  0.00    -0.234 OA 
BRANCH  16  18
HETATM   18  CA  UNL     1      -9.010   8.365  69.475  1.00  0.00    -0.149 C  
HETATM   19  H2  UNL     1      -8.384   7.366  67.738  1.00  0.00     0.000 HD 
HETATM   20  N   UNL     1      -8.650   7.149  68.699  1.00  0.00    -0.125 NA 
HETATM   21  H1  UNL     1      -7.920   6.641  69.199  1.00  0.00     0.000 HD 
BRANCH  18  22
HETATM   22  C   UNL     1      -9.523   8.025  70.859  1.00  0.00    -0.178 C  
HETATM   23  C   UNL     1      -8.926   8.415  72.007  1.00  0.00    -0.290 C  
HETATM   24  C   UNL     1      -9.400   8.032  73.380  1.00  0.00    -0.323 C  
HETATM   25  C   UNL     1     -10.543   7.063  73.369  1.00  0.00    -0.399 C  
HETATM   26  C   UNL     1     -11.166   6.681  72.244  1.00  0.00    -0.303 C  
HETATM   27  C   UNL     1     -10.782   7.177  70.878  1.00  0.00    -0.251 C  
ENDBRANCH  18  22
ENDBRANCH  16  18
ENDBRANCH  13  14
TORSDOF 3
ENDMDL
MODEL       43
REMARK 921   NORMALIZED FREE ENERGY PREDICTED BY IDOCK:   -5.78 KCAL/MOL
REMARK 922        TOTAL FREE ENERGY PREDICTED BY IDOCK:   -7.45 KCAL/MOL
REMARK 923 INTER-LIGAND FREE ENERGY PREDICTED BY IDOCK:   -6.80 KCAL/MOL
REMARK 924 INTRA-LIGAND FREE ENERGY PREDICTED BY IDOCK:   -0.65 KCAL/MOL
REMARK 927      BINDING AFFINITY PREDICTED BY RF-SCORE:    0.00 PKD
ROOT
HETATM    1  C   UNL     1     -12.637  12.051  69.655  1.00  0.00     0.305 C  
HETATM    2  S   UNL     1     -12.731  11.120  71.203  1.00  0.00    -0.378 SA 
HETATM    3  C   UNL     1     -13.513  12.472  72.102  1.00  0.00    -0.422 C  
HETATM    4  C   UNL     1     -12.831  13.816  71.928  1.00  0.00    -0.400 C  
HETATM    5  C   UNL     1     -13.085  14.718  73.118  1.00  0.00    -0.598 C  
HETATM    6  CA  UNL     1     -12.048  14.162  70.864  1.00  0.00    -0.344 C  
HETATM    7  N   UNL     1     -11.846  13.251  69.864  1.00  0.00    -0.320 N  
HETATM    8  C   UNL     1     -11.398  15.538  70.827  1.00  0.00    -0.355 C  
HETATM    9  C   UNL     1     -10.990  13.044  68.839  1.00  0.00    -0.230 C  
HETATM   10  O   UNL     1     -10.701  15.857  69.719  1.00  0.00    -0.270 OA 
HETATM   11  OXT UNL     1     -11.542  16.382  71.700  1.00  0.00    -0.443 OA 
HETATM   12  O   UNL     1     -10.127  13.768  68.402  1.00  0.00    -0.233 OA 
HETATM   13  CA  UNL     1     -11.534  11.584  68.648  1.00  0.00    -0.293 C  
ENDROOT
BRANCH  13  14
HETATM   14  N   UNL     1     -10.650  10.502  69.133  1.00  0.00    -0.214 N  
HETATM   15  H   UNL     1     -10.292  10.579  70.084  1.00  0.00     0.000 HD 
HETATM   16  C   UNL     1     -10.273   9.399  68.399  1.00  0.00    -0.197 C  
HETATM   17  O   UNL     1     -10.680   9.169  67.268  1.00  0.00    -0.262 OA 
BRANCH  16  18
HETATM   18  CA  UNL     1      -9.246   8.503  69.157  1.00  0.00    -0.150 C  
HETATM   19  H2  UNL     1      -8.412   7.783  67.370  1.00  0.00     0.000 HD 
HETATM   20  N   UNL     1      -8.786   7.421  68.247  1.00  0.00    -0.123 NA 
HETATM   21  H1  UNL     1      -8.114   6.835  68.743  1.00  0.00     0.000 HD 
BRANCH  18  22
HETATM   22  C   UNL     1      -9.913   7.954  70.401  1.00  0.00    -0.192 C  
HETATM   23  C   UNL     1     -11.002   7.152  70.388  1.00  0.00    -0.290 C  
HETATM   24  C   UNL     1     -11.699   6.653  71.621  1.00  0.00    -0.362 C  
HETATM   25  C   UNL     1     -11.150   7.226  72.892  1.00  0.00    -0.369 C  
HETATM   26  C   UNL     1     -10.058   8.005  72.930  1.00  0.00    -0.376 C  
HETATM   27  C   UNL     1      -9.273   8.388  71.707  1.00  0.00    -0.287 C  
ENDBRANCH  18  22
ENDBRANCH  16  18
ENDBRANCH  13  14
TORSDOF 3
ENDMDL
MODEL       44
REMARK 921   NORMALIZED FREE ENERGY PREDICTED BY IDOCK:   -5.77 KCAL/MOL
REMARK 922        TOTAL FREE ENERGY PREDICTED BY IDOCK:   -7.44 KCAL/MOL
REMARK 923 INTER-LIGAND FREE ENERGY PREDICTED BY IDOCK:   -7.02 KCAL/MOL
REMARK 924 INTRA-LIGAND FREE ENERGY PREDICTED BY IDOCK:   -0.42 KCAL/MOL
REMARK 927      BINDING AFFINITY PREDICTED BY RF-SCORE:    0.00 PKD
ROOT
HETATM    1  C   UNL     1      -9.351  11.290  66.526  1.00  0.00    -0.185 C  
HETATM    2  S   UNL     1      -9.694   9.943  65.370  1.00  0.00    -0.305 SA 
HETATM    3  C   UNL     1     -10.091  11.057  64.010  1.00  0.00    -0.350 C  
HETATM    4  C   UNL     1     -11.058  12.167  64.373  1.00  0.00    -0.387 C  
HETATM    5  C   UNL     1     -11.827  12.645  63.158  1.00  0.00    -0.341 C  
HETATM    6  CA  UNL     1     -11.254  12.650  65.635  1.00  0.00    -0.309 C  
HETATM    7  N   UNL     1     -10.539  12.114  66.670  1.00  0.00    -0.230 N  
HETATM    8  C   UNL     1     -12.279  13.751  65.867  1.00  0.00    -0.466 C  
HETATM    9  C   UNL     1     -10.590  12.062  68.019  1.00  0.00    -0.208 C  
HETATM   10  O   UNL     1     -12.377  14.246  67.117  1.00  0.00    -0.360 OA 
HETATM   11  OXT UNL     1     -12.948  14.256  64.977  1.00  0.00    -0.693 OA 
HETATM   12  O   UNL     1     -11.317  12.655  68.782  1.00  0.00    -0.249 OA 
HETATM   13  CA  UNL     1      -9.497  10.936  68.044  1.00  0.00    -0.163 C  
ENDROOT
BRANCH  13  14
HETATM   14  N   UNL     1      -9.989   9.572  68.331  1.00  0.00    -0.159 N  
HETATM   15  H   UNL     1     -10.975   9.381  68.156  1.00  0.00     0.000 HD 
HETATM   16  C   UNL     1      -9.218   8.538  68.818  1.00  0.00    -0.142 C  
HETATM   17  O   UNL     1      -8.014   8.630  69.014  1.00  0.00    -0.110 OA 
BRANCH  16  18
HETATM   18  CA  UNL     1     -10.059   7.260  69.120  1.00  0.00    -0.183 C  
HETATM   19  H2  UNL     1     -10.978   7.304  67.233  1.00  0.00     0.000 HD 
HETATM   20  N   UNL     1     -11.239   7.234  68.216  1.00  0.00    -0.439 NA 
HETATM   21  H1  UNL     1     -11.789   6.397  68.414  1.00  0.00     0.000 HD 
BRANCH  18  22
HETATM   22  C   UNL     1     -10.460   7.283  70.580  1.00  0.00    -0.229 C  
HETATM   23  C   UNL     1     -11.180   8.272  71.154  1.00  0.00    -0.296 C  
HETATM   24  C   UNL     1     -11.531   8.325  72.614  1.00  0.00    -0.423 C  
HETATM   25  C   UNL     1     -10.902   7.230  73.420  1.00  0.00    -0.370 C  
HETATM   26  C   UNL     1     -10.204   6.226  72.868  1.00  0.00    -0.207 C  
HETATM   27  C   UNL     1      -9.973   6.095  71.389  1.00  0.00    -0.218 C  
ENDBRANCH  18  22
ENDBRANCH  16  18
ENDBRANCH  13  14
TORSDOF 3
ENDMDL
MODEL       45
REMARK 921   NORMALIZED FREE ENERGY PREDICTED BY IDOCK:   -5.74 KCAL/MOL
REMARK 922        TOTAL FREE ENERGY PREDICTED BY IDOCK:   -7.41 KCAL/MOL
REMARK 923 INTER-LIGAND FREE ENERGY PREDICTED BY IDOCK:   -6.79 KCAL/MOL
REMARK 924 INTRA-LIGAND FREE ENERGY PREDICTED BY IDOCK:   -0.62 KCAL/MOL
REMARK 927      BINDING AFFINITY PREDICTED BY RF-SCORE:    0.00 PKD
ROOT
HETATM    1  C   UNL     1      -9.594  11.059  66.852  1.00  0.00    -0.182 C  
HETATM    2  S   UNL     1      -8.185  12.169  67.079  1.00  0.00    -0.135 SA 
HETATM    3  C   UNL     1      -7.290  11.006  68.125  1.00  0.00    -0.086 C  
HETATM    4  C   UNL     1      -8.120  10.405  69.243  1.00  0.00    -0.159 C  
HETATM    5  C   UNL     1      -7.247   9.984  70.409  1.00  0.00    -0.119 C  
HETATM    6  CA  UNL     1      -9.481  10.295  69.233  1.00  0.00    -0.215 C  
HETATM    7  N   UNL     1     -10.175  10.751  68.148  1.00  0.00    -0.166 N  
HETATM    8  C   UNL     1     -10.194   9.695  70.437  1.00  0.00    -0.288 C  
HETATM    9  C   UNL     1     -11.442  11.096  67.826  1.00  0.00    -0.272 C  
HETATM   10  O   UNL     1     -11.529   9.537  70.343  1.00  0.00    -0.254 OA 
HETATM   11  OXT UNL     1      -9.618   9.281  71.433  1.00  0.00    -0.266 OA 
HETATM   12  O   UNL     1     -12.458  10.967  68.466  1.00  0.00    -0.440 OA 
HETATM   13  CA  UNL     1     -10.950  11.749  66.485  1.00  0.00    -0.295 C  
ENDROOT
BRANCH  13  14
HETATM   14  N   UNL     1     -10.924  13.227  66.465  1.00  0.00    -0.284 N  
HETATM   15  H   UNL     1     -10.892  13.709  67.363  1.00  0.00     0.000 HD 
HETATM   16  C   UNL     1     -10.938  14.004  65.327  1.00  0.00    -0.334 C  
HETATM   17  O   UNL     1     -10.921  13.541  64.194  1.00  0.00    -0.367 OA 
BRANCH  16  18
HETATM   18  CA  UNL     1     -11.016  15.528  65.646  1.00  0.00    -0.303 C  
HETATM   19  H2  UNL     1     -11.731  15.990  63.728  1.00  0.00     0.000 HD 
HETATM   20  N   UNL     1     -10.997  16.290  64.370  1.00  0.00    -1.081 NA 
HETATM   21  H1  UNL     1     -11.048  17.287  64.580  1.00  0.00     0.000 HD 
BRANCH  18  22
HETATM   22  C   UNL     1      -9.850  15.890  66.543  1.00  0.00    -0.277 C  
HETATM   23  C   UNL     1      -8.575  16.026  66.112  1.00  0.00    -0.315 C  
HETATM   24  C   UNL     1      -7.408  16.330  67.008  1.00  0.00    -0.264 C  
HETATM   25  C   UNL     1      -7.762  16.352  68.465  1.00  0.00    -0.195 C  
HETATM   26  C   UNL     1      -9.023  16.242  68.912  1.00  0.00    -0.248 C  
HETATM   27  C   UNL     1     -10.210  16.082  68.004  1.00  0.00    -0.245 C  
ENDBRANCH  18  22
ENDBRANCH  16  18
ENDBRANCH  13  14
TORSDOF 3
ENDMDL
MODEL       46
REMARK 921   NORMALIZED FREE ENERGY PREDICTED BY IDOCK:   -5.74 KCAL/MOL
REMARK 922        TOTAL FREE ENERGY PREDICTED BY IDOCK:   -7.40 KCAL/MOL
REMARK 923 INTER-LIGAND FREE ENERGY PREDICTED BY IDOCK:   -6.92 KCAL/MOL
REMARK 924 INTRA-LIGAND FREE ENERGY PREDICTED BY IDOCK:   -0.48 KCAL/MOL
REMARK 927      BINDING AFFINITY PREDICTED BY RF-SCORE:    0.00 PKD
ROOT
HETATM    1  C   UNL     1     -12.184  13.117  65.761  1.00  0.00    -0.456 C  
HETATM    2  S   UNL     1     -11.456  14.174  64.487  1.00  0.00    -0.348 SA 
HETATM    3  C   UNL     1     -11.118  12.797  63.375  1.00  0.00    -0.209 C  
HETATM    4  C   UNL     1     -10.429  11.617  64.033  1.00  0.00    -0.418 C  
HETATM    5  C   UNL     1      -9.624  10.821  63.026  1.00  0.00    -0.381 C  
HETATM    6  CA  UNL     1     -10.480  11.327  65.366  1.00  0.00    -0.268 C  
HETATM    7  N   UNL     1     -11.199  12.142  66.196  1.00  0.00    -0.323 N  
HETATM    8  C   UNL     1      -9.717  10.124  65.903  1.00  0.00    -0.232 C  
HETATM    9  C   UNL     1     -11.301  12.409  67.517  1.00  0.00    -0.315 C  
HETATM   10  O   UNL     1      -9.865   9.837  67.211  1.00  0.00    -0.165 OA 
HETATM   11  OXT UNL     1      -9.054   9.372  65.203  1.00  0.00    -0.210 OA 
HETATM   12  O   UNL     1     -10.797  11.840  68.455  1.00  0.00    -0.202 OA 
HETATM   13  CA  UNL     1     -12.157  13.691  67.217  1.00  0.00    -0.345 C  
ENDROOT
BRANCH  13  14
HETATM   14  N   UNL     1     -11.454  14.981  67.376  1.00  0.00    -0.339 N  
HETATM   15  H   UNL     1     -11.023  15.387  66.546  1.00  0.00     0.000 HD 
HETATM   16  C   UNL     1     -11.336  15.679  68.559  1.00  0.00    -0.360 C  
HETATM   17  O   UNL     1     -11.856  15.321  69.607  1.00  0.00    -0.301 OA 
BRANCH  16  18
HETATM   18  CA  UNL     1     -10.441  16.947  68.415  1.00  0.00    -0.355 C  
HETATM   19  H2  UNL     1     -11.491  17.614  66.724  1.00  0.00     0.000 HD 
HETATM   20  N   UNL     1     -10.528  17.445  67.017  1.00  0.00    -0.311 NA 
HETATM   21  H1  UNL     1      -9.943  18.275  66.924  1.00  0.00     0.000 HD 
BRANCH  18  22
HETATM   22  C   UNL     1      -9.023  16.580  68.801  1.00  0.00    -0.250 C  
HETATM   23  C   UNL     1      -8.644  15.353  69.223  1.00  0.00    -0.252 C  
HETATM   24  C   UNL     1      -7.251  15.002  69.660  1.00  0.00    -0.192 C  
HETATM   25  C   UNL     1      -6.323  16.178  69.703  1.00  0.00    -0.192 C  
HETATM   26  C   UNL     1      -6.670  17.398  69.267  1.00  0.00    -0.222 C  
HETATM   27  C   UNL     1      -8.023  17.717  68.695  1.00  0.00    -0.275 C  
ENDBRANCH  18  22
ENDBRANCH  16  18
ENDBRANCH  13  14
TORSDOF 3
ENDMDL
MODEL       47
REMARK 921   NORMALIZED FREE ENERGY PREDICTED BY IDOCK:   -5.74 KCAL/MOL
REMARK 922        TOTAL FREE ENERGY PREDICTED BY IDOCK:   -7.40 KCAL/MOL
REMARK 923 INTER-LIGAND FREE ENERGY PREDICTED BY IDOCK:   -6.72 KCAL/MOL
REMARK 924 INTRA-LIGAND FREE ENERGY PREDICTED BY IDOCK:   -0.68 KCAL/MOL
REMARK 927      BINDING AFFINITY PREDICTED BY RF-SCORE:    0.00 PKD
ROOT
HETATM    1  C   UNL     1     -12.103  11.187  68.519  1.00  0.00    -0.058 C  
HETATM    2  S   UNL     1     -11.211  12.284  67.391  1.00  0.00    -0.322 SA 
HETATM    3  C   UNL     1     -10.725  10.943  66.288  1.00  0.00    -0.176 C  
HETATM    4  C   UNL     1     -10.130   9.740  66.993  1.00  0.00    -0.277 C  
HETATM    5  C   UNL     1      -9.196   8.974  66.077  1.00  0.00    -0.284 C  
HETATM    6  CA  UNL     1     -10.359   9.405  68.297  1.00  0.00    -0.212 C  
HETATM    7  N   UNL     1     -11.184  10.194  69.049  1.00  0.00    -0.205 N  
HETATM    8  C   UNL     1      -9.674   8.182  68.891  1.00  0.00    -0.156 C  
HETATM    9  C   UNL     1     -11.463  10.418  70.352  1.00  0.00    -0.337 C  
HETATM   10  O   UNL     1      -9.997   7.852  70.157  1.00  0.00    -0.188 OA 
HETATM   11  OXT UNL     1      -8.922   7.452  68.261  1.00  0.00    -0.131 OA 
HETATM   12  O   UNL     1     -11.089   9.815  71.331  1.00  0.00    -0.359 OA 
HETATM   13  CA  UNL     1     -12.272  11.712  69.984  1.00  0.00    -0.263 C  
ENDROOT
BRANCH  13  14
HETATM   14  N   UNL     1     -11.598  12.994  70.279  1.00  0.00    -0.529 N  
HETATM   15  H   UNL     1     -10.587  13.034  70.151  1.00  0.00     0.000 HD 
HETATM   16  C   UNL     1     -12.230  14.139  70.714  1.00  0.00    -0.365 C  
HETATM   17  O   UNL     1     -13.442  14.230  70.851  1.00  0.00    -0.300 OA 
BRANCH  16  18
HETATM   18  CA  UNL     1     -11.225  15.286  71.042  1.00  0.00    -0.335 C  
HETATM   19  H2  UNL     1     -12.546  16.182  72.404  1.00  0.00     0.000 HD 
HETATM   20  N   UNL     1     -11.976  16.441  71.599  1.00  0.00    -0.657 NA 
HETATM   21  H1  UNL     1     -11.319  17.191  71.813  1.00  0.00     0.000 HD 
BRANCH  18  22
HETATM   22  C   UNL     1     -10.480  15.649  69.774  1.00  0.00    -0.312 C  
HETATM   23  C   UNL     1      -9.141  15.540  69.622  1.00  0.00    -0.187 C  
HETATM   24  C   UNL     1      -8.394  15.952  68.386  1.00  0.00    -0.174 C  
HETATM   25  C   UNL     1      -9.258  16.620  67.360  1.00  0.00    -0.216 C  
HETATM   26  C   UNL     1     -10.591  16.718  67.479  1.00  0.00    -0.309 C  
HETATM   27  C   UNL     1     -11.357  16.176  68.653  1.00  0.00    -0.365 C  
ENDBRANCH  18  22
ENDBRANCH  16  18
ENDBRANCH  13  14
TORSDOF 3
ENDMDL
MODEL       48
REMARK 921   NORMALIZED FREE ENERGY PREDICTED BY IDOCK:   -5.73 KCAL/MOL
REMARK 922        TOTAL FREE ENERGY PREDICTED BY IDOCK:   -7.39 KCAL/MOL
REMARK 923 INTER-LIGAND FREE ENERGY PREDICTED BY IDOCK:   -7.14 KCAL/MOL
REMARK 924 INTRA-LIGAND FREE ENERGY PREDICTED BY IDOCK:   -0.25 KCAL/MOL
REMARK 927      BINDING AFFINITY PREDICTED BY RF-SCORE:    0.00 PKD
ROOT
HETATM    1  C   UNL     1     -10.664  15.009  66.995  1.00  0.00    -0.304 C  
HETATM    2  S   UNL     1     -11.533  15.946  68.274  1.00  0.00    -0.265 SA 
HETATM    3  C   UNL     1     -10.581  17.449  67.982  1.00  0.00    -0.389 C  
HETATM    4  C   UNL     1      -9.081  17.236  67.919  1.00  0.00    -0.239 C  
HETATM    5  C   UNL     1      -8.332  18.494  68.309  1.00  0.00    -0.344 C  
HETATM    6  CA  UNL     1      -8.472  16.056  67.602  1.00  0.00    -0.158 C  
HETATM    7  N   UNL     1      -9.246  14.966  67.312  1.00  0.00    -0.197 N  
HETATM    8  C   UNL     1      -6.952  15.970  67.603  1.00  0.00    -0.155 C  
HETATM    9  C   UNL     1      -9.118  13.624  67.231  1.00  0.00    -0.228 C  
HETATM   10  O   UNL     1      -6.402  14.806  67.206  1.00  0.00    -0.306 OA 
HETATM   11  OXT UNL     1      -6.219  16.914  67.864  1.00  0.00    -0.126 OA 
HETATM   12  O   UNL     1      -8.121  12.944  67.288  1.00  0.00    -0.176 OA 
HETATM   13  CA  UNL     1     -10.677  13.453  67.166  1.00  0.00    -0.264 C  
ENDROOT
BRANCH  13  14
HETATM   14  N   UNL     1     -11.319  12.957  68.402  1.00  0.00    -0.271 N  
HETATM   15  H   UNL     1     -11.410  13.611  69.180  1.00  0.00     0.000 HD 
HETATM   16  C   UNL     1     -11.803  11.680  68.586  1.00  0.00    -0.308 C  
HETATM   17  O   UNL     1     -11.801  10.826  67.711  1.00  0.00    -0.538 OA 
BRANCH  16  18
HETATM   18  CA  UNL     1     -12.319  11.442  70.039  1.00  0.00    -0.237 C  
HETATM   19  H2  UNL     1     -12.610  13.494  70.373  1.00  0.00     0.000 HD 
HETATM   20  N   UNL     1     -12.157  12.697  70.820  1.00  0.00    -0.484 NA 
HETATM   21  H1  UNL     1     -12.494  12.540  71.770  1.00  0.00     0.000 HD 
BRANCH  18  22
HETATM   22  C   UNL     1     -11.540  10.292  70.642  1.00  0.00    -0.435 C  
HETATM   23  C   UNL     1     -12.034   9.448  71.575  1.00  0.00    -0.456 C  
HETATM   24  C   UNL     1     -11.246   8.341  72.217  1.00  0.00    -0.443 C  
HETATM   25  C   UNL     1      -9.802   8.325  71.816  1.00  0.00    -0.284 C  
HETATM   26  C   UNL     1      -9.296   9.138  70.875  1.00  0.00    -0.335 C  
HETATM   27  C   UNL     1     -10.119  10.150  70.129  1.00  0.00    -0.197 C  
ENDBRANCH  18  22
ENDBRANCH  16  18
ENDBRANCH  13  14
TORSDOF 3
ENDMDL
MODEL       49
REMARK 921   NORMALIZED FREE ENERGY PREDICTED BY IDOCK:   -5.70 KCAL/MOL
REMARK 922        TOTAL FREE ENERGY PREDICTED BY IDOCK:   -7.36 KCAL/MOL
REMARK 923 INTER-LIGAND FREE ENERGY PREDICTED BY IDOCK:   -7.03 KCAL/MOL
REMARK 924 INTRA-LIGAND FREE ENERGY PREDICTED BY IDOCK:   -0.33 KCAL/MOL
REMARK 927      BINDING AFFINITY PREDICTED BY RF-SCORE:    0.00 PKD
ROOT
HETATM    1  C   UNL     1      -8.798   8.744  67.572  1.00  0.00    -0.134 C  
HETATM    2  S   UNL     1      -8.933  10.433  68.201  1.00  0.00    -0.135 SA 
HETATM    3  C   UNL     1      -8.622   9.945  69.908  1.00  0.00    -0.194 C  
HETATM    4  C   UNL     1      -9.450   8.766  70.381  1.00  0.00    -0.206 C  
HETATM    5  C   UNL     1      -9.642   8.798  71.884  1.00  0.00    -0.372 C  
HETATM    6  CA  UNL     1      -9.997   7.818  69.564  1.00  0.00    -0.187 C  
HETATM    7  N   UNL     1      -9.800   7.911  68.214  1.00  0.00    -0.164 N  
HETATM    8  C   UNL     1     -10.833   6.698  70.168  1.00  0.00    -0.279 C  
HETATM    9  C   UNL     1     -10.336   7.421  67.075  1.00  0.00    -0.314 C  
HETATM   10  O   UNL     1     -11.282   5.746  69.327  1.00  0.00    -0.300 OA 
HETATM   11  OXT UNL     1     -11.044   6.577  71.367  1.00  0.00    -0.248 OA 
HETATM   12  O   UNL     1     -11.173   6.561  66.929  1.00  0.00    -0.387 OA 
HETATM   13  CA  UNL     1      -9.533   8.463  66.218  1.00  0.00    -0.224 C  
ENDROOT
BRANCH  13  14
HETATM   14  N   UNL     1     -10.321   9.591  65.679  1.00  0.00    -0.169 N  
HETATM   15  H   UNL     1     -11.193   9.824  66.153  1.00  0.00     0.000 HD 
HETATM   16  C   UNL     1      -9.968  10.353  64.587  1.00  0.00    -0.338 C  
HETATM   17  O   UNL     1      -8.920  10.205  63.972  1.00  0.00    -0.196 OA 
BRANCH  16  18
HETATM   18  CA  UNL     1     -11.065  11.393  64.206  1.00  0.00    -0.285 C  
HETATM   19  H2  UNL     1     -10.657  11.215  62.155  1.00  0.00     0.000 HD 
HETATM   20  N   UNL     1     -10.761  11.945  62.860  1.00  0.00    -0.599 NA 
HETATM   21  H1  UNL     1     -11.479  12.626  62.611  1.00  0.00     0.000 HD 
BRANCH  18  22
HETATM   22  C   UNL     1     -11.095  12.472  65.270  1.00  0.00    -0.332 C  
HETATM   23  C   UNL     1     -11.614  12.304  66.506  1.00  0.00    -0.440 C  
HETATM   24  C   UNL     1     -11.696  13.388  67.543  1.00  0.00    -0.406 C  
HETATM   25  C   UNL     1     -11.254  14.729  67.042  1.00  0.00    -0.347 C  
HETATM   26  C   UNL     1     -10.714  14.914  65.828  1.00  0.00    -0.338 C  
HETATM   27  C   UNL     1     -10.499  13.800  64.841  1.00  0.00    -0.437 C  
ENDBRANCH  18  22
ENDBRANCH  16  18
ENDBRANCH  13  14
TORSDOF 3
ENDMDL
MODEL       50
REMARK 921   NORMALIZED FREE ENERGY PREDICTED BY IDOCK:   -5.70 KCAL/MOL
REMARK 922        TOTAL FREE ENERGY PREDICTED BY IDOCK:   -7.35 KCAL/MOL
REMARK 923 INTER-LIGAND FREE ENERGY PREDICTED BY IDOCK:   -7.12 KCAL/MOL
REMARK 924 INTRA-LIGAND FREE ENERGY PREDICTED BY IDOCK:   -0.23 KCAL/MOL
REMARK 927      BINDING AFFINITY PREDICTED BY RF-SCORE:    0.00 PKD
ROOT
HETATM    1  C   UNL     1      -7.920  16.144  69.395  1.00  0.00    -0.107 C  
HETATM    2  S   UNL     1      -6.825  14.862  68.741  1.00  0.00    -0.109 SA 
HETATM    3  C   UNL     1      -5.652  16.049  68.061  1.00  0.00    -0.119 C  
HETATM    4  C   UNL     1      -6.287  17.158  67.245  1.00  0.00    -0.189 C  
HETATM    5  C   UNL     1      -5.316  17.708  66.220  1.00  0.00    -0.229 C  
HETATM    6  CA  UNL     1      -7.578  17.582  67.374  1.00  0.00    -0.196 C  
HETATM    7  N   UNL     1      -8.384  16.982  68.302  1.00  0.00    -0.220 N  
HETATM    8  C   UNL     1      -8.099  18.689  66.469  1.00  0.00    -0.284 C  
HETATM    9  C   UNL     1      -9.702  16.865  68.577  1.00  0.00    -0.264 C  
HETATM   10  O   UNL     1      -9.355  19.123  66.692  1.00  0.00    -0.310 OA 
HETATM   11  OXT UNL     1      -7.421  19.249  65.620  1.00  0.00    -0.428 OA 
HETATM   12  O   UNL     1     -10.643  17.433  68.075  1.00  0.00    -0.371 OA 
HETATM   13  CA  UNL     1      -9.411  15.719  69.610  1.00  0.00    -0.204 C  
ENDROOT
BRANCH  13  14
HETATM   14  N   UNL     1      -9.751  14.352  69.161  1.00  0.00    -0.407 N  
HETATM   15  H   UNL     1      -8.981  13.744  68.882  1.00  0.00     0.000 HD 
HETATM   16  C   UNL     1     -11.026  13.835  69.091  1.00  0.00    -0.208 C  
HETATM   17  O   UNL     1     -12.023  14.448  69.450  1.00  0.00    -0.301 OA 
BRANCH  16  18
HETATM   18  CA  UNL     1     -11.056  12.404  68.473  1.00  0.00    -0.258 C  
HETATM   19  H2  UNL     1     -11.844  13.102  66.657  1.00  0.00     0.000 HD 
HETATM   20  N   UNL     1     -12.034  12.382  67.353  1.00  0.00    -0.520 NA 
HETATM   21  H1  UNL     1     -12.054  11.446  66.949  1.00  0.00     0.000 HD 
BRANCH  18  22
HETATM   22  C   UNL     1     -11.418  11.417  69.564  1.00  0.00    -0.381 C  
HETATM   23  C   UNL     1     -12.386  11.625  70.485  1.00  0.00    -0.410 C  
HETATM   24  C   UNL     1     -12.708  10.673  71.602  1.00  0.00    -0.531 C  
HETATM   25  C   UNL     1     -11.769   9.508  71.684  1.00  0.00    -0.460 C  
HETATM   26  C   UNL     1     -10.818   9.270  70.768  1.00  0.00    -0.349 C  
HETATM   27  C   UNL     1     -10.588  10.147  69.569  1.00  0.00    -0.269 C  
ENDBRANCH  18  22
ENDBRANCH  16  18
ENDBRANCH  13  14
TORSDOF 3
ENDMDL
MODEL       51
REMARK 921   NORMALIZED FREE ENERGY PREDICTED BY IDOCK:   -5.68 KCAL/MOL
REMARK 922        TOTAL FREE ENERGY PREDICTED BY IDOCK:   -7.34 KCAL/MOL
REMARK 923 INTER-LIGAND FREE ENERGY PREDICTED BY IDOCK:   -6.92 KCAL/MOL
REMARK 924 INTRA-LIGAND FREE ENERGY PREDICTED BY IDOCK:   -0.42 KCAL/MOL
REMARK 927      BINDING AFFINITY PREDICTED BY RF-SCORE:    0.00 PKD
ROOT
HETATM    1  C   UNL     1     -11.749  13.728  68.083  1.00  0.00    -0.357 C  
HETATM    2  S   UNL     1     -10.003  13.500  67.673  1.00  0.00    -0.234 SA 
HETATM    3  C   UNL     1     -10.086  11.705  67.813  1.00  0.00    -0.187 C  
HETATM    4  C   UNL     1     -10.762  11.207  69.076  1.00  0.00    -0.265 C  
HETATM    5  C   UNL     1     -10.265   9.827  69.456  1.00  0.00    -0.238 C  
HETATM    6  CA  UNL     1     -11.665  11.919  69.811  1.00  0.00    -0.331 C  
HETATM    7  N   UNL     1     -12.008  13.178  69.402  1.00  0.00    -0.308 N  
HETATM    8  C   UNL     1     -12.249  11.311  71.079  1.00  0.00    -0.311 C  
HETATM    9  C   UNL     1     -12.587  14.288  69.912  1.00  0.00    -0.165 C  
HETATM   10  O   UNL     1     -13.194  12.023  71.723  1.00  0.00    -0.450 OA 
HETATM   11  OXT UNL     1     -11.967  10.194  71.489  1.00  0.00    -0.374 OA 
HETATM   12  O   UNL     1     -13.136  14.446  70.977  1.00  0.00    -0.351 OA 
HETATM   13  CA  UNL     1     -12.132  15.129  68.667  1.00  0.00    -0.151 C  
ENDROOT
BRANCH  13  14
HETATM   14  N   UNL     1     -11.000  16.050  68.897  1.00  0.00    -0.288 N  
HETATM   15  H   UNL     1     -10.517  15.988  69.793  1.00  0.00     0.000 HD 
HETATM   16  C   UNL     1     -10.544  16.986  67.994  1.00  0.00    -0.373 C  
HETATM   17  O   UNL     1     -11.006  17.117  66.868  1.00  0.00    -0.077 OA 
BRANCH  16  18
HETATM   18  CA  UNL     1      -9.407  17.877  68.581  1.00  0.00    -0.277 C  
HETATM   19  H2  UNL     1     -10.734  18.911  69.835  1.00  0.00     0.000 HD 
HETATM   20  N   UNL     1     -10.006  19.112  69.150  1.00  0.00    -0.488 NA 
HETATM   21  H1  UNL     1      -9.262  19.694  69.534  1.00  0.00     0.000 HD 
BRANCH  18  22
HETATM   22  C   UNL     1      -8.417  18.182  67.476  1.00  0.00    -0.248 C  
HETATM   23  C   UNL     1      -7.501  17.301  67.013  1.00  0.00    -0.223 C  
HETATM   24  C   UNL     1      -6.481  17.619  65.957  1.00  0.00    -0.265 C  
HETATM   25  C   UNL     1      -6.484  19.057  65.536  1.00  0.00    -0.306 C  
HETATM   26  C   UNL     1      -7.397  19.942  65.965  1.00  0.00    -0.324 C  
HETATM   27  C   UNL     1      -8.508  19.588  66.914  1.00  0.00    -0.327 C  
ENDBRANCH  18  22
ENDBRANCH  16  18
ENDBRANCH  13  14
TORSDOF 3
ENDMDL
MODEL       52
REMARK 921   NORMALIZED FREE ENERGY PREDICTED BY IDOCK:   -5.68 KCAL/MOL
REMARK 922        TOTAL FREE ENERGY PREDICTED BY IDOCK:   -7.33 KCAL/MOL
REMARK 923 INTER-LIGAND FREE ENERGY PREDICTED BY IDOCK:   -6.64 KCAL/MOL
REMARK 924 INTRA-LIGAND FREE ENERGY PREDICTED BY IDOCK:   -0.69 KCAL/MOL
REMARK 927      BINDING AFFINITY PREDICTED BY RF-SCORE:    0.00 PKD
ROOT
HETATM    1  C   UNL     1     -11.864  13.043  66.405  1.00  0.00    -0.405 C  
HETATM    2  S   UNL     1     -10.376  12.798  65.408  1.00  0.00    -0.293 SA 
HETATM    3  C   UNL     1     -10.446  11.002  65.537  1.00  0.00    -0.238 C  
HETATM    4  C   UNL     1     -10.650  10.484  66.947  1.00  0.00    -0.303 C  
HETATM    5  C   UNL     1     -10.084   9.087  67.106  1.00  0.00    -0.309 C  
HETATM    6  CA  UNL     1     -11.225  11.192  67.964  1.00  0.00    -0.296 C  
HETATM    7  N   UNL     1     -11.660  12.465  67.722  1.00  0.00    -0.333 N  
HETATM    8  C   UNL     1     -11.344  10.562  69.344  1.00  0.00    -0.269 C  
HETATM    9  C   UNL     1     -11.999  13.571  68.421  1.00  0.00    -0.343 C  
HETATM   10  O   UNL     1     -11.989  11.272  70.290  1.00  0.00    -0.325 OA 
HETATM   11  OXT UNL     1     -10.962   9.431  69.611  1.00  0.00    -0.239 OA 
HETATM   12  O   UNL     1     -12.139  13.711  69.614  1.00  0.00    -0.316 OA 
HETATM   13  CA  UNL     1     -11.987  14.435  67.111  1.00  0.00    -0.389 C  
ENDROOT
BRANCH  13  14
HETATM   14  N   UNL     1     -10.825  15.333  66.947  1.00  0.00    -0.315 N  
HETATM   15  H   UNL     1     -10.142  15.092  66.229  1.00  0.00     0.000 HD 
HETATM   16  C   UNL     1     -10.593  16.471  67.688  1.00  0.00    -0.321 C  
HETATM   17  O   UNL     1     -11.366  16.892  68.537  1.00  0.00    -0.221 OA 
BRANCH  16  18
HETATM   18  CA  UNL     1      -9.224  17.135  67.346  1.00  0.00    -0.232 C  
HETATM   19  H2  UNL     1      -9.892  17.764  65.458  1.00  0.00     0.000 HD 
HETATM   20  N   UNL     1      -9.105  17.264  65.870  1.00  0.00    -0.529 NA 
HETATM   21  H1  UNL     1      -8.209  17.699  65.647  1.00  0.00     0.000 HD 
BRANCH  18  22
HETATM   22  C   UNL     1      -8.117  16.285  67.935  1.00  0.00    -0.153 C  
HETATM   23  C   UNL     1      -8.160  15.730  69.166  1.00  0.00    -0.237 C  
HETATM   24  C   UNL     1      -7.040  14.934  69.774  1.00  0.00    -0.156 C  
HETATM   25  C   UNL     1      -5.800  14.906  68.933  1.00  0.00    -0.086 C  
HETATM   26  C   UNL     1      -5.744  15.430  67.699  1.00  0.00    -0.097 C  
HETATM   27  C   UNL     1      -6.911  16.102  67.032  1.00  0.00    -0.234 C  
ENDBRANCH  18  22
ENDBRANCH  16  18
ENDBRANCH  13  14
TORSDOF 3
ENDMDL
MODEL       53
REMARK 921   NORMALIZED FREE ENERGY PREDICTED BY IDOCK:   -5.68 KCAL/MOL
REMARK 922        TOTAL FREE ENERGY PREDICTED BY IDOCK:   -7.33 KCAL/MOL
REMARK 923 INTER-LIGAND FREE ENERGY PREDICTED BY IDOCK:   -6.70 KCAL/MOL
REMARK 924 INTRA-LIGAND FREE ENERGY PREDICTED BY IDOCK:   -0.63 KCAL/MOL
REMARK 927      BINDING AFFINITY PREDICTED BY RF-SCORE:    0.00 PKD
ROOT
HETATM    1  C   UNL     1     -11.359  13.899  67.983  1.00  0.00    -0.288 C  
HETATM    2  S   UNL     1      -9.715  14.492  68.448  1.00  0.00    -0.227 SA 
HETATM    3  C   UNL     1     -10.032  16.170  67.871  1.00  0.00    -0.239 C  
HETATM    4  C   UNL     1     -10.631  16.249  66.480  1.00  0.00    -0.256 C  
HETATM    5  C   UNL     1     -10.294  17.567  65.812  1.00  0.00    -0.217 C  
HETATM    6  CA  UNL     1     -11.343  15.252  65.878  1.00  0.00    -0.172 C  
HETATM    7  N   UNL     1     -11.550  14.082  66.555  1.00  0.00    -0.357 N  
HETATM    8  C   UNL     1     -11.867  15.452  64.462  1.00  0.00    -0.256 C  
HETATM    9  C   UNL     1     -11.911  12.807  66.290  1.00  0.00    -0.395 C  
HETATM   10  O   UNL     1     -12.630  14.469  63.946  1.00  0.00    -0.827 OA 
HETATM   11  OXT UNL     1     -11.701  16.476  63.814  1.00  0.00    -1.086 OA 
HETATM   12  O   UNL     1     -12.315  12.323  65.259  1.00  0.00    -0.555 OA 
HETATM   13  CA  UNL     1     -11.479  12.358  67.731  1.00  0.00    -0.324 C  
ENDROOT
BRANCH  13  14
HETATM   14  N   UNL     1     -10.211  11.603  67.813  1.00  0.00    -0.183 N  
HETATM   15  H   UNL     1      -9.399  12.087  68.194  1.00  0.00     0.000 HD 
HETATM   16  C   UNL     1     -10.041  10.295  67.414  1.00  0.00    -0.202 C  
HETATM   17  O   UNL     1     -10.952   9.594  66.993  1.00  0.00    -0.148 OA 
BRANCH  16  18
HETATM   18  CA  UNL     1      -8.558   9.825  67.527  1.00  0.00    -0.125 C  
HETATM   19  H2  UNL     1      -7.983  11.571  68.541  1.00  0.00     0.000 HD 
HETATM   20  N   UNL     1      -7.690  11.014  67.739  1.00  0.00    -0.106 NA 
HETATM   21  H1  UNL     1      -6.721  10.706  67.812  1.00  0.00     0.000 HD 
BRANCH  18  22
HETATM   22  C   UNL     1      -8.195   9.073  66.263  1.00  0.00    -0.115 C  
HETATM   23  C   UNL     1      -7.930   9.665  65.077  1.00  0.00    -0.122 C  
HETATM   24  C   UNL     1      -7.626   8.920  63.809  1.00  0.00    -0.121 C  
HETATM   25  C   UNL     1      -7.760   7.433  63.943  1.00  0.00    -0.124 C  
HETATM   26  C   UNL     1      -7.998   6.824  65.114  1.00  0.00    -0.128 C  
HETATM   27  C   UNL     1      -8.161   7.564  66.412  1.00  0.00    -0.122 C  
ENDBRANCH  18  22
ENDBRANCH  16  18
ENDBRANCH  13  14
TORSDOF 3
ENDMDL
MODEL       54
REMARK 921   NORMALIZED FREE ENERGY PREDICTED BY IDOCK:   -5.64 KCAL/MOL
REMARK 922        TOTAL FREE ENERGY PREDICTED BY IDOCK:   -7.29 KCAL/MOL
REMARK 923 INTER-LIGAND FREE ENERGY PREDICTED BY IDOCK:   -6.73 KCAL/MOL
REMARK 924 INTRA-LIGAND FREE ENERGY PREDICTED BY IDOCK:   -0.56 KCAL/MOL
REMARK 927      BINDING AFFINITY PREDICTED BY RF-SCORE:    0.00 PKD
ROOT
HETATM    1  C   UNL     1      -9.287  17.250  69.058  1.00  0.00    -0.120 C  
HETATM    2  S   UNL     1      -7.955  16.071  68.733  1.00  0.00    -0.210 SA 
HETATM    3  C   UNL     1      -6.656  17.253  69.136  1.00  0.00    -0.239 C  
HETATM    4  C   UNL     1      -6.812  18.605  68.466  1.00  0.00    -0.281 C  
HETATM    5  C   UNL     1      -5.471  19.293  68.303  1.00  0.00    -0.197 C  
HETATM    6  CA  UNL     1      -7.993  19.125  68.021  1.00  0.00    -0.296 C  
HETATM    7  N   UNL     1      -9.139  18.396  68.178  1.00  0.00    -0.300 N  
HETATM    8  C   UNL     1      -8.006  20.486  67.339  1.00  0.00    -0.305 C  
HETATM    9  C   UNL     1     -10.396  18.363  67.682  1.00  0.00    -0.405 C  
HETATM   10  O   UNL     1      -9.207  20.987  66.991  1.00  0.00    -0.182 OA 
HETATM   11  OXT UNL     1      -7.006  21.170  67.169  1.00  0.00    -0.401 OA 
HETATM   12  O   UNL     1     -10.953  19.149  66.951  1.00  0.00    -0.394 OA 
HETATM   13  CA  UNL     1     -10.645  16.958  68.335  1.00  0.00    -0.365 C  
ENDROOT
BRANCH  13  14
HETATM   14  N   UNL     1     -10.632  15.808  67.406  1.00  0.00    -0.308 N  
HETATM   15  H   UNL     1     -10.130  15.921  66.526  1.00  0.00     0.000 HD 
HETATM   16  C   UNL     1     -11.246  14.596  67.637  1.00  0.00    -0.321 C  
HETATM   17  O   UNL     1     -11.831  14.324  68.677  1.00  0.00    -0.323 OA 
BRANCH  16  18
HETATM   18  CA  UNL     1     -11.142  13.633  66.415  1.00  0.00    -0.303 C  
HETATM   19  H2  UNL     1     -13.129  13.991  65.843  1.00  0.00     0.000 HD 
HETATM   20  N   UNL     1     -12.509  13.201  66.022  1.00  0.00    -0.440 NA 
HETATM   21  H1  UNL     1     -12.440  12.571  65.223  1.00  0.00     0.000 HD 
BRANCH  18  22
HETATM   22  C   UNL     1     -10.264  12.461  66.800  1.00  0.00    -0.234 C  
HETATM   23  C   UNL     1      -8.913  12.506  66.842  1.00  0.00    -0.212 C  
HETATM   24  C   UNL     1      -8.038  11.329  67.169  1.00  0.00    -0.150 C  
HETATM   25  C   UNL     1      -8.796  10.047  67.331  1.00  0.00    -0.132 C  
HETATM   26  C   UNL     1     -10.136   9.984  67.318  1.00  0.00    -0.259 C  
HETATM   27  C   UNL     1     -11.018  11.187  67.133  1.00  0.00    -0.350 C  
ENDBRANCH  18  22
ENDBRANCH  16  18
ENDBRANCH  13  14
TORSDOF 3
ENDMDL
MODEL       55
REMARK 921   NORMALIZED FREE ENERGY PREDICTED BY IDOCK:   -5.64 KCAL/MOL
REMARK 922        TOTAL FREE ENERGY PREDICTED BY IDOCK:   -7.28 KCAL/MOL
REMARK 923 INTER-LIGAND FREE ENERGY PREDICTED BY IDOCK:   -6.94 KCAL/MOL
REMARK 924 INTRA-LIGAND FREE ENERGY PREDICTED BY IDOCK:   -0.34 KCAL/MOL
REMARK 927      BINDING AFFINITY PREDICTED BY RF-SCORE:    0.00 PKD
ROOT
HETATM    1  C   UNL     1     -10.793  10.328  69.086  1.00  0.00    -0.233 C  
HETATM    2  S   UNL     1      -9.150  11.083  69.072  1.00  0.00     0.008 SA 
HETATM    3  C   UNL     1      -8.321   9.562  69.569  1.00  0.00    -0.145 C  
HETATM    4  C   UNL     1      -8.954   8.863  70.756  1.00  0.00    -0.254 C  
HETATM    5  C   UNL     1      -7.938   8.025  71.506  1.00  0.00    -0.117 C  
HETATM    6  CA  UNL     1     -10.258   9.002  71.140  1.00  0.00    -0.293 C  
HETATM    7  N   UNL     1     -11.078   9.823  70.418  1.00  0.00    -0.283 N  
HETATM    8  C   UNL     1     -10.760   8.263  72.373  1.00  0.00    -0.341 C  
HETATM    9  C   UNL     1     -12.264  10.454  70.563  1.00  0.00    -0.323 C  
HETATM   10  O   UNL     1     -12.072   8.372  72.660  1.00  0.00    -0.390 OA 
HETATM   11  OXT UNL     1     -10.063   7.525  73.054  1.00  0.00    -0.231 OA 
HETATM   12  O   UNL     1     -13.082  10.355  71.447  1.00  0.00    -0.382 OA 
HETATM   13  CA  UNL     1     -11.992  11.315  69.279  1.00  0.00    -0.342 C  
ENDROOT
BRANCH  13  14
HETATM   14  N   UNL     1     -11.620  12.725  69.520  1.00  0.00    -0.381 N  
HETATM   15  H   UNL     1     -11.180  12.949  70.412  1.00  0.00     0.000 HD 
HETATM   16  C   UNL     1     -11.819  13.760  68.633  1.00  0.00    -0.374 C  
HETATM   17  O   UNL     1     -12.286  13.607  67.511  1.00  0.00    -0.342 OA 
BRANCH  16  18
HETATM   18  CA  UNL     1     -11.419  15.143  69.231  1.00  0.00    -0.311 C  
HETATM   19  H2  UNL     1     -13.276  15.377  70.180  1.00  0.00     0.000 HD 
HETATM   20  N   UNL     1     -12.654  15.901  69.565  1.00  0.00    -0.454 NA 
HETATM   21  H1  UNL     1     -12.391  16.805  69.956  1.00  0.00     0.000 HD 
BRANCH  18  22
HETATM   22  C   UNL     1     -10.560  15.873  68.219  1.00  0.00    -0.276 C  
HETATM   23  C   UNL     1     -10.720  17.174  67.885  1.00  0.00    -0.355 C  
HETATM   24  C   UNL     1      -9.907  17.885  66.842  1.00  0.00    -0.321 C  
HETATM   25  C   UNL     1      -8.964  16.985  66.102  1.00  0.00    -0.243 C  
HETATM   26  C   UNL     1      -8.772  15.698  66.432  1.00  0.00    -0.354 C  
HETATM   27  C   UNL     1      -9.483  15.023  67.571  1.00  0.00    -0.203 C  
ENDBRANCH  18  22
ENDBRANCH  16  18
ENDBRANCH  13  14
TORSDOF 3
ENDMDL
MODEL       56
REMARK 921   NORMALIZED FREE ENERGY PREDICTED BY IDOCK:   -5.59 KCAL/MOL
REMARK 922        TOTAL FREE ENERGY PREDICTED BY IDOCK:   -7.22 KCAL/MOL
REMARK 923 INTER-LIGAND FREE ENERGY PREDICTED BY IDOCK:   -6.68 KCAL/MOL
REMARK 924 INTRA-LIGAND FREE ENERGY PREDICTED BY IDOCK:   -0.54 KCAL/MOL
REMARK 927      BINDING AFFINITY PREDICTED BY RF-SCORE:    0.00 PKD
ROOT
HETATM    1  C   UNL     1     -10.056  13.034  67.103  1.00  0.00    -0.244 C  
HETATM    2  S   UNL     1     -11.329  13.323  68.355  1.00  0.00    -0.315 SA 
HETATM    3  C   UNL     1     -11.614  15.025  67.839  1.00  0.00    -0.333 C  
HETATM    4  C   UNL     1     -10.351  15.847  67.668  1.00  0.00    -0.281 C  
HETATM    5  C   UNL     1     -10.626  17.324  67.869  1.00  0.00    -0.384 C  
HETATM    6  CA  UNL     1      -9.112  15.332  67.415  1.00  0.00    -0.192 C  
HETATM    7  N   UNL     1      -8.968  13.977  67.299  1.00  0.00    -0.207 N  
HETATM    8  C   UNL     1      -7.919  16.269  67.294  1.00  0.00    -0.167 C  
HETATM    9  C   UNL     1      -7.981  13.055  67.338  1.00  0.00    -0.172 C  
HETATM   10  O   UNL     1      -6.735  15.716  66.966  1.00  0.00    -0.267 OA 
HETATM   11  OXT UNL     1      -7.996  17.485  67.399  1.00  0.00    -0.199 OA 
HETATM   12  O   UNL     1      -6.783  13.215  67.375  1.00  0.00    -0.166 OA 
HETATM   13  CA  UNL     1      -9.034  11.894  67.424  1.00  0.00    -0.173 C  
ENDROOT
BRANCH  13  14
HETATM   14  N   UNL     1      -9.184  11.263  68.753  1.00  0.00    -0.317 N  
HETATM   15  H   UNL     1      -8.918  11.816  69.568  1.00  0.00     0.000 HD 
HETATM   16  C   UNL     1      -9.656   9.988  68.976  1.00  0.00    -0.196 C  
HETATM   17  O   UNL     1     -10.057   9.252  68.084  1.00  0.00    -0.171 OA 
BRANCH  16  18
HETATM   18  CA  UNL     1      -9.588   9.582  70.480  1.00  0.00    -0.251 C  
HETATM   19  H2  UNL     1      -7.981   8.273  70.151  1.00  0.00     0.000 HD 
HETATM   20  N   UNL     1      -8.899   8.270  70.595  1.00  0.00    -0.138 NA 
HETATM   21  H1  UNL     1      -8.854   8.004  71.578  1.00  0.00     0.000 HD 
BRANCH  18  22
HETATM   22  C   UNL     1     -10.999   9.534  71.029  1.00  0.00    -0.424 C  
HETATM   23  C   UNL     1     -11.885  10.550  70.933  1.00  0.00    -0.455 C  
HETATM   24  C   UNL     1     -13.265  10.527  71.526  1.00  0.00    -0.470 C  
HETATM   25  C   UNL     1     -13.540   9.307  72.353  1.00  0.00    -0.527 C  
HETATM   26  C   UNL     1     -12.685   8.278  72.443  1.00  0.00    -0.287 C  
HETATM   27  C   UNL     1     -11.361   8.239  71.731  1.00  0.00    -0.350 C  
ENDBRANCH  18  22
ENDBRANCH  16  18
ENDBRANCH  13  14
TORSDOF 3
ENDMDL
MODEL       57
REMARK 921   NORMALIZED FREE ENERGY PREDICTED BY IDOCK:   -5.57 KCAL/MOL
REMARK 922        TOTAL FREE ENERGY PREDICTED BY IDOCK:   -7.21 KCAL/MOL
REMARK 923 INTER-LIGAND FREE ENERGY PREDICTED BY IDOCK:   -6.89 KCAL/MOL
REMARK 924 INTRA-LIGAND FREE ENERGY PREDICTED BY IDOCK:   -0.32 KCAL/MOL
REMARK 927      BINDING AFFINITY PREDICTED BY RF-SCORE:    0.00 PKD
ROOT
HETATM    1  C   UNL     1      -8.929  16.497  66.110  1.00  0.00    -0.309 C  
HETATM    2  S   UNL     1     -10.610  17.143  65.955  1.00  0.00    -0.113 SA 
HETATM    3  C   UNL     1     -10.076  18.864  65.994  1.00  0.00    -0.329 C  
HETATM    4  C   UNL     1      -9.112  19.193  67.117  1.00  0.00    -0.324 C  
HETATM    5  C   UNL     1      -9.195  20.657  67.500  1.00  0.00    -0.394 C  
HETATM    6  CA  UNL     1      -8.303  18.288  67.742  1.00  0.00    -0.255 C  
HETATM    7  N   UNL     1      -8.342  16.979  67.348  1.00  0.00    -0.189 N  
HETATM    8  C   UNL     1      -7.399  18.747  68.878  1.00  0.00    -0.294 C  
HETATM    9  C   UNL     1      -7.974  15.767  67.819  1.00  0.00    -0.142 C  
HETATM   10  O   UNL     1      -6.564  17.831  69.407  1.00  0.00    -0.252 OA 
HETATM   11  OXT UNL     1      -7.336  19.904  69.271  1.00  0.00    -0.285 OA 
HETATM   12  O   UNL     1      -7.321  15.490  68.796  1.00  0.00    -0.126 OA 
HETATM   13  CA  UNL     1      -8.808  15.051  66.697  1.00  0.00    -0.272 C  
ENDROOT
BRANCH  13  14
HETATM   14  N   UNL     1     -10.079  14.438  67.137  1.00  0.00    -0.251 N  
HETATM   15  H   UNL     1     -10.514  14.812  67.981  1.00  0.00     0.000 HD 
HETATM   16  C   UNL     1     -10.723  13.402  66.497  1.00  0.00    -0.286 C  
HETATM   17  O   UNL     1     -10.328  12.908  65.448  1.00  0.00    -0.288 OA 
BRANCH  16  18
HETATM   18  CA  UNL     1     -11.982  12.910  67.274  1.00  0.00    -0.309 C  
HETATM   19  H2  UNL     1     -12.706  14.864  67.525  1.00  0.00     0.000 HD 
HETATM   20  N   UNL     1     -12.516  14.034  68.087  1.00  0.00    -0.415 NA 
HETATM   21  H1  UNL     1     -13.340  13.713  68.595  1.00  0.00     0.000 HD 
BRANCH  18  22
HETATM   22  C   UNL     1     -11.585  11.726  68.132  1.00  0.00    -0.391 C  
HETATM   23  C   UNL     1     -11.759  11.667  69.471  1.00  0.00    -0.410 C  
HETATM   24  C   UNL     1     -11.315  10.519  70.332  1.00  0.00    -0.411 C  
HETATM   25  C   UNL     1     -10.540   9.476  69.584  1.00  0.00    -0.245 C  
HETATM   26  C   UNL     1     -10.376   9.503  68.253  1.00  0.00    -0.244 C  
HETATM   27  C   UNL     1     -10.944  10.580  67.372  1.00  0.00    -0.352 C  
ENDBRANCH  18  22
ENDBRANCH  16  18
ENDBRANCH  13  14
TORSDOF 3
ENDMDL
MODEL       58
REMARK 921   NORMALIZED FREE ENERGY PREDICTED BY IDOCK:   -5.55 KCAL/MOL
REMARK 922        TOTAL FREE ENERGY PREDICTED BY IDOCK:   -7.18 KCAL/MOL
REMARK 923 INTER-LIGAND FREE ENERGY PREDICTED BY IDOCK:   -6.60 KCAL/MOL
REMARK 924 INTRA-LIGAND FREE ENERGY PREDICTED BY IDOCK:   -0.58 KCAL/MOL
REMARK 927      BINDING AFFINITY PREDICTED BY RF-SCORE:    0.00 PKD
ROOT
HETATM    1  C   UNL     1     -11.366  16.701  66.765  1.00  0.00     0.560 C  
HETATM    2  S   UNL     1     -10.465  16.123  65.309  1.00  0.00    -0.248 SA 
HETATM    3  C   UNL     1     -11.401  14.587  65.196  1.00  0.00    -0.366 C  
HETATM    4  C   UNL     1     -11.524  13.833  66.506  1.00  0.00    -0.364 C  
HETATM    5  C   UNL     1     -11.721  12.350  66.268  1.00  0.00    -0.457 C  
HETATM    6  CA  UNL     1     -11.425  14.398  67.745  1.00  0.00    -0.336 C  
HETATM    7  N   UNL     1     -11.199  15.743  67.845  1.00  0.00    -0.336 N  
HETATM    8  C   UNL     1     -11.540  13.520  68.982  1.00  0.00    -0.311 C  
HETATM    9  C   UNL     1     -10.772  16.634  68.767  1.00  0.00    -0.342 C  
HETATM   10  O   UNL     1     -11.514  14.138  70.179  1.00  0.00    -0.242 OA 
HETATM   11  OXT UNL     1     -11.734  12.313  68.944  1.00  0.00    -0.291 OA 
HETATM   12  O   UNL     1     -10.557  16.475  69.945  1.00  0.00    -0.294 OA 
HETATM   13  CA  UNL     1     -10.613  17.739  67.663  1.00  0.00    -0.379 C  
ENDROOT
BRANCH  13  14
HETATM   14  N   UNL     1      -9.225  18.040  67.254  1.00  0.00    -0.253 N  
HETATM   15  H   UNL     1      -8.521  17.319  67.412  1.00  0.00     0.000 HD 
HETATM   16  C   UNL     1      -8.807  19.219  66.675  1.00  0.00    -0.334 C  
HETATM   17  O   UNL     1      -9.567  20.134  66.386  1.00  0.00    -0.399 OA 
BRANCH  16  18
HETATM   18  CA  UNL     1      -7.263  19.266  66.466  1.00  0.00    -0.229 C  
HETATM   19  H2  UNL     1      -7.383  18.230  64.644  1.00  0.00     0.000 HD 
HETATM   20  N   UNL     1      -6.870  18.184  65.525  1.00  0.00    -0.486 NA 
HETATM   21  H1  UNL     1      -5.860  18.215  65.388  1.00  0.00     0.000 HD 
BRANCH  18  22
HETATM   22  C   UNL     1      -6.590  19.118  67.815  1.00  0.00    -0.232 C  
HETATM   23  C   UNL     1      -5.912  18.017  68.208  1.00  0.00    -0.173 C  
HETATM   24  C   UNL     1      -5.293  17.845  69.566  1.00  0.00    -0.196 C  
HETATM   25  C   UNL     1      -5.598  18.969  70.509  1.00  0.00    -0.228 C  
HETATM   26  C   UNL     1      -6.249  20.081  70.134  1.00  0.00    -0.393 C  
HETATM   27  C   UNL     1      -6.744  20.315  68.734  1.00  0.00    -0.275 C  
ENDBRANCH  18  22
ENDBRANCH  16  18
ENDBRANCH  13  14
TORSDOF 3
ENDMDL
MODEL       59
REMARK 921   NORMALIZED FREE ENERGY PREDICTED BY IDOCK:   -5.54 KCAL/MOL
REMARK 922        TOTAL FREE ENERGY PREDICTED BY IDOCK:   -7.17 KCAL/MOL
REMARK 923 INTER-LIGAND FREE ENERGY PREDICTED BY IDOCK:   -6.84 KCAL/MOL
REMARK 924 INTRA-LIGAND FREE ENERGY PREDICTED BY IDOCK:   -0.34 KCAL/MOL
REMARK 927      BINDING AFFINITY PREDICTED BY RF-SCORE:    0.00 PKD
ROOT
HETATM    1  C   UNL     1     -11.902  14.694  67.470  1.00  0.00    -0.347 C  
HETATM    2  S   UNL     1     -10.547  13.893  66.580  1.00  0.00    -0.275 SA 
HETATM    3  C   UNL     1     -11.191  12.233  66.860  1.00  0.00    -0.312 C  
HETATM    4  C   UNL     1     -11.584  11.950  68.297  1.00  0.00    -0.390 C  
HETATM    5  C   UNL     1     -11.498  10.469  68.607  1.00  0.00    -0.290 C  
HETATM    6  CA  UNL     1     -11.926  12.901  69.216  1.00  0.00    -0.260 C  
HETATM    7  N   UNL     1     -11.925  14.216  68.841  1.00  0.00    -0.347 N  
HETATM    8  C   UNL     1     -12.273  12.481  70.637  1.00  0.00    -0.276 C  
HETATM    9  C   UNL     1     -11.910  15.436  69.422  1.00  0.00    -0.351 C  
HETATM   10  O   UNL     1     -12.680  13.450  71.481  1.00  0.00    -0.340 OA 
HETATM   11  OXT UNL     1     -12.280  11.320  71.021  1.00  0.00    -0.354 OA 
HETATM   12  O   UNL     1     -12.026  15.731  70.588  1.00  0.00    -0.353 OA 
HETATM   13  CA  UNL     1     -11.591  16.116  68.044  1.00  0.00    -0.070 C  
ENDROOT
BRANCH  13  14
HETATM   14  N   UNL     1     -10.199  16.581  67.867  1.00  0.00    -0.264 N  
HETATM   15  H   UNL     1      -9.538  16.384  68.618  1.00  0.00     0.000 HD 
HETATM   16  C   UNL     1      -9.724  17.257  66.764  1.00  0.00    -0.281 C  
HETATM   17  O   UNL     1     -10.406  17.502  65.778  1.00  0.00    -0.560 OA 
BRANCH  16  18
HETATM   18  CA  UNL     1      -8.240  17.704  66.933  1.00  0.00    -0.225 C  
HETATM   19  H2  UNL     1      -8.235  18.715  65.093  1.00  0.00     0.000 HD 
HETATM   20  N   UNL     1      -7.677  18.024  65.595  1.00  0.00    -0.522 NA 
HETATM   21  H1  UNL     1      -6.706  18.317  65.706  1.00  0.00     0.000 HD 
BRANCH  18  22
HETATM   22  C   UNL     1      -7.478  16.589  67.619  1.00  0.00    -0.163 C  
HETATM   23  C   UNL     1      -7.285  15.362  67.086  1.00  0.00    -0.179 C  
HETATM   24  C   UNL     1      -6.579  14.237  67.788  1.00  0.00    -0.189 C  
HETATM   25  C   UNL     1      -6.203  14.557  69.203  1.00  0.00    -0.096 C  
HETATM   26  C   UNL     1      -6.364  15.774  69.744  1.00  0.00    -0.173 C  
HETATM   27  C   UNL     1      -6.940  16.942  68.994  1.00  0.00    -0.224 C  
ENDBRANCH  18  22
ENDBRANCH  16  18
ENDBRANCH  13  14
TORSDOF 3
ENDMDL
MODEL       60
REMARK 921   NORMALIZED FREE ENERGY PREDICTED BY IDOCK:   -5.52 KCAL/MOL
REMARK 922        TOTAL FREE ENERGY PREDICTED BY IDOCK:   -7.14 KCAL/MOL
REMARK 923 INTER-LIGAND FREE ENERGY PREDICTED BY IDOCK:   -6.84 KCAL/MOL
REMARK 924 INTRA-LIGAND FREE ENERGY PREDICTED BY IDOCK:   -0.31 KCAL/MOL
REMARK 927      BINDING AFFINITY PREDICTED BY RF-SCORE:    0.00 PKD
ROOT
HETATM    1  C   UNL     1     -10.578  12.748  65.683  1.00  0.00    -0.275 C  
HETATM    2  S   UNL     1     -12.339  13.160  65.705  1.00  0.00    -0.428 SA 
HETATM    3  C   UNL     1     -12.134  14.593  64.631  1.00  0.00    -0.454 C  
HETATM    4  C   UNL     1     -11.011  15.526  65.041  1.00  0.00    -0.454 C  
HETATM    5  C   UNL     1     -11.269  16.939  64.560  1.00  0.00     0.378 C  
HETATM    6  CA  UNL     1      -9.927  15.162  65.788  1.00  0.00    -0.345 C  
HETATM    7  N   UNL     1      -9.817  13.867  66.211  1.00  0.00    -0.299 N  
HETATM    8  C   UNL     1      -8.883  16.208  66.155  1.00  0.00    -0.332 C  
HETATM    9  C   UNL     1      -9.135  13.157  67.137  1.00  0.00    -0.230 C  
HETATM   10  O   UNL     1      -7.795  15.780  66.824  1.00  0.00    -0.234 OA 
HETATM   11  OXT UNL     1      -8.942  17.379  65.807  1.00  0.00    -0.521 OA 
HETATM   12  O   UNL     1      -8.231  13.507  67.859  1.00  0.00    -0.142 OA 
HETATM   13  CA  UNL     1     -10.062  11.912  66.902  1.00  0.00    -0.207 C  
ENDROOT
BRANCH  13  14
HETATM   14  N   UNL     1     -11.061  11.649  67.959  1.00  0.00    -0.224 N  
HETATM   15  H   UNL     1     -12.043  11.796  67.725  1.00  0.00     0.000 HD 
HETATM   16  C   UNL     1     -10.770  11.220  69.236  1.00  0.00    -0.179 C  
HETATM   17  O   UNL     1      -9.637  10.957  69.617  1.00  0.00     0.032 OA 
BRANCH  16  18
HETATM   18  CA  UNL     1     -12.036  11.144  70.142  1.00  0.00    -0.362 C  
HETATM   19  H2  UNL     1     -12.889   9.615  68.984  1.00  0.00     0.000 HD 
HETATM   20  N   UNL     1     -13.146  10.524  69.371  1.00  0.00    -0.195 NA 
HETATM   21  H1  UNL     1     -13.974  10.474  69.964  1.00  0.00     0.000 HD 
BRANCH  18  22
HETATM   22  C   UNL     1     -12.380  12.545  70.606  1.00  0.00    -0.369 C  
HETATM   23  C   UNL     1     -12.229  13.654  69.848  1.00  0.00    -0.367 C  
HETATM   24  C   UNL     1     -12.515  15.049  70.324  1.00  0.00    -0.385 C  
HETATM   25  C   UNL     1     -12.874  15.123  71.778  1.00  0.00    -0.432 C  
HETATM   26  C   UNL     1     -13.052  14.035  72.542  1.00  0.00    -0.547 C  
HETATM   27  C   UNL     1     -12.905  12.630  72.027  1.00  0.00    -0.268 C  
ENDBRANCH  18  22
ENDBRANCH  16  18
ENDBRANCH  13  14
TORSDOF 3
ENDMDL
MODEL       61
REMARK 921   NORMALIZED FREE ENERGY PREDICTED BY IDOCK:   -5.51 KCAL/MOL
REMARK 922        TOTAL FREE ENERGY PREDICTED BY IDOCK:   -7.13 KCAL/MOL
REMARK 923 INTER-LIGAND FREE ENERGY PREDICTED BY IDOCK:   -6.98 KCAL/MOL
REMARK 924 INTRA-LIGAND FREE ENERGY PREDICTED BY IDOCK:   -0.15 KCAL/MOL
REMARK 927      BINDING AFFINITY PREDICTED BY RF-SCORE:    0.00 PKD
ROOT
HETATM    1  C   UNL     1     -10.539  13.366  69.529  1.00  0.00     0.335 C  
HETATM    2  S   UNL     1     -11.078  14.869  68.680  1.00  0.00    -0.278 SA 
HETATM    3  C   UNL     1     -11.668  15.651  70.192  1.00  0.00    -0.360 C  
HETATM    4  C   UNL     1     -12.551  14.765  71.050  1.00  0.00    -0.401 C  
HETATM    5  C   UNL     1     -13.495  15.591  71.901  1.00  0.00    -0.576 C  
HETATM    6  CA  UNL     1     -12.540  13.400  71.032  1.00  0.00    -0.343 C  
HETATM    7  N   UNL     1     -11.679  12.754  70.190  1.00  0.00    -0.227 N  
HETATM    8  C   UNL     1     -13.502  12.629  71.927  1.00  0.00    -0.329 C  
HETATM    9  C   UNL     1     -11.518  11.525  69.650  1.00  0.00    -0.301 C  
HETATM   10  O   UNL     1     -13.395  11.286  71.929  1.00  0.00    -0.429 OA 
HETATM   11  OXT UNL     1     -14.295  13.162  72.690  1.00  0.00    -0.636 OA 
HETATM   12  O   UNL     1     -12.107  10.498  69.892  1.00  0.00    -0.283 OA 
HETATM   13  CA  UNL     1     -10.449  12.080  68.643  1.00  0.00    -0.218 C  
ENDROOT
BRANCH  13  14
HETATM   14  N   UNL     1     -10.908  12.239  67.247  1.00  0.00    -0.237 N  
HETATM   15  H   UNL     1     -11.381  13.109  67.004  1.00  0.00     0.000 HD 
HETATM   16  C   UNL     1     -10.745  11.305  66.247  1.00  0.00    -0.257 C  
HETATM   17  O   UNL     1     -10.146  10.249  66.403  1.00  0.00    -0.217 OA 
BRANCH  16  18
HETATM   18  CA  UNL     1     -11.438  11.728  64.916  1.00  0.00    -0.203 C  
HETATM   19  H2  UNL     1     -10.853   9.965  63.940  1.00  0.00     0.000 HD 
HETATM   20  N   UNL     1     -10.826  10.973  63.791  1.00  0.00    -0.538 NA 
HETATM   21  H1  UNL     1     -11.280  11.251  62.921  1.00  0.00     0.000 HD 
BRANCH  18  22
HETATM   22  C   UNL     1     -11.282  13.225  64.749  1.00  0.00    -0.350 C  
HETATM   23  C   UNL     1     -10.167  13.914  65.080  1.00  0.00    -0.383 C  
HETATM   24  C   UNL     1     -10.030  15.406  64.968  1.00  0.00    -0.115 C  
HETATM   25  C   UNL     1     -11.298  16.094  64.564  1.00  0.00    -0.273 C  
HETATM   26  C   UNL     1     -12.408  15.430  64.208  1.00  0.00    -0.077 C  
HETATM   27  C   UNL     1     -12.501  13.930  64.183  1.00  0.00    -0.286 C  
ENDBRANCH  18  22
ENDBRANCH  16  18
ENDBRANCH  13  14
TORSDOF 3
ENDMDL
MODEL       62
REMARK 921   NORMALIZED FREE ENERGY PREDICTED BY IDOCK:   -5.48 KCAL/MOL
REMARK 922        TOTAL FREE ENERGY PREDICTED BY IDOCK:   -7.10 KCAL/MOL
REMARK 923 INTER-LIGAND FREE ENERGY PREDICTED BY IDOCK:   -6.49 KCAL/MOL
REMARK 924 INTRA-LIGAND FREE ENERGY PREDICTED BY IDOCK:   -0.61 KCAL/MOL
REMARK 927      BINDING AFFINITY PREDICTED BY RF-SCORE:    0.00 PKD
ROOT
HETATM    1  C   UNL     1      -9.078  11.823  66.415  1.00  0.00    -0.213 C  
HETATM    2  S   UNL     1      -9.546  10.213  65.739  1.00  0.00    -0.250 SA 
HETATM    3  C   UNL     1     -10.356  10.925  64.295  1.00  0.00    -0.368 C  
HETATM    4  C   UNL     1     -11.316  12.055  64.611  1.00  0.00    -0.377 C  
HETATM    5  C   UNL     1     -12.390  12.175  63.548  1.00  0.00    -0.682 C  
HETATM    6  CA  UNL     1     -11.261  12.838  65.728  1.00  0.00    -0.307 C  
HETATM    7  N   UNL     1     -10.276  12.612  66.649  1.00  0.00    -0.233 N  
HETATM    8  C   UNL     1     -12.308  13.923  65.937  1.00  0.00    -0.483 C  
HETATM    9  C   UNL     1     -10.007  12.907  67.940  1.00  0.00    -0.233 C  
HETATM   10  O   UNL     1     -12.160  14.718  67.015  1.00  0.00    -0.306 OA 
HETATM   11  OXT UNL     1     -13.211  14.157  65.148  1.00  0.00    -0.743 OA 
HETATM   12  O   UNL     1     -10.591  13.649  68.695  1.00  0.00    -0.244 OA 
HETATM   13  CA  UNL     1      -8.832  11.866  67.960  1.00  0.00    -0.177 C  
ENDROOT
BRANCH  13  14
HETATM   14  N   UNL     1      -9.107  10.605  68.680  1.00  0.00    -0.162 N  
HETATM   15  H   UNL     1      -9.963  10.105  68.443  1.00  0.00     0.000 HD 
HETATM   16  C   UNL     1      -8.295  10.051  69.647  1.00  0.00    -0.176 C  
HETATM   17  O   UNL     1      -7.217  10.529  69.977  1.00  0.00    -0.159 OA 
BRANCH  16  18
HETATM   18  CA  UNL     1      -8.921   8.777  70.292  1.00  0.00    -0.161 C  
HETATM   19  H2  UNL     1      -7.641   8.875  71.953  1.00  0.00     0.000 HD 
HETATM   20  N   UNL     1      -7.948   8.197  71.256  1.00  0.00    -0.091 NA 
HETATM   21  H1  UNL     1      -8.358   7.364  71.678  1.00  0.00     0.000 HD 
BRANCH  18  22
HETATM   22  C   UNL     1      -9.276   7.804  69.187  1.00  0.00    -0.144 C  
HETATM   23  C   UNL     1     -10.540   7.459  68.857  1.00  0.00    -0.191 C  
HETATM   24  C   UNL     1     -10.894   6.452  67.800  1.00  0.00    -0.418 C  
HETATM   25  C   UNL     1      -9.702   5.759  67.213  1.00  0.00    -0.140 C  
HETATM   26  C   UNL     1      -8.439   6.101  67.508  1.00  0.00    -0.108 C  
HETATM   27  C   UNL     1      -8.084   7.209  68.460  1.00  0.00    -0.125 C  
ENDBRANCH  18  22
ENDBRANCH  16  18
ENDBRANCH  13  14
TORSDOF 3
ENDMDL
MODEL       63
REMARK 921   NORMALIZED FREE ENERGY PREDICTED BY IDOCK:   -5.44 KCAL/MOL
REMARK 922        TOTAL FREE ENERGY PREDICTED BY IDOCK:   -7.05 KCAL/MOL
REMARK 923 INTER-LIGAND FREE ENERGY PREDICTED BY IDOCK:   -6.57 KCAL/MOL
REMARK 924 INTRA-LIGAND FREE ENERGY PREDICTED BY IDOCK:   -0.48 KCAL/MOL
REMARK 927      BINDING AFFINITY PREDICTED BY RF-SCORE:    0.00 PKD
ROOT
HETATM    1  C   UNL     1     -10.150  12.019  65.551  1.00  0.00    -0.252 C  
HETATM    2  S   UNL     1     -11.951  12.163  65.470  1.00  0.00    -0.088 SA 
HETATM    3  C   UNL     1     -11.901  13.656  64.462  1.00  0.00    -0.412 C  
HETATM    4  C   UNL     1     -10.959  14.727  64.977  1.00  0.00    -0.426 C  
HETATM    5  C   UNL     1     -11.399  16.106  64.528  1.00  0.00    -0.273 C  
HETATM    6  CA  UNL     1      -9.879  14.497  65.780  1.00  0.00    -0.314 C  
HETATM    7  N   UNL     1      -9.600  13.215  66.166  1.00  0.00    -0.240 N  
HETATM    8  C   UNL     1      -9.029  15.669  66.251  1.00  0.00    -0.342 C  
HETATM    9  C   UNL     1      -8.875  12.575  67.109  1.00  0.00    -0.202 C  
HETATM   10  O   UNL     1      -7.931  15.379  66.976  1.00  0.00    -0.203 OA 
HETATM   11  OXT UNL     1      -9.244  16.832  65.940  1.00  0.00    -0.486 OA 
HETATM   12  O   UNL     1      -8.080  13.023  67.901  1.00  0.00    -0.132 OA 
HETATM   13  CA  UNL     1      -9.587  11.217  66.771  1.00  0.00    -0.191 C  
ENDROOT
BRANCH  13  14
HETATM   14  N   UNL     1     -10.596  10.762  67.750  1.00  0.00    -0.211 N  
HETATM   15  H   UNL     1     -11.577  10.827  67.479  1.00  0.00     0.000 HD 
HETATM   16  C   UNL     1     -10.315  10.257  69.001  1.00  0.00    -0.211 C  
HETATM   17  O   UNL     1      -9.178  10.080  69.417  1.00  0.00    -0.191 OA 
BRANCH  16  18
HETATM   18  CA  UNL     1     -11.604   9.973  69.832  1.00  0.00    -0.175 C  
HETATM   19  H2  UNL     1     -11.929  12.013  70.201  1.00  0.00     0.000 HD 
HETATM   20  N   UNL     1     -11.873  11.136  70.718  1.00  0.00    -0.361 NA 
HETATM   21  H1  UNL     1     -12.716  10.949  71.262  1.00  0.00     0.000 HD 
BRANCH  18  22
HETATM   22  C   UNL     1     -11.396   8.694  70.618  1.00  0.00    -0.277 C  
HETATM   23  C   UNL     1     -11.241   7.475  70.056  1.00  0.00    -0.173 C  
HETATM   24  C   UNL     1     -11.093   6.198  70.834  1.00  0.00    -0.371 C  
HETATM   25  C   UNL     1     -11.254   6.377  72.313  1.00  0.00    -0.314 C  
HETATM   26  C   UNL     1     -11.385   7.580  72.893  1.00  0.00    -0.355 C  
HETATM   27  C   UNL     1     -11.390   8.871  72.125  1.00  0.00    -0.369 C  
ENDBRANCH  18  22
ENDBRANCH  16  18
ENDBRANCH  13  14
TORSDOF 3
ENDMDL
MODEL       64
REMARK 921   NORMALIZED FREE ENERGY PREDICTED BY IDOCK:   -5.43 KCAL/MOL
REMARK 922        TOTAL FREE ENERGY PREDICTED BY IDOCK:   -7.04 KCAL/MOL
REMARK 923 INTER-LIGAND FREE ENERGY PREDICTED BY IDOCK:   -6.54 KCAL/MOL
REMARK 924 INTRA-LIGAND FREE ENERGY PREDICTED BY IDOCK:   -0.50 KCAL/MOL
REMARK 927      BINDING AFFINITY PREDICTED BY RF-SCORE:    0.00 PKD
ROOT
HETATM    1  C   UNL     1      -6.946  16.404  66.959  1.00  0.00    -0.219 C  
HETATM    2  S   UNL     1      -8.454  17.116  66.261  1.00  0.00    -0.211 SA 
HETATM    3  C   UNL     1      -7.778  18.786  66.206  1.00  0.00    -0.272 C  
HETATM    4  C   UNL     1      -7.112  19.233  67.493  1.00  0.00    -0.236 C  
HETATM    5  C   UNL     1      -7.145  20.742  67.632  1.00  0.00    -0.358 C  
HETATM    6  CA  UNL     1      -6.591  18.394  68.436  1.00  0.00    -0.222 C  
HETATM    7  N   UNL     1      -6.658  17.044  68.232  1.00  0.00    -0.152 N  
HETATM    8  C   UNL     1      -5.975  18.975  69.700  1.00  0.00    -0.259 C  
HETATM    9  C   UNL     1      -6.551  15.903  68.948  1.00  0.00    -0.126 C  
HETATM   10  O   UNL     1      -5.404  18.108  70.560  1.00  0.00    -0.240 OA 
HETATM   11  OXT UNL     1      -5.900  20.174  69.932  1.00  0.00    -0.284 OA 
HETATM   12  O   UNL     1      -6.207  15.748  70.096  1.00  0.00    -0.155 OA 
HETATM   13  CA  UNL     1      -7.130  15.067  67.752  1.00  0.00    -0.170 C  
ENDROOT
BRANCH  13  14
HETATM   14  N   UNL     1      -8.527  14.610  67.907  1.00  0.00    -0.150 N  
HETATM   15  H   UNL     1      -9.267  15.281  67.701  1.00  0.00     0.000 HD 
HETATM   16  C   UNL     1      -8.908  13.348  68.308  1.00  0.00    -0.172 C  
HETATM   17  O   UNL     1      -8.115  12.443  68.529  1.00  0.00    -0.148 OA 
BRANCH  16  18
HETATM   18  CA  UNL     1     -10.452  13.218  68.480  1.00  0.00    -0.250 C  
HETATM   19  H2  UNL     1     -10.256  12.012  70.187  1.00  0.00     0.000 HD 
HETATM   20  N   UNL     1     -10.747  12.009  69.293  1.00  0.00    -0.440 NA 
HETATM   21  H1  UNL     1     -11.758  11.925  69.406  1.00  0.00     0.000 HD 
BRANCH  18  22
HETATM   22  C   UNL     1     -11.085  13.148  67.106  1.00  0.00    -0.305 C  
HETATM   23  C   UNL     1     -12.092  13.949  66.692  1.00  0.00    -0.485 C  
HETATM   24  C   UNL     1     -12.759  13.844  65.350  1.00  0.00    -0.525 C  
HETATM   25  C   UNL     1     -12.287  12.676  64.537  1.00  0.00    -0.537 C  
HETATM   26  C   UNL     1     -11.274  11.884  64.918  1.00  0.00    -0.350 C  
HETATM   27  C   UNL     1     -10.509  12.077  66.198  1.00  0.00    -0.271 C  
ENDBRANCH  18  22
ENDBRANCH  16  18
ENDBRANCH  13  14
TORSDOF 3
ENDMDL
MODEL       65
REMARK 921   NORMALIZED FREE ENERGY PREDICTED BY IDOCK:   -5.42 KCAL/MOL
REMARK 922        TOTAL FREE ENERGY PREDICTED BY IDOCK:   -7.02 KCAL/MOL
REMARK 923 INTER-LIGAND FREE ENERGY PREDICTED BY IDOCK:   -6.65 KCAL/MOL
REMARK 924 INTRA-LIGAND FREE ENERGY PREDICTED BY IDOCK:   -0.37 KCAL/MOL
REMARK 927      BINDING AFFINITY PREDICTED BY RF-SCORE:    0.00 PKD
ROOT
HETATM    1  C   UNL     1     -11.284  10.827  66.229  1.00  0.00     0.237 C  
HETATM    2  S   UNL     1     -11.214  12.278  65.152  1.00  0.00    -0.333 SA 
HETATM    3  C   UNL     1     -10.357  11.400  63.832  1.00  0.00    -0.379 C  
HETATM    4  C   UNL     1      -9.158  10.594  64.294  1.00  0.00    -0.244 C  
HETATM    5  C   UNL     1      -8.149  10.424  63.176  1.00  0.00    -0.141 C  
HETATM    6  CA  UNL     1      -8.978  10.118  65.561  1.00  0.00    -0.172 C  
HETATM    7  N   UNL     1      -9.933  10.370  66.506  1.00  0.00    -0.209 N  
HETATM    8  C   UNL     1      -7.712   9.344  65.899  1.00  0.00    -0.099 C  
HETATM    9  C   UNL     1     -10.056  10.359  67.852  1.00  0.00    -0.171 C  
HETATM   10  O   UNL     1      -7.620   8.830  67.142  1.00  0.00    -0.087 OA 
HETATM   11  OXT UNL     1      -6.827   9.101  65.091  1.00  0.00    -0.075 OA 
HETATM   12  O   UNL     1      -9.282   9.957  68.689  1.00  0.00    -0.132 OA 
HETATM   13  CA  UNL     1     -11.424  11.123  67.759  1.00  0.00    -0.272 C  
ENDROOT
BRANCH  13  14
HETATM   14  N   UNL     1     -11.385  12.553  68.134  1.00  0.00    -0.272 N  
HETATM   15  H   UNL     1     -11.165  13.225  67.400  1.00  0.00     0.000 HD 
HETATM   16  C   UNL     1     -11.625  13.047  69.397  1.00  0.00    -0.299 C  
HETATM   17  O   UNL     1     -11.952  12.346  70.345  1.00  0.00    -0.344 OA 
BRANCH  16  18
HETATM   18  CA  UNL     1     -11.397  14.587  69.488  1.00  0.00    -0.275 C  
HETATM   19  H2  UNL     1      -9.503  14.455  68.592  1.00  0.00     0.000 HD 
HETATM   20  N   UNL     1      -9.938  14.864  69.419  1.00  0.00    -0.371 NA 
HETATM   21  H1  UNL     1      -9.790  15.872  69.478  1.00  0.00     0.000 HD 
BRANCH  18  22
HETATM   22  C   UNL     1     -12.012  15.089  70.778  1.00  0.00    -0.371 C  
HETATM   23  C   UNL     1     -11.298  15.469  71.861  1.00  0.00    -0.456 C  
HETATM   24  C   UNL     1     -11.906  15.913  73.161  1.00  0.00    -0.500 C  
HETATM   25  C   UNL     1     -13.398  15.783  73.198  1.00  0.00    -0.685 C  
HETATM   26  C   UNL     1     -14.128  15.431  72.129  1.00  0.00    -0.651 C  
HETATM   27  C   UNL     1     -13.529  15.125  70.785  1.00  0.00    -0.345 C  
ENDBRANCH  18  22
ENDBRANCH  16  18
ENDBRANCH  13  14
TORSDOF 3
ENDMDL
MODEL       66
REMARK 921   NORMALIZED FREE ENERGY PREDICTED BY IDOCK:   -5.41 KCAL/MOL
REMARK 922        TOTAL FREE ENERGY PREDICTED BY IDOCK:   -7.01 KCAL/MOL
REMARK 923 INTER-LIGAND FREE ENERGY PREDICTED BY IDOCK:   -6.58 KCAL/MOL
REMARK 924 INTRA-LIGAND FREE ENERGY PREDICTED BY IDOCK:   -0.43 KCAL/MOL
REMARK 927      BINDING AFFINITY PREDICTED BY RF-SCORE:    0.00 PKD
ROOT
HETATM    1  C   UNL     1     -11.681  13.688  67.889  1.00  0.00    -0.360 C  
HETATM    2  S   UNL     1     -10.044  13.950  68.613  1.00  0.00    -0.162 SA 
HETATM    3  C   UNL     1     -10.027  15.710  68.225  1.00  0.00    -0.213 C  
HETATM    4  C   UNL     1     -10.416  16.038  66.796  1.00  0.00    -0.308 C  
HETATM    5  C   UNL     1      -9.800  17.348  66.348  1.00  0.00    -0.311 C  
HETATM    6  CA  UNL     1     -11.181  15.243  65.992  1.00  0.00    -0.231 C  
HETATM    7  N   UNL     1     -11.648  14.056  66.484  1.00  0.00    -0.357 N  
HETATM    8  C   UNL     1     -11.475  15.680  64.564  1.00  0.00    -0.300 C  
HETATM    9  C   UNL     1     -12.157  12.894  66.017  1.00  0.00    -0.422 C  
HETATM   10  O   UNL     1     -12.299  14.898  63.840  1.00  0.00    -0.711 OA 
HETATM   11  OXT UNL     1     -11.073  16.727  64.077  1.00  0.00    -0.909 OA 
HETATM   12  O   UNL     1     -12.487  12.599  64.893  1.00  0.00    -0.484 OA 
HETATM   13  CA  UNL     1     -11.993  12.226  67.428  1.00  0.00    -0.133 C  
ENDROOT
BRANCH  13  14
HETATM   14  N   UNL     1     -10.875  11.268  67.557  1.00  0.00    -0.228 N  
HETATM   15  H   UNL     1     -10.186  11.246  66.805  1.00  0.00     0.000 HD 
HETATM   16  C   UNL     1     -10.690  10.403  68.614  1.00  0.00    -0.218 C  
HETATM   17  O   UNL     1     -11.417  10.376  69.598  1.00  0.00    -0.246 OA 
BRANCH  16  18
HETATM   18  CA  UNL     1      -9.478   9.447  68.396  1.00  0.00    -0.141 C  
HETATM   19  H2  UNL     1     -10.551   7.778  69.082  1.00  0.00     0.000 HD 
HETATM   20  N   UNL     1      -9.657   8.240  69.246  1.00  0.00    -0.163 NA 
HETATM   21  H1  UNL     1      -8.864   7.615  69.104  1.00  0.00     0.000 HD 
BRANCH  18  22
HETATM   22  C   UNL     1      -8.207  10.197  68.734  1.00  0.00    -0.113 C  
HETATM   23  C   UNL     1      -7.573  10.120  69.926  1.00  0.00    -0.174 C  
HETATM   24  C   UNL     1      -6.345  10.907  70.283  1.00  0.00    -0.135 C  
HETATM   25  C   UNL     1      -5.940  11.894  69.230  1.00  0.00    -0.079 C  
HETATM   26  C   UNL     1      -6.539  11.971  68.033  1.00  0.00    -0.069 C  
HETATM   27  C   UNL     1      -7.680  11.083  67.621  1.00  0.00    -0.112 C  
ENDBRANCH  18  22
ENDBRANCH  16  18
ENDBRANCH  13  14
TORSDOF 3
ENDMDL
MODEL       67
REMARK 921   NORMALIZED FREE ENERGY PREDICTED BY IDOCK:   -5.32 KCAL/MOL
REMARK 922        TOTAL FREE ENERGY PREDICTED BY IDOCK:   -6.91 KCAL/MOL
REMARK 923 INTER-LIGAND FREE ENERGY PREDICTED BY IDOCK:   -6.63 KCAL/MOL
REMARK 924 INTRA-LIGAND FREE ENERGY PREDICTED BY IDOCK:   -0.28 KCAL/MOL
REMARK 927      BINDING AFFINITY PREDICTED BY RF-SCORE:    0.00 PKD
ROOT
HETATM    1  C   UNL     1     -10.900  11.094  64.956  1.00  0.00    -0.173 C  
HETATM    2  S   UNL     1     -10.356  11.937  63.452  1.00  0.00    -0.407 SA 
HETATM    3  C   UNL     1      -9.423  10.516  62.855  1.00  0.00    -0.333 C  
HETATM    4  C   UNL     1      -8.507   9.890  63.889  1.00  0.00    -0.183 C  
HETATM    5  C   UNL     1      -7.340   9.181  63.231  1.00  0.00    -0.096 C  
HETATM    6  CA  UNL     1      -8.673   9.987  65.241  1.00  0.00    -0.163 C  
HETATM    7  N   UNL     1      -9.737  10.694  65.729  1.00  0.00    -0.208 N  
HETATM    8  C   UNL     1      -7.661   9.334  66.171  1.00  0.00    -0.096 C  
HETATM    9  C   UNL     1     -10.128  11.267  66.889  1.00  0.00    -0.212 C  
HETATM   10  O   UNL     1      -7.916   9.392  67.493  1.00  0.00    -0.102 OA 
HETATM   11  OXT UNL     1      -6.690   8.700  65.782  1.00  0.00    -0.062 OA 
HETATM   12  O   UNL     1      -9.624  11.200  67.985  1.00  0.00    -0.166 OA 
HETATM   13  CA  UNL     1     -11.289  12.024  66.153  1.00  0.00    -0.351 C  
ENDROOT
BRANCH  13  14
HETATM   14  N   UNL     1     -11.071  13.469  65.929  1.00  0.00    -0.284 N  
HETATM   15  H   UNL     1     -10.126  13.828  66.064  1.00  0.00     0.000 HD 
HETATM   16  C   UNL     1     -12.044  14.369  65.552  1.00  0.00    -0.356 C  
HETATM   17  O   UNL     1     -13.199  14.049  65.307  1.00  0.00    -0.782 OA 
BRANCH  16  18
HETATM   18  CA  UNL     1     -11.515  15.835  65.509  1.00  0.00     0.147 C  
HETATM   19  H2  UNL     1     -11.909  16.016  63.455  1.00  0.00     0.000 HD 
HETATM   20  N   UNL     1     -11.143  16.173  64.109  1.00  0.00    -1.150 NA 
HETATM   21  H1  UNL     1     -10.797  17.132  64.081  1.00  0.00     0.000 HD 
BRANCH  18  22
HETATM   22  C   UNL     1     -10.338  15.950  66.454  1.00  0.00    -0.313 C  
HETATM   23  C   UNL     1      -9.044  15.931  66.061  1.00  0.00    -0.363 C  
HETATM   24  C   UNL     1      -7.874  15.987  67.002  1.00  0.00    -0.263 C  
HETATM   25  C   UNL     1      -8.266  15.944  68.448  1.00  0.00    -0.161 C  
HETATM   26  C   UNL     1      -9.543  15.986  68.860  1.00  0.00    -0.236 C  
HETATM   27  C   UNL     1     -10.712  16.075  67.919  1.00  0.00    -0.316 C  
ENDBRANCH  18  22
ENDBRANCH  16  18
ENDBRANCH  13  14
TORSDOF 3
ENDMDL
MODEL       68
REMARK 921   NORMALIZED FREE ENERGY PREDICTED BY IDOCK:   -5.28 KCAL/MOL
REMARK 922        TOTAL FREE ENERGY PREDICTED BY IDOCK:   -6.87 KCAL/MOL
REMARK 923 INTER-LIGAND FREE ENERGY PREDICTED BY IDOCK:   -6.31 KCAL/MOL
REMARK 924 INTRA-LIGAND FREE ENERGY PREDICTED BY IDOCK:   -0.56 KCAL/MOL
REMARK 927      BINDING AFFINITY PREDICTED BY RF-SCORE:    0.00 PKD
ROOT
HETATM    1  C   UNL     1     -12.022  13.225  67.316  1.00  0.00    -0.343 C  
HETATM    2  S   UNL     1     -11.168  12.885  68.873  1.00  0.00    -0.281 SA 
HETATM    3  C   UNL     1     -11.264  14.596  69.432  1.00  0.00    -0.279 C  
HETATM    4  C   UNL     1     -10.828  15.616  68.398  1.00  0.00    -0.290 C  
HETATM    5  C   UNL     1     -10.324  16.884  69.058  1.00  0.00    -0.333 C  
HETATM    6  CA  UNL     1     -10.837  15.413  67.048  1.00  0.00    -0.320 C  
HETATM    7  N   UNL     1     -11.268  14.211  66.561  1.00  0.00    -0.322 N  
HETATM    8  C   UNL     1     -10.345  16.514  66.120  1.00  0.00    -0.334 C  
HETATM    9  C   UNL     1     -11.194  13.494  65.418  1.00  0.00    -0.289 C  
HETATM   10  O   UNL     1     -10.450  16.293  64.795  1.00  0.00    -0.607 OA 
HETATM   11  OXT UNL     1      -9.942  17.602  66.508  1.00  0.00    -0.302 OA 
HETATM   12  O   UNL     1     -10.766  13.819  64.335  1.00  0.00    -0.407 OA 
HETATM   13  CA  UNL     1     -11.738  12.218  66.152  1.00  0.00    -0.376 C  
ENDROOT
BRANCH  13  14
HETATM   14  N   UNL     1     -10.734  11.174  66.449  1.00  0.00    -0.262 N  
HETATM   15  H   UNL     1     -10.506  11.006  67.428  1.00  0.00     0.000 HD 
HETATM   16  C   UNL     1     -10.083  10.409  65.505  1.00  0.00    -0.283 C  
HETATM   17  O   UNL     1     -10.312  10.480  64.305  1.00  0.00    -0.332 OA 
BRANCH  16  18
HETATM   18  CA  UNL     1      -9.004   9.476  66.135  1.00  0.00    -0.158 C  
HETATM   19  H2  UNL     1      -9.367  10.205  68.070  1.00  0.00     0.000 HD 
HETATM   20  N   UNL     1      -8.580  10.043  67.442  1.00  0.00    -0.125 NA 
HETATM   21  H1  UNL     1      -7.874   9.432  67.854  1.00  0.00     0.000 HD 
BRANCH  18  22
HETATM   22  C   UNL     1      -7.847   9.356  65.164  1.00  0.00    -0.110 C  
HETATM   23  C   UNL     1      -6.874  10.284  65.025  1.00  0.00    -0.111 C  
HETATM   24  C   UNL     1      -5.758  10.194  64.024  1.00  0.00    -0.135 C  
HETATM   25  C   UNL     1      -5.882   9.026  63.092  1.00  0.00    -0.088 C  
HETATM   26  C   UNL     1      -6.826   8.082  63.227  1.00  0.00    -0.084 C  
HETATM   27  C   UNL     1      -7.858   8.096  64.319  1.00  0.00    -0.137 C  
ENDBRANCH  18  22
ENDBRANCH  16  18
ENDBRANCH  13  14
TORSDOF 3
ENDMDL
MODEL       69
REMARK 921   NORMALIZED FREE ENERGY PREDICTED BY IDOCK:   -5.28 KCAL/MOL
REMARK 922        TOTAL FREE ENERGY PREDICTED BY IDOCK:   -6.86 KCAL/MOL
REMARK 923 INTER-LIGAND FREE ENERGY PREDICTED BY IDOCK:   -6.70 KCAL/MOL
REMARK 924 INTRA-LIGAND FREE ENERGY PREDICTED BY IDOCK:   -0.16 KCAL/MOL
REMARK 927      BINDING AFFINITY PREDICTED BY RF-SCORE:    0.00 PKD
ROOT
HETATM    1  C   UNL     1     -10.206  14.322  69.845  1.00  0.00     0.526 C  
HETATM    2  S   UNL     1     -11.218  15.738  70.336  1.00  0.00    -0.396 SA 
HETATM    3  C   UNL     1     -12.004  14.853  71.694  1.00  0.00    -0.363 C  
HETATM    4  C   UNL     1     -12.537  13.483  71.322  1.00  0.00    -0.427 C  
HETATM    5  C   UNL     1     -13.684  13.077  72.226  1.00  0.00    -0.608 C  
HETATM    6  CA  UNL     1     -12.084  12.725  70.280  1.00  0.00    -0.297 C  
HETATM    7  N   UNL     1     -11.074  13.210  69.497  1.00  0.00    -0.080 N  
HETATM    8  C   UNL     1     -12.729  11.375  69.998  1.00  0.00     0.048 C  
HETATM    9  C   UNL     1     -10.533  12.977  68.281  1.00  0.00    -0.250 C  
HETATM   10  O   UNL     1     -12.192  10.634  69.009  1.00  0.00    -0.354 OA 
HETATM   11  OXT UNL     1     -13.639  10.904  70.664  1.00  0.00     0.292 OA 
HETATM   12  O   UNL     1     -10.753  12.079  67.502  1.00  0.00    -0.215 OA 
HETATM   13  CA  UNL     1      -9.719  14.318  68.358  1.00  0.00    -0.225 C  
ENDROOT
BRANCH  13  14
HETATM   14  N   UNL     1     -10.228  15.425  67.522  1.00  0.00    -0.241 N  
HETATM   15  H   UNL     1     -10.525  16.276  67.998  1.00  0.00     0.000 HD 
HETATM   16  C   UNL     1     -10.332  15.397  66.148  1.00  0.00    -0.313 C  
HETATM   17  O   UNL     1      -9.958  14.455  65.462  1.00  0.00    -0.339 OA 
BRANCH  16  18
HETATM   18  CA  UNL     1     -11.011  16.679  65.576  1.00  0.00    -0.059 C  
HETATM   19  H2  UNL     1     -11.511  15.725  63.774  1.00  0.00     0.000 HD 
HETATM   20  N   UNL     1     -11.056  16.580  64.093  1.00  0.00    -1.320 NA 
HETATM   21  H1  UNL     1     -11.500  17.419  63.719  1.00  0.00     0.000 HD 
BRANCH  18  22
HETATM   22  C   UNL     1     -10.225  17.887  66.041  1.00  0.00    -0.297 C  
HETATM   23  C   UNL     1     -10.783  19.068  66.388  1.00  0.00    -0.410 C  
HETATM   24  C   UNL     1     -10.003  20.285  66.796  1.00  0.00    -0.587 C  
HETATM   25  C   UNL     1      -8.519  20.115  66.669  1.00  0.00    -0.343 C  
HETATM   26  C   UNL     1      -7.943  18.946  66.350  1.00  0.00    -0.300 C  
HETATM   27  C   UNL     1      -8.721  17.688  66.081  1.00  0.00    -0.141 C  
ENDBRANCH  18  22
ENDBRANCH  16  18
ENDBRANCH  13  14
TORSDOF 3
ENDMDL
MODEL       70
REMARK 921   NORMALIZED FREE ENERGY PREDICTED BY IDOCK:   -5.26 KCAL/MOL
REMARK 922        TOTAL FREE ENERGY PREDICTED BY IDOCK:   -6.84 KCAL/MOL
REMARK 923 INTER-LIGAND FREE ENERGY PREDICTED BY IDOCK:   -6.43 KCAL/MOL
REMARK 924 INTRA-LIGAND FREE ENERGY PREDICTED BY IDOCK:   -0.41 KCAL/MOL
REMARK 927      BINDING AFFINITY PREDICTED BY RF-SCORE:    0.00 PKD
ROOT
HETATM    1  C   UNL     1      -9.020  11.339  65.657  1.00  0.00    -0.163 C  
HETATM    2  S   UNL     1     -10.660  10.667  65.298  1.00  0.00    -0.024 SA 
HETATM    3  C   UNL     1     -11.179  12.122  64.370  1.00  0.00    -0.341 C  
HETATM    4  C   UNL     1     -10.907  13.440  65.070  1.00  0.00    -0.337 C  
HETATM    5  C   UNL     1     -11.873  14.514  64.613  1.00  0.00    -0.462 C  
HETATM    6  CA  UNL     1      -9.950  13.634  66.025  1.00  0.00    -0.302 C  
HETATM    7  N   UNL     1      -9.162  12.581  66.398  1.00  0.00    -0.212 N  
HETATM    8  C   UNL     1      -9.800  15.004  66.670  1.00  0.00    -0.254 C  
HETATM    9  C   UNL     1      -8.346  12.236  67.419  1.00  0.00    -0.177 C  
HETATM   10  O   UNL     1      -8.790  15.162  67.548  1.00  0.00    -0.171 OA 
HETATM   11  OXT UNL     1     -10.486  15.973  66.376  1.00  0.00    -0.301 OA 
HETATM   12  O   UNL     1      -7.950  12.906  68.344  1.00  0.00    -0.146 OA 
HETATM   13  CA  UNL     1      -8.305  10.749  66.918  1.00  0.00    -0.132 C  
ENDROOT
BRANCH  13  14
HETATM   14  N   UNL     1      -9.104   9.786  67.706  1.00  0.00    -0.131 N  
HETATM   15  H   UNL     1      -9.868   9.308  67.229  1.00  0.00     0.000 HD 
HETATM   16  C   UNL     1      -8.897   9.485  69.035  1.00  0.00    -0.143 C  
HETATM   17  O   UNL     1      -7.980   9.951  69.697  1.00  0.00    -0.127 OA 
BRANCH  16  18
HETATM   18  CA  UNL     1      -9.979   8.515  69.602  1.00  0.00    -0.192 C  
HETATM   19  H2  UNL     1      -9.733   7.162  68.016  1.00  0.00     0.000 HD 
HETATM   20  N   UNL     1     -10.484   7.657  68.498  1.00  0.00    -0.265 NA 
HETATM   21  H1  UNL     1     -11.191   7.023  68.869  1.00  0.00     0.000 HD 
BRANCH  18  22
HETATM   22  C   UNL     1     -11.082   9.341  70.230  1.00  0.00    -0.289 C  
HETATM   23  C   UNL     1     -11.311  10.643  69.946  1.00  0.00    -0.386 C  
HETATM   24  C   UNL     1     -12.368  11.480  70.610  1.00  0.00    -0.457 C  
HETATM   25  C   UNL     1     -13.082  10.770  71.720  1.00  0.00    -0.573 C  
HETATM   26  C   UNL     1     -12.887   9.474  72.003  1.00  0.00    -0.499 C  
HETATM   27  C   UNL     1     -11.931   8.597  71.244  1.00  0.00    -0.339 C  
ENDBRANCH  18  22
ENDBRANCH  16  18
ENDBRANCH  13  14
TORSDOF 3
ENDMDL
MODEL       71
REMARK 921   NORMALIZED FREE ENERGY PREDICTED BY IDOCK:   -5.24 KCAL/MOL
REMARK 922        TOTAL FREE ENERGY PREDICTED BY IDOCK:   -6.82 KCAL/MOL
REMARK 923 INTER-LIGAND FREE ENERGY PREDICTED BY IDOCK:   -6.47 KCAL/MOL
REMARK 924 INTRA-LIGAND FREE ENERGY PREDICTED BY IDOCK:   -0.35 KCAL/MOL
REMARK 927      BINDING AFFINITY PREDICTED BY RF-SCORE:    0.00 PKD
ROOT
HETATM    1  C   UNL     1     -11.048   7.849  70.643  1.00  0.00    -0.259 C  
HETATM    2  S   UNL     1     -10.851   7.569  68.867  1.00  0.00     0.044 SA 
HETATM    3  C   UNL     1     -10.614   5.792  69.057  1.00  0.00    -0.281 C  
HETATM    4  C   UNL     1      -9.605   5.407  70.122  1.00  0.00    -0.235 C  
HETATM    5  C   UNL     1      -8.984   4.056  69.826  1.00  0.00    -0.162 C  
HETATM    6  CA  UNL     1      -9.257   6.187  71.188  1.00  0.00    -0.153 C  
HETATM    7  N   UNL     1      -9.847   7.412  71.334  1.00  0.00    -0.184 N  
HETATM    8  C   UNL     1      -8.207   5.690  72.171  1.00  0.00    -0.112 C  
HETATM    9  C   UNL     1      -9.635   8.565  72.005  1.00  0.00    -0.301 C  
HETATM   10  O   UNL     1      -7.959   6.463  73.246  1.00  0.00    -0.104 OA 
HETATM   11  OXT UNL     1      -7.646   4.607  72.078  1.00  0.00    -0.084 OA 
HETATM   12  O   UNL     1      -8.820   8.816  72.861  1.00  0.00    -0.362 OA 
HETATM   13  CA  UNL     1     -10.723   9.297  71.142  1.00  0.00    -0.333 C  
ENDROOT
BRANCH  13  14
HETATM   14  N   UNL     1     -10.207  10.222  70.110  1.00  0.00    -0.424 N  
HETATM   15  H   UNL     1      -9.203  10.213  69.931  1.00  0.00     0.000 HD 
HETATM   16  C   UNL     1     -10.977  11.094  69.372  1.00  0.00    -0.244 C  
HETATM   17  O   UNL     1     -12.196  11.156  69.458  1.00  0.00    -0.323 OA 
BRANCH  16  18
HETATM   18  CA  UNL     1     -10.118  12.010  68.447  1.00  0.00    -0.210 C  
HETATM   19  H2  UNL     1      -9.796  13.412  69.976  1.00  0.00     0.000 HD 
HETATM   20  N   UNL     1     -10.110  13.388  69.006  1.00  0.00    -0.430 NA 
HETATM   21  H1  UNL     1      -9.548  13.987  68.401  1.00  0.00     0.000 HD 
BRANCH  18  22
HETATM   22  C   UNL     1     -10.703  11.966  67.051  1.00  0.00    -0.280 C  
HETATM   23  C   UNL     1     -10.301  11.108  66.086  1.00  0.00    -0.302 C  
HETATM   24  C   UNL     1     -10.839  11.101  64.684  1.00  0.00    -0.295 C  
HETATM   25  C   UNL     1     -11.791  12.223  64.402  1.00  0.00    -0.464 C  
HETATM   26  C   UNL     1     -12.221  13.071  65.349  1.00  0.00    -0.520 C  
HETATM   27  C   UNL     1     -11.792  12.990  66.787  1.00  0.00    -0.451 C  
ENDBRANCH  18  22
ENDBRANCH  16  18
ENDBRANCH  13  14
TORSDOF 3
ENDMDL
MODEL       72
REMARK 921   NORMALIZED FREE ENERGY PREDICTED BY IDOCK:   -5.21 KCAL/MOL
REMARK 922        TOTAL FREE ENERGY PREDICTED BY IDOCK:   -6.79 KCAL/MOL
REMARK 923 INTER-LIGAND FREE ENERGY PREDICTED BY IDOCK:   -6.28 KCAL/MOL
REMARK 924 INTRA-LIGAND FREE ENERGY PREDICTED BY IDOCK:   -0.51 KCAL/MOL
REMARK 927      BINDING AFFINITY PREDICTED BY RF-SCORE:    0.00 PKD
ROOT
HETATM    1  C   UNL     1      -9.345   7.748  72.016  1.00  0.00    -0.152 C  
HETATM    2  S   UNL     1     -10.981   7.780  72.786  1.00  0.00    -0.400 SA 
HETATM    3  C   UNL     1     -10.790   6.150  73.530  1.00  0.00    -0.184 C  
HETATM    4  C   UNL     1     -10.292   5.082  72.575  1.00  0.00    -0.255 C  
HETATM    5  C   UNL     1     -10.741   3.702  73.014  1.00  0.00    -0.235 C  
HETATM    6  CA  UNL     1      -9.574   5.323  71.439  1.00  0.00    -0.158 C  
HETATM    7  N   UNL     1      -9.263   6.613  71.112  1.00  0.00    -0.159 N  
HETATM    8  C   UNL     1      -9.159   4.158  70.551  1.00  0.00    -0.109 C  
HETATM    9  C   UNL     1      -8.857   7.316  70.031  1.00  0.00    -0.141 C  
HETATM   10  O   UNL     1      -8.385   4.443  69.486  1.00  0.00    -0.063 OA 
HETATM   11  OXT UNL     1      -9.421   2.989  70.797  1.00  0.00    -0.143 OA 
HETATM   12  O   UNL     1      -8.500   6.918  68.948  1.00  0.00    -0.124 OA 
HETATM   13  CA  UNL     1      -9.166   8.670  70.764  1.00  0.00    -0.185 C  
ENDROOT
BRANCH  13  14
HETATM   14  N   UNL     1     -10.385   9.375  70.317  1.00  0.00    -0.225 N  
HETATM   15  H   UNL     1     -11.276   9.068  70.706  1.00  0.00     0.000 HD 
HETATM   16  C   UNL     1     -10.412  10.417  69.415  1.00  0.00    -0.238 C  
HETATM   17  O   UNL     1      -9.405  10.909  68.923  1.00  0.00    -0.182 OA 
BRANCH  16  18
HETATM   18  CA  UNL     1     -11.864  10.869  69.070  1.00  0.00    -0.299 C  
HETATM   19  H2  UNL     1     -11.594  10.498  67.022  1.00  0.00     0.000 HD 
HETATM   20  N   UNL     1     -11.924  11.245  67.633  1.00  0.00    -0.607 NA 
HETATM   21  H1  UNL     1     -12.874  11.540  67.407  1.00  0.00     0.000 HD 
BRANCH  18  22
HETATM   22  C   UNL     1     -12.236  12.024  69.976  1.00  0.00    -0.280 C  
HETATM   23  C   UNL     1     -11.889  13.310  69.747  1.00  0.00    -0.394 C  
HETATM   24  C   UNL     1     -12.208  14.450  70.673  1.00  0.00    -0.414 C  
HETATM   25  C   UNL     1     -12.850  14.016  71.956  1.00  0.00    -0.415 C  
HETATM   26  C   UNL     1     -13.224  12.750  72.194  1.00  0.00    -0.546 C  
HETATM   27  C   UNL     1     -13.034  11.633  71.206  1.00  0.00    -0.368 C  
ENDBRANCH  18  22
ENDBRANCH  16  18
ENDBRANCH  13  14
TORSDOF 3
ENDMDL
MODEL       73
REMARK 921   NORMALIZED FREE ENERGY PREDICTED BY IDOCK:   -5.20 KCAL/MOL
REMARK 922        TOTAL FREE ENERGY PREDICTED BY IDOCK:   -6.76 KCAL/MOL
REMARK 923 INTER-LIGAND FREE ENERGY PREDICTED BY IDOCK:   -6.24 KCAL/MOL
REMARK 924 INTRA-LIGAND FREE ENERGY PREDICTED BY IDOCK:   -0.53 KCAL/MOL
REMARK 927      BINDING AFFINITY PREDICTED BY RF-SCORE:    0.00 PKD
ROOT
HETATM    1  C   UNL     1      -8.917   8.985  70.664  1.00  0.00    -0.220 C  
HETATM    2  S   UNL     1     -10.437   8.961  71.643  1.00  0.00    -0.354 SA 
HETATM    3  C   UNL     1     -10.245   7.231  72.110  1.00  0.00    -0.190 C  
HETATM    4  C   UNL     1      -9.934   6.303  70.952  1.00  0.00    -0.219 C  
HETATM    5  C   UNL     1     -10.401   4.890  71.242  1.00  0.00    -0.219 C  
HETATM    6  CA  UNL     1      -9.354   6.686  69.777  1.00  0.00    -0.145 C  
HETATM    7  N   UNL     1      -9.015   7.999  69.602  1.00  0.00    -0.144 N  
HETATM    8  C   UNL     1      -9.123   5.654  68.682  1.00  0.00    -0.118 C  
HETATM    9  C   UNL     1      -8.710   8.841  68.590  1.00  0.00    -0.134 C  
HETATM   10  O   UNL     1      -8.475   6.069  67.575  1.00  0.00    -0.108 OA 
HETATM   11  OXT UNL     1      -9.416   4.472  68.788  1.00  0.00    -0.136 OA 
HETATM   12  O   UNL     1      -8.517   8.599  67.422  1.00  0.00    -0.121 OA 
HETATM   13  CA  UNL     1      -8.846  10.079  69.546  1.00  0.00    -0.195 C  
ENDROOT
BRANCH  13  14
HETATM   14  N   UNL     1     -10.071  10.889  69.374  1.00  0.00    -0.411 N  
HETATM   15  H   UNL     1     -10.849  10.704  70.006  1.00  0.00     0.000 HD 
HETATM   16  C   UNL     1     -10.242  11.875  68.428  1.00  0.00    -0.204 C  
HETATM   17  O   UNL     1      -9.362  12.225  67.652  1.00  0.00    -0.175 OA 
BRANCH  16  18
HETATM   18  CA  UNL     1     -11.685  12.465  68.435  1.00  0.00    -0.336 C  
HETATM   19  H2  UNL     1     -12.038  11.874  66.452  1.00  0.00     0.000 HD 
HETATM   20  N   UNL     1     -12.114  12.709  67.033  1.00  0.00    -0.486 NA 
HETATM   21  H1  UNL     1     -13.059  13.094  67.038  1.00  0.00     0.000 HD 
BRANCH  18  22
HETATM   22  C   UNL     1     -11.681  13.736  69.259  1.00  0.00    -0.376 C  
HETATM   23  C   UNL     1     -11.099  14.892  68.867  1.00  0.00    -0.267 C  
HETATM   24  C   UNL     1     -11.045  16.137  69.706  1.00  0.00    -0.350 C  
HETATM   25  C   UNL     1     -11.594  15.952  71.088  1.00  0.00    -0.481 C  
HETATM   26  C   UNL     1     -12.197  14.822  71.489  1.00  0.00    -0.407 C  
HETATM   27  C   UNL     1     -12.380  13.623  70.601  1.00  0.00    -0.440 C  
ENDBRANCH  18  22
ENDBRANCH  16  18
ENDBRANCH  13  14
TORSDOF 3
ENDMDL
MODEL       74
REMARK 921   NORMALIZED FREE ENERGY PREDICTED BY IDOCK:   -5.19 KCAL/MOL
REMARK 922        TOTAL FREE ENERGY PREDICTED BY IDOCK:   -6.76 KCAL/MOL
REMARK 923 INTER-LIGAND FREE ENERGY PREDICTED BY IDOCK:   -6.05 KCAL/MOL
REMARK 924 INTRA-LIGAND FREE ENERGY PREDICTED BY IDOCK:   -0.71 KCAL/MOL
REMARK 927      BINDING AFFINITY PREDICTED BY RF-SCORE:    0.00 PKD
ROOT
HETATM    1  C   UNL     1      -8.941   9.850  69.669  1.00  0.00    -0.216 C  
HETATM    2  S   UNL     1     -10.618   9.884  70.343  1.00  0.00    -0.282 SA 
HETATM    3  C   UNL     1     -10.791   8.090  70.310  1.00  0.00    -0.241 C  
HETATM    4  C   UNL     1     -10.387   7.447  68.997  1.00  0.00    -0.214 C  
HETATM    5  C   UNL     1     -11.110   6.133  68.785  1.00  0.00    -0.398 C  
HETATM    6  CA  UNL     1      -9.522   7.994  68.093  1.00  0.00    -0.143 C  
HETATM    7  N   UNL     1      -8.960   9.211  68.364  1.00  0.00    -0.133 N  
HETATM    8  C   UNL     1      -9.223   7.254  66.797  1.00  0.00    -0.155 C  
HETATM    9  C   UNL     1      -8.328  10.206  67.704  1.00  0.00    -0.114 C  
HETATM   10  O   UNL     1      -8.303   7.800  65.977  1.00  0.00    -0.118 OA 
HETATM   11  OXT UNL     1      -9.707   6.169  66.506  1.00  0.00    -0.159 OA 
HETATM   12  O   UNL     1      -7.933  10.238  66.562  1.00  0.00    -0.113 OA 
HETATM   13  CA  UNL     1      -8.474  11.157  68.944  1.00  0.00    -0.092 C  
ENDROOT
BRANCH  13  14
HETATM   14  N   UNL     1      -9.500  12.215  68.822  1.00  0.00    -0.405 N  
HETATM   15  H   UNL     1     -10.386  12.067  69.304  1.00  0.00     0.000 HD 
HETATM   16  C   UNL     1      -9.351  13.384  68.109  1.00  0.00    -0.217 C  
HETATM   17  O   UNL     1      -8.316  13.697  67.535  1.00  0.00    -0.164 OA 
BRANCH  16  18
HETATM   18  CA  UNL     1     -10.656  14.238  68.086  1.00  0.00    -0.245 C  
HETATM   19  H2  UNL     1     -11.104  13.779  70.084  1.00  0.00     0.000 HD 
HETATM   20  N   UNL     1     -11.558  13.770  69.171  1.00  0.00    -0.294 NA 
HETATM   21  H1  UNL     1     -12.411  14.329  69.156  1.00  0.00     0.000 HD 
BRANCH  18  22
HETATM   22  C   UNL     1     -11.294  14.104  66.719  1.00  0.00    -0.353 C  
HETATM   23  C   UNL     1     -12.035  13.044  66.327  1.00  0.00    -0.477 C  
HETATM   24  C   UNL     1     -12.621  12.882  64.954  1.00  0.00    -0.525 C  
HETATM   25  C   UNL     1     -12.208  13.960  63.997  1.00  0.00    -0.413 C  
HETATM   26  C   UNL     1     -11.494  15.032  64.370  1.00  0.00    -0.240 C  
HETATM   27  C   UNL     1     -11.028  15.266  65.779  1.00  0.00    -0.340 C  
ENDBRANCH  18  22
ENDBRANCH  16  18
ENDBRANCH  13  14
TORSDOF 3
ENDMDL
MODEL       75
REMARK 921   NORMALIZED FREE ENERGY PREDICTED BY IDOCK:   -5.19 KCAL/MOL
REMARK 922        TOTAL FREE ENERGY PREDICTED BY IDOCK:   -6.75 KCAL/MOL
REMARK 923 INTER-LIGAND FREE ENERGY PREDICTED BY IDOCK:   -6.20 KCAL/MOL
REMARK 924 INTRA-LIGAND FREE ENERGY PREDICTED BY IDOCK:   -0.55 KCAL/MOL
REMARK 927      BINDING AFFINITY PREDICTED BY RF-SCORE:    0.00 PKD
ROOT
HETATM    1  C   UNL     1     -11.987  12.711  67.828  1.00  0.00    -0.243 C  
HETATM    2  S   UNL     1     -11.684  12.066  69.490  1.00  0.00    -0.335 SA 
HETATM    3  C   UNL     1     -12.302  13.551  70.303  1.00  0.00    -0.300 C  
HETATM    4  C   UNL     1     -11.739  14.846  69.750  1.00  0.00    -0.344 C  
HETATM    5  C   UNL     1     -11.756  15.942  70.797  1.00  0.00    -0.433 C  
HETATM    6  CA  UNL     1     -11.235  15.005  68.491  1.00  0.00    -0.287 C  
HETATM    7  N   UNL     1     -11.225  13.934  67.641  1.00  0.00    -0.284 N  
HETATM    8  C   UNL     1     -10.674  16.356  68.071  1.00  0.00    -0.334 C  
HETATM    9  C   UNL     1     -10.616  13.554  66.496  1.00  0.00    -0.281 C  
HETATM   10  O   UNL     1     -10.262  16.479  66.794  1.00  0.00    -0.281 OA 
HETATM   11  OXT UNL     1     -10.653  17.339  68.798  1.00  0.00    -0.338 OA 
HETATM   12  O   UNL     1      -9.909  14.194  65.755  1.00  0.00    -0.307 OA 
HETATM   13  CA  UNL     1     -11.122  12.080  66.686  1.00  0.00    -0.310 C  
ENDROOT
BRANCH  13  14
HETATM   14  N   UNL     1     -10.103  11.105  67.129  1.00  0.00    -0.186 N  
HETATM   15  H   UNL     1      -9.742  11.201  68.078  1.00  0.00     0.000 HD 
HETATM   16  C   UNL     1      -9.603  10.077  66.360  1.00  0.00    -0.196 C  
HETATM   17  O   UNL     1      -9.997   9.828  65.228  1.00  0.00    -0.318 OA 
BRANCH  16  18
HETATM   18  CA  UNL     1      -8.460   9.296  67.079  1.00  0.00    -0.124 C  
HETATM   19  H2  UNL     1      -7.807   8.416  65.289  1.00  0.00     0.000 HD 
HETATM   20  N   UNL     1      -8.063   8.138  66.236  1.00  0.00    -0.103 NA 
HETATM   21  H1  UNL     1      -7.316   7.627  66.706  1.00  0.00     0.000 HD 
BRANCH  18  22
HETATM   22  C   UNL     1      -8.958   8.864  68.442  1.00  0.00    -0.134 C  
HETATM   23  C   UNL     1      -8.574   9.433  69.606  1.00  0.00    -0.171 C  
HETATM   24  C   UNL     1      -9.022   8.970  70.963  1.00  0.00    -0.304 C  
HETATM   25  C   UNL     1      -9.853   7.723  70.925  1.00  0.00    -0.182 C  
HETATM   26  C   UNL     1     -10.265   7.155  69.781  1.00  0.00    -0.215 C  
HETATM   27  C   UNL     1      -9.935   7.703  68.421  1.00  0.00    -0.192 C  
ENDBRANCH  18  22
ENDBRANCH  16  18
ENDBRANCH  13  14
TORSDOF 3
ENDMDL
MODEL       76
REMARK 921   NORMALIZED FREE ENERGY PREDICTED BY IDOCK:   -5.18 KCAL/MOL
REMARK 922        TOTAL FREE ENERGY PREDICTED BY IDOCK:   -6.75 KCAL/MOL
REMARK 923 INTER-LIGAND FREE ENERGY PREDICTED BY IDOCK:   -6.28 KCAL/MOL
REMARK 924 INTRA-LIGAND FREE ENERGY PREDICTED BY IDOCK:   -0.47 KCAL/MOL
REMARK 927      BINDING AFFINITY PREDICTED BY RF-SCORE:    0.00 PKD
ROOT
HETATM    1  C   UNL     1     -11.511   6.801  70.015  1.00  0.00    -0.334 C  
HETATM    2  S   UNL     1     -10.438   6.581  68.576  1.00  0.00    -0.245 SA 
HETATM    3  C   UNL     1      -9.995   4.891  69.020  1.00  0.00    -0.167 C  
HETATM    4  C   UNL     1      -9.569   4.716  70.464  1.00  0.00    -0.268 C  
HETATM    5  C   UNL     1      -8.643   3.527  70.623  1.00  0.00    -0.113 C  
HETATM    6  CA  UNL     1      -9.927   5.543  71.490  1.00  0.00    -0.177 C  
HETATM    7  N   UNL     1     -10.731   6.618  71.227  1.00  0.00    -0.226 N  
HETATM    8  C   UNL     1      -9.405   5.269  72.894  1.00  0.00    -0.137 C  
HETATM    9  C   UNL     1     -11.086   7.785  71.808  1.00  0.00    -0.245 C  
HETATM   10  O   UNL     1      -9.852   6.068  73.882  1.00  0.00    -0.164 OA 
HETATM   11  OXT UNL     1      -8.679   4.327  73.176  1.00  0.00    -0.099 OA 
HETATM   12  O   UNL     1     -10.845   8.193  72.919  1.00  0.00    -0.357 OA 
HETATM   13  CA  UNL     1     -11.741   8.281  70.470  1.00  0.00    -0.066 C  
ENDROOT
BRANCH  13  14
HETATM   14  N   UNL     1     -10.976   9.300  69.722  1.00  0.00    -0.313 N  
HETATM   15  H   UNL     1      -9.992   9.108  69.537  1.00  0.00     0.000 HD 
HETATM   16  C   UNL     1     -11.489  10.490  69.253  1.00  0.00    -0.256 C  
HETATM   17  O   UNL     1     -12.666  10.807  69.364  1.00  0.00    -0.261 OA 
BRANCH  16  18
HETATM   18  CA  UNL     1     -10.399  11.394  68.602  1.00  0.00    -0.203 C  
HETATM   19  H2  UNL     1     -10.407  12.731  70.221  1.00  0.00     0.000 HD 
HETATM   20  N   UNL     1     -10.475  12.752  69.203  1.00  0.00    -0.433 NA 
HETATM   21  H1  UNL     1      -9.762  13.343  68.777  1.00  0.00     0.000 HD 
BRANCH  18  22
HETATM   22  C   UNL     1     -10.627  11.421  67.105  1.00  0.00    -0.279 C  
HETATM   23  C   UNL     1     -10.067  10.550  66.237  1.00  0.00    -0.290 C  
HETATM   24  C   UNL     1     -10.247  10.608  64.746  1.00  0.00    -0.401 C  
HETATM   25  C   UNL     1     -11.016  11.809  64.283  1.00  0.00    -0.419 C  
HETATM   26  C   UNL     1     -11.600  12.672  65.128  1.00  0.00    -0.386 C  
HETATM   27  C   UNL     1     -11.541  12.533  66.624  1.00  0.00    -0.442 C  
ENDBRANCH  18  22
ENDBRANCH  16  18
ENDBRANCH  13  14
TORSDOF 3
ENDMDL
MODEL       77
REMARK 921   NORMALIZED FREE ENERGY PREDICTED BY IDOCK:   -5.13 KCAL/MOL
REMARK 922        TOTAL FREE ENERGY PREDICTED BY IDOCK:   -6.69 KCAL/MOL
REMARK 923 INTER-LIGAND FREE ENERGY PREDICTED BY IDOCK:   -6.79 KCAL/MOL
REMARK 924 INTRA-LIGAND FREE ENERGY PREDICTED BY IDOCK:    0.10 KCAL/MOL
REMARK 927      BINDING AFFINITY PREDICTED BY RF-SCORE:    0.00 PKD
ROOT
HETATM    1  C   UNL     1      -9.211   9.385  66.832  1.00  0.00    -0.140 C  
HETATM    2  S   UNL     1      -8.102  10.074  68.084  1.00  0.00    -0.109 SA 
HETATM    3  C   UNL     1      -6.662   9.185  67.463  1.00  0.00    -0.069 C  
HETATM    4  C   UNL     1      -6.898   7.707  67.220  1.00  0.00    -0.069 C  
HETATM    5  C   UNL     1      -5.607   6.921  67.329  1.00  0.00    -0.017 C  
HETATM    6  CA  UNL     1      -8.116   7.139  66.980  1.00  0.00    -0.117 C  
HETATM    7  N   UNL     1      -9.226   7.937  66.950  1.00  0.00    -0.147 N  
HETATM    8  C   UNL     1      -8.217   5.633  66.780  1.00  0.00    -0.105 C  
HETATM    9  C   UNL     1     -10.569   7.811  67.031  1.00  0.00    -0.326 C  
HETATM   10  O   UNL     1      -9.429   5.135  66.468  1.00  0.00    -0.133 OA 
HETATM   11  OXT UNL     1      -7.255   4.878  66.806  1.00  0.00    -0.077 OA 
HETATM   12  O   UNL     1     -11.246   6.810  67.038  1.00  0.00    -0.393 OA 
HETATM   13  CA  UNL     1     -10.730   9.362  67.209  1.00  0.00    -0.188 C  
ENDROOT
BRANCH  13  14
HETATM   14  N   UNL     1     -11.049   9.820  68.578  1.00  0.00    -0.462 N  
HETATM   15  H   UNL     1     -10.680   9.272  69.355  1.00  0.00     0.000 HD 
HETATM   16  C   UNL     1     -11.807  10.928  68.886  1.00  0.00    -0.270 C  
HETATM   17  O   UNL     1     -12.258  11.693  68.043  1.00  0.00    -0.551 OA 
BRANCH  16  18
HETATM   18  CA  UNL     1     -12.053  11.075  70.419  1.00  0.00    -0.373 C  
HETATM   19  H2  UNL     1     -12.978   9.195  70.546  1.00  0.00     0.000 HD 
HETATM   20  N   UNL     1     -13.155  10.161  70.821  1.00  0.00    -0.552 NA 
HETATM   21  H1  UNL     1     -13.316  10.257  71.824  1.00  0.00     0.000 HD 
BRANCH  18  22
HETATM   22  C   UNL     1     -12.379  12.524  70.717  1.00  0.00    -0.376 C  
HETATM   23  C   UNL     1     -11.827  13.574  70.069  1.00  0.00    -0.371 C  
HETATM   24  C   UNL     1     -12.105  15.013  70.401  1.00  0.00    -0.384 C  
HETATM   25  C   UNL     1     -12.970  15.191  71.612  1.00  0.00    -0.454 C  
HETATM   26  C   UNL     1     -13.546  14.165  72.255  1.00  0.00    -0.596 C  
HETATM   27  C   UNL     1     -13.383  12.730  71.835  1.00  0.00    -0.510 C  
ENDBRANCH  18  22
ENDBRANCH  16  18
ENDBRANCH  13  14
TORSDOF 3
ENDMDL
MODEL       78
REMARK 921   NORMALIZED FREE ENERGY PREDICTED BY IDOCK:   -5.11 KCAL/MOL
REMARK 922        TOTAL FREE ENERGY PREDICTED BY IDOCK:   -6.66 KCAL/MOL
REMARK 923 INTER-LIGAND FREE ENERGY PREDICTED BY IDOCK:   -6.17 KCAL/MOL
REMARK 924 INTRA-LIGAND FREE ENERGY PREDICTED BY IDOCK:   -0.49 KCAL/MOL
REMARK 927      BINDING AFFINITY PREDICTED BY RF-SCORE:    0.00 PKD
ROOT
HETATM    1  C   UNL     1     -11.105   8.008  70.317  1.00  0.00    -0.224 C  
HETATM    2  S   UNL     1     -10.712   7.648  68.589  1.00  0.00     0.016 SA 
HETATM    3  C   UNL     1     -10.756   5.863  68.830  1.00  0.00    -0.300 C  
HETATM    4  C   UNL     1      -9.964   5.375  70.028  1.00  0.00    -0.303 C  
HETATM    5  C   UNL     1      -9.506   3.943  69.836  1.00  0.00    -0.267 C  
HETATM    6  CA  UNL     1      -9.657   6.132  71.122  1.00  0.00    -0.175 C  
HETATM    7  N   UNL     1     -10.081   7.430  71.171  1.00  0.00    -0.186 N  
HETATM    8  C   UNL     1      -8.829   5.525  72.247  1.00  0.00    -0.132 C  
HETATM    9  C   UNL     1      -9.802   8.564  71.852  1.00  0.00    -0.288 C  
HETATM   10  O   UNL     1      -8.621   6.289  73.337  1.00  0.00    -0.122 OA 
HETATM   11  OXT UNL     1      -8.419   4.373  72.244  1.00  0.00    -0.106 OA 
HETATM   12  O   UNL     1      -9.083   8.726  72.810  1.00  0.00    -0.338 OA 
HETATM   13  CA  UNL     1     -10.650   9.412  70.838  1.00  0.00    -0.320 C  
ENDROOT
BRANCH  13  14
HETATM   14  N   UNL     1      -9.874  10.224  69.877  1.00  0.00    -0.409 N  
HETATM   15  H   UNL     1      -8.861  10.107  69.873  1.00  0.00     0.000 HD 
HETATM   16  C   UNL     1     -10.414  11.126  68.986  1.00  0.00    -0.206 C  
HETATM   17  O   UNL     1     -11.617  11.312  68.859  1.00  0.00    -0.262 OA 
BRANCH  16  18
HETATM   18  CA  UNL     1      -9.321  11.902  68.189  1.00  0.00    -0.191 C  
HETATM   19  H2  UNL     1      -9.090  13.329  69.711  1.00  0.00     0.000 HD 
HETATM   20  N   UNL     1      -9.246  13.295  68.704  1.00  0.00    -0.385 NA 
HETATM   21  H1  UNL     1      -8.531  13.802  68.182  1.00  0.00     0.000 HD 
BRANCH  18  22
HETATM   22  C   UNL     1      -9.677  11.857  66.718  1.00  0.00    -0.218 C  
HETATM   23  C   UNL     1     -10.164  12.910  66.023  1.00  0.00    -0.293 C  
HETATM   24  C   UNL     1     -10.571  12.853  64.578  1.00  0.00    -0.403 C  
HETATM   25  C   UNL     1     -10.504  11.476  63.991  1.00  0.00    -0.424 C  
HETATM   26  C   UNL     1     -10.002  10.423  64.654  1.00  0.00    -0.408 C  
HETATM   27  C   UNL     1      -9.461  10.510  66.054  1.00  0.00    -0.227 C  
ENDBRANCH  18  22
ENDBRANCH  16  18
ENDBRANCH  13  14
TORSDOF 3
ENDMDL
MODEL       79
REMARK 921   NORMALIZED FREE ENERGY PREDICTED BY IDOCK:   -5.11 KCAL/MOL
REMARK 922        TOTAL FREE ENERGY PREDICTED BY IDOCK:   -6.66 KCAL/MOL
REMARK 923 INTER-LIGAND FREE ENERGY PREDICTED BY IDOCK:   -6.24 KCAL/MOL
REMARK 924 INTRA-LIGAND FREE ENERGY PREDICTED BY IDOCK:   -0.42 KCAL/MOL
REMARK 927      BINDING AFFINITY PREDICTED BY RF-SCORE:    0.00 PKD
ROOT
HETATM    1  C   UNL     1      -9.218  13.409  66.785  1.00  0.00    -0.236 C  
HETATM    2  S   UNL     1      -7.716  13.757  67.730  1.00  0.00    -0.186 SA 
HETATM    3  C   UNL     1      -7.449  12.027  68.162  1.00  0.00    -0.112 C  
HETATM    4  C   UNL     1      -8.679  11.321  68.700  1.00  0.00    -0.136 C  
HETATM    5  C   UNL     1      -8.297  10.166  69.604  1.00  0.00    -0.174 C  
HETATM    6  CA  UNL     1      -9.968  11.696  68.449  1.00  0.00    -0.201 C  
HETATM    7  N   UNL     1     -10.199  12.785  67.656  1.00  0.00    -0.216 N  
HETATM    8  C   UNL     1     -11.113  10.914  69.077  1.00  0.00    -0.246 C  
HETATM    9  C   UNL     1     -11.206  13.644  67.380  1.00  0.00    -0.302 C  
HETATM   10  O   UNL     1     -12.365  11.277  68.733  1.00  0.00    -0.518 OA 
HETATM   11  OXT UNL     1     -10.956   9.940  69.799  1.00  0.00    -0.241 OA 
HETATM   12  O   UNL     1     -12.364  13.602  67.722  1.00  0.00    -0.246 OA 
HETATM   13  CA  UNL     1     -10.216  14.605  66.631  1.00  0.00    -0.274 C  
ENDROOT
BRANCH  13  14
HETATM   14  N   UNL     1      -9.845  15.836  67.360  1.00  0.00    -0.231 N  
HETATM   15  H   UNL     1      -9.534  15.736  68.325  1.00  0.00     0.000 HD 
HETATM   16  C   UNL     1      -9.888  17.110  66.835  1.00  0.00    -0.285 C  
HETATM   17  O   UNL     1     -10.191  17.351  65.674  1.00  0.00    -0.586 OA 
BRANCH  16  18
HETATM   18  CA  UNL     1      -9.542  18.202  67.893  1.00  0.00    -0.288 C  
HETATM   19  H2  UNL     1     -11.446  19.074  67.755  1.00  0.00     0.000 HD 
HETATM   20  N   UNL     1     -10.466  19.353  67.718  1.00  0.00    -0.431 NA 
HETATM   21  H1  UNL     1     -10.240  20.067  68.411  1.00  0.00     0.000 HD 
BRANCH  18  22
HETATM   22  C   UNL     1      -8.092  18.603  67.713  1.00  0.00    -0.269 C  
HETATM   23  C   UNL     1      -7.589  19.142  66.580  1.00  0.00    -0.255 C  
HETATM   24  C   UNL     1      -6.142  19.489  66.379  1.00  0.00    -0.171 C  
HETATM   25  C   UNL     1      -5.262  19.068  67.517  1.00  0.00    -0.164 C  
HETATM   26  C   UNL     1      -5.743  18.553  68.659  1.00  0.00    -0.191 C  
HETATM   27  C   UNL     1      -7.208  18.339  68.917  1.00  0.00    -0.282 C  
ENDBRANCH  18  22
ENDBRANCH  16  18
ENDBRANCH  13  14
TORSDOF 3
ENDMDL
MODEL       80
REMARK 921   NORMALIZED FREE ENERGY PREDICTED BY IDOCK:   -5.06 KCAL/MOL
REMARK 922        TOTAL FREE ENERGY PREDICTED BY IDOCK:   -6.60 KCAL/MOL
REMARK 923 INTER-LIGAND FREE ENERGY PREDICTED BY IDOCK:   -6.14 KCAL/MOL
REMARK 924 INTRA-LIGAND FREE ENERGY PREDICTED BY IDOCK:   -0.47 KCAL/MOL
REMARK 927      BINDING AFFINITY PREDICTED BY RF-SCORE:    0.00 PKD
ROOT
HETATM    1  C   UNL     1     -10.527   8.519  69.374  1.00  0.00    -0.218 C  
HETATM    2  S   UNL     1     -10.527   8.412  67.569  1.00  0.00    -0.232 SA 
HETATM    3  C   UNL     1     -10.099   6.661  67.558  1.00  0.00    -0.160 C  
HETATM    4  C   UNL     1      -8.934   6.297  68.458  1.00  0.00    -0.123 C  
HETATM    5  C   UNL     1      -8.229   5.050  67.963  1.00  0.00    -0.097 C  
HETATM    6  CA  UNL     1      -8.533   7.017  69.546  1.00  0.00    -0.134 C  
HETATM    7  N   UNL     1      -9.213   8.156  69.877  1.00  0.00    -0.151 N  
HETATM    8  C   UNL     1      -7.325   6.554  70.350  1.00  0.00    -0.085 C  
HETATM    9  C   UNL     1      -9.032   9.265  70.627  1.00  0.00    -0.243 C  
HETATM   10  O   UNL     1      -7.020   7.256  71.459  1.00  0.00    -0.058 OA 
HETATM   11  OXT UNL     1      -6.680   5.549  70.089  1.00  0.00    -0.044 OA 
HETATM   12  O   UNL     1      -8.144   9.528  71.404  1.00  0.00    -0.252 OA 
HETATM   13  CA  UNL     1     -10.284   9.946  69.969  1.00  0.00    -0.271 C  
ENDROOT
BRANCH  13  14
HETATM   14  N   UNL     1      -9.990  11.004  68.979  1.00  0.00    -0.311 N  
HETATM   15  H   UNL     1      -9.012  11.166  68.740  1.00  0.00     0.000 HD 
HETATM   16  C   UNL     1     -10.935  11.788  68.354  1.00  0.00    -0.231 C  
HETATM   17  O   UNL     1     -12.141  11.651  68.518  1.00  0.00    -0.491 OA 
BRANCH  16  18
HETATM   18  CA  UNL     1     -10.296  12.886  67.450  1.00  0.00    -0.233 C  
HETATM   19  H2  UNL     1     -10.223  14.274  69.022  1.00  0.00     0.000 HD 
HETATM   20  N   UNL     1     -10.547  14.219  68.057  1.00  0.00    -0.235 NA 
HETATM   21  H1  UNL     1     -10.129  14.936  67.465  1.00  0.00     0.000 HD 
BRANCH  18  22
HETATM   22  C   UNL     1     -10.891  12.771  66.062  1.00  0.00    -0.301 C  
HETATM   23  C   UNL     1     -10.645  11.748  65.213  1.00  0.00    -0.327 C  
HETATM   24  C   UNL     1     -11.188  11.660  63.815  1.00  0.00    -0.498 C  
HETATM   25  C   UNL     1     -11.943  12.882  63.389  1.00  0.00    -0.612 C  
HETATM   26  C   UNL     1     -12.219  13.898  64.221  1.00  0.00    -0.447 C  
HETATM   27  C   UNL     1     -11.797  13.921  65.664  1.00  0.00    -0.383 C  
ENDBRANCH  18  22
ENDBRANCH  16  18
ENDBRANCH  13  14
TORSDOF 3
ENDMDL
MODEL       81
REMARK 921   NORMALIZED FREE ENERGY PREDICTED BY IDOCK:   -5.06 KCAL/MOL
REMARK 922        TOTAL FREE ENERGY PREDICTED BY IDOCK:   -6.60 KCAL/MOL
REMARK 923 INTER-LIGAND FREE ENERGY PREDICTED BY IDOCK:   -6.13 KCAL/MOL
REMARK 924 INTRA-LIGAND FREE ENERGY PREDICTED BY IDOCK:   -0.47 KCAL/MOL
REMARK 927      BINDING AFFINITY PREDICTED BY RF-SCORE:    0.00 PKD
ROOT
HETATM    1  C   UNL     1      -8.915   9.409  65.355  1.00  0.00    -0.206 C  
HETATM    2  S   UNL     1      -7.467  10.379  65.835  1.00  0.00    -0.140 SA 
HETATM    3  C   UNL     1      -6.306   9.062  65.428  1.00  0.00    -0.064 C  
HETATM    4  C   UNL     1      -6.678   7.705  65.994  1.00  0.00    -0.046 C  
HETATM    5  C   UNL     1      -5.452   6.836  66.187  1.00  0.00    -0.018 C  
HETATM    6  CA  UNL     1      -7.944   7.321  66.335  1.00  0.00    -0.112 C  
HETATM    7  N   UNL     1      -8.974   8.203  66.163  1.00  0.00    -0.170 N  
HETATM    8  C   UNL     1      -8.176   5.935  66.921  1.00  0.00    -0.105 C  
HETATM    9  C   UNL     1     -10.246   8.372  66.587  1.00  0.00    -0.265 C  
HETATM   10  O   UNL     1      -9.452   5.578  67.165  1.00  0.00    -0.116 OA 
HETATM   11  OXT UNL     1      -7.286   5.116  67.101  1.00  0.00    -0.080 OA 
HETATM   12  O   UNL     1     -10.946   7.626  67.229  1.00  0.00    -0.245 OA 
HETATM   13  CA  UNL     1     -10.268   9.835  66.017  1.00  0.00    -0.193 C  
ENDROOT
BRANCH  13  14
HETATM   14  N   UNL     1     -10.169  10.915  67.021  1.00  0.00    -0.205 N  
HETATM   15  H   UNL     1      -9.326  10.949  67.594  1.00  0.00     0.000 HD 
HETATM   16  C   UNL     1     -11.127  11.880  67.244  1.00  0.00    -0.288 C  
HETATM   17  O   UNL     1     -12.154  11.976  66.585  1.00  0.00    -0.615 OA 
BRANCH  16  18
HETATM   18  CA  UNL     1     -10.771  12.806  68.447  1.00  0.00    -0.250 C  
HETATM   19  H2  UNL     1      -8.772  12.991  67.836  1.00  0.00     0.000 HD 
HETATM   20  N   UNL     1      -9.303  12.759  68.675  1.00  0.00    -0.405 NA 
HETATM   21  H1  UNL     1      -9.071  13.365  69.462  1.00  0.00     0.000 HD 
BRANCH  18  22
HETATM   22  C   UNL     1     -11.551  12.340  69.659  1.00  0.00    -0.348 C  
HETATM   23  C   UNL     1     -11.698  11.044  70.014  1.00  0.00    -0.437 C  
HETATM   24  C   UNL     1     -12.518  10.576  71.183  1.00  0.00    -0.517 C  
HETATM   25  C   UNL     1     -13.270  11.678  71.866  1.00  0.00    -0.475 C  
HETATM   26  C   UNL     1     -13.121  12.972  71.545  1.00  0.00    -0.400 C  
HETATM   27  C   UNL     1     -12.190  13.454  70.468  1.00  0.00    -0.425 C  
ENDBRANCH  18  22
ENDBRANCH  16  18
ENDBRANCH  13  14
TORSDOF 3
ENDMDL
MODEL       82
REMARK 921   NORMALIZED FREE ENERGY PREDICTED BY IDOCK:   -5.05 KCAL/MOL
REMARK 922        TOTAL FREE ENERGY PREDICTED BY IDOCK:   -6.60 KCAL/MOL
REMARK 923 INTER-LIGAND FREE ENERGY PREDICTED BY IDOCK:   -6.09 KCAL/MOL
REMARK 924 INTRA-LIGAND FREE ENERGY PREDICTED BY IDOCK:   -0.51 KCAL/MOL
REMARK 927      BINDING AFFINITY PREDICTED BY RF-SCORE:    0.00 PKD
ROOT
HETATM    1  C   UNL     1      -8.120  10.984  68.051  1.00  0.00    -0.121 C  
HETATM    2  S   UNL     1      -7.222  12.350  68.825  1.00  0.00    -0.062 SA 
HETATM    3  C   UNL     1      -6.019  11.265  69.614  1.00  0.00    -0.090 C  
HETATM    4  C   UNL     1      -6.628  10.089  70.351  1.00  0.00    -0.132 C  
HETATM    5  C   UNL     1      -5.721   9.612  71.468  1.00  0.00    -0.050 C  
HETATM    6  CA  UNL     1      -7.854   9.550  70.085  1.00  0.00    -0.160 C  
HETATM    7  N   UNL     1      -8.613  10.089  69.084  1.00  0.00    -0.146 N  
HETATM    8  C   UNL     1      -8.360   8.384  70.923  1.00  0.00    -0.135 C  
HETATM    9  C   UNL     1      -9.901  10.088  68.674  1.00  0.00    -0.160 C  
HETATM   10  O   UNL     1      -9.541   7.839  70.567  1.00  0.00    -0.167 OA 
HETATM   11  OXT UNL     1      -7.723   7.873  71.833  1.00  0.00    -0.081 OA 
HETATM   12  O   UNL     1     -10.831   9.427  69.071  1.00  0.00    -0.211 OA 
HETATM   13  CA  UNL     1      -9.614  11.274  67.686  1.00  0.00    -0.171 C  
ENDROOT
BRANCH  13  14
HETATM   14  N   UNL     1     -10.124  12.596  68.107  1.00  0.00    -0.225 N  
HETATM   15  H   UNL     1      -9.471  13.225  68.574  1.00  0.00     0.000 HD 
HETATM   16  C   UNL     1     -11.413  13.045  67.917  1.00  0.00    -0.311 C  
HETATM   17  O   UNL     1     -12.269  12.405  67.321  1.00  0.00    -0.478 OA 
BRANCH  16  18
HETATM   18  CA  UNL     1     -11.662  14.437  68.574  1.00  0.00    -0.335 C  
HETATM   19  H2  UNL     1      -9.887  15.233  67.786  1.00  0.00     0.000 HD 
HETATM   20  N   UNL     1     -10.366  15.158  68.682  1.00  0.00    -0.226 NA 
HETATM   21  H1  UNL     1     -10.530  16.069  69.113  1.00  0.00     0.000 HD 
BRANCH  18  22
HETATM   22  C   UNL     1     -12.307  14.220  69.927  1.00  0.00    -0.377 C  
HETATM   23  C   UNL     1     -12.348  13.030  70.567  1.00  0.00    -0.365 C  
HETATM   24  C   UNL     1     -13.037  12.800  71.882  1.00  0.00    -0.474 C  
HETATM   25  C   UNL     1     -13.793  13.995  72.378  1.00  0.00    -0.653 C  
HETATM   26  C   UNL     1     -13.748  15.191  71.771  1.00  0.00    -0.578 C  
HETATM   27  C   UNL     1     -12.941  15.459  70.532  1.00  0.00    -0.379 C  
ENDBRANCH  18  22
ENDBRANCH  16  18
ENDBRANCH  13  14
TORSDOF 3
ENDMDL
MODEL       83
REMARK 921   NORMALIZED FREE ENERGY PREDICTED BY IDOCK:   -5.03 KCAL/MOL
REMARK 922        TOTAL FREE ENERGY PREDICTED BY IDOCK:   -6.57 KCAL/MOL
REMARK 923 INTER-LIGAND FREE ENERGY PREDICTED BY IDOCK:   -6.22 KCAL/MOL
REMARK 924 INTRA-LIGAND FREE ENERGY PREDICTED BY IDOCK:   -0.35 KCAL/MOL
REMARK 927      BINDING AFFINITY PREDICTED BY RF-SCORE:    0.00 PKD
ROOT
HETATM    1  C   UNL     1      -9.615   9.098  71.213  1.00  0.00    -0.261 C  
HETATM    2  S   UNL     1     -11.371   9.448  71.465  1.00  0.00    -0.384 SA 
HETATM    3  C   UNL     1     -11.634   7.984  72.483  1.00  0.00    -0.403 C  
HETATM    4  C   UNL     1     -11.071   6.705  71.895  1.00  0.00    -0.289 C  
HETATM    5  C   UNL     1     -11.825   5.491  72.401  1.00  0.00    -0.117 C  
HETATM    6  CA  UNL     1     -10.051   6.644  70.990  1.00  0.00    -0.187 C  
HETATM    7  N   UNL     1      -9.471   7.806  70.564  1.00  0.00    -0.163 N  
HETATM    8  C   UNL     1      -9.600   5.291  70.457  1.00  0.00    -0.176 C  
HETATM    9  C   UNL     1      -8.692   8.238  69.548  1.00  0.00    -0.138 C  
HETATM   10  O   UNL     1      -8.538   5.282  69.628  1.00  0.00    -0.096 OA 
HETATM   11  OXT UNL     1     -10.092   4.226  70.801  1.00  0.00    -0.190 OA 
HETATM   12  O   UNL     1      -8.127   7.601  68.690  1.00  0.00    -0.124 OA 
HETATM   13  CA  UNL     1      -8.973   9.734  69.935  1.00  0.00    -0.229 C  
ENDROOT
BRANCH  13  14
HETATM   14  N   UNL     1      -9.909  10.459  69.050  1.00  0.00    -0.202 N  
HETATM   15  H   UNL     1     -10.830  10.047  68.901  1.00  0.00     0.000 HD 
HETATM   16  C   UNL     1      -9.634  11.648  68.410  1.00  0.00    -0.195 C  
HETATM   17  O   UNL     1      -8.586  12.265  68.554  1.00  0.00    -0.150 OA 
BRANCH  16  18
HETATM   18  CA  UNL     1     -10.788  12.095  67.461  1.00  0.00    -0.243 C  
HETATM   19  H2  UNL     1     -12.250  11.767  68.931  1.00  0.00     0.000 HD 
HETATM   20  N   UNL     1     -12.068  11.525  67.957  1.00  0.00    -0.598 NA 
HETATM   21  H1  UNL     1     -12.823  11.818  67.336  1.00  0.00     0.000 HD 
BRANCH  18  22
HETATM   22  C   UNL     1     -10.463  11.630  66.057  1.00  0.00    -0.294 C  
HETATM   23  C   UNL     1      -9.389  10.874  65.738  1.00  0.00    -0.232 C  
HETATM   24  C   UNL     1      -9.034  10.458  64.338  1.00  0.00    -0.247 C  
HETATM   25  C   UNL     1      -9.920  11.064  63.292  1.00  0.00    -0.414 C  
HETATM   26  C   UNL     1     -11.003  11.797  63.587  1.00  0.00    -0.513 C  
HETATM   27  C   UNL     1     -11.442  12.094  64.994  1.00  0.00    -0.377 C  
ENDBRANCH  18  22
ENDBRANCH  16  18
ENDBRANCH  13  14
TORSDOF 3
ENDMDL
MODEL       84
REMARK 921   NORMALIZED FREE ENERGY PREDICTED BY IDOCK:   -5.02 KCAL/MOL
REMARK 922        TOTAL FREE ENERGY PREDICTED BY IDOCK:   -6.56 KCAL/MOL
REMARK 923 INTER-LIGAND FREE ENERGY PREDICTED BY IDOCK:   -5.97 KCAL/MOL
REMARK 924 INTRA-LIGAND FREE ENERGY PREDICTED BY IDOCK:   -0.59 KCAL/MOL
REMARK 927      BINDING AFFINITY PREDICTED BY RF-SCORE:    0.00 PKD
ROOT
HETATM    1  C   UNL     1     -12.135  12.794  67.323  1.00  0.00    -0.162 C  
HETATM    2  S   UNL     1     -11.627  12.083  68.906  1.00  0.00    -0.343 SA 
HETATM    3  C   UNL     1     -12.055  13.564  69.839  1.00  0.00    -0.341 C  
HETATM    4  C   UNL     1     -11.519  14.852  69.246  1.00  0.00    -0.324 C  
HETATM    5  C   UNL     1     -11.337  15.913  70.313  1.00  0.00    -0.381 C  
HETATM    6  CA  UNL     1     -11.193  15.031  67.932  1.00  0.00    -0.323 C  
HETATM    7  N   UNL     1     -11.352  13.990  67.061  1.00  0.00    -0.316 N  
HETATM    8  C   UNL     1     -10.637  16.372  67.472  1.00  0.00    -0.309 C  
HETATM    9  C   UNL     1     -10.932  13.623  65.830  1.00  0.00    -0.282 C  
HETATM   10  O   UNL     1     -10.407  16.520  66.153  1.00  0.00    -0.319 OA 
HETATM   11  OXT UNL     1     -10.469  17.329  68.214  1.00  0.00    -0.346 OA 
HETATM   12  O   UNL     1     -10.309  14.258  65.012  1.00  0.00    -0.397 OA 
HETATM   13  CA  UNL     1     -11.471  12.166  66.052  1.00  0.00    -0.370 C  
ENDROOT
BRANCH  13  14
HETATM   14  N   UNL     1     -10.445  11.136  66.317  1.00  0.00    -0.253 N  
HETATM   15  H   UNL     1     -10.265  10.891  67.290  1.00  0.00     0.000 HD 
HETATM   16  C   UNL     1      -9.712  10.481  65.351  1.00  0.00    -0.257 C  
HETATM   17  O   UNL     1      -9.876  10.649  64.150  1.00  0.00    -0.285 OA 
BRANCH  16  18
HETATM   18  CA  UNL     1      -8.633   9.535  65.962  1.00  0.00    -0.133 C  
HETATM   19  H2  UNL     1      -9.850   7.841  65.729  1.00  0.00     0.000 HD 
HETATM   20  N   UNL     1      -9.296   8.299  66.453  1.00  0.00    -0.200 NA 
HETATM   21  H1  UNL     1      -8.590   7.680  66.852  1.00  0.00     0.000 HD 
BRANCH  18  22
HETATM   22  C   UNL     1      -7.917  10.276  67.072  1.00  0.00    -0.111 C  
HETATM   23  C   UNL     1      -7.914   9.886  68.366  1.00  0.00    -0.096 C  
HETATM   24  C   UNL     1      -7.253  10.649  69.478  1.00  0.00    -0.140 C  
HETATM   25  C   UNL     1      -6.687  11.968  69.045  1.00  0.00    -0.100 C  
HETATM   26  C   UNL     1      -6.659  12.364  67.763  1.00  0.00    -0.113 C  
HETATM   27  C   UNL     1      -7.193  11.534  66.630  1.00  0.00    -0.068 C  
ENDBRANCH  18  22
ENDBRANCH  16  18
ENDBRANCH  13  14
TORSDOF 3
ENDMDL
MODEL       85
REMARK 921   NORMALIZED FREE ENERGY PREDICTED BY IDOCK:   -5.01 KCAL/MOL
REMARK 922        TOTAL FREE ENERGY PREDICTED BY IDOCK:   -6.55 KCAL/MOL
REMARK 923 INTER-LIGAND FREE ENERGY PREDICTED BY IDOCK:   -6.07 KCAL/MOL
REMARK 924 INTRA-LIGAND FREE ENERGY PREDICTED BY IDOCK:   -0.47 KCAL/MOL
REMARK 927      BINDING AFFINITY PREDICTED BY RF-SCORE:    0.00 PKD
ROOT
HETATM    1  C   UNL     1      -8.371   8.129  68.896  1.00  0.00    -0.125 C  
HETATM    2  S   UNL     1      -9.560   8.318  70.245  1.00  0.00    -0.168 SA 
HETATM    3  C   UNL     1      -9.377   6.613  70.798  1.00  0.00    -0.158 C  
HETATM    4  C   UNL     1      -9.468   5.583  69.689  1.00  0.00    -0.183 C  
HETATM    5  C   UNL     1      -9.941   4.245  70.220  1.00  0.00    -0.203 C  
HETATM    6  CA  UNL     1      -9.206   5.829  68.372  1.00  0.00    -0.117 C  
HETATM    7  N   UNL     1      -8.831   7.088  67.993  1.00  0.00    -0.125 N  
HETATM    8  C   UNL     1      -9.363   4.708  67.353  1.00  0.00    -0.143 C  
HETATM    9  C   UNL     1      -8.755   7.827  66.865  1.00  0.00    -0.132 C  
HETATM   10  O   UNL     1      -9.017   4.983  66.080  1.00  0.00    -0.124 OA 
HETATM   11  OXT UNL     1      -9.704   3.570  67.641  1.00  0.00    -0.173 OA 
HETATM   12  O   UNL     1      -8.910   7.490  65.715  1.00  0.00    -0.158 OA 
HETATM   13  CA  UNL     1      -8.529   9.134  67.706  1.00  0.00    -0.117 C  
ENDROOT
BRANCH  13  14
HETATM   14  N   UNL     1      -9.690  10.045  67.796  1.00  0.00    -0.148 N  
HETATM   15  H   UNL     1     -10.581   9.644  68.086  1.00  0.00     0.000 HD 
HETATM   16  C   UNL     1      -9.661  11.395  67.519  1.00  0.00    -0.167 C  
HETATM   17  O   UNL     1      -8.640  11.999  67.216  1.00  0.00    -0.162 OA 
BRANCH  16  18
HETATM   18  CA  UNL     1     -11.073  12.050  67.601  1.00  0.00    -0.264 C  
HETATM   19  H2  UNL     1     -11.766  10.612  68.964  1.00  0.00     0.000 HD 
HETATM   20  N   UNL     1     -12.049  11.036  68.081  1.00  0.00    -0.780 NA 
HETATM   21  H1  UNL     1     -12.972  11.466  68.135  1.00  0.00     0.000 HD 
BRANCH  18  22
HETATM   22  C   UNL     1     -11.435  12.585  66.231  1.00  0.00    -0.421 C  
HETATM   23  C   UNL     1     -11.895  13.835  66.002  1.00  0.00    -0.415 C  
HETATM   24  C   UNL     1     -12.309  14.350  64.653  1.00  0.00    -0.435 C  
HETATM   25  C   UNL     1     -12.281  13.304  63.579  1.00  0.00    -0.513 C  
HETATM   26  C   UNL     1     -11.806  12.065  63.779  1.00  0.00    -0.581 C  
HETATM   27  C   UNL     1     -11.258  11.593  65.097  1.00  0.00    -0.262 C  
ENDBRANCH  18  22
ENDBRANCH  16  18
ENDBRANCH  13  14
TORSDOF 3
ENDMDL
MODEL       86
REMARK 921   NORMALIZED FREE ENERGY PREDICTED BY IDOCK:   -5.00 KCAL/MOL
REMARK 922        TOTAL FREE ENERGY PREDICTED BY IDOCK:   -6.54 KCAL/MOL
REMARK 923 INTER-LIGAND FREE ENERGY PREDICTED BY IDOCK:   -6.21 KCAL/MOL
REMARK 924 INTRA-LIGAND FREE ENERGY PREDICTED BY IDOCK:   -0.32 KCAL/MOL
REMARK 927      BINDING AFFINITY PREDICTED BY RF-SCORE:    0.00 PKD
ROOT
HETATM    1  C   UNL     1      -8.989  10.979  65.520  1.00  0.00    -0.194 C  
HETATM    2  S   UNL     1      -9.461  10.074  64.027  1.00  0.00    -0.157 SA 
HETATM    3  C   UNL     1     -10.128  11.537  63.212  1.00  0.00    -0.406 C  
HETATM    4  C   UNL     1     -11.069  12.357  64.074  1.00  0.00    -0.452 C  
HETATM    5  C   UNL     1     -12.051  13.138  63.223  1.00  0.00    -0.460 C  
HETATM    6  CA  UNL     1     -11.073  12.363  65.439  1.00  0.00    -0.306 C  
HETATM    7  N   UNL     1     -10.172  11.583  66.109  1.00  0.00    -0.225 N  
HETATM    8  C   UNL     1     -12.093  13.214  66.183  1.00  0.00    -0.417 C  
HETATM    9  C   UNL     1      -9.995  11.075  67.348  1.00  0.00    -0.182 C  
HETATM   10  O   UNL     1     -12.002  13.245  67.527  1.00  0.00    -0.356 OA 
HETATM   11  OXT UNL     1     -12.923  13.921  65.629  1.00  0.00    -0.599 OA 
HETATM   12  O   UNL     1     -10.609  11.299  68.364  1.00  0.00    -0.179 OA 
HETATM   13  CA  UNL     1      -8.863  10.121  66.823  1.00  0.00    -0.132 C  
ENDROOT
BRANCH  13  14
HETATM   14  N   UNL     1      -9.239   8.698  66.683  1.00  0.00    -0.168 N  
HETATM   15  H   UNL     1      -9.395   8.344  65.740  1.00  0.00     0.000 HD 
HETATM   16  C   UNL     1      -9.395   7.814  67.728  1.00  0.00    -0.143 C  
HETATM   17  O   UNL     1      -9.183   8.107  68.897  1.00  0.00    -0.147 OA 
BRANCH  16  18
HETATM   18  CA  UNL     1      -9.904   6.417  67.256  1.00  0.00    -0.138 C  
HETATM   19  H2  UNL     1     -11.852   7.131  66.936  1.00  0.00     0.000 HD 
HETATM   20  N   UNL     1     -11.382   6.363  67.414  1.00  0.00    -0.718 NA 
HETATM   21  H1  UNL     1     -11.714   5.450  67.105  1.00  0.00     0.000 HD 
BRANCH  18  22
HETATM   22  C   UNL     1      -9.205   5.350  68.071  1.00  0.00    -0.119 C  
HETATM   23  C   UNL     1      -8.115   4.668  67.653  1.00  0.00    -0.100 C  
HETATM   24  C   UNL     1      -7.453   3.570  68.435  1.00  0.00    -0.053 C  
HETATM   25  C   UNL     1      -8.187   3.203  69.690  1.00  0.00    -0.072 C  
HETATM   26  C   UNL     1      -9.256   3.881  70.135  1.00  0.00    -0.217 C  
HETATM   27  C   UNL     1      -9.833   5.073  69.424  1.00  0.00    -0.273 C  
ENDBRANCH  18  22
ENDBRANCH  16  18
ENDBRANCH  13  14
TORSDOF 3
ENDMDL
MODEL       87
REMARK 921   NORMALIZED FREE ENERGY PREDICTED BY IDOCK:   -5.00 KCAL/MOL
REMARK 922        TOTAL FREE ENERGY PREDICTED BY IDOCK:   -6.54 KCAL/MOL
REMARK 923 INTER-LIGAND FREE ENERGY PREDICTED BY IDOCK:   -6.24 KCAL/MOL
REMARK 924 INTRA-LIGAND FREE ENERGY PREDICTED BY IDOCK:   -0.30 KCAL/MOL
REMARK 927      BINDING AFFINITY PREDICTED BY RF-SCORE:    0.00 PKD
ROOT
HETATM    1  C   UNL     1      -8.810   9.716  69.992  1.00  0.00    -0.232 C  
HETATM    2  S   UNL     1      -8.203   8.481  68.819  1.00  0.00    -0.123 SA 
HETATM    3  C   UNL     1      -8.167   9.640  67.440  1.00  0.00    -0.114 C  
HETATM    4  C   UNL     1      -9.435  10.456  67.276  1.00  0.00    -0.176 C  
HETATM    5  C   UNL     1      -9.619  10.899  65.839  1.00  0.00    -0.257 C  
HETATM    6  CA  UNL     1     -10.327  10.722  68.275  1.00  0.00    -0.173 C  
HETATM    7  N   UNL     1     -10.086  10.232  69.528  1.00  0.00    -0.232 N  
HETATM    8  C   UNL     1     -11.579  11.532  67.967  1.00  0.00    -0.300 C  
HETATM    9  C   UNL     1     -10.763  10.003  70.675  1.00  0.00    -0.254 C  
HETATM   10  O   UNL     1     -12.385  11.834  69.004  1.00  0.00    -0.254 OA 
HETATM   11  OXT UNL     1     -11.842  11.984  66.862  1.00  0.00    -0.580 OA 
HETATM   12  O   UNL     1     -11.889  10.321  70.978  1.00  0.00    -0.336 OA 
HETATM   13  CA  UNL     1      -9.570   9.152  71.239  1.00  0.00    -0.261 C  
ENDROOT
BRANCH  13  14
HETATM   14  N   UNL     1      -9.776   7.688  71.247  1.00  0.00    -0.161 N  
HETATM   15  H   UNL     1      -9.295   7.142  70.533  1.00  0.00     0.000 HD 
HETATM   16  C   UNL     1     -10.568   7.004  72.144  1.00  0.00    -0.213 C  
HETATM   17  O   UNL     1     -11.150   7.543  73.076  1.00  0.00    -0.360 OA 
BRANCH  16  18
HETATM   18  CA  UNL     1     -10.663   5.483  71.815  1.00  0.00    -0.226 C  
HETATM   19  H2  UNL     1      -9.648   4.943  73.571  1.00  0.00     0.000 HD 
HETATM   20  N   UNL     1      -9.606   4.759  72.569  1.00  0.00    -0.136 NA 
HETATM   21  H1  UNL     1      -9.669   3.764  72.354  1.00  0.00     0.000 HD 
BRANCH  18  22
HETATM   22  C   UNL     1     -10.518   5.305  70.318  1.00  0.00    -0.332 C  
HETATM   23  C   UNL     1      -9.673   4.425  69.737  1.00  0.00    -0.291 C  
HETATM   24  C   UNL     1      -9.486   4.287  68.253  1.00  0.00    -0.212 C  
HETATM   25  C   UNL     1     -10.241   5.307  67.457  1.00  0.00    -0.229 C  
HETATM   26  C   UNL     1     -11.103   6.174  68.011  1.00  0.00    -0.316 C  
HETATM   27  C   UNL     1     -11.399   6.217  69.484  1.00  0.00    -0.475 C  
ENDBRANCH  18  22
ENDBRANCH  16  18
ENDBRANCH  13  14
TORSDOF 3
ENDMDL
MODEL       88
REMARK 921   NORMALIZED FREE ENERGY PREDICTED BY IDOCK:   -4.95 KCAL/MOL
REMARK 922        TOTAL FREE ENERGY PREDICTED BY IDOCK:   -6.48 KCAL/MOL
REMARK 923 INTER-LIGAND FREE ENERGY PREDICTED BY IDOCK:   -7.24 KCAL/MOL
REMARK 924 INTRA-LIGAND FREE ENERGY PREDICTED BY IDOCK:    0.76 KCAL/MOL
REMARK 927      BINDING AFFINITY PREDICTED BY RF-SCORE:    0.00 PKD
ROOT
HETATM    1  C   UNL     1      -8.927  15.913  66.401  1.00  0.00    -0.326 C  
HETATM    2  S   UNL     1     -10.709  15.784  66.122  1.00  0.00    -0.253 SA 
HETATM    3  C   UNL     1     -10.805  17.362  65.256  1.00  0.00     0.056 C  
HETATM    4  C   UNL     1     -10.110  18.507  65.967  1.00  0.00    -0.309 C  
HETATM    5  C   UNL     1     -10.723  19.840  65.588  1.00  0.00    -0.418 C  
HETATM    6  CA  UNL     1      -9.095  18.367  66.869  1.00  0.00    -0.286 C  
HETATM    7  N   UNL     1      -8.648  17.111  67.175  1.00  0.00    -0.199 N  
HETATM    8  C   UNL     1      -8.503  19.602  67.532  1.00  0.00    -0.307 C  
HETATM    9  C   UNL     1      -7.927  16.498  68.139  1.00  0.00    -0.163 C  
HETATM   10  O   UNL     1      -7.451  19.413  68.354  1.00  0.00    -0.294 OA 
HETATM   11  OXT UNL     1      -8.874  20.744  67.298  1.00  0.00    -0.304 OA 
HETATM   12  O   UNL     1      -7.302  16.981  69.054  1.00  0.00    -0.237 OA 
HETATM   13  CA  UNL     1      -8.366  15.088  67.607  1.00  0.00    -0.164 C  
ENDROOT
BRANCH  13  14
HETATM   14  N   UNL     1      -9.381  14.385  68.419  1.00  0.00    -0.202 N  
HETATM   15  H   UNL     1      -9.466  13.376  68.296  1.00  0.00     0.000 HD 
HETATM   16  C   UNL     1     -10.223  14.986  69.330  1.00  0.00    -0.223 C  
HETATM   17  O   UNL     1     -10.179  16.178  69.604  1.00  0.00    -0.260 OA 
BRANCH  16  18
HETATM   18  CA  UNL     1     -11.253  13.986  69.940  1.00  0.00    -0.071 C  
HETATM   19  H2  UNL     1     -11.612  13.077  68.083  1.00  0.00     0.000 HD 
HETATM   20  N   UNL     1     -12.138  13.484  68.856  1.00  0.00    -0.327 NA 
HETATM   21  H1  UNL     1     -12.811  12.830  69.255  1.00  0.00     0.000 HD 
BRANCH  18  22
HETATM   22  C   UNL     1     -12.031  14.701  71.025  1.00  0.00    -0.399 C  
HETATM   23  C   UNL     1     -11.497  15.110  72.198  1.00  0.00    -0.430 C  
HETATM   24  C   UNL     1     -12.279  15.767  73.299  1.00  0.00    -0.619 C  
HETATM   25  C   UNL     1     -13.753  15.826  73.033  1.00  0.00    -0.583 C  
HETATM   26  C   UNL     1     -14.300  15.449  71.868  1.00  0.00    -0.649 C  
HETATM   27  C   UNL     1     -13.499  14.923  70.710  1.00  0.00    -0.279 C  
ENDBRANCH  18  22
ENDBRANCH  16  18
ENDBRANCH  13  14
TORSDOF 3
ENDMDL
MODEL       89
REMARK 921   NORMALIZED FREE ENERGY PREDICTED BY IDOCK:   -4.93 KCAL/MOL
REMARK 922        TOTAL FREE ENERGY PREDICTED BY IDOCK:   -6.45 KCAL/MOL
REMARK 923 INTER-LIGAND FREE ENERGY PREDICTED BY IDOCK:   -7.03 KCAL/MOL
REMARK 924 INTRA-LIGAND FREE ENERGY PREDICTED BY IDOCK:    0.58 KCAL/MOL
REMARK 927      BINDING AFFINITY PREDICTED BY RF-SCORE:    0.00 PKD
ROOT
HETATM    1  C   UNL     1     -10.959   6.467  71.888  1.00  0.00    -0.253 C  
HETATM    2  S   UNL     1     -11.572   6.343  70.192  1.00  0.00    -0.269 SA 
HETATM    3  C   UNL     1     -10.289   5.180  69.691  1.00  0.00    -0.246 C  
HETATM    4  C   UNL     1      -8.884   5.592  70.087  1.00  0.00    -0.147 C  
HETATM    5  C   UNL     1      -7.853   4.990  69.154  1.00  0.00    -0.080 C  
HETATM    6  CA  UNL     1      -8.577   6.432  71.119  1.00  0.00    -0.128 C  
HETATM    7  N   UNL     1      -9.592   6.958  71.870  1.00  0.00    -0.155 N  
HETATM    8  C   UNL     1      -7.122   6.786  71.392  1.00  0.00    -0.075 C  
HETATM    9  C   UNL     1      -9.790   7.976  72.736  1.00  0.00    -0.282 C  
HETATM   10  O   UNL     1      -6.870   7.556  72.470  1.00  0.00    -0.061 OA 
HETATM   11  OXT UNL     1      -6.183   6.349  70.744  1.00  0.00    -0.037 OA 
HETATM   12  O   UNL     1      -8.985   8.727  73.234  1.00  0.00    -0.242 OA 
HETATM   13  CA  UNL     1     -11.345   7.775  72.656  1.00  0.00    -0.393 C  
ENDROOT
BRANCH  13  14
HETATM   14  N   UNL     1     -12.080   8.782  71.862  1.00  0.00    -0.337 N  
HETATM   15  H   UNL     1     -13.098   8.774  71.919  1.00  0.00     0.000 HD 
HETATM   16  C   UNL     1     -11.498   9.731  71.050  1.00  0.00    -0.383 C  
HETATM   17  O   UNL     1     -10.287   9.874  70.942  1.00  0.00    -0.253 OA 
BRANCH  16  18
HETATM   18  CA  UNL     1     -12.550  10.569  70.263  1.00  0.00    -0.235 C  
HETATM   19  H2  UNL     1     -12.044   9.666  68.437  1.00  0.00     0.000 HD 
HETATM   20  N   UNL     1     -12.167  10.601  68.826  1.00  0.00    -0.808 NA 
HETATM   21  H1  UNL     1     -12.856  11.149  68.312  1.00  0.00     0.000 HD 
BRANCH  18  22
HETATM   22  C   UNL     1     -12.608  11.957  70.867  1.00  0.00    -0.361 C  
HETATM   23  C   UNL     1     -13.228  12.253  72.031  1.00  0.00    -0.508 C  
HETATM   24  C   UNL     1     -13.336  13.638  72.603  1.00  0.00    -0.587 C  
HETATM   25  C   UNL     1     -12.791  14.702  71.700  1.00  0.00    -0.403 C  
HETATM   26  C   UNL     1     -12.151  14.430  70.552  1.00  0.00    -0.404 C  
HETATM   27  C   UNL     1     -11.917  13.033  70.049  1.00  0.00    -0.383 C  
ENDBRANCH  18  22
ENDBRANCH  16  18
ENDBRANCH  13  14
TORSDOF 3
ENDMDL
MODEL       90
REMARK 921   NORMALIZED FREE ENERGY PREDICTED BY IDOCK:   -4.90 KCAL/MOL
REMARK 922        TOTAL FREE ENERGY PREDICTED BY IDOCK:   -6.42 KCAL/MOL
REMARK 923 INTER-LIGAND FREE ENERGY PREDICTED BY IDOCK:   -5.91 KCAL/MOL
REMARK 924 INTRA-LIGAND FREE ENERGY PREDICTED BY IDOCK:   -0.51 KCAL/MOL
REMARK 927      BINDING AFFINITY PREDICTED BY RF-SCORE:    0.00 PKD
ROOT
HETATM    1  C   UNL     1      -7.551  16.800  69.010  1.00  0.00    -0.218 C  
HETATM    2  S   UNL     1      -6.247  16.570  67.778  1.00  0.00    -0.153 SA 
HETATM    3  C   UNL     1      -5.851  18.326  67.700  1.00  0.00    -0.156 C  
HETATM    4  C   UNL     1      -7.056  19.232  67.541  1.00  0.00    -0.236 C  
HETATM    5  C   UNL     1      -6.678  20.535  66.864  1.00  0.00    -0.320 C  
HETATM    6  CA  UNL     1      -8.330  18.910  67.911  1.00  0.00    -0.281 C  
HETATM    7  N   UNL     1      -8.569  17.685  68.471  1.00  0.00    -0.286 N  
HETATM    8  C   UNL     1      -9.458  19.904  67.668  1.00  0.00    -0.364 C  
HETATM    9  C   UNL     1      -9.617  16.867  68.712  1.00  0.00    -0.268 C  
HETATM   10  O   UNL     1     -10.681  19.568  68.124  1.00  0.00    -0.358 OA 
HETATM   11  OXT UNL     1      -9.295  21.006  67.164  1.00  0.00    -0.288 OA 
HETATM   12  O   UNL     1     -10.800  17.077  68.582  1.00  0.00    -0.338 OA 
HETATM   13  CA  UNL     1      -8.646  15.683  69.057  1.00  0.00    -0.232 C  
ENDROOT
BRANCH  13  14
HETATM   14  N   UNL     1      -8.524  14.633  68.024  1.00  0.00    -0.147 N  
HETATM   15  H   UNL     1      -7.634  14.558  67.532  1.00  0.00     0.000 HD 
HETATM   16  C   UNL     1      -9.519  13.746  67.674  1.00  0.00    -0.217 C  
HETATM   17  O   UNL     1     -10.609  13.702  68.230  1.00  0.00    -0.239 OA 
BRANCH  16  18
HETATM   18  CA  UNL     1      -9.113  12.838  66.473  1.00  0.00    -0.147 C  
HETATM   19  H2  UNL     1     -10.013  14.120  65.076  1.00  0.00     0.000 HD 
HETATM   20  N   UNL     1     -10.007  13.130  65.322  1.00  0.00    -0.480 NA 
HETATM   21  H1  UNL     1      -9.741  12.536  64.537  1.00  0.00     0.000 HD 
BRANCH  18  22
HETATM   22  C   UNL     1      -9.206  11.391  66.913  1.00  0.00    -0.183 C  
HETATM   23  C   UNL     1     -10.230  10.567  66.598  1.00  0.00    -0.289 C  
HETATM   24  C   UNL     1     -10.353   9.149  67.080  1.00  0.00    -0.333 C  
HETATM   25  C   UNL     1      -9.285   8.754  68.054  1.00  0.00    -0.147 C  
HETATM   26  C   UNL     1      -8.247   9.547  68.362  1.00  0.00    -0.113 C  
HETATM   27  C   UNL     1      -8.048  10.914  67.769  1.00  0.00    -0.115 C  
ENDBRANCH  18  22
ENDBRANCH  16  18
ENDBRANCH  13  14
TORSDOF 3
ENDMDL
MODEL       91
REMARK 921   NORMALIZED FREE ENERGY PREDICTED BY IDOCK:   -4.89 KCAL/MOL
REMARK 922        TOTAL FREE ENERGY PREDICTED BY IDOCK:   -6.40 KCAL/MOL
REMARK 923 INTER-LIGAND FREE ENERGY PREDICTED BY IDOCK:   -6.01 KCAL/MOL
REMARK 924 INTRA-LIGAND FREE ENERGY PREDICTED BY IDOCK:   -0.39 KCAL/MOL
REMARK 927      BINDING AFFINITY PREDICTED BY RF-SCORE:    0.00 PKD
ROOT
HETATM    1  C   UNL     1     -11.473   6.308  69.731  1.00  0.00    -0.379 C  
HETATM    2  S   UNL     1     -10.476   7.405  68.695  1.00  0.00    -0.162 SA 
HETATM    3  C   UNL     1      -9.411   6.074  68.111  1.00  0.00    -0.115 C  
HETATM    4  C   UNL     1      -8.872   5.177  69.209  1.00  0.00    -0.115 C  
HETATM    5  C   UNL     1      -7.562   4.535  68.799  1.00  0.00    -0.064 C  
HETATM    6  CA  UNL     1      -9.457   5.000  70.430  1.00  0.00    -0.169 C  
HETATM    7  N   UNL     1     -10.617   5.666  70.714  1.00  0.00    -0.263 N  
HETATM    8  C   UNL     1      -8.795   4.089  71.455  1.00  0.00    -0.104 C  
HETATM    9  C   UNL     1     -11.350   6.010  71.795  1.00  0.00    -0.265 C  
HETATM   10  O   UNL     1      -9.453   3.887  72.613  1.00  0.00    -0.115 OA 
HETATM   11  OXT UNL     1      -7.755   3.479  71.251  1.00  0.00    -0.053 OA 
HETATM   12  O   UNL     1     -11.219   5.676  72.949  1.00  0.00    -0.275 OA 
HETATM   13  CA  UNL     1     -12.215   6.993  70.928  1.00  0.00    -0.342 C  
ENDROOT
BRANCH  13  14
HETATM   14  N   UNL     1     -11.928   8.431  71.111  1.00  0.00    -0.316 N  
HETATM   15  H   UNL     1     -10.950   8.720  71.107  1.00  0.00     0.000 HD 
HETATM   16  C   UNL     1     -12.879   9.413  71.288  1.00  0.00    -0.309 C  
HETATM   17  O   UNL     1     -14.083   9.198  71.257  1.00  0.00    -0.275 OA 
BRANCH  16  18
HETATM   18  CA  UNL     1     -12.247  10.811  71.565  1.00  0.00    -0.199 C  
HETATM   19  H2  UNL     1     -13.215  10.986  73.420  1.00  0.00     0.000 HD 
HETATM   20  N   UNL     1     -13.081  11.527  72.566  1.00  0.00    -0.204 NA 
HETATM   21  H1  UNL     1     -12.668  12.442  72.747  1.00  0.00     0.000 HD 
BRANCH  18  22
HETATM   22  C   UNL     1     -12.157  11.566  70.255  1.00  0.00    -0.444 C  
HETATM   23  C   UNL     1     -11.907  10.985  69.060  1.00  0.00    -0.399 C  
HETATM   24  C   UNL     1     -11.761  11.737  67.768  1.00  0.00    -0.337 C  
HETATM   25  C   UNL     1     -11.796  13.226  67.936  1.00  0.00    -0.388 C  
HETATM   26  C   UNL     1     -12.065  13.823  69.107  1.00  0.00    -0.374 C  
HETATM   27  C   UNL     1     -12.354  13.065  70.373  1.00  0.00    -0.351 C  
ENDBRANCH  18  22
ENDBRANCH  16  18
ENDBRANCH  13  14
TORSDOF 3
ENDMDL
MODEL       92
REMARK 921   NORMALIZED FREE ENERGY PREDICTED BY IDOCK:   -4.89 KCAL/MOL
REMARK 922        TOTAL FREE ENERGY PREDICTED BY IDOCK:   -6.40 KCAL/MOL
REMARK 923 INTER-LIGAND FREE ENERGY PREDICTED BY IDOCK:   -5.88 KCAL/MOL
REMARK 924 INTRA-LIGAND FREE ENERGY PREDICTED BY IDOCK:   -0.52 KCAL/MOL
REMARK 927      BINDING AFFINITY PREDICTED BY RF-SCORE:    0.00 PKD
ROOT
HETATM    1  C   UNL     1      -9.035  10.666  67.018  1.00  0.00    -0.137 C  
HETATM    2  S   UNL     1      -9.671  10.101  65.422  1.00  0.00    -0.309 SA 
HETATM    3  C   UNL     1     -10.014  11.770  64.837  1.00  0.00    -0.247 C  
HETATM    4  C   UNL     1     -10.773  12.635  65.826  1.00  0.00    -0.295 C  
HETATM    5  C   UNL     1     -11.564  13.714  65.115  1.00  0.00    -0.333 C  
HETATM    6  CA  UNL     1     -10.787  12.446  67.178  1.00  0.00    -0.245 C  
HETATM    7  N   UNL     1     -10.073  11.409  67.711  1.00  0.00    -0.178 N  
HETATM    8  C   UNL     1     -11.616  13.373  68.057  1.00  0.00    -0.334 C  
HETATM    9  C   UNL     1     -10.015  10.703  68.862  1.00  0.00    -0.204 C  
HETATM   10  O   UNL     1     -11.532  13.192  69.390  1.00  0.00    -0.269 OA 
HETATM   11  OXT UNL     1     -12.277  14.307  67.626  1.00  0.00    -0.337 OA 
HETATM   12  O   UNL     1     -10.578  10.902  69.912  1.00  0.00    -0.158 OA 
HETATM   13  CA  UNL     1      -9.101   9.623  68.183  1.00  0.00    -0.122 C  
ENDROOT
BRANCH  13  14
HETATM   14  N   UNL     1      -9.761   8.343  67.850  1.00  0.00    -0.153 N  
HETATM   15  H   UNL     1     -10.778   8.345  67.770  1.00  0.00     0.000 HD 
HETATM   16  C   UNL     1      -9.111   7.146  67.641  1.00  0.00    -0.127 C  
HETATM   17  O   UNL     1      -7.892   7.030  67.656  1.00  0.00    -0.109 OA 
BRANCH  16  18
HETATM   18  CA  UNL     1     -10.099   5.961  67.419  1.00  0.00    -0.169 C  
HETATM   19  H2  UNL     1     -11.549   7.208  66.554  1.00  0.00     0.000 HD 
HETATM   20  N   UNL     1     -11.478   6.501  67.285  1.00  0.00    -0.743 NA 
HETATM   21  H1  UNL     1     -12.124   5.725  67.141  1.00  0.00     0.000 HD 
BRANCH  18  22
HETATM   22  C   UNL     1      -9.973   5.006  68.588  1.00  0.00    -0.215 C  
HETATM   23  C   UNL     1     -10.275   5.326  69.866  1.00  0.00    -0.364 C  
HETATM   24  C   UNL     1     -10.097   4.399  71.035  1.00  0.00    -0.195 C  
HETATM   25  C   UNL     1      -9.432   3.105  70.675  1.00  0.00    -0.233 C  
HETATM   26  C   UNL     1      -9.145   2.757  69.411  1.00  0.00    -0.189 C  
HETATM   27  C   UNL     1      -9.455   3.626  68.225  1.00  0.00    -0.214 C  
ENDBRANCH  18  22
ENDBRANCH  16  18
ENDBRANCH  13  14
TORSDOF 3
ENDMDL
MODEL       93
REMARK 921   NORMALIZED FREE ENERGY PREDICTED BY IDOCK:   -4.88 KCAL/MOL
REMARK 922        TOTAL FREE ENERGY PREDICTED BY IDOCK:   -6.40 KCAL/MOL
REMARK 923 INTER-LIGAND FREE ENERGY PREDICTED BY IDOCK:   -6.05 KCAL/MOL
REMARK 924 INTRA-LIGAND FREE ENERGY PREDICTED BY IDOCK:   -0.35 KCAL/MOL
REMARK 927      BINDING AFFINITY PREDICTED BY RF-SCORE:    0.00 PKD
ROOT
HETATM    1  C   UNL     1     -10.809  11.914  68.307  1.00  0.00    -0.224 C  
HETATM    2  S   UNL     1     -10.792  13.700  68.592  1.00  0.00    -0.266 SA 
HETATM    3  C   UNL     1     -12.117  14.017  67.413  1.00  0.00    -0.349 C  
HETATM    4  C   UNL     1     -11.930  13.344  66.067  1.00  0.00    -0.460 C  
HETATM    5  C   UNL     1     -12.651  14.101  64.970  1.00  0.00    -0.399 C  
HETATM    6  CA  UNL     1     -11.174  12.227  65.850  1.00  0.00    -0.340 C  
HETATM    7  N   UNL     1     -10.526  11.650  66.906  1.00  0.00    -0.220 N  
HETATM    8  C   UNL     1     -11.048  11.668  64.440  1.00  0.00    -0.317 C  
HETATM    9  C   UNL     1      -9.515  10.780  67.123  1.00  0.00    -0.160 C  
HETATM   10  O   UNL     1     -10.356  10.521  64.295  1.00  0.00    -0.332 OA 
HETATM   11  OXT UNL     1     -11.601  12.154  63.464  1.00  0.00    -0.439 OA 
HETATM   12  O   UNL     1      -8.906  10.100  66.331  1.00  0.00    -0.141 OA 
HETATM   13  CA  UNL     1      -9.480  11.160  68.646  1.00  0.00    -0.193 C  
ENDROOT
BRANCH  13  14
HETATM   14  N   UNL     1      -8.353  12.019  69.066  1.00  0.00    -0.347 N  
HETATM   15  H   UNL     1      -8.575  12.958  69.395  1.00  0.00     0.000 HD 
HETATM   16  C   UNL     1      -7.026  11.650  69.047  1.00  0.00    -0.111 C  
HETATM   17  O   UNL     1      -6.640  10.534  68.725  1.00  0.00    -0.051 OA 
BRANCH  16  18
HETATM   18  CA  UNL     1      -6.076  12.821  69.446  1.00  0.00    -0.107 C  
HETATM   19  H2  UNL     1      -5.701  11.998  71.340  1.00  0.00     0.000 HD 
HETATM   20  N   UNL     1      -5.986  12.886  70.929  1.00  0.00    -0.534 NA 
HETATM   21  H1  UNL     1      -5.365  13.652  71.189  1.00  0.00     0.000 HD 
BRANCH  18  22
HETATM   22  C   UNL     1      -6.620  14.104  68.852  1.00  0.00    -0.099 C  
HETATM   23  C   UNL     1      -7.047  14.228  67.576  1.00  0.00    -0.189 C  
HETATM   24  C   UNL     1      -7.533  15.513  66.968  1.00  0.00    -0.205 C  
HETATM   25  C   UNL     1      -7.390  16.696  67.877  1.00  0.00    -0.162 C  
HETATM   26  C   UNL     1      -6.991  16.592  69.153  1.00  0.00    -0.227 C  
HETATM   27  C   UNL     1      -6.641  15.284  69.806  1.00  0.00    -0.177 C  
ENDBRANCH  18  22
ENDBRANCH  16  18
ENDBRANCH  13  14
TORSDOF 3
ENDMDL
MODEL       94
REMARK 921   NORMALIZED FREE ENERGY PREDICTED BY IDOCK:   -4.87 KCAL/MOL
REMARK 922        TOTAL FREE ENERGY PREDICTED BY IDOCK:   -6.38 KCAL/MOL
REMARK 923 INTER-LIGAND FREE ENERGY PREDICTED BY IDOCK:   -5.98 KCAL/MOL
REMARK 924 INTRA-LIGAND FREE ENERGY PREDICTED BY IDOCK:   -0.40 KCAL/MOL
REMARK 927      BINDING AFFINITY PREDICTED BY RF-SCORE:    0.00 PKD
ROOT
HETATM    1  C   UNL     1     -11.992  12.160  68.452  1.00  0.00    -0.198 C  
HETATM    2  S   UNL     1     -12.031  11.617  70.176  1.00  0.00    -0.332 SA 
HETATM    3  C   UNL     1     -12.652  13.197  70.780  1.00  0.00    -0.260 C  
HETATM    4  C   UNL     1     -11.899  14.405  70.259  1.00  0.00    -0.382 C  
HETATM    5  C   UNL     1     -12.003  15.573  71.219  1.00  0.00    -0.443 C  
HETATM    6  CA  UNL     1     -11.176  14.436  69.100  1.00  0.00    -0.272 C  
HETATM    7  N   UNL     1     -11.110  13.308  68.330  1.00  0.00    -0.253 N  
HETATM    8  C   UNL     1     -10.442  15.709  68.706  1.00  0.00    -0.225 C  
HETATM    9  C   UNL     1     -10.349  12.804  67.334  1.00  0.00    -0.222 C  
HETATM   10  O   UNL     1      -9.810  15.710  67.516  1.00  0.00    -0.225 OA 
HETATM   11  OXT UNL     1     -10.464  16.739  69.366  1.00  0.00    -0.321 OA 
HETATM   12  O   UNL     1      -9.475  13.336  66.691  1.00  0.00    -0.252 OA 
HETATM   13  CA  UNL     1     -11.000  11.387  67.519  1.00  0.00    -0.260 C  
ENDROOT
BRANCH  13  14
HETATM   14  N   UNL     1     -10.156  10.377  68.190  1.00  0.00    -0.151 N  
HETATM   15  H   UNL     1      -9.604  10.683  68.991  1.00  0.00     0.000 HD 
HETATM   16  C   UNL     1     -10.057   9.054  67.818  1.00  0.00    -0.208 C  
HETATM   17  O   UNL     1     -10.710   8.557  66.910  1.00  0.00    -0.265 OA 
BRANCH  16  18
HETATM   18  CA  UNL     1      -8.997   8.277  68.658  1.00  0.00    -0.137 C  
HETATM   19  H2  UNL     1      -7.740   8.008  66.999  1.00  0.00     0.000 HD 
HETATM   20  N   UNL     1      -8.164   7.453  67.742  1.00  0.00    -0.118 NA 
HETATM   21  H1  UNL     1      -7.471   6.945  68.292  1.00  0.00     0.000 HD 
BRANCH  18  22
HETATM   22  C   UNL     1      -9.724   7.430  69.682  1.00  0.00    -0.163 C  
HETATM   23  C   UNL     1     -10.974   7.684  70.129  1.00  0.00    -0.255 C  
HETATM   24  C   UNL     1     -11.675   6.879  71.186  1.00  0.00    -0.381 C  
HETATM   25  C   UNL     1     -10.811   5.821  71.803  1.00  0.00    -0.311 C  
HETATM   26  C   UNL     1      -9.577   5.536  71.360  1.00  0.00    -0.195 C  
HETATM   27  C   UNL     1      -8.929   6.248  70.205  1.00  0.00    -0.154 C  
ENDBRANCH  18  22
ENDBRANCH  16  18
ENDBRANCH  13  14
TORSDOF 3
ENDMDL
MODEL       95
REMARK 921   NORMALIZED FREE ENERGY PREDICTED BY IDOCK:   -4.83 KCAL/MOL
REMARK 922        TOTAL FREE ENERGY PREDICTED BY IDOCK:   -6.33 KCAL/MOL
REMARK 923 INTER-LIGAND FREE ENERGY PREDICTED BY IDOCK:   -5.83 KCAL/MOL
REMARK 924 INTRA-LIGAND FREE ENERGY PREDICTED BY IDOCK:   -0.50 KCAL/MOL
REMARK 927      BINDING AFFINITY PREDICTED BY RF-SCORE:    0.00 PKD
ROOT
HETATM    1  C   UNL     1      -8.954   9.311  70.357  1.00  0.00    -0.239 C  
HETATM    2  S   UNL     1     -10.732   9.637  70.415  1.00  0.00    -0.320 SA 
HETATM    3  C   UNL     1     -10.944   8.835  72.015  1.00  0.00    -0.368 C  
HETATM    4  C   UNL     1     -10.301   7.465  72.117  1.00  0.00    -0.232 C  
HETATM    5  C   UNL     1     -11.002   6.606  73.150  1.00  0.00    -0.263 C  
HETATM    6  CA  UNL     1      -9.256   7.033  71.351  1.00  0.00    -0.151 C  
HETATM    7  N   UNL     1      -8.728   7.877  70.414  1.00  0.00    -0.136 N  
HETATM    8  C   UNL     1      -8.723   5.620  71.537  1.00  0.00    -0.132 C  
HETATM    9  C   UNL     1      -7.947   7.808  69.313  1.00  0.00    -0.125 C  
HETATM   10  O   UNL     1      -7.641   5.272  70.812  1.00  0.00    -0.079 OA 
HETATM   11  OXT UNL     1      -9.167   4.827  72.355  1.00  0.00    -0.128 OA 
HETATM   12  O   UNL     1      -7.329   6.869  68.868  1.00  0.00    -0.088 OA 
HETATM   13  CA  UNL     1      -8.315   9.285  68.928  1.00  0.00    -0.120 C  
ENDROOT
BRANCH  13  14
HETATM   14  N   UNL     1      -9.265   9.437  67.806  1.00  0.00    -0.129 N  
HETATM   15  H   UNL     1     -10.078   8.822  67.792  1.00  0.00     0.000 HD 
HETATM   16  C   UNL     1      -9.138  10.346  66.779  1.00  0.00    -0.143 C  
HETATM   17  O   UNL     1      -8.238  11.173  66.716  1.00  0.00    -0.142 OA 
BRANCH  16  18
HETATM   18  CA  UNL     1     -10.246  10.178  65.694  1.00  0.00    -0.218 C  
HETATM   19  H2  UNL     1      -9.046   8.909  64.530  1.00  0.00     0.000 HD 
HETATM   20  N   UNL     1      -9.613   9.750  64.419  1.00  0.00    -0.424 NA 
HETATM   21  H1  UNL     1     -10.338   9.640  63.710  1.00  0.00     0.000 HD 
BRANCH  18  22
HETATM   22  C   UNL     1     -10.982  11.494  65.551  1.00  0.00    -0.290 C  
HETATM   23  C   UNL     1     -11.080  12.186  64.394  1.00  0.00    -0.387 C  
HETATM   24  C   UNL     1     -11.760  13.519  64.261  1.00  0.00    -0.455 C  
HETATM   25  C   UNL     1     -12.225  14.086  65.568  1.00  0.00    -0.455 C  
HETATM   26  C   UNL     1     -12.158  13.408  66.723  1.00  0.00    -0.419 C  
HETATM   27  C   UNL     1     -11.607  12.013  66.832  1.00  0.00    -0.389 C  
ENDBRANCH  18  22
ENDBRANCH  16  18
ENDBRANCH  13  14
TORSDOF 3
ENDMDL
MODEL       96
REMARK 921   NORMALIZED FREE ENERGY PREDICTED BY IDOCK:   -4.80 KCAL/MOL
REMARK 922        TOTAL FREE ENERGY PREDICTED BY IDOCK:   -6.30 KCAL/MOL
REMARK 923 INTER-LIGAND FREE ENERGY PREDICTED BY IDOCK:   -6.79 KCAL/MOL
REMARK 924 INTRA-LIGAND FREE ENERGY PREDICTED BY IDOCK:    0.49 KCAL/MOL
REMARK 927      BINDING AFFINITY PREDICTED BY RF-SCORE:    0.00 PKD
ROOT
HETATM    1  C   UNL     1      -9.282  12.548  66.982  1.00  0.00    -0.214 C  
HETATM    2  S   UNL     1      -8.820  10.858  66.535  1.00  0.00    -0.169 SA 
HETATM    3  C   UNL     1      -8.914  11.177  64.764  1.00  0.00    -0.022 C  
HETATM    4  C   UNL     1     -10.182  11.884  64.324  1.00  0.00    -0.346 C  
HETATM    5  C   UNL     1     -10.512  11.568  62.879  1.00  0.00    -0.114 C  
HETATM    6  CA  UNL     1     -10.959  12.667  65.128  1.00  0.00    -0.291 C  
HETATM    7  N   UNL     1     -10.593  12.848  66.433  1.00  0.00    -0.269 N  
HETATM    8  C   UNL     1     -12.225  13.298  64.565  1.00  0.00    -0.400 C  
HETATM    9  C   UNL     1     -11.147  13.262  67.594  1.00  0.00    -0.269 C  
HETATM   10  O   UNL     1     -12.912  14.125  65.378  1.00  0.00    -0.706 OA 
HETATM   11  OXT UNL     1     -12.598  13.159  63.409  1.00  0.00    -0.722 OA 
HETATM   12  O   UNL     1     -12.230  13.760  67.792  1.00  0.00    -0.329 OA 
HETATM   13  CA  UNL     1      -9.913  12.727  68.403  1.00  0.00    -0.210 C  
ENDROOT
BRANCH  13  14
HETATM   14  N   UNL     1     -10.136  11.476  69.159  1.00  0.00    -0.417 N  
HETATM   15  H   UNL     1      -9.414  11.191  69.820  1.00  0.00     0.000 HD 
HETATM   16  C   UNL     1     -11.244  10.666  69.040  1.00  0.00    -0.265 C  
HETATM   17  O   UNL     1     -12.200  10.931  68.322  1.00  0.00    -0.526 OA 
BRANCH  16  18
HETATM   18  CA  UNL     1     -11.125   9.365  69.891  1.00  0.00    -0.200 C  
HETATM   19  H2  UNL     1     -11.105  10.435  71.696  1.00  0.00     0.000 HD 
HETATM   20  N   UNL     1     -10.566   9.710  71.224  1.00  0.00    -0.281 NA 
HETATM   21  H1  UNL     1     -10.488   8.858  71.781  1.00  0.00     0.000 HD 
BRANCH  18  22
HETATM   22  C   UNL     1     -10.250   8.380  69.144  1.00  0.00    -0.217 C  
HETATM   23  C   UNL     1     -10.479   7.972  67.876  1.00  0.00    -0.259 C  
HETATM   24  C   UNL     1      -9.645   6.953  67.152  1.00  0.00    -0.182 C  
HETATM   25  C   UNL     1      -8.589   6.326  68.011  1.00  0.00    -0.116 C  
HETATM   26  C   UNL     1      -8.329   6.732  69.263  1.00  0.00    -0.125 C  
HETATM   27  C   UNL     1      -9.071   7.851  69.938  1.00  0.00    -0.146 C  
ENDBRANCH  18  22
ENDBRANCH  16  18
ENDBRANCH  13  14
TORSDOF 3
ENDMDL
MODEL       97
REMARK 921   NORMALIZED FREE ENERGY PREDICTED BY IDOCK:   -4.80 KCAL/MOL
REMARK 922        TOTAL FREE ENERGY PREDICTED BY IDOCK:   -6.30 KCAL/MOL
REMARK 923 INTER-LIGAND FREE ENERGY PREDICTED BY IDOCK:   -5.92 KCAL/MOL
REMARK 924 INTRA-LIGAND FREE ENERGY PREDICTED BY IDOCK:   -0.37 KCAL/MOL
REMARK 927      BINDING AFFINITY PREDICTED BY RF-SCORE:    0.00 PKD
ROOT
HETATM    1  C   UNL     1      -7.317  16.879  68.464  1.00  0.00    -0.206 C  
HETATM    2  S   UNL     1      -6.188  16.461  67.115  1.00  0.00    -0.126 SA 
HETATM    3  C   UNL     1      -6.052  18.165  66.545  1.00  0.00    -0.171 C  
HETATM    4  C   UNL     1      -7.381  18.877  66.385  1.00  0.00    -0.267 C  
HETATM    5  C   UNL     1      -7.288  19.987  65.358  1.00  0.00    -0.194 C  
HETATM    6  CA  UNL     1      -8.531  18.542  67.040  1.00  0.00    -0.264 C  
HETATM    7  N   UNL     1      -8.515  17.490  67.914  1.00  0.00    -0.225 N  
HETATM    8  C   UNL     1      -9.808  19.325  66.766  1.00  0.00    -0.352 C  
HETATM    9  C   UNL     1      -9.394  16.667  68.526  1.00  0.00    -0.236 C  
HETATM   10  O   UNL     1     -10.894  19.004  67.497  1.00  0.00    -0.463 OA 
HETATM   11  OXT UNL     1      -9.874  20.267  65.988  1.00  0.00    -0.401 OA 
HETATM   12  O   UNL     1     -10.601  16.721  68.559  1.00  0.00    -0.313 OA 
HETATM   13  CA  UNL     1      -8.229  15.713  68.972  1.00  0.00    -0.233 C  
ENDROOT
BRANCH  13  14
HETATM   14  N   UNL     1      -8.116  14.446  68.220  1.00  0.00    -0.131 N  
HETATM   15  H   UNL     1      -8.603  14.384  67.327  1.00  0.00     0.000 HD 
HETATM   16  C   UNL     1      -7.402  13.341  68.632  1.00  0.00    -0.101 C  
HETATM   17  O   UNL     1      -6.733  13.314  69.657  1.00  0.00    -0.051 OA 
BRANCH  16  18
HETATM   18  CA  UNL     1      -7.573  12.128  67.668  1.00  0.00    -0.140 C  
HETATM   19  H2  UNL     1      -5.606  12.296  66.955  1.00  0.00     0.000 HD 
HETATM   20  N   UNL     1      -6.555  12.222  66.588  1.00  0.00    -0.434 NA 
HETATM   21  H1  UNL     1      -6.667  11.428  65.958  1.00  0.00     0.000 HD 
BRANCH  18  22
HETATM   22  C   UNL     1      -8.985  12.144  67.121  1.00  0.00    -0.189 C  
HETATM   23  C   UNL     1      -9.297  12.400  65.831  1.00  0.00    -0.066 C  
HETATM   24  C   UNL     1     -10.700  12.473  65.298  1.00  0.00    -0.318 C  
HETATM   25  C   UNL     1     -11.750  12.354  66.361  1.00  0.00    -0.453 C  
HETATM   26  C   UNL     1     -11.464  12.077  67.642  1.00  0.00    -0.392 C  
HETATM   27  C   UNL     1     -10.066  11.861  68.149  1.00  0.00    -0.200 C  
ENDBRANCH  18  22
ENDBRANCH  16  18
ENDBRANCH  13  14
TORSDOF 3
ENDMDL
MODEL       98
REMARK 921   NORMALIZED FREE ENERGY PREDICTED BY IDOCK:   -4.79 KCAL/MOL
REMARK 922        TOTAL FREE ENERGY PREDICTED BY IDOCK:   -6.28 KCAL/MOL
REMARK 923 INTER-LIGAND FREE ENERGY PREDICTED BY IDOCK:   -5.85 KCAL/MOL
REMARK 924 INTRA-LIGAND FREE ENERGY PREDICTED BY IDOCK:   -0.44 KCAL/MOL
REMARK 927      BINDING AFFINITY PREDICTED BY RF-SCORE:    0.00 PKD
ROOT
HETATM    1  C   UNL     1      -7.626  10.664  66.911  1.00  0.00    -0.115 C  
HETATM    2  S   UNL     1      -8.436  11.772  68.088  1.00  0.00    -0.162 SA 
HETATM    3  C   UNL     1      -7.792  10.900  69.528  1.00  0.00     0.027 C  
HETATM    4  C   UNL     1      -7.969   9.395  69.478  1.00  0.00    -0.098 C  
HETATM    5  C   UNL     1      -8.022   8.802  70.871  1.00  0.00    -0.155 C  
HETATM    6  CA  UNL     1      -8.111   8.663  68.334  1.00  0.00    -0.118 C  
HETATM    7  N   UNL     1      -8.096   9.306  67.128  1.00  0.00    -0.109 N  
HETATM    8  C   UNL     1      -8.310   7.156  68.426  1.00  0.00    -0.125 C  
HETATM    9  C   UNL     1      -8.459   9.071  65.848  1.00  0.00    -0.140 C  
HETATM   10  O   UNL     1      -8.366   6.472  67.266  1.00  0.00    -0.112 OA 
HETATM   11  OXT UNL     1      -8.339   6.538  69.481  1.00  0.00    -0.127 OA 
HETATM   12  O   UNL     1      -8.841   8.045  65.335  1.00  0.00    -0.126 OA 
HETATM   13  CA  UNL     1      -8.278  10.588  65.490  1.00  0.00    -0.162 C  
ENDROOT
BRANCH  13  14
HETATM   14  N   UNL     1      -9.527  11.361  65.324  1.00  0.00    -0.257 N  
HETATM   15  H   UNL     1      -9.900  11.833  66.147  1.00  0.00     0.000 HD 
HETATM   16  C   UNL     1     -10.227  11.493  64.145  1.00  0.00    -0.325 C  
HETATM   17  O   UNL     1      -9.850  11.020  63.081  1.00  0.00    -0.315 OA 
BRANCH  16  18
HETATM   18  CA  UNL     1     -11.561  12.279  64.328  1.00  0.00    -0.371 C  
HETATM   19  H2  UNL     1     -12.013  12.175  62.281  1.00  0.00     0.000 HD 
HETATM   20  N   UNL     1     -11.955  12.872  63.023  1.00  0.00    -0.785 NA 
HETATM   21  H1  UNL     1     -12.828  13.386  63.143  1.00  0.00     0.000 HD 
BRANCH  18  22
HETATM   22  C   UNL     1     -11.354  13.335  65.394  1.00  0.00    -0.317 C  
HETATM   23  C   UNL     1     -11.953  13.317  66.606  1.00  0.00    -0.446 C  
HETATM   24  C   UNL     1     -11.795  14.392  67.643  1.00  0.00    -0.412 C  
HETATM   25  C   UNL     1     -10.996  15.568  67.168  1.00  0.00    -0.295 C  
HETATM   26  C   UNL     1     -10.375  15.597  65.980  1.00  0.00    -0.351 C  
HETATM   27  C   UNL     1     -10.415  14.459  64.998  1.00  0.00    -0.454 C  
ENDBRANCH  18  22
ENDBRANCH  16  18
ENDBRANCH  13  14
TORSDOF 3
ENDMDL
MODEL       99
REMARK 921   NORMALIZED FREE ENERGY PREDICTED BY IDOCK:   -4.75 KCAL/MOL
REMARK 922        TOTAL FREE ENERGY PREDICTED BY IDOCK:   -6.24 KCAL/MOL
REMARK 923 INTER-LIGAND FREE ENERGY PREDICTED BY IDOCK:   -5.88 KCAL/MOL
REMARK 924 INTRA-LIGAND FREE ENERGY PREDICTED BY IDOCK:   -0.36 KCAL/MOL
REMARK 927      BINDING AFFINITY PREDICTED BY RF-SCORE:    0.00 PKD
ROOT
HETATM    1  C   UNL     1      -9.895   5.699  69.451  1.00  0.00    -0.175 C  
HETATM    2  S   UNL     1      -8.188   6.238  69.708  1.00  0.00    -0.126 SA 
HETATM    3  C   UNL     1      -7.850   4.967  70.940  1.00  0.00    -0.083 C  
HETATM    4  C   UNL     1      -8.905   4.852  72.023  1.00  0.00    -0.139 C  
HETATM    5  C   UNL     1      -8.318   4.288  73.302  1.00  0.00    -0.090 C  
HETATM    6  CA  UNL     1     -10.206   5.245  71.892  1.00  0.00    -0.207 C  
HETATM    7  N   UNL     1     -10.620   5.786  70.707  1.00  0.00    -0.256 N  
HETATM    8  C   UNL     1     -11.158   5.099  73.072  1.00  0.00    -0.314 C  
HETATM    9  C   UNL     1     -11.646   6.526  70.233  1.00  0.00    -0.409 C  
HETATM   10  O   UNL     1     -12.448   5.428  72.864  1.00  0.00     0.023 OA 
HETATM   11  OXT UNL     1     -10.833   4.629  74.153  1.00  0.00    -0.286 OA 
HETATM   12  O   UNL     1     -12.671   6.856  70.781  1.00  0.00    -0.286 OA 
HETATM   13  CA  UNL     1     -10.873   6.785  68.891  1.00  0.00    -0.243 C  
ENDROOT
BRANCH  13  14
HETATM   14  N   UNL     1     -10.296   8.137  68.734  1.00  0.00    -0.207 N  
HETATM   15  H   UNL     1      -9.971   8.609  69.577  1.00  0.00     0.000 HD 
HETATM   16  C   UNL     1     -10.164   8.808  67.538  1.00  0.00    -0.246 C  
HETATM   17  O   UNL     1     -10.466   8.323  66.456  1.00  0.00    -0.255 OA 
BRANCH  16  18
HETATM   18  CA  UNL     1      -9.621  10.258  67.726  1.00  0.00    -0.152 C  
HETATM   19  H2  UNL     1      -9.596  10.080  69.817  1.00  0.00     0.000 HD 
HETATM   20  N   UNL     1      -9.942  10.719  69.102  1.00  0.00    -0.286 NA 
HETATM   21  H1  UNL     1      -9.587  11.668  69.224  1.00  0.00     0.000 HD 
BRANCH  18  22
HETATM   22  C   UNL     1     -10.245  11.144  66.668  1.00  0.00    -0.274 C  
HETATM   23  C   UNL     1     -11.394  11.835  66.838  1.00  0.00    -0.386 C  
HETATM   24  C   UNL     1     -12.044  12.670  65.772  1.00  0.00    -0.484 C  
HETATM   25  C   UNL     1     -11.364  12.576  64.440  1.00  0.00    -0.395 C  
HETATM   26  C   UNL     1     -10.210  11.916  64.255  1.00  0.00    -0.346 C  
HETATM   27  C   UNL     1      -9.483  11.198  65.357  1.00  0.00    -0.253 C  
ENDBRANCH  18  22
ENDBRANCH  16  18
ENDBRANCH  13  14
TORSDOF 3
ENDMDL
MODEL      100
REMARK 921   NORMALIZED FREE ENERGY PREDICTED BY IDOCK:   -4.72 KCAL/MOL
REMARK 922        TOTAL FREE ENERGY PREDICTED BY IDOCK:   -6.20 KCAL/MOL
REMARK 923 INTER-LIGAND FREE ENERGY PREDICTED BY IDOCK:   -5.89 KCAL/MOL
REMARK 924 INTRA-LIGAND FREE ENERGY PREDICTED BY IDOCK:   -0.32 KCAL/MOL
REMARK 927      BINDING AFFINITY PREDICTED BY RF-SCORE:    0.00 PKD
ROOT
HETATM    1  C   UNL     1      -9.447   9.131  70.781  1.00  0.00    -0.272 C  
HETATM    2  S   UNL     1      -8.864   7.722  69.809  1.00  0.00    -0.139 SA 
HETATM    3  C   UNL     1      -8.486   8.729  68.363  1.00  0.00    -0.130 C  
HETATM    4  C   UNL     1      -9.597   9.676  67.953  1.00  0.00    -0.159 C  
HETATM    5  C   UNL     1      -9.526   9.998  66.474  1.00  0.00    -0.222 C  
HETATM    6  CA  UNL     1     -10.569  10.147  68.788  1.00  0.00    -0.213 C  
HETATM    7  N   UNL     1     -10.567   9.755  70.098  1.00  0.00    -0.264 N  
HETATM    8  C   UNL     1     -11.646  11.074  68.240  1.00  0.00    -0.284 C  
HETATM    9  C   UNL     1     -11.415   9.725  71.149  1.00  0.00    -0.398 C  
HETATM   10  O   UNL     1     -12.534  11.572  69.122  1.00  0.00    -0.271 OA 
HETATM   11  OXT UNL     1     -11.695  11.445  67.076  1.00  0.00    -0.535 OA 
HETATM   12  O   UNL     1     -12.517  10.208  71.259  1.00  0.00    -0.339 OA 
HETATM   13  CA  UNL     1     -10.436   8.790  71.945  1.00  0.00    -0.353 C  
ENDROOT
BRANCH  13  14
HETATM   14  N   UNL     1     -10.840   7.371  72.038  1.00  0.00    -0.222 N  
HETATM   15  H   UNL     1     -11.606   7.060  71.442  1.00  0.00     0.000 HD 
HETATM   16  C   UNL     1     -10.260   6.435  72.867  1.00  0.00    -0.191 C  
HETATM   17  O   UNL     1      -9.299   6.675  73.587  1.00  0.00    -0.137 OA 
BRANCH  16  18
HETATM   18  CA  UNL     1     -10.987   5.057  72.811  1.00  0.00    -0.247 C  
HETATM   19  H2  UNL     1     -11.489   5.131  74.847  1.00  0.00     0.000 HD 
HETATM   20  N   UNL     1     -11.055   4.490  74.183  1.00  0.00    -0.260 NA 
HETATM   21  H1  UNL     1     -11.531   3.589  74.146  1.00  0.00     0.000 HD 
BRANCH  18  22
HETATM   22  C   UNL     1     -10.231   4.154  71.859  1.00  0.00    -0.180 C  
HETATM   23  C   UNL     1      -9.897   4.495  70.594  1.00  0.00    -0.292 C  
HETATM   24  C   UNL     1      -9.197   3.580  69.629  1.00  0.00    -0.223 C  
HETATM   25  C   UNL     1      -9.004   2.190  70.155  1.00  0.00    -0.150 C  
HETATM   26  C   UNL     1      -9.307   1.837  71.414  1.00  0.00    -0.179 C  
HETATM   27  C   UNL     1      -9.875   2.792  72.426  1.00  0.00    -0.227 C  
ENDBRANCH  18  22
ENDBRANCH  16  18
ENDBRANCH  13  14
TORSDOF 3
ENDMDL
MODEL      101
REMARK 921   NORMALIZED FREE ENERGY PREDICTED BY IDOCK:   -4.70 KCAL/MOL
REMARK 922        TOTAL FREE ENERGY PREDICTED BY IDOCK:   -6.18 KCAL/MOL
REMARK 923 INTER-LIGAND FREE ENERGY PREDICTED BY IDOCK:   -6.66 KCAL/MOL
REMARK 924 INTRA-LIGAND FREE ENERGY PREDICTED BY IDOCK:    0.48 KCAL/MOL
REMARK 927      BINDING AFFINITY PREDICTED BY RF-SCORE:    0.00 PKD
ROOT
HETATM    1  C   UNL     1     -11.308  12.042  67.419  1.00  0.00    -0.327 C  
HETATM    2  S   UNL     1     -12.065  13.666  67.173  1.00  0.00    -0.313 SA 
HETATM    3  C   UNL     1     -12.692  13.253  65.534  1.00  0.00    -0.367 C  
HETATM    4  C   UNL     1     -11.667  12.616  64.616  1.00  0.00    -0.411 C  
HETATM    5  C   UNL     1     -12.002  12.871  63.160  1.00  0.00    -0.332 C  
HETATM    6  CA  UNL     1     -10.557  11.939  65.033  1.00  0.00    -0.289 C  
HETATM    7  N   UNL     1     -10.326  11.807  66.374  1.00  0.00    -0.216 N  
HETATM    8  C   UNL     1      -9.592  11.371  64.003  1.00  0.00    -0.200 C  
HETATM    9  C   UNL     1      -9.302  11.503  67.202  1.00  0.00    -0.172 C  
HETATM   10  O   UNL     1      -8.556  10.645  64.467  1.00  0.00    -0.172 OA 
HETATM   11  OXT UNL     1      -9.751  11.470  62.794  1.00  0.00    -0.340 OA 
HETATM   12  O   UNL     1      -8.195  11.097  66.935  1.00  0.00    -0.136 OA 
HETATM   13  CA  UNL     1     -10.126  11.992  68.445  1.00  0.00    -0.210 C  
ENDROOT
BRANCH  13  14
HETATM   14  N   UNL     1      -9.721  13.297  69.008  1.00  0.00    -0.383 N  
HETATM   15  H   UNL     1     -10.018  13.511  69.960  1.00  0.00     0.000 HD 
HETATM   16  C   UNL     1      -8.973  14.248  68.348  1.00  0.00    -0.189 C  
HETATM   17  O   UNL     1      -8.514  14.084  67.225  1.00  0.00    -0.193 OA 
BRANCH  16  18
HETATM   18  CA  UNL     1      -8.812  15.559  69.175  1.00  0.00    -0.253 C  
HETATM   19  H2  UNL     1      -9.709  14.712  70.872  1.00  0.00     0.000 HD 
HETATM   20  N   UNL     1      -9.790  15.548  70.294  1.00  0.00    -0.274 NA 
HETATM   21  H1  UNL     1      -9.684  16.406  70.835  1.00  0.00     0.000 HD 
BRANCH  18  22
HETATM   22  C   UNL     1      -9.020  16.740  68.249  1.00  0.00    -0.228 C  
HETATM   23  C   UNL     1      -8.020  17.394  67.616  1.00  0.00    -0.199 C  
HETATM   24  C   UNL     1      -8.219  18.600  66.743  1.00  0.00    -0.276 C  
HETATM   25  C   UNL     1      -9.631  19.101  66.727  1.00  0.00    -0.383 C  
HETATM   26  C   UNL     1     -10.642  18.455  67.328  1.00  0.00    -0.435 C  
HETATM   27  C   UNL     1     -10.467  17.167  68.084  1.00  0.00    -0.366 C  
ENDBRANCH  18  22
ENDBRANCH  16  18
ENDBRANCH  13  14
TORSDOF 3
ENDMDL
MODEL      102
REMARK 921   NORMALIZED FREE ENERGY PREDICTED BY IDOCK:   -4.69 KCAL/MOL
REMARK 922        TOTAL FREE ENERGY PREDICTED BY IDOCK:   -6.17 KCAL/MOL
REMARK 923 INTER-LIGAND FREE ENERGY PREDICTED BY IDOCK:   -5.75 KCAL/MOL
REMARK 924 INTRA-LIGAND FREE ENERGY PREDICTED BY IDOCK:   -0.42 KCAL/MOL
REMARK 927      BINDING AFFINITY PREDICTED BY RF-SCORE:    0.00 PKD
ROOT
HETATM    1  C   UNL     1      -8.671  11.259  66.978  1.00  0.00    -0.152 C  
HETATM    2  S   UNL     1      -8.178   9.843  65.967  1.00  0.00    -0.122 SA 
HETATM    3  C   UNL     1      -8.502  10.693  64.412  1.00  0.00    -0.070 C  
HETATM    4  C   UNL     1      -9.848  11.388  64.349  1.00  0.00    -0.303 C  
HETATM    5  C   UNL     1     -10.333  11.515  62.918  1.00  0.00    -0.157 C  
HETATM    6  CA  UNL     1     -10.563  11.807  65.434  1.00  0.00    -0.277 C  
HETATM    7  N   UNL     1     -10.053  11.599  66.685  1.00  0.00    -0.205 N  
HETATM    8  C   UNL     1     -11.920  12.468  65.231  1.00  0.00    -0.438 C  
HETATM    9  C   UNL     1     -10.484  11.576  67.966  1.00  0.00    -0.189 C  
HETATM   10  O   UNL     1     -12.547  12.932  66.329  1.00  0.00    -0.380 OA 
HETATM   11  OXT UNL     1     -12.421  12.667  64.134  1.00  0.00    -0.529 OA 
HETATM   12  O   UNL     1     -11.560  11.888  68.418  1.00  0.00    -0.271 OA 
HETATM   13  CA  UNL     1      -9.135  10.924  68.435  1.00  0.00    -0.164 C  
ENDROOT
BRANCH  13  14
HETATM   14  N   UNL     1      -9.199   9.485  68.764  1.00  0.00    -0.138 N  
HETATM   15  H   UNL     1     -10.085   9.005  68.606  1.00  0.00     0.000 HD 
HETATM   16  C   UNL     1      -8.155   8.740  69.269  1.00  0.00    -0.110 C  
HETATM   17  O   UNL     1      -7.031   9.189  69.449  1.00  0.00    -0.051 OA 
BRANCH  16  18
HETATM   18  CA  UNL     1      -8.578   7.279  69.614  1.00  0.00    -0.137 C  
HETATM   19  H2  UNL     1      -7.994   6.564  67.729  1.00  0.00     0.000 HD 
HETATM   20  N   UNL     1      -8.802   6.530  68.350  1.00  0.00    -0.124 NA 
HETATM   21  H1  UNL     1      -9.079   5.574  68.576  1.00  0.00     0.000 HD 
BRANCH  18  22
HETATM   22  C   UNL     1      -9.824   7.330  70.474  1.00  0.00    -0.183 C  
HETATM   23  C   UNL     1     -11.013   6.794  70.120  1.00  0.00    -0.340 C  
HETATM   24  C   UNL     1     -12.264   6.892  70.945  1.00  0.00    -0.404 C  
HETATM   25  C   UNL     1     -12.112   7.754  72.161  1.00  0.00    -0.346 C  
HETATM   26  C   UNL     1     -10.937   8.276  72.544  1.00  0.00    -0.424 C  
HETATM   27  C   UNL     1      -9.653   8.059  71.794  1.00  0.00    -0.231 C  
ENDBRANCH  18  22
ENDBRANCH  16  18
ENDBRANCH  13  14
TORSDOF 3
ENDMDL
MODEL      103
REMARK 921   NORMALIZED FREE ENERGY PREDICTED BY IDOCK:   -4.67 KCAL/MOL
REMARK 922        TOTAL FREE ENERGY PREDICTED BY IDOCK:   -6.14 KCAL/MOL
REMARK 923 INTER-LIGAND FREE ENERGY PREDICTED BY IDOCK:   -5.52 KCAL/MOL
REMARK 924 INTRA-LIGAND FREE ENERGY PREDICTED BY IDOCK:   -0.63 KCAL/MOL
REMARK 927      BINDING AFFINITY PREDICTED BY RF-SCORE:    0.00 PKD
ROOT
HETATM    1  C   UNL     1      -7.946  16.461  66.324  1.00  0.00    -0.229 C  
HETATM    2  S   UNL     1      -9.616  15.857  65.983  1.00  0.00    -0.359 SA 
HETATM    3  C   UNL     1     -10.302  17.514  65.805  1.00  0.00    -0.209 C  
HETATM    4  C   UNL     1      -9.927  18.469  66.922  1.00  0.00    -0.370 C  
HETATM    5  C   UNL     1     -10.969  19.557  67.086  1.00  0.00    -0.459 C  
HETATM    6  CA  UNL     1      -8.823  18.347  67.716  1.00  0.00    -0.278 C  
HETATM    7  N   UNL     1      -7.971  17.297  67.512  1.00  0.00    -0.180 N  
HETATM    8  C   UNL     1      -8.578  19.363  68.823  1.00  0.00    -0.335 C  
HETATM    9  C   UNL     1      -6.988  16.646  68.172  1.00  0.00    -0.152 C  
HETATM   10  O   UNL     1      -7.434  19.243  69.525  1.00  0.00    -0.196 OA 
HETATM   11  OXT UNL     1      -9.315  20.313  69.049  1.00  0.00     0.140 OA 
HETATM   12  O   UNL     1      -6.447  16.928  69.214  1.00  0.00    -0.204 OA 
HETATM   13  CA  UNL     1      -7.019  15.481  67.119  1.00  0.00    -0.090 C  
ENDROOT
BRANCH  13  14
HETATM   14  N   UNL     1      -7.660  14.228  67.570  1.00  0.00    -0.177 N  
HETATM   15  H   UNL     1      -8.611  14.290  67.933  1.00  0.00     0.000 HD 
HETATM   16  C   UNL     1      -7.074  12.981  67.537  1.00  0.00    -0.154 C  
HETATM   17  O   UNL     1      -5.961  12.772  67.073  1.00  0.00    -0.307 OA 
BRANCH  16  18
HETATM   18  CA  UNL     1      -7.971  11.883  68.186  1.00  0.00    -0.151 C  
HETATM   19  H2  UNL     1      -6.343  10.589  68.471  1.00  0.00     0.000 HD 
HETATM   20  N   UNL     1      -7.283  10.570  68.075  1.00  0.00    -0.086 NA 
HETATM   21  H1  UNL     1      -7.870   9.852  68.500  1.00  0.00     0.000 HD 
BRANCH  18  22
HETATM   22  C   UNL     1      -9.314  11.883  67.485  1.00  0.00    -0.177 C  
HETATM   23  C   UNL     1      -9.503  11.484  66.208  1.00  0.00    -0.235 C  
HETATM   24  C   UNL     1     -10.823  11.537  65.492  1.00  0.00    -0.313 C  
HETATM   25  C   UNL     1     -11.909  12.193  66.289  1.00  0.00    -0.320 C  
HETATM   26  C   UNL     1     -11.750  12.575  67.565  1.00  0.00    -0.439 C  
HETATM   27  C   UNL     1     -10.468  12.391  68.329  1.00  0.00    -0.234 C  
ENDBRANCH  18  22
ENDBRANCH  16  18
ENDBRANCH  13  14
TORSDOF 3
ENDMDL
MODEL      104
REMARK 921   NORMALIZED FREE ENERGY PREDICTED BY IDOCK:   -4.62 KCAL/MOL
REMARK 922        TOTAL FREE ENERGY PREDICTED BY IDOCK:   -6.08 KCAL/MOL
REMARK 923 INTER-LIGAND FREE ENERGY PREDICTED BY IDOCK:   -5.63 KCAL/MOL
REMARK 924 INTRA-LIGAND FREE ENERGY PREDICTED BY IDOCK:   -0.45 KCAL/MOL
REMARK 927      BINDING AFFINITY PREDICTED BY RF-SCORE:    0.00 PKD
ROOT
HETATM    1  C   UNL     1      -8.126  14.021  68.498  1.00  0.00    -0.139 C  
HETATM    2  S   UNL     1      -6.474  13.402  68.099  1.00  0.00    -0.138 SA 
HETATM    3  C   UNL     1      -5.743  15.049  68.050  1.00  0.00    -0.139 C  
HETATM    4  C   UNL     1      -6.524  16.054  67.227  1.00  0.00    -0.200 C  
HETATM    5  C   UNL     1      -5.620  17.149  66.697  1.00  0.00    -0.210 C  
HETATM    6  CA  UNL     1      -7.859  15.970  66.951  1.00  0.00    -0.249 C  
HETATM    7  N   UNL     1      -8.573  14.912  67.441  1.00  0.00    -0.180 N  
HETATM    8  C   UNL     1      -8.516  17.036  66.085  1.00  0.00    -0.227 C  
HETATM    9  C   UNL     1      -9.752  14.292  67.215  1.00  0.00    -0.234 C  
HETATM   10  O   UNL     1      -9.849  16.949  65.909  1.00  0.00    -0.462 OA 
HETATM   11  OXT UNL     1      -7.918  17.995  65.617  1.00  0.00    -0.514 OA 
HETATM   12  O   UNL     1     -10.667  14.623  66.498  1.00  0.00    -0.301 OA 
HETATM   13  CA  UNL     1      -9.315  13.080  68.112  1.00  0.00    -0.217 C  
ENDROOT
BRANCH  13  14
HETATM   14  N   UNL     1      -8.939  11.849  67.385  1.00  0.00    -0.167 N  
HETATM   15  H   UNL     1      -7.949  11.606  67.353  1.00  0.00     0.000 HD 
HETATM   16  C   UNL     1      -9.821  11.002  66.749  1.00  0.00    -0.197 C  
HETATM   17  O   UNL     1     -11.035  11.157  66.766  1.00  0.00    -0.275 OA 
BRANCH  16  18
HETATM   18  CA  UNL     1      -9.097   9.854  65.982  1.00  0.00    -0.158 C  
HETATM   19  H2  UNL     1      -9.845  10.494  64.128  1.00  0.00     0.000 HD 
HETATM   20  N   UNL     1      -9.781   9.639  64.679  1.00  0.00    -0.415 NA 
HETATM   21  H1  UNL     1      -9.307   8.887  64.178  1.00  0.00     0.000 HD 
BRANCH  18  22
HETATM   22  C   UNL     1      -9.117   8.611  66.847  1.00  0.00    -0.175 C  
HETATM   23  C   UNL     1      -8.042   8.132  67.511  1.00  0.00    -0.123 C  
HETATM   24  C   UNL     1      -8.044   6.868  68.324  1.00  0.00    -0.119 C  
HETATM   25  C   UNL     1      -9.331   6.104  68.238  1.00  0.00    -0.116 C  
HETATM   26  C   UNL     1     -10.417   6.573  67.605  1.00  0.00    -0.284 C  
HETATM   27  C   UNL     1     -10.459   7.906  66.912  1.00  0.00    -0.388 C  
ENDBRANCH  18  22
ENDBRANCH  16  18
ENDBRANCH  13  14
TORSDOF 3
ENDMDL
MODEL      105
REMARK 921   NORMALIZED FREE ENERGY PREDICTED BY IDOCK:   -4.59 KCAL/MOL
REMARK 922        TOTAL FREE ENERGY PREDICTED BY IDOCK:   -6.05 KCAL/MOL
REMARK 923 INTER-LIGAND FREE ENERGY PREDICTED BY IDOCK:   -5.57 KCAL/MOL
REMARK 924 INTRA-LIGAND FREE ENERGY PREDICTED BY IDOCK:   -0.48 KCAL/MOL
REMARK 927      BINDING AFFINITY PREDICTED BY RF-SCORE:    0.00 PKD
ROOT
HETATM    1  C   UNL     1      -8.227   8.701  67.233  1.00  0.00    -0.105 C  
HETATM    2  S   UNL     1      -9.766   8.152  66.460  1.00  0.00    -0.220 SA 
HETATM    3  C   UNL     1      -9.753   9.468  65.229  1.00  0.00    -0.198 C  
HETATM    4  C   UNL     1      -9.504  10.852  65.797  1.00  0.00    -0.246 C  
HETATM    5  C   UNL     1     -10.110  11.924  64.914  1.00  0.00    -0.296 C  
HETATM    6  CA  UNL     1      -8.860  11.109  66.973  1.00  0.00    -0.149 C  
HETATM    7  N   UNL     1      -8.392  10.061  67.717  1.00  0.00    -0.114 N  
HETATM    8  C   UNL     1      -8.701  12.548  67.443  1.00  0.00    -0.189 C  
HETATM    9  C   UNL     1      -7.983   9.818  68.981  1.00  0.00    -0.096 C  
HETATM   10  O   UNL     1      -7.989  12.751  68.569  1.00  0.00    -0.144 OA 
HETATM   11  OXT UNL     1      -9.109  13.517  66.818  1.00  0.00    -0.243 OA 
HETATM   12  O   UNL     1      -7.785  10.594  69.886  1.00  0.00    -0.092 OA 
HETATM   13  CA  UNL     1      -8.024   8.270  68.724  1.00  0.00    -0.114 C  
ENDROOT
BRANCH  13  14
HETATM   14  N   UNL     1      -9.160   7.549  69.335  1.00  0.00    -0.143 N  
HETATM   15  H   UNL     1      -9.876   7.182  68.708  1.00  0.00     0.000 HD 
HETATM   16  C   UNL     1      -9.328   7.334  70.685  1.00  0.00    -0.157 C  
HETATM   17  O   UNL     1      -8.511   7.677  71.530  1.00  0.00    -0.111 OA 
BRANCH  16  18
HETATM   18  CA  UNL     1     -10.685   6.639  71.014  1.00  0.00    -0.236 C  
HETATM   19  H2  UNL     1     -10.235   4.978  69.812  1.00  0.00     0.000 HD 
HETATM   20  N   UNL     1     -10.991   5.649  69.949  1.00  0.00    -0.313 NA 
HETATM   21  H1  UNL     1     -11.879   5.195  70.164  1.00  0.00     0.000 HD 
BRANCH  18  22
HETATM   22  C   UNL     1     -11.755   7.705  71.125  1.00  0.00    -0.311 C  
HETATM   23  C   UNL     1     -11.514   9.033  71.054  1.00  0.00    -0.358 C  
HETATM   24  C   UNL     1     -12.565  10.094  71.220  1.00  0.00    -0.508 C  
HETATM   25  C   UNL     1     -13.909   9.549  71.598  1.00  0.00    -0.287 C  
HETATM   26  C   UNL     1     -14.176   8.235  71.651  1.00  0.00    -0.530 C  
HETATM   27  C   UNL     1     -13.159   7.172  71.344  1.00  0.00    -0.408 C  
ENDBRANCH  18  22
ENDBRANCH  16  18
ENDBRANCH  13  14
TORSDOF 3
ENDMDL
MODEL      106
REMARK 921   NORMALIZED FREE ENERGY PREDICTED BY IDOCK:   -4.59 KCAL/MOL
REMARK 922        TOTAL FREE ENERGY PREDICTED BY IDOCK:   -6.05 KCAL/MOL
REMARK 923 INTER-LIGAND FREE ENERGY PREDICTED BY IDOCK:   -6.01 KCAL/MOL
REMARK 924 INTRA-LIGAND FREE ENERGY PREDICTED BY IDOCK:   -0.03 KCAL/MOL
REMARK 927      BINDING AFFINITY PREDICTED BY RF-SCORE:    0.00 PKD
ROOT
HETATM    1  C   UNL     1     -10.156  11.146  66.329  1.00  0.00    -0.232 C  
HETATM    2  S   UNL     1      -8.786  12.326  66.362  1.00  0.00     0.004 SA 
HETATM    3  C   UNL     1      -7.580  11.120  65.780  1.00  0.00     0.147 C  
HETATM    4  C   UNL     1      -7.614   9.796  66.520  1.00  0.00    -0.098 C  
HETATM    5  C   UNL     1      -6.267   9.104  66.468  1.00  0.00    -0.065 C  
HETATM    6  CA  UNL     1      -8.697   9.303  67.190  1.00  0.00    -0.127 C  
HETATM    7  N   UNL     1      -9.852  10.034  67.213  1.00  0.00    -0.174 N  
HETATM    8  C   UNL     1      -8.587   7.970  67.917  1.00  0.00    -0.129 C  
HETATM    9  C   UNL     1     -10.999  10.096  67.925  1.00  0.00    -0.277 C  
HETATM   10  O   UNL     1      -9.707   7.492  68.495  1.00  0.00    -0.152 OA 
HETATM   11  OXT UNL     1      -7.574   7.285  67.932  1.00  0.00    -0.105 OA 
HETATM   12  O   UNL     1     -11.416   9.344  68.774  1.00  0.00     0.190 OA 
HETATM   13  CA  UNL     1     -11.361  11.477  67.271  1.00  0.00    -0.290 C  
ENDROOT
BRANCH  13  14
HETATM   14  N   UNL     1     -11.181  12.661  68.137  1.00  0.00    -0.250 N  
HETATM   15  H   UNL     1     -10.604  12.551  68.970  1.00  0.00     0.000 HD 
HETATM   16  C   UNL     1     -11.732  13.903  67.905  1.00  0.00    -0.361 C  
HETATM   17  O   UNL     1     -12.396  14.171  66.912  1.00  0.00    -0.419 OA 
BRANCH  16  18
HETATM   18  CA  UNL     1     -11.445  14.908  69.062  1.00  0.00    -0.301 C  
HETATM   19  H2  UNL     1      -9.374  14.850  68.725  1.00  0.00     0.000 HD 
HETATM   20  N   UNL     1     -10.032  14.751  69.498  1.00  0.00    -0.422 NA 
HETATM   21  H1  UNL     1      -9.845  15.409  70.255  1.00  0.00     0.000 HD 
BRANCH  18  22
HETATM   22  C   UNL     1     -12.421  14.636  70.188  1.00  0.00    -0.369 C  
HETATM   23  C   UNL     1     -13.254  15.564  70.710  1.00  0.00    -0.391 C  
HETATM   24  C   UNL     1     -14.182  15.312  71.864  1.00  0.00    -0.681 C  
HETATM   25  C   UNL     1     -14.020  13.955  72.478  1.00  0.00    -0.565 C  
HETATM   26  C   UNL     1     -13.217  13.011  71.962  1.00  0.00    -0.543 C  
HETATM   27  C   UNL     1     -12.394  13.216  70.721  1.00  0.00    -0.404 C  
ENDBRANCH  18  22
ENDBRANCH  16  18
ENDBRANCH  13  14
TORSDOF 3
ENDMDL
MODEL      107
REMARK 921   NORMALIZED FREE ENERGY PREDICTED BY IDOCK:   -4.58 KCAL/MOL
REMARK 922        TOTAL FREE ENERGY PREDICTED BY IDOCK:   -6.04 KCAL/MOL
REMARK 923 INTER-LIGAND FREE ENERGY PREDICTED BY IDOCK:   -5.75 KCAL/MOL
REMARK 924 INTRA-LIGAND FREE ENERGY PREDICTED BY IDOCK:   -0.29 KCAL/MOL
REMARK 927      BINDING AFFINITY PREDICTED BY RF-SCORE:    0.00 PKD
ROOT
HETATM    1  C   UNL     1      -9.121   9.738  69.556  1.00  0.00    -0.216 C  
HETATM    2  S   UNL     1     -10.699   9.774  70.438  1.00  0.00    -0.327 SA 
HETATM    3  C   UNL     1     -10.886   7.982  70.414  1.00  0.00    -0.247 C  
HETATM    4  C   UNL     1     -10.656   7.349  69.055  1.00  0.00    -0.203 C  
HETATM    5  C   UNL     1     -11.409   6.040  68.926  1.00  0.00    -0.082 C  
HETATM    6  CA  UNL     1      -9.910   7.899  68.053  1.00  0.00    -0.165 C  
HETATM    7  N   UNL     1      -9.311   9.111  68.260  1.00  0.00    -0.135 N  
HETATM    8  C   UNL     1      -9.783   7.169  66.723  1.00  0.00    -0.192 C  
HETATM    9  C   UNL     1      -8.761  10.108  67.532  1.00  0.00    -0.125 C  
HETATM   10  O   UNL     1      -8.971   7.717  65.797  1.00  0.00    -0.145 OA 
HETATM   11  OXT UNL     1     -10.306   6.089  66.488  1.00  0.00    -0.191 OA 
HETATM   12  O   UNL     1      -8.514  10.148  66.350  1.00  0.00    -0.128 OA 
HETATM   13  CA  UNL     1      -8.742  11.049  68.789  1.00  0.00    -0.145 C  
ENDROOT
BRANCH  13  14
HETATM   14  N   UNL     1      -9.768  12.113  68.807  1.00  0.00    -0.405 N  
HETATM   15  H   UNL     1     -10.621  11.934  69.337  1.00  0.00     0.000 HD 
HETATM   16  C   UNL     1      -9.663  13.327  68.164  1.00  0.00    -0.227 C  
HETATM   17  O   UNL     1      -8.667  13.677  67.544  1.00  0.00    -0.175 OA 
BRANCH  16  18
HETATM   18  CA  UNL     1     -10.961  14.181  68.286  1.00  0.00    -0.251 C  
HETATM   19  H2  UNL     1     -12.156  12.653  67.484  1.00  0.00     0.000 HD 
HETATM   20  N   UNL     1     -11.981  13.648  67.344  1.00  0.00    -0.384 NA 
HETATM   21  H1  UNL     1     -12.830  14.207  67.425  1.00  0.00     0.000 HD 
BRANCH  18  22
HETATM   22  C   UNL     1     -10.615  15.626  67.991  1.00  0.00    -0.271 C  
HETATM   23  C   UNL     1     -10.434  16.572  68.940  1.00  0.00    -0.304 C  
HETATM   24  C   UNL     1     -10.147  18.017  68.649  1.00  0.00    -0.401 C  
HETATM   25  C   UNL     1     -10.197  18.355  67.189  1.00  0.00    -0.396 C  
HETATM   26  C   UNL     1     -10.352  17.429  66.230  1.00  0.00    -0.330 C  
HETATM   27  C   UNL     1     -10.496  15.960  66.516  1.00  0.00    -0.305 C  
ENDBRANCH  18  22
ENDBRANCH  16  18
ENDBRANCH  13  14
TORSDOF 3
ENDMDL
MODEL      108
REMARK 921   NORMALIZED FREE ENERGY PREDICTED BY IDOCK:   -4.57 KCAL/MOL
REMARK 922        TOTAL FREE ENERGY PREDICTED BY IDOCK:   -6.03 KCAL/MOL
REMARK 923 INTER-LIGAND FREE ENERGY PREDICTED BY IDOCK:   -5.52 KCAL/MOL
REMARK 924 INTRA-LIGAND FREE ENERGY PREDICTED BY IDOCK:   -0.51 KCAL/MOL
REMARK 927      BINDING AFFINITY PREDICTED BY RF-SCORE:    0.00 PKD
ROOT
HETATM    1  C   UNL     1      -8.911   7.887  68.777  1.00  0.00    -0.138 C  
HETATM    2  S   UNL     1      -7.217   8.470  68.529  1.00  0.00    -0.082 SA 
HETATM    3  C   UNL     1      -6.606   7.693  70.036  1.00  0.00    -0.038 C  
HETATM    4  C   UNL     1      -7.454   7.960  71.265  1.00  0.00    -0.073 C  
HETATM    5  C   UNL     1      -6.629   7.862  72.532  1.00  0.00    -0.070 C  
HETATM    6  CA  UNL     1      -8.778   8.294  71.243  1.00  0.00    -0.152 C  
HETATM    7  N   UNL     1      -9.415   8.402  70.039  1.00  0.00    -0.163 N  
HETATM    8  C   UNL     1      -9.506   8.565  72.553  1.00  0.00    -0.258 C  
HETATM    9  C   UNL     1     -10.546   8.944  69.534  1.00  0.00    -0.228 C  
HETATM   10  O   UNL     1     -10.828   8.812  72.480  1.00  0.00    -0.257 OA 
HETATM   11  OXT UNL     1      -8.977   8.490  73.653  1.00  0.00    -0.203 OA 
HETATM   12  O   UNL     1     -11.479   9.447  70.113  1.00  0.00    -0.230 OA 
HETATM   13  CA  UNL     1     -10.028   8.725  68.069  1.00  0.00    -0.182 C  
ENDROOT
BRANCH  13  14
HETATM   14  N   UNL     1      -9.560   9.938  67.367  1.00  0.00    -0.152 N  
HETATM   15  H   UNL     1      -9.212  10.707  67.939  1.00  0.00     0.000 HD 
HETATM   16  C   UNL     1      -9.558  10.112  66.000  1.00  0.00    -0.210 C  
HETATM   17  O   UNL     1      -9.899   9.242  65.209  1.00  0.00    -0.168 OA 
BRANCH  16  18
HETATM   18  CA  UNL     1      -9.108  11.545  65.581  1.00  0.00    -0.126 C  
HETATM   19  H2  UNL     1      -7.312  11.397  66.658  1.00  0.00     0.000 HD 
HETATM   20  N   UNL     1      -8.099  12.038  66.556  1.00  0.00    -0.388 NA 
HETATM   21  H1  UNL     1      -7.805  12.975  66.282  1.00  0.00     0.000 HD 
BRANCH  18  22
HETATM   22  C   UNL     1     -10.331  12.437  65.529  1.00  0.00    -0.298 C  
HETATM   23  C   UNL     1     -10.879  13.038  66.609  1.00  0.00    -0.291 C  
HETATM   24  C   UNL     1     -12.124  13.877  66.568  1.00  0.00    -0.484 C  
HETATM   25  C   UNL     1     -12.791  13.893  65.226  1.00  0.00    -0.437 C  
HETATM   26  C   UNL     1     -12.253  13.323  64.137  1.00  0.00    -0.465 C  
HETATM   27  C   UNL     1     -10.933  12.605  64.146  1.00  0.00    -0.427 C  
ENDBRANCH  18  22
ENDBRANCH  16  18
ENDBRANCH  13  14
TORSDOF 3
ENDMDL
MODEL      109
REMARK 921   NORMALIZED FREE ENERGY PREDICTED BY IDOCK:   -4.57 KCAL/MOL
REMARK 922        TOTAL FREE ENERGY PREDICTED BY IDOCK:   -6.03 KCAL/MOL
REMARK 923 INTER-LIGAND FREE ENERGY PREDICTED BY IDOCK:   -6.02 KCAL/MOL
REMARK 924 INTRA-LIGAND FREE ENERGY PREDICTED BY IDOCK:   -0.01 KCAL/MOL
REMARK 927      BINDING AFFINITY PREDICTED BY RF-SCORE:    0.00 PKD
ROOT
HETATM    1  C   UNL     1      -9.131   9.449  67.172  1.00  0.00    -0.130 C  
HETATM    2  S   UNL     1      -8.328  10.295  68.554  1.00  0.00    -0.122 SA 
HETATM    3  C   UNL     1      -6.754   9.452  68.306  1.00  0.00    -0.059 C  
HETATM    4  C   UNL     1      -6.870   7.948  68.148  1.00  0.00    -0.068 C  
HETATM    5  C   UNL     1      -5.593   7.253  68.575  1.00  0.00    -0.022 C  
HETATM    6  CA  UNL     1      -7.988   7.291  67.723  1.00  0.00    -0.115 C  
HETATM    7  N   UNL     1      -9.104   8.015  67.407  1.00  0.00    -0.133 N  
HETATM    8  C   UNL     1      -7.979   5.771  67.636  1.00  0.00    -0.102 C  
HETATM    9  C   UNL     1     -10.429   7.814  67.234  1.00  0.00    -0.322 C  
HETATM   10  O   UNL     1      -9.081   5.178  67.135  1.00  0.00    -0.112 OA 
HETATM   11  OXT UNL     1      -7.009   5.080  67.915  1.00  0.00    -0.059 OA 
HETATM   12  O   UNL     1     -11.048   6.777  67.194  1.00  0.00    -0.384 OA 
HETATM   13  CA  UNL     1     -10.692   9.361  67.245  1.00  0.00    -0.188 C  
ENDROOT
BRANCH  13  14
HETATM   14  N   UNL     1     -11.300   9.899  68.480  1.00  0.00    -0.514 N  
HETATM   15  H   UNL     1     -11.289   9.303  69.307  1.00  0.00     0.000 HD 
HETATM   16  C   UNL     1     -11.880  11.143  68.601  1.00  0.00    -0.287 C  
HETATM   17  O   UNL     1     -11.905  11.967  67.696  1.00  0.00    -0.534 OA 
BRANCH  16  18
HETATM   18  CA  UNL     1     -12.528  11.365  70.002  1.00  0.00    -0.154 C  
HETATM   19  H2  UNL     1     -12.109  13.421  69.975  1.00  0.00     0.000 HD 
HETATM   20  N   UNL     1     -11.987  12.617  70.591  1.00  0.00    -0.519 NA 
HETATM   21  H1  UNL     1     -12.411  12.762  71.508  1.00  0.00     0.000 HD 
BRANCH  18  22
HETATM   22  C   UNL     1     -12.233  10.155  70.864  1.00  0.00    -0.455 C  
HETATM   23  C   UNL     1     -10.993   9.792  71.262  1.00  0.00    -0.331 C  
HETATM   24  C   UNL     1     -10.691   8.562  72.070  1.00  0.00    -0.410 C  
HETATM   25  C   UNL     1     -11.888   7.690  72.302  1.00  0.00    -0.354 C  
HETATM   26  C   UNL     1     -13.130   8.042  71.936  1.00  0.00    -0.336 C  
HETATM   27  C   UNL     1     -13.453   9.342  71.254  1.00  0.00    -0.314 C  
ENDBRANCH  18  22
ENDBRANCH  16  18
ENDBRANCH  13  14
TORSDOF 3
ENDMDL
MODEL      110
REMARK 921   NORMALIZED FREE ENERGY PREDICTED BY IDOCK:   -4.57 KCAL/MOL
REMARK 922        TOTAL FREE ENERGY PREDICTED BY IDOCK:   -6.03 KCAL/MOL
REMARK 923 INTER-LIGAND FREE ENERGY PREDICTED BY IDOCK:   -5.66 KCAL/MOL
REMARK 924 INTRA-LIGAND FREE ENERGY PREDICTED BY IDOCK:   -0.37 KCAL/MOL
REMARK 927      BINDING AFFINITY PREDICTED BY RF-SCORE:    0.00 PKD
ROOT
HETATM    1  C   UNL     1     -11.050   8.285  70.207  1.00  0.00    -0.219 C  
HETATM    2  S   UNL     1     -10.649   7.847  68.499  1.00  0.00    -0.042 SA 
HETATM    3  C   UNL     1     -10.822   6.077  68.791  1.00  0.00    -0.322 C  
HETATM    4  C   UNL     1     -10.090   5.573  70.019  1.00  0.00    -0.311 C  
HETATM    5  C   UNL     1      -9.729   4.107  69.879  1.00  0.00    -0.280 C  
HETATM    6  CA  UNL     1      -9.753   6.339  71.098  1.00  0.00    -0.175 C  
HETATM    7  N   UNL     1     -10.087   7.665  71.100  1.00  0.00    -0.185 N  
HETATM    8  C   UNL     1      -8.991   5.711  72.257  1.00  0.00    -0.139 C  
HETATM    9  C   UNL     1      -9.743   8.796  71.754  1.00  0.00    -0.310 C  
HETATM   10  O   UNL     1      -8.753   6.492  73.329  1.00  0.00    -0.124 OA 
HETATM   11  OXT UNL     1      -8.663   4.534  72.297  1.00  0.00    -0.115 OA 
HETATM   12  O   UNL     1      -9.034   8.937  72.722  1.00  0.00    -0.305 OA 
HETATM   13  CA  UNL     1     -10.509   9.670  70.698  1.00  0.00    -0.312 C  
ENDROOT
BRANCH  13  14
HETATM   14  N   UNL     1      -9.660  10.397  69.731  1.00  0.00    -0.413 N  
HETATM   15  H   UNL     1      -8.677  10.132  69.676  1.00  0.00     0.000 HD 
HETATM   16  C   UNL     1     -10.094  11.405  68.897  1.00  0.00    -0.150 C  
HETATM   17  O   UNL     1     -11.260  11.772  68.833  1.00  0.00    -0.216 OA 
BRANCH  16  18
HETATM   18  CA  UNL     1      -8.930  12.043  68.079  1.00  0.00    -0.187 C  
HETATM   19  H2  UNL     1      -7.464  11.105  69.252  1.00  0.00     0.000 HD 
HETATM   20  N   UNL     1      -7.696  12.036  68.908  1.00  0.00    -0.306 NA 
HETATM   21  H1  UNL     1      -6.935  12.453  68.372  1.00  0.00     0.000 HD 
BRANCH  18  22
HETATM   22  C   UNL     1      -9.338  13.445  67.677  1.00  0.00    -0.217 C  
HETATM   23  C   UNL     1      -9.168  14.537  68.455  1.00  0.00    -0.196 C  
HETATM   24  C   UNL     1      -9.623  15.920  68.083  1.00  0.00    -0.208 C  
HETATM   25  C   UNL     1     -10.403  15.969  66.804  1.00  0.00    -0.300 C  
HETATM   26  C   UNL     1     -10.563  14.902  66.005  1.00  0.00    -0.321 C  
HETATM   27  C   UNL     1      -9.985  13.549  66.308  1.00  0.00    -0.302 C  
ENDBRANCH  18  22
ENDBRANCH  16  18
ENDBRANCH  13  14
TORSDOF 3
ENDMDL
MODEL      111
REMARK 921   NORMALIZED FREE ENERGY PREDICTED BY IDOCK:   -4.53 KCAL/MOL
REMARK 922        TOTAL FREE ENERGY PREDICTED BY IDOCK:   -5.98 KCAL/MOL
REMARK 923 INTER-LIGAND FREE ENERGY PREDICTED BY IDOCK:   -5.30 KCAL/MOL
REMARK 924 INTRA-LIGAND FREE ENERGY PREDICTED BY IDOCK:   -0.68 KCAL/MOL
REMARK 927      BINDING AFFINITY PREDICTED BY RF-SCORE:    0.00 PKD
ROOT
HETATM    1  C   UNL     1      -9.076   8.326  68.642  1.00  0.00    -0.140 C  
HETATM    2  S   UNL     1      -8.283   7.829  70.189  1.00  0.00    -0.125 SA 
HETATM    3  C   UNL     1      -6.764   7.300  69.374  1.00  0.00    -0.049 C  
HETATM    4  C   UNL     1      -6.981   6.402  68.172  1.00  0.00    -0.080 C  
HETATM    5  C   UNL     1      -5.780   5.508  67.932  1.00  0.00    -0.013 C  
HETATM    6  CA  UNL     1      -8.122   6.359  67.423  1.00  0.00    -0.116 C  
HETATM    7  N   UNL     1      -9.165   7.177  67.757  1.00  0.00    -0.126 N  
HETATM    8  C   UNL     1      -8.218   5.387  66.256  1.00  0.00    -0.110 C  
HETATM    9  C   UNL     1     -10.491   7.279  67.517  1.00  0.00    -0.266 C  
HETATM   10  O   UNL     1      -9.334   5.442  65.502  1.00  0.00    -0.136 OA 
HETATM   11  OXT UNL     1      -7.317   4.631  65.924  1.00  0.00    -0.075 OA 
HETATM   12  O   UNL     1     -11.181   6.656  66.746  1.00  0.00    -0.333 OA 
HETATM   13  CA  UNL     1     -10.641   8.348  68.658  1.00  0.00    -0.113 C  
ENDROOT
BRANCH  13  14
HETATM   14  N   UNL     1     -11.268   7.867  69.907  1.00  0.00    -0.444 N  
HETATM   15  H   UNL     1     -11.385   6.860  70.017  1.00  0.00     0.000 HD 
HETATM   16  C   UNL     1     -11.708   8.673  70.934  1.00  0.00    -0.252 C  
HETATM   17  O   UNL     1     -11.574   9.890  70.941  1.00  0.00    -0.313 OA 
BRANCH  16  18
HETATM   18  CA  UNL     1     -12.423   7.867  72.061  1.00  0.00    -0.304 C  
HETATM   19  H2  UNL     1     -13.746   9.442  72.480  1.00  0.00     0.000 HD 
HETATM   20  N   UNL     1     -13.109   8.818  72.975  1.00  0.00    -0.785 NA 
HETATM   21  H1  UNL     1     -13.577   8.290  73.712  1.00  0.00     0.000 HD 
BRANCH  18  22
HETATM   22  C   UNL     1     -11.389   7.029  72.783  1.00  0.00    -0.256 C  
HETATM   23  C   UNL     1     -10.280   7.532  73.369  1.00  0.00    -0.399 C  
HETATM   24  C   UNL     1      -9.223   6.698  74.036  1.00  0.00    -0.200 C  
HETATM   25  C   UNL     1      -9.445   5.223  73.891  1.00  0.00    -0.134 C  
HETATM   26  C   UNL     1     -10.549   4.703  73.334  1.00  0.00    -0.293 C  
HETATM   27  C   UNL     1     -11.675   5.539  72.794  1.00  0.00    -0.240 C  
ENDBRANCH  18  22
ENDBRANCH  16  18
ENDBRANCH  13  14
TORSDOF 3
ENDMDL
MODEL      112
REMARK 921   NORMALIZED FREE ENERGY PREDICTED BY IDOCK:   -4.53 KCAL/MOL
REMARK 922        TOTAL FREE ENERGY PREDICTED BY IDOCK:   -5.98 KCAL/MOL
REMARK 923 INTER-LIGAND FREE ENERGY PREDICTED BY IDOCK:   -5.83 KCAL/MOL
REMARK 924 INTRA-LIGAND FREE ENERGY PREDICTED BY IDOCK:   -0.15 KCAL/MOL
REMARK 927      BINDING AFFINITY PREDICTED BY RF-SCORE:    0.00 PKD
ROOT
HETATM    1  C   UNL     1      -9.241   9.734  69.597  1.00  0.00    -0.223 C  
HETATM    2  S   UNL     1     -10.674  10.310  70.537  1.00  0.00    -0.006 SA 
HETATM    3  C   UNL     1     -10.716   8.849  71.591  1.00  0.00    -0.347 C  
HETATM    4  C   UNL     1     -10.632   7.535  70.841  1.00  0.00    -0.227 C  
HETATM    5  C   UNL     1     -11.286   6.414  71.623  1.00  0.00    -0.339 C  
HETATM    6  CA  UNL     1     -10.084   7.377  69.600  1.00  0.00    -0.186 C  
HETATM    7  N   UNL     1      -9.563   8.467  68.961  1.00  0.00    -0.165 N  
HETATM    8  C   UNL     1     -10.090   6.002  68.945  1.00  0.00    -0.176 C  
HETATM    9  C   UNL     1      -9.205   8.836  67.711  1.00  0.00    -0.134 C  
HETATM   10  O   UNL     1      -9.467   5.886  67.756  1.00  0.00    -0.113 OA 
HETATM   11  OXT UNL     1     -10.552   5.000  69.473  1.00  0.00    -0.182 OA 
HETATM   12  O   UNL     1      -9.135   8.169  66.706  1.00  0.00    -0.142 OA 
HETATM   13  CA  UNL     1      -9.084  10.335  68.161  1.00  0.00    -0.136 C  
ENDROOT
BRANCH  13  14
HETATM   14  N   UNL     1     -10.180  11.226  67.724  1.00  0.00    -0.177 N  
HETATM   15  H   UNL     1     -10.633  11.798  68.436  1.00  0.00     0.000 HD 
HETATM   16  C   UNL     1     -10.638  11.342  66.429  1.00  0.00    -0.263 C  
HETATM   17  O   UNL     1     -10.139  10.749  65.482  1.00  0.00    -0.248 OA 
BRANCH  16  18
HETATM   18  CA  UNL     1     -11.877  12.282  66.317  1.00  0.00    -0.317 C  
HETATM   19  H2  UNL     1     -12.566  11.322  64.582  1.00  0.00     0.000 HD 
HETATM   20  N   UNL     1     -12.370  12.266  64.915  1.00  0.00    -0.477 NA 
HETATM   21  H1  UNL     1     -13.180  12.881  64.842  1.00  0.00     0.000 HD 
BRANCH  18  22
HETATM   22  C   UNL     1     -11.469  13.671  66.762  1.00  0.00    -0.370 C  
HETATM   23  C   UNL     1     -11.722  14.180  67.988  1.00  0.00    -0.394 C  
HETATM   24  C   UNL     1     -11.369  15.577  68.413  1.00  0.00    -0.357 C  
HETATM   25  C   UNL     1     -10.809  16.416  67.304  1.00  0.00    -0.194 C  
HETATM   26  C   UNL     1     -10.528  15.925  66.087  1.00  0.00    -0.336 C  
HETATM   27  C   UNL     1     -10.748  14.488  65.705  1.00  0.00    -0.320 C  
ENDBRANCH  18  22
ENDBRANCH  16  18
ENDBRANCH  13  14
TORSDOF 3
ENDMDL
MODEL      113
REMARK 921   NORMALIZED FREE ENERGY PREDICTED BY IDOCK:   -4.52 KCAL/MOL
REMARK 922        TOTAL FREE ENERGY PREDICTED BY IDOCK:   -5.98 KCAL/MOL
REMARK 923 INTER-LIGAND FREE ENERGY PREDICTED BY IDOCK:   -5.56 KCAL/MOL
REMARK 924 INTRA-LIGAND FREE ENERGY PREDICTED BY IDOCK:   -0.42 KCAL/MOL
REMARK 927      BINDING AFFINITY PREDICTED BY RF-SCORE:    0.00 PKD
ROOT
HETATM    1  C   UNL     1      -9.143   8.221  67.524  1.00  0.00    -0.137 C  
HETATM    2  S   UNL     1      -7.645   9.195  67.241  1.00  0.00    -0.088 SA 
HETATM    3  C   UNL     1      -6.545   7.869  67.770  1.00  0.00    -0.060 C  
HETATM    4  C   UNL     1      -6.933   7.222  69.085  1.00  0.00    -0.074 C  
HETATM    5  C   UNL     1      -5.727   6.622  69.778  1.00  0.00    -0.015 C  
HETATM    6  CA  UNL     1      -8.194   7.215  69.610  1.00  0.00    -0.131 C  
HETATM    7  N   UNL     1      -9.203   7.828  68.921  1.00  0.00    -0.140 N  
HETATM    8  C   UNL     1      -8.442   6.551  70.957  1.00  0.00    -0.127 C  
HETATM    9  C   UNL     1     -10.449   8.297  69.152  1.00  0.00    -0.206 C  
HETATM   10  O   UNL     1      -9.717   6.503  71.392  1.00  0.00    -0.172 OA 
HETATM   11  OXT UNL     1      -7.572   5.998  71.614  1.00  0.00    -0.096 OA 
HETATM   12  O   UNL     1     -11.143   8.180  70.134  1.00  0.00    -0.250 OA 
HETATM   13  CA  UNL     1     -10.451   9.043  67.770  1.00  0.00    -0.245 C  
ENDROOT
BRANCH  13  14
HETATM   14  N   UNL     1     -10.275  10.510  67.834  1.00  0.00    -0.175 N  
HETATM   15  H   UNL     1      -9.440  10.902  67.400  1.00  0.00     0.000 HD 
HETATM   16  C   UNL     1     -11.151  11.387  68.435  1.00  0.00    -0.242 C  
HETATM   17  O   UNL     1     -12.211  11.042  68.940  1.00  0.00    -0.519 OA 
BRANCH  16  18
HETATM   18  CA  UNL     1     -10.623  12.854  68.428  1.00  0.00    -0.253 C  
HETATM   19  H2  UNL     1     -11.186  13.167  70.426  1.00  0.00     0.000 HD 
HETATM   20  N   UNL     1     -11.294  13.614  69.516  1.00  0.00    -0.400 NA 
HETATM   21  H1  UNL     1     -10.948  14.574  69.511  1.00  0.00     0.000 HD 
BRANCH  18  22
HETATM   22  C   UNL     1     -10.893  13.456  67.064  1.00  0.00    -0.280 C  
HETATM   23  C   UNL     1      -9.948  14.036  66.291  1.00  0.00    -0.317 C  
HETATM   24  C   UNL     1     -10.223  14.684  64.963  1.00  0.00    -0.395 C  
HETATM   25  C   UNL     1     -11.679  14.740  64.616  1.00  0.00    -0.426 C  
HETATM   26  C   UNL     1     -12.630  14.151  65.356  1.00  0.00    -0.485 C  
HETATM   27  C   UNL     1     -12.339  13.379  66.612  1.00  0.00    -0.324 C  
ENDBRANCH  18  22
ENDBRANCH  16  18
ENDBRANCH  13  14
TORSDOF 3
ENDMDL
MODEL      114
REMARK 921   NORMALIZED FREE ENERGY PREDICTED BY IDOCK:   -4.52 KCAL/MOL
REMARK 922        TOTAL FREE ENERGY PREDICTED BY IDOCK:   -5.97 KCAL/MOL
REMARK 923 INTER-LIGAND FREE ENERGY PREDICTED BY IDOCK:   -5.59 KCAL/MOL
REMARK 924 INTRA-LIGAND FREE ENERGY PREDICTED BY IDOCK:   -0.37 KCAL/MOL
REMARK 927      BINDING AFFINITY PREDICTED BY RF-SCORE:    0.00 PKD
ROOT
HETATM    1  C   UNL     1      -8.913  10.631  65.150  1.00  0.00    -0.198 C  
HETATM    2  S   UNL     1      -9.361  10.138  63.469  1.00  0.00    -0.258 SA 
HETATM    3  C   UNL     1     -10.003  11.767  63.039  1.00  0.00    -0.239 C  
HETATM    4  C   UNL     1     -10.955  12.353  64.064  1.00  0.00    -0.442 C  
HETATM    5  C   UNL     1     -11.915  13.335  63.422  1.00  0.00    -0.491 C  
HETATM    6  CA  UNL     1     -10.986  12.014  65.386  1.00  0.00    -0.300 C  
HETATM    7  N   UNL     1     -10.103  11.080  65.852  1.00  0.00    -0.240 N  
HETATM    8  C   UNL     1     -12.014  12.661  66.304  1.00  0.00    -0.374 C  
HETATM    9  C   UNL     1      -9.953  10.273  66.925  1.00  0.00    -0.208 C  
HETATM   10  O   UNL     1     -11.949  12.350  67.613  1.00  0.00    -0.454 OA 
HETATM   11  OXT UNL     1     -12.828  13.494  65.932  1.00  0.00    -0.375 OA 
HETATM   12  O   UNL     1     -10.585  10.240  67.955  1.00  0.00    -0.203 OA 
HETATM   13  CA  UNL     1      -8.818   9.470  66.196  1.00  0.00    -0.152 C  
ENDROOT
BRANCH  13  14
HETATM   14  N   UNL     1      -9.201   8.133  65.694  1.00  0.00    -0.412 N  
HETATM   15  H   UNL     1      -9.529   8.069  64.730  1.00  0.00     0.000 HD 
HETATM   16  C   UNL     1      -9.148   6.967  66.426  1.00  0.00    -0.160 C  
HETATM   17  O   UNL     1      -8.722   6.909  67.572  1.00  0.00    -0.120 OA 
BRANCH  16  18
HETATM   18  CA  UNL     1      -9.725   5.747  65.646  1.00  0.00     0.235 C  
HETATM   19  H2  UNL     1     -11.689   6.162  66.259  1.00  0.00     0.000 HD 
HETATM   20  N   UNL     1     -11.040   5.376  66.232  1.00  0.00    -0.743 NA 
HETATM   21  H1  UNL     1     -11.416   4.577  65.721  1.00  0.00     0.000 HD 
BRANCH  18  22
HETATM   22  C   UNL     1      -8.726   4.611  65.725  1.00  0.00    -0.124 C  
HETATM   23  C   UNL     1      -8.596   3.787  66.788  1.00  0.00    -0.108 C  
HETATM   24  C   UNL     1      -7.569   2.696  66.892  1.00  0.00    -0.070 C  
HETATM   25  C   UNL     1      -6.601   2.674  65.747  1.00  0.00    -0.032 C  
HETATM   26  C   UNL     1      -6.725   3.467  64.672  1.00  0.00    -0.040 C  
HETATM   27  C   UNL     1      -7.839   4.461  64.502  1.00  0.00    -0.085 C  
ENDBRANCH  18  22
ENDBRANCH  16  18
ENDBRANCH  13  14
TORSDOF 3
ENDMDL
MODEL      115
REMARK 921   NORMALIZED FREE ENERGY PREDICTED BY IDOCK:   -4.51 KCAL/MOL
REMARK 922        TOTAL FREE ENERGY PREDICTED BY IDOCK:   -5.96 KCAL/MOL
REMARK 923 INTER-LIGAND FREE ENERGY PREDICTED BY IDOCK:   -5.44 KCAL/MOL
REMARK 924 INTRA-LIGAND FREE ENERGY PREDICTED BY IDOCK:   -0.51 KCAL/MOL
REMARK 927      BINDING AFFINITY PREDICTED BY RF-SCORE:    0.00 PKD
ROOT
HETATM    1  C   UNL     1      -9.655  13.610  68.176  1.00  0.00    -0.221 C  
HETATM    2  S   UNL     1     -10.239  13.666  66.466  1.00  0.00    -0.290 SA 
HETATM    3  C   UNL     1      -9.672  11.995  66.097  1.00  0.00    -0.238 C  
HETATM    4  C   UNL     1      -8.246  11.710  66.527  1.00  0.00    -0.101 C  
HETATM    5  C   UNL     1      -7.626  10.617  65.680  1.00  0.00    -0.100 C  
HETATM    6  CA  UNL     1      -7.580  12.377  67.515  1.00  0.00    -0.155 C  
HETATM    7  N   UNL     1      -8.221  13.381  68.186  1.00  0.00    -0.152 N  
HETATM    8  C   UNL     1      -6.137  12.008  67.829  1.00  0.00    -0.081 C  
HETATM    9  C   UNL     1      -7.910  14.433  68.976  1.00  0.00    -0.077 C  
HETATM   10  O   UNL     1      -5.553  12.642  68.865  1.00  0.00    -0.062 OA 
HETATM   11  OXT UNL     1      -5.520  11.125  67.251  1.00  0.00    -0.043 OA 
HETATM   12  O   UNL     1      -6.846  14.741  69.459  1.00  0.00    -0.146 OA 
HETATM   13  CA  UNL     1      -9.368  14.998  68.841  1.00  0.00    -0.208 C  
ENDROOT
BRANCH  13  14
HETATM   14  N   UNL     1      -9.521  16.170  67.952  1.00  0.00    -0.213 N  
HETATM   15  H   UNL     1      -9.071  16.128  67.038  1.00  0.00     0.000 HD 
HETATM   16  C   UNL     1     -10.223  17.313  68.263  1.00  0.00    -0.348 C  
HETATM   17  O   UNL     1     -10.850  17.458  69.305  1.00  0.00    -0.117 OA 
BRANCH  16  18
HETATM   18  CA  UNL     1     -10.100  18.407  67.159  1.00  0.00    -0.353 C  
HETATM   19  H2  UNL     1     -11.025  17.192  65.719  1.00  0.00     0.000 HD 
HETATM   20  N   UNL     1     -10.183  17.757  65.824  1.00  0.00    -0.600 NA 
HETATM   21  H1  UNL     1     -10.102  18.473  65.102  1.00  0.00     0.000 HD 
BRANCH  18  22
HETATM   22  C   UNL     1      -8.790  19.142  67.354  1.00  0.00    -0.324 C  
HETATM   23  C   UNL     1      -8.236  19.398  68.560  1.00  0.00    -0.392 C  
HETATM   24  C   UNL     1      -6.966  20.175  68.759  1.00  0.00    -0.255 C  
HETATM   25  C   UNL     1      -6.416  20.758  67.492  1.00  0.00    -0.370 C  
HETATM   26  C   UNL     1      -6.936  20.497  66.283  1.00  0.00    -0.273 C  
HETATM   27  C   UNL     1      -8.124  19.601  66.070  1.00  0.00    -0.322 C  
ENDBRANCH  18  22
ENDBRANCH  16  18
ENDBRANCH  13  14
TORSDOF 3
ENDMDL
MODEL      116
REMARK 921   NORMALIZED FREE ENERGY PREDICTED BY IDOCK:   -4.50 KCAL/MOL
REMARK 922        TOTAL FREE ENERGY PREDICTED BY IDOCK:   -5.95 KCAL/MOL
REMARK 923 INTER-LIGAND FREE ENERGY PREDICTED BY IDOCK:   -5.53 KCAL/MOL
REMARK 924 INTRA-LIGAND FREE ENERGY PREDICTED BY IDOCK:   -0.42 KCAL/MOL
REMARK 927      BINDING AFFINITY PREDICTED BY RF-SCORE:    0.00 PKD
ROOT
HETATM    1  C   UNL     1     -12.253  12.170  69.500  1.00  0.00    -0.109 C  
HETATM    2  S   UNL     1     -12.315  11.159  70.998  1.00  0.00    -0.358 SA 
HETATM    3  C   UNL     1     -13.371  12.324  71.879  1.00  0.00    -0.329 C  
HETATM    4  C   UNL     1     -12.902  13.765  71.814  1.00  0.00    -0.415 C  
HETATM    5  C   UNL     1     -13.389  14.555  73.012  1.00  0.00    -0.510 C  
HETATM    6  CA  UNL     1     -12.106  14.284  70.833  1.00  0.00    -0.347 C  
HETATM    7  N   UNL     1     -11.684  13.468  69.820  1.00  0.00    -0.302 N  
HETATM    8  C   UNL     1     -11.684  15.745  70.903  1.00  0.00    -0.406 C  
HETATM    9  C   UNL     1     -10.730  13.450  68.863  1.00  0.00    -0.190 C  
HETATM   10  O   UNL     1     -10.965  16.226  69.870  1.00  0.00    -0.337 OA 
HETATM   11  OXT UNL     1     -12.028  16.510  71.792  1.00  0.00    -0.372 OA 
HETATM   12  O   UNL     1      -9.963  14.322  68.528  1.00  0.00    -0.226 OA 
HETATM   13  CA  UNL     1     -11.016  11.934  68.571  1.00  0.00    -0.235 C  
ENDROOT
BRANCH  13  14
HETATM   14  N   UNL     1     -10.010  10.982  69.088  1.00  0.00    -0.366 N  
HETATM   15  H   UNL     1     -10.272  10.410  69.890  1.00  0.00     0.000 HD 
HETATM   16  C   UNL     1      -8.745  10.807  68.569  1.00  0.00    -0.149 C  
HETATM   17  O   UNL     1      -8.336  11.395  67.577  1.00  0.00    -0.130 OA 
BRANCH  16  18
HETATM   18  CA  UNL     1      -7.890   9.809  69.408  1.00  0.00    -0.114 C  
HETATM   19  H2  UNL     1      -6.539  11.307  69.989  1.00  0.00     0.000 HD 
HETATM   20  N   UNL     1      -6.525  10.371  69.583  1.00  0.00    -0.064 NA 
HETATM   21  H1  UNL     1      -5.966   9.718  70.132  1.00  0.00     0.000 HD 
BRANCH  18  22
HETATM   22  C   UNL     1      -7.867   8.475  68.690  1.00  0.00    -0.108 C  
HETATM   23  C   UNL     1      -8.879   8.008  67.925  1.00  0.00    -0.130 C  
HETATM   24  C   UNL     1      -8.884   6.662  67.259  1.00  0.00    -0.116 C  
HETATM   25  C   UNL     1      -7.701   5.813  67.617  1.00  0.00    -0.097 C  
HETATM   26  C   UNL     1      -6.675   6.265  68.355  1.00  0.00    -0.068 C  
HETATM   27  C   UNL     1      -6.604   7.662  68.903  1.00  0.00    -0.049 C  
ENDBRANCH  18  22
ENDBRANCH  16  18
ENDBRANCH  13  14
TORSDOF 3
ENDMDL
MODEL      117
REMARK 921   NORMALIZED FREE ENERGY PREDICTED BY IDOCK:   -4.45 KCAL/MOL
REMARK 922        TOTAL FREE ENERGY PREDICTED BY IDOCK:   -5.89 KCAL/MOL
REMARK 923 INTER-LIGAND FREE ENERGY PREDICTED BY IDOCK:   -5.45 KCAL/MOL
REMARK 924 INTRA-LIGAND FREE ENERGY PREDICTED BY IDOCK:   -0.44 KCAL/MOL
REMARK 927      BINDING AFFINITY PREDICTED BY RF-SCORE:    0.00 PKD
ROOT
HETATM    1  C   UNL     1      -8.363   5.885  70.078  1.00  0.00    -0.122 C  
HETATM    2  S   UNL     1      -7.173   7.245  70.103  1.00  0.00    -0.076 SA 
HETATM    3  C   UNL     1      -6.853   7.085  71.870  1.00  0.00    -0.060 C  
HETATM    4  C   UNL     1      -8.102   6.998  72.725  1.00  0.00    -0.116 C  
HETATM    5  C   UNL     1      -7.839   7.496  74.132  1.00  0.00    -0.184 C  
HETATM    6  CA  UNL     1      -9.323   6.574  72.285  1.00  0.00    -0.137 C  
HETATM    7  N   UNL     1      -9.461   6.191  70.979  1.00  0.00    -0.170 N  
HETATM    8  C   UNL     1     -10.505   6.562  73.244  1.00  0.00    -0.258 C  
HETATM    9  C   UNL     1     -10.449   5.989  70.080  1.00  0.00    -0.246 C  
HETATM   10  O   UNL     1     -11.667   6.059  72.780  1.00  0.00    -0.218 OA 
HETATM   11  OXT UNL     1     -10.433   6.903  74.416  1.00  0.00    -0.231 OA 
HETATM   12  O   UNL     1     -11.646   5.982  70.246  1.00  0.00    -0.294 OA 
HETATM   13  CA  UNL     1      -9.405   5.916  68.910  1.00  0.00    -0.126 C  
ENDROOT
BRANCH  13  14
HETATM   14  N   UNL     1      -9.340   7.105  68.035  1.00  0.00    -0.130 N  
HETATM   15  H   UNL     1      -8.479   7.651  68.046  1.00  0.00     0.000 HD 
HETATM   16  C   UNL     1     -10.352   7.534  67.204  1.00  0.00    -0.313 C  
HETATM   17  O   UNL     1     -11.409   6.933  67.063  1.00  0.00    -0.304 OA 
BRANCH  16  18
HETATM   18  CA  UNL     1     -10.013   8.882  66.497  1.00  0.00    -0.288 C  
HETATM   19  H2  UNL     1      -8.191   8.145  65.760  1.00  0.00     0.000 HD 
HETATM   20  N   UNL     1      -8.545   8.952  66.273  1.00  0.00    -0.127 NA 
HETATM   21  H1  UNL     1      -8.323   9.834  65.810  1.00  0.00     0.000 HD 
BRANCH  18  22
HETATM   22  C   UNL     1     -10.511  10.018  67.366  1.00  0.00    -0.316 C  
HETATM   23  C   UNL     1     -10.694   9.928  68.702  1.00  0.00    -0.256 C  
HETATM   24  C   UNL     1     -11.242  11.036  69.557  1.00  0.00    -0.343 C  
HETATM   25  C   UNL     1     -11.690  12.232  68.772  1.00  0.00    -0.390 C  
HETATM   26  C   UNL     1     -11.496  12.351  67.449  1.00  0.00    -0.418 C  
HETATM   27  C   UNL     1     -10.817  11.301  66.615  1.00  0.00    -0.325 C  
ENDBRANCH  18  22
ENDBRANCH  16  18
ENDBRANCH  13  14
TORSDOF 3
ENDMDL
MODEL      118
REMARK 921   NORMALIZED FREE ENERGY PREDICTED BY IDOCK:   -4.44 KCAL/MOL
REMARK 922        TOTAL FREE ENERGY PREDICTED BY IDOCK:   -5.87 KCAL/MOL
REMARK 923 INTER-LIGAND FREE ENERGY PREDICTED BY IDOCK:   -5.45 KCAL/MOL
REMARK 924 INTRA-LIGAND FREE ENERGY PREDICTED BY IDOCK:   -0.42 KCAL/MOL
REMARK 927      BINDING AFFINITY PREDICTED BY RF-SCORE:    0.00 PKD
ROOT
HETATM    1  C   UNL     1     -11.651  10.817  68.125  1.00  0.00    -0.197 C  
HETATM    2  S   UNL     1     -11.149  12.246  69.113  1.00  0.00    -0.164 SA 
HETATM    3  C   UNL     1     -11.953  13.431  68.019  1.00  0.00    -0.322 C  
HETATM    4  C   UNL     1     -11.645  13.232  66.548  1.00  0.00    -0.392 C  
HETATM    5  C   UNL     1     -11.781  14.530  65.779  1.00  0.00    -0.344 C  
HETATM    6  CA  UNL     1     -11.249  12.052  65.985  1.00  0.00    -0.335 C  
HETATM    7  N   UNL     1     -11.113  10.950  66.782  1.00  0.00    -0.195 N  
HETATM    8  C   UNL     1     -10.944  11.996  64.495  1.00  0.00    -0.318 C  
HETATM    9  C   UNL     1     -10.519   9.737  66.742  1.00  0.00    -0.189 C  
HETATM   10  O   UNL     1     -10.634  10.791  63.977  1.00  0.00    -0.332 OA 
HETATM   11  OXT UNL     1     -11.043  12.956  63.744  1.00  0.00    -0.413 OA 
HETATM   12  O   UNL     1      -9.971   9.181  65.819  1.00  0.00    -0.277 OA 
HETATM   13  CA  UNL     1     -10.763   9.538  68.280  1.00  0.00    -0.194 C  
ENDROOT
BRANCH  13  14
HETATM   14  N   UNL     1      -9.573   9.694  69.143  1.00  0.00    -0.166 N  
HETATM   15  H   UNL     1      -9.372  10.627  69.502  1.00  0.00     0.000 HD 
HETATM   16  C   UNL     1      -8.714   8.677  69.500  1.00  0.00    -0.139 C  
HETATM   17  O   UNL     1      -8.882   7.509  69.177  1.00  0.00    -0.136 OA 
BRANCH  16  18
HETATM   18  CA  UNL     1      -7.495   9.189  70.326  1.00  0.00    -0.099 C  
HETATM   19  H2  UNL     1      -6.182   8.967  68.704  1.00  0.00     0.000 HD 
HETATM   20  N   UNL     1      -6.242   8.706  69.688  1.00  0.00    -0.035 NA 
HETATM   21  H1  UNL     1      -5.445   9.041  70.229  1.00  0.00     0.000 HD 
BRANCH  18  22
HETATM   22  C   UNL     1      -7.637   8.692  71.750  1.00  0.00    -0.125 C  
HETATM   23  C   UNL     1      -8.822   8.461  72.359  1.00  0.00    -0.294 C  
HETATM   24  C   UNL     1      -8.966   8.023  73.788  1.00  0.00    -0.288 C  
HETATM   25  C   UNL     1      -7.667   7.978  74.534  1.00  0.00    -0.273 C  
HETATM   26  C   UNL     1      -6.479   8.180  73.945  1.00  0.00    -0.132 C  
HETATM   27  C   UNL     1      -6.324   8.478  72.480  1.00  0.00    -0.090 C  
ENDBRANCH  18  22
ENDBRANCH  16  18
ENDBRANCH  13  14
TORSDOF 3
ENDMDL
MODEL      119
REMARK 921   NORMALIZED FREE ENERGY PREDICTED BY IDOCK:   -4.43 KCAL/MOL
REMARK 922        TOTAL FREE ENERGY PREDICTED BY IDOCK:   -5.87 KCAL/MOL
REMARK 923 INTER-LIGAND FREE ENERGY PREDICTED BY IDOCK:   -5.48 KCAL/MOL
REMARK 924 INTRA-LIGAND FREE ENERGY PREDICTED BY IDOCK:   -0.39 KCAL/MOL
REMARK 927      BINDING AFFINITY PREDICTED BY RF-SCORE:    0.00 PKD
ROOT
HETATM    1  C   UNL     1      -8.944   8.793  71.439  1.00  0.00    -0.238 C  
HETATM    2  S   UNL     1      -8.561   8.786  69.671  1.00  0.00    -0.134 SA 
HETATM    3  C   UNL     1      -9.419  10.341  69.362  1.00  0.00    -0.206 C  
HETATM    4  C   UNL     1     -10.812  10.414  69.955  1.00  0.00    -0.348 C  
HETATM    5  C   UNL     1     -11.688  11.378  69.180  1.00  0.00    -0.410 C  
HETATM    6  CA  UNL     1     -11.248   9.677  71.019  1.00  0.00    -0.375 C  
HETATM    7  N   UNL     1     -10.386   8.800  71.616  1.00  0.00    -0.292 N  
HETATM    8  C   UNL     1     -12.685   9.827  71.498  1.00  0.00    -0.406 C  
HETATM    9  C   UNL     1     -10.437   7.732  72.443  1.00  0.00    -0.263 C  
HETATM   10  O   UNL     1     -13.040   9.137  72.600  1.00  0.00    -0.415 OA 
HETATM   11  OXT UNL     1     -13.495  10.591  70.992  1.00  0.00    -0.223 OA 
HETATM   12  O   UNL     1     -11.377   7.277  73.051  1.00  0.00    -0.285 OA 
HETATM   13  CA  UNL     1      -8.934   7.394  72.141  1.00  0.00    -0.131 C  
ENDROOT
BRANCH  13  14
HETATM   14  N   UNL     1      -8.705   6.239  71.248  1.00  0.00    -0.135 N  
HETATM   15  H   UNL     1      -8.258   6.420  70.350  1.00  0.00     0.000 HD 
HETATM   16  C   UNL     1      -9.048   4.935  71.535  1.00  0.00    -0.139 C  
HETATM   17  O   UNL     1      -9.538   4.586  72.601  1.00  0.00    -0.132 OA 
BRANCH  16  18
HETATM   18  CA  UNL     1      -8.774   3.971  70.341  1.00  0.00    -0.078 C  
HETATM   19  H2  UNL     1      -6.993   3.264  71.197  1.00  0.00     0.000 HD 
HETATM   20  N   UNL     1      -7.325   3.640  70.310  1.00  0.00    -0.041 NA 
HETATM   21  H1  UNL     1      -7.147   3.009  69.528  1.00  0.00     0.000 HD 
BRANCH  18  22
HETATM   22  C   UNL     1      -9.232   4.644  69.064  1.00  0.00    -0.183 C  
HETATM   23  C   UNL     1      -8.517   4.663  67.917  1.00  0.00    -0.103 C  
HETATM   24  C   UNL     1      -8.943   5.379  66.667  1.00  0.00    -0.116 C  
HETATM   25  C   UNL     1     -10.194   6.186  66.836  1.00  0.00    -0.263 C  
HETATM   26  C   UNL     1     -10.932   6.163  67.957  1.00  0.00    -0.399 C  
HETATM   27  C   UNL     1     -10.581   5.333  69.160  1.00  0.00    -0.167 C  
ENDBRANCH  18  22
ENDBRANCH  16  18
ENDBRANCH  13  14
TORSDOF 3
ENDMDL
MODEL      120
REMARK 921   NORMALIZED FREE ENERGY PREDICTED BY IDOCK:   -4.43 KCAL/MOL
REMARK 922        TOTAL FREE ENERGY PREDICTED BY IDOCK:   -5.87 KCAL/MOL
REMARK 923 INTER-LIGAND FREE ENERGY PREDICTED BY IDOCK:   -5.12 KCAL/MOL
REMARK 924 INTRA-LIGAND FREE ENERGY PREDICTED BY IDOCK:   -0.75 KCAL/MOL
REMARK 927      BINDING AFFINITY PREDICTED BY RF-SCORE:    0.00 PKD
ROOT
HETATM    1  C   UNL     1     -10.106   9.609  66.093  1.00  0.00    -0.258 C  
HETATM    2  S   UNL     1     -10.143  10.583  64.570  1.00  0.00    -0.275 SA 
HETATM    3  C   UNL     1      -8.801   9.653  63.807  1.00  0.00    -0.231 C  
HETATM    4  C   UNL     1      -7.587   9.463  64.696  1.00  0.00    -0.109 C  
HETATM    5  C   UNL     1      -6.328   9.278  63.873  1.00  0.00    -0.090 C  
HETATM    6  CA  UNL     1      -7.605   9.500  66.061  1.00  0.00    -0.100 C  
HETATM    7  N   UNL     1      -8.792   9.722  66.703  1.00  0.00    -0.137 N  
HETATM    8  C   UNL     1      -6.306   9.322  66.834  1.00  0.00    -0.066 C  
HETATM    9  C   UNL     1      -9.229  10.102  67.924  1.00  0.00    -0.138 C  
HETATM   10  O   UNL     1      -6.392   9.288  68.179  1.00  0.00    -0.053 OA 
HETATM   11  OXT UNL     1      -5.221   9.131  66.305  1.00  0.00    -0.035 OA 
HETATM   12  O   UNL     1      -8.605  10.257  68.947  1.00  0.00    -0.131 OA 
HETATM   13  CA  UNL     1     -10.680  10.317  67.366  1.00  0.00    -0.281 C  
ENDROOT
BRANCH  13  14
HETATM   14  N   UNL     1     -11.091  11.724  67.177  1.00  0.00    -0.279 N  
HETATM   15  H   UNL     1     -11.000  12.119  66.241  1.00  0.00     0.000 HD 
HETATM   16  C   UNL     1     -11.589  12.544  68.166  1.00  0.00    -0.340 C  
HETATM   17  O   UNL     1     -11.796  12.168  69.313  1.00  0.00    -0.304 OA 
BRANCH  16  18
HETATM   18  CA  UNL     1     -11.823  14.003  67.669  1.00  0.00    -0.395 C  
HETATM   19  H2  UNL     1     -13.602  13.483  66.684  1.00  0.00     0.000 HD 
HETATM   20  N   UNL     1     -12.728  13.973  66.491  1.00  0.00    -0.454 NA 
HETATM   21  H1  UNL     1     -12.881  14.927  66.166  1.00  0.00     0.000 HD 
BRANCH  18  22
HETATM   22  C   UNL     1     -10.479  14.619  67.339  1.00  0.00    -0.255 C  
HETATM   23  C   UNL     1      -9.431  14.656  68.192  1.00  0.00    -0.212 C  
HETATM   24  C   UNL     1      -8.116  15.316  67.888  1.00  0.00    -0.146 C  
HETATM   25  C   UNL     1      -8.104  16.050  66.581  1.00  0.00    -0.311 C  
HETATM   26  C   UNL     1      -9.123  16.007  65.710  1.00  0.00    -0.168 C  
HETATM   27  C   UNL     1     -10.385  15.227  65.952  1.00  0.00    -0.346 C  
ENDBRANCH  18  22
ENDBRANCH  16  18
ENDBRANCH  13  14
TORSDOF 3
ENDMDL
MODEL      121
REMARK 921   NORMALIZED FREE ENERGY PREDICTED BY IDOCK:   -4.38 KCAL/MOL
REMARK 922        TOTAL FREE ENERGY PREDICTED BY IDOCK:   -5.81 KCAL/MOL
REMARK 923 INTER-LIGAND FREE ENERGY PREDICTED BY IDOCK:   -5.47 KCAL/MOL
REMARK 924 INTRA-LIGAND FREE ENERGY PREDICTED BY IDOCK:   -0.34 KCAL/MOL
REMARK 927      BINDING AFFINITY PREDICTED BY RF-SCORE:    0.00 PKD
ROOT
HETATM    1  C   UNL     1      -9.176  12.668  68.306  1.00  0.00    -0.184 C  
HETATM    2  S   UNL     1      -7.496  12.755  67.644  1.00  0.00    -0.157 SA 
HETATM    3  C   UNL     1      -7.529  14.550  67.482  1.00  0.00    -0.194 C  
HETATM    4  C   UNL     1      -8.770  15.092  66.798  1.00  0.00    -0.307 C  
HETATM    5  C   UNL     1      -8.490  16.425  66.132  1.00  0.00    -0.329 C  
HETATM    6  CA  UNL     1      -9.974  14.451  66.741  1.00  0.00    -0.263 C  
HETATM    7  N   UNL     1     -10.103  13.228  67.337  1.00  0.00    -0.231 N  
HETATM    8  C   UNL     1     -11.134  15.097  65.996  1.00  0.00    -0.312 C  
HETATM    9  C   UNL     1     -10.939  12.166  67.304  1.00  0.00    -0.260 C  
HETATM   10  O   UNL     1     -12.321  14.460  66.038  1.00  0.00    -0.394 OA 
HETATM   11  OXT UNL     1     -11.064  16.184  65.441  1.00  0.00    -0.237 OA 
HETATM   12  O   UNL     1     -12.004  12.046  66.745  1.00  0.00    -0.616 OA 
HETATM   13  CA  UNL     1      -9.912  11.300  68.115  1.00  0.00    -0.181 C  
ENDROOT
BRANCH  13  14
HETATM   14  N   UNL     1      -9.171  10.286  67.334  1.00  0.00    -0.141 N  
HETATM   15  H   UNL     1      -9.094  10.433  66.328  1.00  0.00     0.000 HD 
HETATM   16  C   UNL     1      -8.576   9.160  67.859  1.00  0.00    -0.121 C  
HETATM   17  O   UNL     1      -8.554   8.905  69.056  1.00  0.00    -0.134 OA 
BRANCH  16  18
HETATM   18  CA  UNL     1      -7.971   8.237  66.758  1.00  0.00    -0.099 C  
HETATM   19  H2  UNL     1      -7.176   9.864  65.697  1.00  0.00     0.000 HD 
HETATM   20  N   UNL     1      -7.748   9.038  65.526  1.00  0.00    -0.089 NA 
HETATM   21  H1  UNL     1      -7.352   8.433  64.806  1.00  0.00     0.000 HD 
BRANCH  18  22
HETATM   22  C   UNL     1      -8.923   7.082  66.523  1.00  0.00    -0.165 C  
HETATM   23  C   UNL     1     -10.200   7.049  66.965  1.00  0.00    -0.330 C  
HETATM   24  C   UNL     1     -11.128   5.883  66.782  1.00  0.00    -0.157 C  
HETATM   25  C   UNL     1     -10.471   4.687  66.161  1.00  0.00    -0.281 C  
HETATM   26  C   UNL     1      -9.213   4.706  65.694  1.00  0.00    -0.151 C  
HETATM   27  C   UNL     1      -8.330   5.920  65.748  1.00  0.00    -0.140 C  
ENDBRANCH  18  22
ENDBRANCH  16  18
ENDBRANCH  13  14
TORSDOF 3
ENDMDL
MODEL      122
REMARK 921   NORMALIZED FREE ENERGY PREDICTED BY IDOCK:   -4.33 KCAL/MOL
REMARK 922        TOTAL FREE ENERGY PREDICTED BY IDOCK:   -5.75 KCAL/MOL
REMARK 923 INTER-LIGAND FREE ENERGY PREDICTED BY IDOCK:   -5.46 KCAL/MOL
REMARK 924 INTRA-LIGAND FREE ENERGY PREDICTED BY IDOCK:   -0.29 KCAL/MOL
REMARK 927      BINDING AFFINITY PREDICTED BY RF-SCORE:    0.00 PKD
ROOT
HETATM    1  C   UNL     1     -11.995  11.395  68.234  1.00  0.00    -0.164 C  
HETATM    2  S   UNL     1     -11.412  10.640  69.770  1.00  0.00    -0.327 SA 
HETATM    3  C   UNL     1     -12.349  11.768  70.816  1.00  0.00    -0.337 C  
HETATM    4  C   UNL     1     -12.200  13.232  70.448  1.00  0.00    -0.404 C  
HETATM    5  C   UNL     1     -12.440  14.126  71.648  1.00  0.00    -0.395 C  
HETATM    6  CA  UNL     1     -11.848  13.694  69.213  1.00  0.00    -0.346 C  
HETATM    7  N   UNL     1     -11.608  12.796  68.211  1.00  0.00    -0.312 N  
HETATM    8  C   UNL     1     -11.706  15.193  68.984  1.00  0.00    -0.335 C  
HETATM    9  C   UNL     1     -11.002  12.760  67.004  1.00  0.00    -0.263 C  
HETATM   10  O   UNL     1     -11.435  15.599  67.729  1.00  0.00    -0.307 OA 
HETATM   11  OXT UNL     1     -11.902  16.034  69.850  1.00  0.00    -0.315 OA 
HETATM   12  O   UNL     1     -10.549  13.667  66.346  1.00  0.00    -0.279 OA 
HETATM   13  CA  UNL     1     -11.074  11.192  66.985  1.00  0.00    -0.273 C  
ENDROOT
BRANCH  13  14
HETATM   14  N   UNL     1      -9.800  10.489  67.244  1.00  0.00    -0.172 N  
HETATM   15  H   UNL     1      -8.962  11.060  67.355  1.00  0.00     0.000 HD 
HETATM   16  C   UNL     1      -9.656   9.123  67.349  1.00  0.00    -0.151 C  
HETATM   17  O   UNL     1     -10.595   8.339  67.290  1.00  0.00    -0.301 OA 
BRANCH  16  18
HETATM   18  CA  UNL     1      -8.167   8.691  67.515  1.00  0.00    -0.110 C  
HETATM   19  H2  UNL     1      -8.183   9.086  69.576  1.00  0.00     0.000 HD 
HETATM   20  N   UNL     1      -7.621   9.306  68.754  1.00  0.00    -0.079 NA 
HETATM   21  H1  UNL     1      -6.647   9.023  68.862  1.00  0.00     0.000 HD 
BRANCH  18  22
HETATM   22  C   UNL     1      -7.402   9.123  66.281  1.00  0.00    -0.092 C  
HETATM   23  C   UNL     1      -7.552   8.562  65.060  1.00  0.00    -0.093 C  
HETATM   24  C   UNL     1      -6.754   8.950  63.848  1.00  0.00    -0.087 C  
HETATM   25  C   UNL     1      -5.673   9.946  64.137  1.00  0.00    -0.111 C  
HETATM   26  C   UNL     1      -5.521  10.532  65.335  1.00  0.00    -0.127 C  
HETATM   27  C   UNL     1      -6.412  10.250  66.511  1.00  0.00    -0.080 C  
ENDBRANCH  18  22
ENDBRANCH  16  18
ENDBRANCH  13  14
TORSDOF 3
ENDMDL
MODEL      123
REMARK 921   NORMALIZED FREE ENERGY PREDICTED BY IDOCK:   -4.31 KCAL/MOL
REMARK 922        TOTAL FREE ENERGY PREDICTED BY IDOCK:   -5.73 KCAL/MOL
REMARK 923 INTER-LIGAND FREE ENERGY PREDICTED BY IDOCK:   -5.15 KCAL/MOL
REMARK 924 INTRA-LIGAND FREE ENERGY PREDICTED BY IDOCK:   -0.58 KCAL/MOL
REMARK 927      BINDING AFFINITY PREDICTED BY RF-SCORE:    0.00 PKD
ROOT
HETATM    1  C   UNL     1      -8.293  11.009  68.261  1.00  0.00    -0.133 C  
HETATM    2  S   UNL     1      -7.101  12.028  69.162  1.00  0.00     0.024 SA 
HETATM    3  C   UNL     1      -6.229  10.608  69.847  1.00  0.00    -0.098 C  
HETATM    4  C   UNL     1      -7.132   9.561  70.469  1.00  0.00    -0.130 C  
HETATM    5  C   UNL     1      -6.401   8.772  71.537  1.00  0.00    -0.071 C  
HETATM    6  CA  UNL     1      -8.446   9.375  70.151  1.00  0.00    -0.205 C  
HETATM    7  N   UNL     1      -9.020  10.176  69.204  1.00  0.00    -0.165 N  
HETATM    8  C   UNL     1      -9.249   8.302  70.874  1.00  0.00    -0.155 C  
HETATM    9  C   UNL     1     -10.256  10.537  68.794  1.00  0.00    -0.190 C  
HETATM   10  O   UNL     1     -10.519   8.107  70.468  1.00  0.00    -0.207 OA 
HETATM   11  OXT UNL     1      -8.783   7.567  71.734  1.00  0.00    -0.114 OA 
HETATM   12  O   UNL     1     -11.333  10.098  69.126  1.00  0.00    -0.213 OA 
HETATM   13  CA  UNL     1      -9.657  11.697  67.923  1.00  0.00    -0.180 C  
ENDROOT
BRANCH  13  14
HETATM   14  N   UNL     1      -9.830  13.061  68.466  1.00  0.00    -0.358 N  
HETATM   15  H   UNL     1      -9.012  13.511  68.875  1.00  0.00     0.000 HD 
HETATM   16  C   UNL     1     -11.011  13.771  68.462  1.00  0.00    -0.262 C  
HETATM   17  O   UNL     1     -12.044  13.359  67.951  1.00  0.00    -0.338 OA 
BRANCH  16  18
HETATM   18  CA  UNL     1     -10.889  15.134  69.210  1.00  0.00    -0.255 C  
HETATM   19  H2  UNL     1     -12.849  15.011  69.951  1.00  0.00     0.000 HD 
HETATM   20  N   UNL     1     -12.252  15.674  69.456  1.00  0.00    -0.531 NA 
HETATM   21  H1  UNL     1     -12.172  16.565  69.945  1.00  0.00     0.000 HD 
BRANCH  18  22
HETATM   22  C   UNL     1     -10.050  16.071  68.366  1.00  0.00    -0.229 C  
HETATM   23  C   UNL     1      -8.855  16.574  68.751  1.00  0.00    -0.255 C  
HETATM   24  C   UNL     1      -8.048  17.548  67.941  1.00  0.00    -0.230 C  
HETATM   25  C   UNL     1      -8.746  18.018  66.701  1.00  0.00    -0.276 C  
HETATM   26  C   UNL     1      -9.919  17.515  66.288  1.00  0.00    -0.316 C  
HETATM   27  C   UNL     1     -10.660  16.435  67.026  1.00  0.00    -0.260 C  
ENDBRANCH  18  22
ENDBRANCH  16  18
ENDBRANCH  13  14
TORSDOF 3
ENDMDL
MODEL      124
REMARK 921   NORMALIZED FREE ENERGY PREDICTED BY IDOCK:   -4.29 KCAL/MOL
REMARK 922        TOTAL FREE ENERGY PREDICTED BY IDOCK:   -5.71 KCAL/MOL
REMARK 923 INTER-LIGAND FREE ENERGY PREDICTED BY IDOCK:   -5.36 KCAL/MOL
REMARK 924 INTRA-LIGAND FREE ENERGY PREDICTED BY IDOCK:   -0.34 KCAL/MOL
REMARK 927      BINDING AFFINITY PREDICTED BY RF-SCORE:    0.00 PKD
ROOT
HETATM    1  C   UNL     1      -9.372  16.950  66.157  1.00  0.00    -0.236 C  
HETATM    2  S   UNL     1     -10.904  17.234  67.074  1.00  0.00     0.060 SA 
HETATM    3  C   UNL     1     -10.676  19.021  67.128  1.00  0.00    -0.456 C  
HETATM    4  C   UNL     1      -9.294  19.461  67.573  1.00  0.00    -0.386 C  
HETATM    5  C   UNL     1      -9.334  20.841  68.199  1.00  0.00     0.155 C  
HETATM    6  CA  UNL     1      -8.163  18.704  67.472  1.00  0.00    -0.253 C  
HETATM    7  N   UNL     1      -8.249  17.451  66.932  1.00  0.00    -0.219 N  
HETATM    8  C   UNL     1      -6.840  19.257  67.984  1.00  0.00    -0.238 C  
HETATM    9  C   UNL     1      -7.523  16.312  66.891  1.00  0.00    -0.236 C  
HETATM   10  O   UNL     1      -5.742  18.501  67.788  1.00  0.00    -0.165 OA 
HETATM   11  OXT UNL     1      -6.715  20.367  68.482  1.00  0.00    -0.291 OA 
HETATM   12  O   UNL     1      -6.397  16.106  67.277  1.00  0.00    -0.166 OA 
HETATM   13  CA  UNL     1      -8.747  15.522  66.305  1.00  0.00    -0.248 C  
ENDROOT
BRANCH  13  14
HETATM   14  N   UNL     1      -9.441  14.622  67.250  1.00  0.00    -0.214 N  
HETATM   15  H   UNL     1      -9.087  14.581  68.206  1.00  0.00     0.000 HD 
HETATM   16  C   UNL     1     -10.528  13.834  66.941  1.00  0.00    -0.272 C  
HETATM   17  O   UNL     1     -11.074  13.838  65.845  1.00  0.00    -0.286 OA 
BRANCH  16  18
HETATM   18  CA  UNL     1     -10.956  12.917  68.127  1.00  0.00    -0.248 C  
HETATM   19  H2  UNL     1     -10.793  14.480  69.518  1.00  0.00     0.000 HD 
HETATM   20  N   UNL     1     -10.476  13.518  69.399  1.00  0.00    -0.421 NA 
HETATM   21  H1  UNL     1     -10.756  12.918  70.175  1.00  0.00     0.000 HD 
BRANCH  18  22
HETATM   22  C   UNL     1     -10.380  11.535  67.898  1.00  0.00    -0.203 C  
HETATM   23  C   UNL     1     -10.892  10.633  67.030  1.00  0.00    -0.298 C  
HETATM   24  C   UNL     1     -10.357   9.242  66.843  1.00  0.00    -0.316 C  
HETATM   25  C   UNL     1      -9.261   8.888  67.802  1.00  0.00    -0.153 C  
HETATM   26  C   UNL     1      -8.723   9.773  68.654  1.00  0.00    -0.122 C  
HETATM   27  C   UNL     1      -9.162  11.208  68.742  1.00  0.00    -0.151 C  
ENDBRANCH  18  22
ENDBRANCH  16  18
ENDBRANCH  13  14
TORSDOF 3
ENDMDL
MODEL      125
REMARK 921   NORMALIZED FREE ENERGY PREDICTED BY IDOCK:   -4.29 KCAL/MOL
REMARK 922        TOTAL FREE ENERGY PREDICTED BY IDOCK:   -5.70 KCAL/MOL
REMARK 923 INTER-LIGAND FREE ENERGY PREDICTED BY IDOCK:   -5.21 KCAL/MOL
REMARK 924 INTRA-LIGAND FREE ENERGY PREDICTED BY IDOCK:   -0.50 KCAL/MOL
REMARK 927      BINDING AFFINITY PREDICTED BY RF-SCORE:    0.00 PKD
ROOT
HETATM    1  C   UNL     1      -7.995   9.018  67.110  1.00  0.00    -0.102 C  
HETATM    2  S   UNL     1      -9.006   8.497  68.516  1.00  0.00    -0.139 SA 
HETATM    3  C   UNL     1      -8.327   6.828  68.534  1.00  0.00    -0.120 C  
HETATM    4  C   UNL     1      -8.298   6.151  67.177  1.00  0.00    -0.105 C  
HETATM    5  C   UNL     1      -8.344   4.642  67.316  1.00  0.00    -0.105 C  
HETATM    6  CA  UNL     1      -8.282   6.804  65.978  1.00  0.00    -0.129 C  
HETATM    7  N   UNL     1      -8.290   8.171  65.967  1.00  0.00    -0.123 N  
HETATM    8  C   UNL     1      -8.282   6.000  64.685  1.00  0.00    -0.108 C  
HETATM    9  C   UNL     1      -8.551   9.177  65.103  1.00  0.00    -0.176 C  
HETATM   10  O   UNL     1      -8.185   6.692  63.533  1.00  0.00    -0.046 OA 
HETATM   11  OXT UNL     1      -8.283   4.778  64.644  1.00  0.00    -0.102 OA 
HETATM   12  O   UNL     1      -8.765   9.130  63.914  1.00  0.00    -0.197 OA 
HETATM   13  CA  UNL     1      -8.556  10.219  66.277  1.00  0.00    -0.137 C  
ENDROOT
BRANCH  13  14
HETATM   14  N   UNL     1      -9.887  10.710  66.692  1.00  0.00    -0.194 N  
HETATM   15  H   UNL     1     -10.704  10.216  66.332  1.00  0.00     0.000 HD 
HETATM   16  C   UNL     1     -10.111  11.783  67.527  1.00  0.00    -0.192 C  
HETATM   17  O   UNL     1      -9.213  12.418  68.064  1.00  0.00    -0.190 OA 
BRANCH  16  18
HETATM   18  CA  UNL     1     -11.627  12.113  67.679  1.00  0.00    -0.343 C  
HETATM   19  H2  UNL     1     -11.558  13.569  66.169  1.00  0.00     0.000 HD 
HETATM   20  N   UNL     1     -11.882  13.471  67.131  1.00  0.00    -0.376 NA 
HETATM   21  H1  UNL     1     -12.874  13.687  67.231  1.00  0.00     0.000 HD 
BRANCH  18  22
HETATM   22  C   UNL     1     -11.996  12.013  69.145  1.00  0.00    -0.326 C  
HETATM   23  C   UNL     1     -12.299  10.855  69.774  1.00  0.00    -0.326 C  
HETATM   24  C   UNL     1     -12.720  10.760  71.213  1.00  0.00    -0.546 C  
HETATM   25  C   UNL     1     -12.896  12.093  71.874  1.00  0.00    -0.327 C  
HETATM   26  C   UNL     1     -12.579  13.252  71.277  1.00  0.00    -0.398 C  
HETATM   27  C   UNL     1     -12.020  13.338  69.884  1.00  0.00    -0.400 C  
ENDBRANCH  18  22
ENDBRANCH  16  18
ENDBRANCH  13  14
TORSDOF 3
ENDMDL
MODEL      126
REMARK 921   NORMALIZED FREE ENERGY PREDICTED BY IDOCK:   -4.24 KCAL/MOL
REMARK 922        TOTAL FREE ENERGY PREDICTED BY IDOCK:   -5.64 KCAL/MOL
REMARK 923 INTER-LIGAND FREE ENERGY PREDICTED BY IDOCK:   -5.22 KCAL/MOL
REMARK 924 INTRA-LIGAND FREE ENERGY PREDICTED BY IDOCK:   -0.42 KCAL/MOL
REMARK 927      BINDING AFFINITY PREDICTED BY RF-SCORE:    0.00 PKD
ROOT
HETATM    1  C   UNL     1      -9.175  11.579  68.230  1.00  0.00    -0.186 C  
HETATM    2  S   UNL     1      -9.447  11.757  66.451  1.00  0.00    -0.225 SA 
HETATM    3  C   UNL     1      -9.799  13.521  66.565  1.00  0.00    -0.291 C  
HETATM    4  C   UNL     1     -10.797  13.891  67.645  1.00  0.00    -0.264 C  
HETATM    5  C   UNL     1     -11.518  15.180  67.308  1.00  0.00    -0.284 C  
HETATM    6  CA  UNL     1     -11.056  13.143  68.758  1.00  0.00    -0.269 C  
HETATM    7  N   UNL     1     -10.380  11.969  68.941  1.00  0.00    -0.148 N  
HETATM    8  C   UNL     1     -12.107  13.617  69.753  1.00  0.00    -0.334 C  
HETATM    9  C   UNL     1     -10.490  10.839  69.674  1.00  0.00    -0.140 C  
HETATM   10  O   UNL     1     -12.266  12.884  70.873  1.00  0.00    -0.347 OA 
HETATM   11  OXT UNL     1     -12.742  14.654  69.629  1.00  0.00    -0.147 OA 
HETATM   12  O   UNL     1     -11.258  10.577  70.569  1.00  0.00    -0.314 OA 
HETATM   13  CA  UNL     1      -9.383  10.139  68.808  1.00  0.00    -0.168 C  
ENDROOT
BRANCH  13  14
HETATM   14  N   UNL     1      -9.867   9.132  67.841  1.00  0.00    -0.162 N  
HETATM   15  H   UNL     1     -10.602   9.418  67.193  1.00  0.00     0.000 HD 
HETATM   16  C   UNL     1      -9.404   7.838  67.745  1.00  0.00    -0.143 C  
HETATM   17  O   UNL     1      -8.489   7.397  68.429  1.00  0.00    -0.124 OA 
BRANCH  16  18
HETATM   18  CA  UNL     1     -10.197   6.997  66.699  1.00  0.00    -0.148 C  
HETATM   19  H2  UNL     1     -11.984   7.151  67.789  1.00  0.00     0.000 HD 
HETATM   20  N   UNL     1     -11.408   6.432  67.352  1.00  0.00    -0.718 NA 
HETATM   21  H1  UNL     1     -11.926   5.882  66.667  1.00  0.00     0.000 HD 
BRANCH  18  22
HETATM   22  C   UNL     1      -9.284   5.915  66.161  1.00  0.00    -0.164 C  
HETATM   23  C   UNL     1      -8.289   6.134  65.272  1.00  0.00    -0.144 C  
HETATM   24  C   UNL     1      -7.419   5.054  64.694  1.00  0.00    -0.075 C  
HETATM   25  C   UNL     1      -7.831   3.672  65.101  1.00  0.00    -0.086 C  
HETATM   26  C   UNL     1      -8.799   3.433  65.999  1.00  0.00    -0.136 C  
HETATM   27  C   UNL     1      -9.575   4.521  66.687  1.00  0.00    -0.203 C  
ENDBRANCH  18  22
ENDBRANCH  16  18
ENDBRANCH  13  14
TORSDOF 3
ENDMDL
MODEL      127
REMARK 921   NORMALIZED FREE ENERGY PREDICTED BY IDOCK:   -4.23 KCAL/MOL
REMARK 922        TOTAL FREE ENERGY PREDICTED BY IDOCK:   -5.64 KCAL/MOL
REMARK 923 INTER-LIGAND FREE ENERGY PREDICTED BY IDOCK:   -5.00 KCAL/MOL
REMARK 924 INTRA-LIGAND FREE ENERGY PREDICTED BY IDOCK:   -0.63 KCAL/MOL
REMARK 927      BINDING AFFINITY PREDICTED BY RF-SCORE:    0.00 PKD
ROOT
HETATM    1  C   UNL     1      -8.437   5.518  69.981  1.00  0.00    -0.120 C  
HETATM    2  S   UNL     1      -7.035   6.616  70.296  1.00  0.00    -0.068 SA 
HETATM    3  C   UNL     1      -7.441   6.823  72.040  1.00  0.00    -0.093 C  
HETATM    4  C   UNL     1      -8.895   7.160  72.307  1.00  0.00    -0.142 C  
HETATM    5  C   UNL     1      -9.051   7.921  73.608  1.00  0.00    -0.337 C  
HETATM    6  CA  UNL     1      -9.932   6.864  71.470  1.00  0.00    -0.177 C  
HETATM    7  N   UNL     1      -9.672   6.215  70.295  1.00  0.00    -0.163 N  
HETATM    8  C   UNL     1     -11.346   7.286  71.847  1.00  0.00    -0.254 C  
HETATM    9  C   UNL     1     -10.277   5.984  69.109  1.00  0.00    -0.204 C  
HETATM   10  O   UNL     1     -12.341   6.900  71.025  1.00  0.00    -0.381 OA 
HETATM   11  OXT UNL     1     -11.626   7.875  72.881  1.00  0.00    -0.383 OA 
HETATM   12  O   UNL     1     -11.410   6.225  68.765  1.00  0.00    -0.356 OA 
HETATM   13  CA  UNL     1      -8.931   5.455  68.497  1.00  0.00    -0.107 C  
ENDROOT
BRANCH  13  14
HETATM   14  N   UNL     1      -8.247   6.374  67.563  1.00  0.00    -0.117 N  
HETATM   15  H   UNL     1      -7.497   6.954  67.938  1.00  0.00     0.000 HD 
HETATM   16  C   UNL     1      -8.545   6.509  66.224  1.00  0.00    -0.141 C  
HETATM   17  O   UNL     1      -9.385   5.830  65.649  1.00  0.00    -0.098 OA 
BRANCH  16  18
HETATM   18  CA  UNL     1      -7.719   7.641  65.541  1.00  0.00    -0.101 C  
HETATM   19  H2  UNL     1      -6.088   7.360  66.832  1.00  0.00     0.000 HD 
HETATM   20  N   UNL     1      -6.677   8.118  66.489  1.00  0.00    -0.062 NA 
HETATM   21  H1  UNL     1      -6.137   8.859  66.042  1.00  0.00     0.000 HD 
BRANCH  18  22
HETATM   22  C   UNL     1      -8.668   8.749  65.134  1.00  0.00    -0.202 C  
HETATM   23  C   UNL     1      -8.768   9.239  63.878  1.00  0.00    -0.193 C  
HETATM   24  C   UNL     1      -9.667  10.376  63.483  1.00  0.00    -0.333 C  
HETATM   25  C   UNL     1     -10.369  11.014  64.644  1.00  0.00    -0.410 C  
HETATM   26  C   UNL     1     -10.302  10.531  65.893  1.00  0.00    -0.275 C  
HETATM   27  C   UNL     1      -9.515   9.305  66.264  1.00  0.00    -0.284 C  
ENDBRANCH  18  22
ENDBRANCH  16  18
ENDBRANCH  13  14
TORSDOF 3
ENDMDL
MODEL      128
REMARK 921   NORMALIZED FREE ENERGY PREDICTED BY IDOCK:   -4.23 KCAL/MOL
REMARK 922        TOTAL FREE ENERGY PREDICTED BY IDOCK:   -5.63 KCAL/MOL
REMARK 923 INTER-LIGAND FREE ENERGY PREDICTED BY IDOCK:   -5.06 KCAL/MOL
REMARK 924 INTRA-LIGAND FREE ENERGY PREDICTED BY IDOCK:   -0.57 KCAL/MOL
REMARK 927      BINDING AFFINITY PREDICTED BY RF-SCORE:    0.00 PKD
ROOT
HETATM    1  C   UNL     1     -10.843   6.694  69.570  1.00  0.00    -0.289 C  
HETATM    2  S   UNL     1     -11.064   6.692  67.776  1.00  0.00    -0.160 SA 
HETATM    3  C   UNL     1      -9.949   5.298  67.524  1.00  0.00    -0.171 C  
HETATM    4  C   UNL     1      -8.620   5.424  68.243  1.00  0.00    -0.096 C  
HETATM    5  C   UNL     1      -7.538   4.630  67.539  1.00  0.00    -0.078 C  
HETATM    6  CA  UNL     1      -8.401   6.189  69.353  1.00  0.00    -0.116 C  
HETATM    7  N   UNL     1      -9.440   6.905  69.881  1.00  0.00    -0.157 N  
HETATM    8  C   UNL     1      -7.007   6.248  69.962  1.00  0.00    -0.066 C  
HETATM    9  C   UNL     1      -9.631   7.943  70.725  1.00  0.00    -0.165 C  
HETATM   10  O   UNL     1      -6.864   6.954  71.101  1.00  0.00    -0.056 OA 
HETATM   11  OXT UNL     1      -6.046   5.634  69.521  1.00  0.00    -0.022 OA 
HETATM   12  O   UNL     1      -8.831   8.520  71.423  1.00  0.00    -0.161 OA 
HETATM   13  CA  UNL     1     -11.135   8.053  70.289  1.00  0.00    -0.224 C  
ENDROOT
BRANCH  13  14
HETATM   14  N   UNL     1     -11.461   9.185  69.396  1.00  0.00    -0.378 N  
HETATM   15  H   UNL     1     -11.536   8.989  68.398  1.00  0.00     0.000 HD 
HETATM   16  C   UNL     1     -11.673  10.483  69.806  1.00  0.00    -0.281 C  
HETATM   17  O   UNL     1     -11.665  10.829  70.980  1.00  0.00    -0.294 OA 
BRANCH  16  18
HETATM   18  CA  UNL     1     -11.887  11.459  68.609  1.00  0.00    -0.310 C  
HETATM   19  H2  UNL     1     -11.852   9.898  67.207  1.00  0.00     0.000 HD 
HETATM   20  N   UNL     1     -11.412  10.805  67.362  1.00  0.00    -0.460 NA 
HETATM   21  H1  UNL     1     -11.552  11.443  66.579  1.00  0.00     0.000 HD 
BRANCH  18  22
HETATM   22  C   UNL     1     -11.139  12.744  68.898  1.00  0.00    -0.310 C  
HETATM   23  C   UNL     1     -11.683  13.816  69.518  1.00  0.00    -0.380 C  
HETATM   24  C   UNL     1     -10.961  15.112  69.754  1.00  0.00    -0.293 C  
HETATM   25  C   UNL     1      -9.601  15.162  69.128  1.00  0.00    -0.232 C  
HETATM   26  C   UNL     1      -9.033  14.104  68.529  1.00  0.00    -0.174 C  
HETATM   27  C   UNL     1      -9.700  12.761  68.418  1.00  0.00    -0.186 C  
ENDBRANCH  18  22
ENDBRANCH  16  18
ENDBRANCH  13  14
TORSDOF 3
ENDMDL
MODEL      129
REMARK 921   NORMALIZED FREE ENERGY PREDICTED BY IDOCK:   -4.23 KCAL/MOL
REMARK 922        TOTAL FREE ENERGY PREDICTED BY IDOCK:   -5.63 KCAL/MOL
REMARK 923 INTER-LIGAND FREE ENERGY PREDICTED BY IDOCK:   -5.31 KCAL/MOL
REMARK 924 INTRA-LIGAND FREE ENERGY PREDICTED BY IDOCK:   -0.32 KCAL/MOL
REMARK 927      BINDING AFFINITY PREDICTED BY RF-SCORE:    0.00 PKD
ROOT
HETATM    1  C   UNL     1     -11.998  11.467  68.075  1.00  0.00    -0.104 C  
HETATM    2  S   UNL     1     -11.467  10.968  69.730  1.00  0.00    -0.330 SA 
HETATM    3  C   UNL     1     -12.317  12.335  70.541  1.00  0.00    -0.264 C  
HETATM    4  C   UNL     1     -12.063  13.691  69.910  1.00  0.00    -0.406 C  
HETATM    5  C   UNL     1     -12.234  14.806  70.922  1.00  0.00    -0.384 C  
HETATM    6  CA  UNL     1     -11.682  13.891  68.615  1.00  0.00    -0.361 C  
HETATM    7  N   UNL     1     -11.510  12.807  67.799  1.00  0.00    -0.304 N  
HETATM    8  C   UNL     1     -11.431  15.307  68.115  1.00  0.00    -0.346 C  
HETATM    9  C   UNL     1     -10.912  12.506  66.625  1.00  0.00    -0.266 C  
HETATM   10  O   UNL     1     -11.135  15.454  66.809  1.00  0.00    -0.312 OA 
HETATM   11  OXT UNL     1     -11.563  16.306  68.809  1.00  0.00    -0.342 OA 
HETATM   12  O   UNL     1     -10.396  13.241  65.816  1.00  0.00    -0.278 OA 
HETATM   13  CA  UNL     1     -11.098  10.971  66.895  1.00  0.00    -0.213 C  
ENDROOT
BRANCH  13  14
HETATM   14  N   UNL     1      -9.878  10.238  67.294  1.00  0.00    -0.176 N  
HETATM   15  H   UNL     1      -9.079  10.790  67.606  1.00  0.00     0.000 HD 
HETATM   16  C   UNL     1      -9.735   8.867  67.277  1.00  0.00    -0.181 C  
HETATM   17  O   UNL     1     -10.639   8.099  66.975  1.00  0.00    -0.329 OA 
BRANCH  16  18
HETATM   18  CA  UNL     1      -8.291   8.414  67.649  1.00  0.00    -0.130 C  
HETATM   19  H2  UNL     1      -7.600  10.392  67.776  1.00  0.00     0.000 HD 
HETATM   20  N   UNL     1      -7.342   9.513  67.329  1.00  0.00    -0.087 NA 
HETATM   21  H1  UNL     1      -6.397   9.216  67.572  1.00  0.00     0.000 HD 
BRANCH  18  22
HETATM   22  C   UNL     1      -7.973   7.146  66.883  1.00  0.00    -0.115 C  
HETATM   23  C   UNL     1      -8.313   5.905  67.295  1.00  0.00    -0.105 C  
HETATM   24  C   UNL     1      -7.950   4.643  66.566  1.00  0.00    -0.103 C  
HETATM   25  C   UNL     1      -7.058   4.871  65.384  1.00  0.00    -0.063 C  
HETATM   26  C   UNL     1      -6.727   6.094  64.944  1.00  0.00    -0.043 C  
HETATM   27  C   UNL     1      -7.209   7.363  65.590  1.00  0.00    -0.066 C  
ENDBRANCH  18  22
ENDBRANCH  16  18
ENDBRANCH  13  14
TORSDOF 3
ENDMDL
MODEL      130
REMARK 921   NORMALIZED FREE ENERGY PREDICTED BY IDOCK:   -4.22 KCAL/MOL
REMARK 922        TOTAL FREE ENERGY PREDICTED BY IDOCK:   -5.62 KCAL/MOL
REMARK 923 INTER-LIGAND FREE ENERGY PREDICTED BY IDOCK:   -5.59 KCAL/MOL
REMARK 924 INTRA-LIGAND FREE ENERGY PREDICTED BY IDOCK:   -0.03 KCAL/MOL
REMARK 927      BINDING AFFINITY PREDICTED BY RF-SCORE:    0.00 PKD
ROOT
HETATM    1  C   UNL     1      -9.418  12.071  68.544  1.00  0.00    -0.133 C  
HETATM    2  S   UNL     1     -10.118  13.597  67.874  1.00  0.00    -0.250 SA 
HETATM    3  C   UNL     1     -10.916  14.048  69.426  1.00  0.00    -0.155 C  
HETATM    4  C   UNL     1     -11.711  12.928  70.068  1.00  0.00    -0.284 C  
HETATM    5  C   UNL     1     -12.821  13.475  70.943  1.00  0.00    -0.298 C  
HETATM    6  CA  UNL     1     -11.495  11.596  69.857  1.00  0.00    -0.228 C  
HETATM    7  N   UNL     1     -10.494  11.213  69.009  1.00  0.00    -0.213 N  
HETATM    8  C   UNL     1     -12.387  10.573  70.545  1.00  0.00    -0.343 C  
HETATM    9  C   UNL     1     -10.117  10.116  68.316  1.00  0.00    -0.156 C  
HETATM   10  O   UNL     1     -12.082   9.273  70.365  1.00  0.00    -0.094 OA 
HETATM   11  OXT UNL     1     -13.300  10.867  71.305  1.00  0.00    -0.253 OA 
HETATM   12  O   UNL     1     -10.561   8.993  68.356  1.00  0.00    -0.207 OA 
HETATM   13  CA  UNL     1      -9.079  10.960  67.494  1.00  0.00    -0.140 C  
ENDROOT
BRANCH  13  14
HETATM   14  N   UNL     1      -9.464  11.268  66.101  1.00  0.00    -0.202 N  
HETATM   15  H   UNL     1      -9.861  12.189  65.915  1.00  0.00     0.000 HD 
HETATM   16  C   UNL     1      -9.329  10.408  65.033  1.00  0.00    -0.229 C  
HETATM   17  O   UNL     1      -8.817   9.300  65.120  1.00  0.00    -0.177 OA 
BRANCH  16  18
HETATM   18  CA  UNL     1      -9.931  10.991  63.718  1.00  0.00    -0.350 C  
HETATM   19  H2  UNL     1      -8.114  10.791  62.686  1.00  0.00     0.000 HD 
HETATM   20  N   UNL     1      -8.824  11.500  62.865  1.00  0.00    -0.596 NA 
HETATM   21  H1  UNL     1      -9.219  11.882  62.005  1.00  0.00     0.000 HD 
BRANCH  18  22
HETATM   22  C   UNL     1     -10.916  12.082  64.083  1.00  0.00    -0.418 C  
HETATM   23  C   UNL     1     -12.256  11.908  64.134  1.00  0.00    -0.382 C  
HETATM   24  C   UNL     1     -13.239  13.002  64.440  1.00  0.00     0.399 C  
HETATM   25  C   UNL     1     -12.608  14.355  64.569  1.00  0.00    -0.234 C  
HETATM   26  C   UNL     1     -11.280  14.546  64.545  1.00  0.00    -0.302 C  
HETATM   27  C   UNL     1     -10.287  13.430  64.382  1.00  0.00    -0.347 C  
ENDBRANCH  18  22
ENDBRANCH  16  18
ENDBRANCH  13  14
TORSDOF 3
ENDMDL
MODEL      131
REMARK 921   NORMALIZED FREE ENERGY PREDICTED BY IDOCK:   -4.21 KCAL/MOL
REMARK 922        TOTAL FREE ENERGY PREDICTED BY IDOCK:   -5.60 KCAL/MOL
REMARK 923 INTER-LIGAND FREE ENERGY PREDICTED BY IDOCK:   -5.05 KCAL/MOL
REMARK 924 INTRA-LIGAND FREE ENERGY PREDICTED BY IDOCK:   -0.56 KCAL/MOL
REMARK 927      BINDING AFFINITY PREDICTED BY RF-SCORE:    0.00 PKD
ROOT
HETATM    1  C   UNL     1     -10.778  10.062  67.165  1.00  0.00    -0.212 C  
HETATM    2  S   UNL     1     -10.312  11.013  68.631  1.00  0.00    -0.201 SA 
HETATM    3  C   UNL     1     -11.522  12.310  68.317  1.00  0.00    -0.315 C  
HETATM    4  C   UNL     1     -11.519  12.836  66.894  1.00  0.00    -0.396 C  
HETATM    5  C   UNL     1     -12.034  14.260  66.835  1.00  0.00    -0.467 C  
HETATM    6  CA  UNL     1     -11.069  12.144  65.806  1.00  0.00    -0.319 C  
HETATM    7  N   UNL     1     -10.580  10.879  65.981  1.00  0.00    -0.224 N  
HETATM    8  C   UNL     1     -11.096  12.801  64.434  1.00  0.00    -0.349 C  
HETATM    9  C   UNL     1      -9.818   9.985  65.312  1.00  0.00    -0.318 C  
HETATM   10  O   UNL     1     -10.715  12.047  63.384  1.00  0.00    -0.415 OA 
HETATM   11  OXT UNL     1     -11.516  13.932  64.230  1.00  0.00    -0.371 OA 
HETATM   12  O   UNL     1      -9.404  10.027  64.177  1.00  0.00    -0.262 OA 
HETATM   13  CA  UNL     1      -9.679   9.100  66.601  1.00  0.00    -0.223 C  
ENDROOT
BRANCH  13  14
HETATM   14  N   UNL     1      -8.370   9.165  67.285  1.00  0.00    -0.120 N  
HETATM   15  H   UNL     1      -8.358   9.502  68.247  1.00  0.00     0.000 HD 
HETATM   16  C   UNL     1      -7.165   8.805  66.723  1.00  0.00    -0.082 C  
HETATM   17  O   UNL     1      -7.059   8.336  65.597  1.00  0.00    -0.069 OA 
BRANCH  16  18
HETATM   18  CA  UNL     1      -5.957   9.095  67.666  1.00  0.00    -0.050 C  
HETATM   19  H2  UNL     1      -6.039   7.178  68.517  1.00  0.00     0.000 HD 
HETATM   20  N   UNL     1      -6.005   8.153  68.815  1.00  0.00    -0.042 NA 
HETATM   21  H1  UNL     1      -5.215   8.344  69.431  1.00  0.00     0.000 HD 
BRANCH  18  22
HETATM   22  C   UNL     1      -6.033  10.541  68.111  1.00  0.00    -0.043 C  
HETATM   23  C   UNL     1      -5.989  11.598  67.270  1.00  0.00    -0.112 C  
HETATM   24  C   UNL     1      -6.007  13.033  67.713  1.00  0.00    -0.145 C  
HETATM   25  C   UNL     1      -5.954  13.200  69.202  1.00  0.00    -0.086 C  
HETATM   26  C   UNL     1      -6.020  12.166  70.055  1.00  0.00    -0.156 C  
HETATM   27  C   UNL     1      -6.147  10.736  69.612  1.00  0.00    -0.069 C  
ENDBRANCH  18  22
ENDBRANCH  16  18
ENDBRANCH  13  14
TORSDOF 3
ENDMDL
MODEL      132
REMARK 921   NORMALIZED FREE ENERGY PREDICTED BY IDOCK:   -4.14 KCAL/MOL
REMARK 922        TOTAL FREE ENERGY PREDICTED BY IDOCK:   -5.52 KCAL/MOL
REMARK 923 INTER-LIGAND FREE ENERGY PREDICTED BY IDOCK:   -4.96 KCAL/MOL
REMARK 924 INTRA-LIGAND FREE ENERGY PREDICTED BY IDOCK:   -0.56 KCAL/MOL
REMARK 927      BINDING AFFINITY PREDICTED BY RF-SCORE:    0.00 PKD
ROOT
HETATM    1  C   UNL     1     -10.518   7.635  67.624  1.00  0.00    -0.244 C  
HETATM    2  S   UNL     1      -9.361   8.439  68.757  1.00  0.00    -0.143 SA 
HETATM    3  C   UNL     1      -8.427   9.224  67.430  1.00  0.00    -0.122 C  
HETATM    4  C   UNL     1      -8.040   8.289  66.301  1.00  0.00    -0.109 C  
HETATM    5  C   UNL     1      -6.794   8.775  65.589  1.00  0.00    -0.075 C  
HETATM    6  CA  UNL     1      -8.693   7.132  65.986  1.00  0.00    -0.147 C  
HETATM    7  N   UNL     1      -9.782   6.762  66.726  1.00  0.00    -0.168 N  
HETATM    8  C   UNL     1      -8.182   6.268  64.842  1.00  0.00    -0.119 C  
HETATM    9  C   UNL     1     -10.518   5.654  66.963  1.00  0.00    -0.281 C  
HETATM   10  O   UNL     1      -8.908   5.179  64.523  1.00  0.00    -0.140 OA 
HETATM   11  OXT UNL     1      -7.209   6.552  64.158  1.00  0.00    -0.060 OA 
HETATM   12  O   UNL     1     -10.475   4.574  66.423  1.00  0.00    -0.235 OA 
HETATM   13  CA  UNL     1     -11.229   6.355  68.175  1.00  0.00    -0.167 C  
ENDROOT
BRANCH  13  14
HETATM   14  N   UNL     1     -10.791   5.915  69.516  1.00  0.00    -0.351 N  
HETATM   15  H   UNL     1      -9.951   5.340  69.571  1.00  0.00     0.000 HD 
HETATM   16  C   UNL     1     -11.430   6.220  70.698  1.00  0.00    -0.329 C  
HETATM   17  O   UNL     1     -12.413   6.946  70.765  1.00  0.00    -0.356 OA 
BRANCH  16  18
HETATM   18  CA  UNL     1     -10.781   5.512  71.927  1.00  0.00    -0.231 C  
HETATM   19  H2  UNL     1     -12.643   4.892  72.672  1.00  0.00     0.000 HD 
HETATM   20  N   UNL     1     -11.803   5.371  72.998  1.00  0.00    -0.534 NA 
HETATM   21  H1  UNL     1     -11.378   4.907  73.801  1.00  0.00     0.000 HD 
BRANCH  18  22
HETATM   22  C   UNL     1      -9.591   6.332  72.381  1.00  0.00    -0.156 C  
HETATM   23  C   UNL     1      -8.325   6.136  71.949  1.00  0.00    -0.118 C  
HETATM   24  C   UNL     1      -7.135   6.910  72.439  1.00  0.00    -0.070 C  
HETATM   25  C   UNL     1      -7.456   7.855  73.558  1.00  0.00    -0.175 C  
HETATM   26  C   UNL     1      -8.707   8.081  73.986  1.00  0.00    -0.265 C  
HETATM   27  C   UNL     1      -9.916   7.412  73.396  1.00  0.00    -0.365 C  
ENDBRANCH  18  22
ENDBRANCH  16  18
ENDBRANCH  13  14
TORSDOF 3
ENDMDL
MODEL      133
REMARK 921   NORMALIZED FREE ENERGY PREDICTED BY IDOCK:   -4.12 KCAL/MOL
REMARK 922        TOTAL FREE ENERGY PREDICTED BY IDOCK:   -5.50 KCAL/MOL
REMARK 923 INTER-LIGAND FREE ENERGY PREDICTED BY IDOCK:   -5.49 KCAL/MOL
REMARK 924 INTRA-LIGAND FREE ENERGY PREDICTED BY IDOCK:   -0.01 KCAL/MOL
REMARK 927      BINDING AFFINITY PREDICTED BY RF-SCORE:    0.00 PKD
ROOT
HETATM    1  C   UNL     1      -9.601   7.742  69.811  1.00  0.00    -0.167 C  
HETATM    2  S   UNL     1      -9.047   8.535  68.283  1.00  0.00    -0.138 SA 
HETATM    3  C   UNL     1      -7.452   7.696  68.289  1.00  0.00    -0.104 C  
HETATM    4  C   UNL     1      -6.723   7.750  69.618  1.00  0.00    -0.039 C  
HETATM    5  C   UNL     1      -5.225   7.629  69.427  1.00  0.00    -0.015 C  
HETATM    6  CA  UNL     1      -7.323   7.931  70.831  1.00  0.00    -0.057 C  
HETATM    7  N   UNL     1      -8.681   8.077  70.885  1.00  0.00    -0.134 N  
HETATM    8  C   UNL     1      -6.468   7.994  72.090  1.00  0.00    -0.057 C  
HETATM    9  C   UNL     1      -9.620   8.531  71.745  1.00  0.00    -0.267 C  
HETATM   10  O   UNL     1      -7.116   8.095  73.267  1.00  0.00    -0.113 OA 
HETATM   11  OXT UNL     1      -5.251   7.878  72.091  1.00  0.00    -0.035 OA 
HETATM   12  O   UNL     1      -9.502   8.869  72.899  1.00  0.00    -0.128 OA 
HETATM   13  CA  UNL     1     -10.706   8.509  70.612  1.00  0.00    -0.220 C  
ENDROOT
BRANCH  13  14
HETATM   14  N   UNL     1     -11.085   9.828  70.064  1.00  0.00    -0.254 N  
HETATM   15  H   UNL     1     -10.747  10.065  69.131  1.00  0.00     0.000 HD 
HETATM   16  C   UNL     1     -11.861  10.763  70.714  1.00  0.00    -0.339 C  
HETATM   17  O   UNL     1     -12.369  10.573  71.811  1.00  0.00    -0.331 OA 
BRANCH  16  18
HETATM   18  CA  UNL     1     -11.985  12.095  69.913  1.00  0.00    -0.309 C  
HETATM   19  H2  UNL     1     -10.352  11.619  68.684  1.00  0.00     0.000 HD 
HETATM   20  N   UNL     1     -10.681  12.391  69.263  1.00  0.00    -0.445 NA 
HETATM   21  H1  UNL     1     -10.763  13.263  68.739  1.00  0.00     0.000 HD 
BRANCH  18  22
HETATM   22  C   UNL     1     -12.407  13.193  70.868  1.00  0.00    -0.393 C  
HETATM   23  C   UNL     1     -13.506  13.135  71.652  1.00  0.00    -0.320 C  
HETATM   24  C   UNL     1     -13.958  14.245  72.558  1.00  0.00    -0.519 C  
HETATM   25  C   UNL     1     -13.139  15.494  72.428  1.00  0.00    -0.527 C  
HETATM   26  C   UNL     1     -12.032  15.565  71.674  1.00  0.00    -0.478 C  
HETATM   27  C   UNL     1     -11.498  14.408  70.878  1.00  0.00    -0.105 C  
ENDBRANCH  18  22
ENDBRANCH  16  18
ENDBRANCH  13  14
TORSDOF 3
ENDMDL
MODEL      134
REMARK 921   NORMALIZED FREE ENERGY PREDICTED BY IDOCK:   -4.11 KCAL/MOL
REMARK 922        TOTAL FREE ENERGY PREDICTED BY IDOCK:   -5.49 KCAL/MOL
REMARK 923 INTER-LIGAND FREE ENERGY PREDICTED BY IDOCK:   -5.25 KCAL/MOL
REMARK 924 INTRA-LIGAND FREE ENERGY PREDICTED BY IDOCK:   -0.24 KCAL/MOL
REMARK 927      BINDING AFFINITY PREDICTED BY RF-SCORE:    0.00 PKD
ROOT
HETATM    1  C   UNL     1      -8.317   7.676  69.719  1.00  0.00    -0.133 C  
HETATM    2  S   UNL     1      -9.386   7.484  71.164  1.00  0.00    -0.150 SA 
HETATM    3  C   UNL     1      -9.096   5.710  71.288  1.00  0.00    -0.143 C  
HETATM    4  C   UNL     1      -9.249   4.959  69.979  1.00  0.00    -0.182 C  
HETATM    5  C   UNL     1      -9.625   3.511  70.218  1.00  0.00    -0.232 C  
HETATM    6  CA  UNL     1      -9.114   5.515  68.739  1.00  0.00    -0.118 C  
HETATM    7  N   UNL     1      -8.819   6.846  68.637  1.00  0.00    -0.125 N  
HETATM    8  C   UNL     1      -9.322   4.652  67.502  1.00  0.00    -0.144 C  
HETATM    9  C   UNL     1      -8.869   7.828  67.710  1.00  0.00    -0.126 C  
HETATM   10  O   UNL     1      -9.101   5.231  66.306  1.00  0.00    -0.130 OA 
HETATM   11  OXT UNL     1      -9.596   3.461  67.543  1.00  0.00    -0.208 OA 
HETATM   12  O   UNL     1      -9.115   7.756  66.529  1.00  0.00    -0.154 OA 
HETATM   13  CA  UNL     1      -8.616   8.917  68.813  1.00  0.00    -0.136 C  
ENDROOT
BRANCH  13  14
HETATM   14  N   UNL     1      -9.794   9.718  69.204  1.00  0.00    -0.178 N  
HETATM   15  H   UNL     1     -10.630   9.212  69.499  1.00  0.00     0.000 HD 
HETATM   16  C   UNL     1      -9.853  11.095  69.203  1.00  0.00    -0.053 C  
HETATM   17  O   UNL     1      -8.900  11.810  68.923  1.00  0.00    -0.031 OA 
BRANCH  16  18
HETATM   18  CA  UNL     1     -11.272  11.631  69.562  1.00  0.00    -0.213 C  
HETATM   19  H2  UNL     1     -12.135   9.724  69.413  1.00  0.00     0.000 HD 
HETATM   20  N   UNL     1     -12.291  10.670  69.066  1.00  0.00    -0.779 NA 
HETATM   21  H1  UNL     1     -13.220  11.021  69.301  1.00  0.00     0.000 HD 
BRANCH  18  22
HETATM   22  C   UNL     1     -11.437  13.004  68.944  1.00  0.00    -0.345 C  
HETATM   23  C   UNL     1     -11.310  13.262  67.623  1.00  0.00    -0.328 C  
HETATM   24  C   UNL     1     -11.416  14.632  67.014  1.00  0.00    -0.379 C  
HETATM   25  C   UNL     1     -11.559  15.727  68.028  1.00  0.00    -0.213 C  
HETATM   26  C   UNL     1     -11.710  15.492  69.340  1.00  0.00    -0.382 C  
HETATM   27  C   UNL     1     -11.747  14.111  69.934  1.00  0.00    -0.372 C  
ENDBRANCH  18  22
ENDBRANCH  16  18
ENDBRANCH  13  14
TORSDOF 3
ENDMDL
MODEL      135
REMARK 921   NORMALIZED FREE ENERGY PREDICTED BY IDOCK:   -4.09 KCAL/MOL
REMARK 922        TOTAL FREE ENERGY PREDICTED BY IDOCK:   -5.47 KCAL/MOL
REMARK 923 INTER-LIGAND FREE ENERGY PREDICTED BY IDOCK:   -4.92 KCAL/MOL
REMARK 924 INTRA-LIGAND FREE ENERGY PREDICTED BY IDOCK:   -0.55 KCAL/MOL
REMARK 927      BINDING AFFINITY PREDICTED BY RF-SCORE:    0.00 PKD
ROOT
HETATM    1  C   UNL     1     -10.682   7.604  69.934  1.00  0.00    -0.249 C  
HETATM    2  S   UNL     1      -9.352   8.410  69.011  1.00  0.00    -0.147 SA 
HETATM    3  C   UNL     1      -8.266   6.975  69.098  1.00  0.00    -0.122 C  
HETATM    4  C   UNL     1      -8.132   6.376  70.485  1.00  0.00    -0.117 C  
HETATM    5  C   UNL     1      -6.811   5.651  70.643  1.00  0.00    -0.052 C  
HETATM    6  CA  UNL     1      -9.053   6.506  71.484  1.00  0.00    -0.144 C  
HETATM    7  N   UNL     1     -10.192   7.223  71.248  1.00  0.00    -0.190 N  
HETATM    8  C   UNL     1      -8.781   5.875  72.843  1.00  0.00    -0.124 C  
HETATM    9  C   UNL     1     -11.177   7.824  71.951  1.00  0.00    -0.265 C  
HETATM   10  O   UNL     1      -9.756   5.966  73.768  1.00  0.00    -0.151 OA 
HETATM   11  OXT UNL     1      -7.774   5.233  73.105  1.00  0.00    -0.095 OA 
HETATM   12  O   UNL     1     -11.406   7.784  73.137  1.00  0.00    -0.374 OA 
HETATM   13  CA  UNL     1     -11.682   8.563  70.662  1.00  0.00    -0.144 C  
ENDROOT
BRANCH  13  14
HETATM   14  N   UNL     1     -11.354  10.002  70.578  1.00  0.00    -0.310 N  
HETATM   15  H   UNL     1     -10.466  10.306  70.977  1.00  0.00     0.000 HD 
HETATM   16  C   UNL     1     -12.155  10.965  70.004  1.00  0.00    -0.355 C  
HETATM   17  O   UNL     1     -13.215  10.716  69.446  1.00  0.00     0.210 OA 
BRANCH  16  18
HETATM   18  CA  UNL     1     -11.576  12.403  70.177  1.00  0.00    -0.077 C  
HETATM   19  H2  UNL     1     -12.888  12.844  71.754  1.00  0.00     0.000 HD 
HETATM   20  N   UNL     1     -12.583  13.249  70.870  1.00  0.00    -0.335 NA 
HETATM   21  H1  UNL     1     -12.204  14.189  70.983  1.00  0.00     0.000 HD 
BRANCH  18  22
HETATM   22  C   UNL     1     -11.221  12.946  68.808  1.00  0.00    -0.323 C  
HETATM   23  C   UNL     1     -11.855  13.982  68.215  1.00  0.00    -0.406 C  
HETATM   24  C   UNL     1     -11.543  14.486  66.835  1.00  0.00    -0.399 C  
HETATM   25  C   UNL     1     -10.531  13.652  66.108  1.00  0.00    -0.297 C  
HETATM   26  C   UNL     1      -9.874  12.635  66.685  1.00  0.00    -0.245 C  
HETATM   27  C   UNL     1     -10.083  12.220  68.114  1.00  0.00    -0.211 C  
ENDBRANCH  18  22
ENDBRANCH  16  18
ENDBRANCH  13  14
TORSDOF 3
ENDMDL
MODEL      136
REMARK 921   NORMALIZED FREE ENERGY PREDICTED BY IDOCK:   -4.07 KCAL/MOL
REMARK 922        TOTAL FREE ENERGY PREDICTED BY IDOCK:   -5.44 KCAL/MOL
REMARK 923 INTER-LIGAND FREE ENERGY PREDICTED BY IDOCK:   -4.83 KCAL/MOL
REMARK 924 INTRA-LIGAND FREE ENERGY PREDICTED BY IDOCK:   -0.61 KCAL/MOL
REMARK 927      BINDING AFFINITY PREDICTED BY RF-SCORE:    0.00 PKD
ROOT
HETATM    1  C   UNL     1      -8.691   7.629  65.791  1.00  0.00    -0.125 C  
HETATM    2  S   UNL     1      -7.063   8.149  66.382  1.00  0.00    -0.075 SA 
HETATM    3  C   UNL     1      -6.208   6.778  65.583  1.00  0.00    -0.039 C  
HETATM    4  C   UNL     1      -6.837   5.421  65.829  1.00  0.00    -0.061 C  
HETATM    5  C   UNL     1      -5.811   4.312  65.714  1.00  0.00    -0.023 C  
HETATM    6  CA  UNL     1      -8.146   5.214  66.160  1.00  0.00    -0.108 C  
HETATM    7  N   UNL     1      -8.977   6.292  66.284  1.00  0.00    -0.153 N  
HETATM    8  C   UNL     1      -8.643   3.797  66.408  1.00  0.00    -0.113 C  
HETATM    9  C   UNL     1     -10.176   6.591  66.831  1.00  0.00    -0.215 C  
HETATM   10  O   UNL     1      -9.959   3.642  66.653  1.00  0.00    -0.067 OA 
HETATM   11  OXT UNL     1      -7.937   2.803  66.317  1.00  0.00    -0.080 OA 
HETATM   12  O   UNL     1     -10.999   5.856  67.323  1.00  0.00    -0.293 OA 
HETATM   13  CA  UNL     1      -9.911   8.126  66.636  1.00  0.00    -0.269 C  
ENDROOT
BRANCH  13  14
HETATM   14  N   UNL     1      -9.568   8.877  67.862  1.00  0.00    -0.145 N  
HETATM   15  H   UNL     1      -8.843   8.489  68.464  1.00  0.00     0.000 HD 
HETATM   16  C   UNL     1     -10.153  10.062  68.255  1.00  0.00    -0.158 C  
HETATM   17  O   UNL     1     -10.994  10.652  67.590  1.00  0.00    -0.270 OA 
BRANCH  16  18
HETATM   18  CA  UNL     1      -9.649  10.541  69.651  1.00  0.00    -0.027 C  
HETATM   19  H2  UNL     1      -7.736  10.987  68.912  1.00  0.00     0.000 HD 
HETATM   20  N   UNL     1      -8.164  10.469  69.679  1.00  0.00    -0.362 NA 
HETATM   21  H1  UNL     1      -7.835  10.782  70.592  1.00  0.00     0.000 HD 
BRANCH  18  22
HETATM   22  C   UNL     1     -10.281   9.668  70.715  1.00  0.00    -0.330 C  
HETATM   23  C   UNL     1      -9.585   8.860  71.546  1.00  0.00    -0.362 C  
HETATM   24  C   UNL     1     -10.212   7.951  72.564  1.00  0.00    -0.342 C  
HETATM   25  C   UNL     1     -11.710   7.925  72.500  1.00  0.00    -0.423 C  
HETATM   26  C   UNL     1     -12.420   8.735  71.701  1.00  0.00    -0.392 C  
HETATM   27  C   UNL     1     -11.794   9.748  70.784  1.00  0.00    -0.400 C  
ENDBRANCH  18  22
ENDBRANCH  16  18
ENDBRANCH  13  14
TORSDOF 3
ENDMDL
MODEL      137
REMARK 921   NORMALIZED FREE ENERGY PREDICTED BY IDOCK:   -4.05 KCAL/MOL
REMARK 922        TOTAL FREE ENERGY PREDICTED BY IDOCK:   -5.41 KCAL/MOL
REMARK 923 INTER-LIGAND FREE ENERGY PREDICTED BY IDOCK:   -4.96 KCAL/MOL
REMARK 924 INTRA-LIGAND FREE ENERGY PREDICTED BY IDOCK:   -0.45 KCAL/MOL
REMARK 927      BINDING AFFINITY PREDICTED BY RF-SCORE:    0.00 PKD
ROOT
HETATM    1  C   UNL     1      -8.651   9.457  65.366  1.00  0.00    -0.156 C  
HETATM    2  S   UNL     1      -7.187  10.422  65.804  1.00  0.00    -0.135 SA 
HETATM    3  C   UNL     1      -6.057   9.043  65.542  1.00  0.00    -0.055 C  
HETATM    4  C   UNL     1      -6.485   7.750  66.208  1.00  0.00    -0.046 C  
HETATM    5  C   UNL     1      -5.291   6.866  66.508  1.00  0.00    -0.018 C  
HETATM    6  CA  UNL     1      -7.770   7.431  66.543  1.00  0.00    -0.093 C  
HETATM    7  N   UNL     1      -8.768   8.325  66.269  1.00  0.00    -0.143 N  
HETATM    8  C   UNL     1      -8.060   6.107  67.236  1.00  0.00    -0.106 C  
HETATM    9  C   UNL     1     -10.045   8.565  66.642  1.00  0.00    -0.294 C  
HETATM   10  O   UNL     1      -9.352   5.808  67.473  1.00  0.00    -0.112 OA 
HETATM   11  OXT UNL     1      -7.201   5.281  67.509  1.00  0.00    -0.069 OA 
HETATM   12  O   UNL     1     -10.784   7.895  67.323  1.00  0.00    -0.301 OA 
HETATM   13  CA  UNL     1     -10.007   9.975  65.951  1.00  0.00    -0.269 C  
ENDROOT
BRANCH  13  14
HETATM   14  N   UNL     1      -9.901  11.132  66.865  1.00  0.00    -0.191 N  
HETATM   15  H   UNL     1      -8.991  11.318  67.284  1.00  0.00     0.000 HD 
HETATM   16  C   UNL     1     -10.937  11.980  67.193  1.00  0.00    -0.270 C  
HETATM   17  O   UNL     1     -12.059  11.892  66.712  1.00  0.00    -0.593 OA 
BRANCH  16  18
HETATM   18  CA  UNL     1     -10.527  13.034  68.267  1.00  0.00    -0.250 C  
HETATM   19  H2  UNL     1     -12.202  12.609  69.459  1.00  0.00     0.000 HD 
HETATM   20  N   UNL     1     -11.731  13.417  69.052  1.00  0.00    -0.302 NA 
HETATM   21  H1  UNL     1     -11.462  14.106  69.754  1.00  0.00     0.000 HD 
BRANCH  18  22
HETATM   22  C   UNL     1      -9.906  14.221  67.562  1.00  0.00    -0.231 C  
HETATM   23  C   UNL     1     -10.319  14.695  66.365  1.00  0.00    -0.293 C  
HETATM   24  C   UNL     1      -9.668  15.837  65.637  1.00  0.00    -0.332 C  
HETATM   25  C   UNL     1      -8.424  16.340  66.305  1.00  0.00    -0.369 C  
HETATM   26  C   UNL     1      -8.009  15.901  67.503  1.00  0.00    -0.166 C  
HETATM   27  C   UNL     1      -8.742  14.857  68.299  1.00  0.00    -0.166 C  
ENDBRANCH  18  22
ENDBRANCH  16  18
ENDBRANCH  13  14
TORSDOF 3
ENDMDL
MODEL      138
REMARK 921   NORMALIZED FREE ENERGY PREDICTED BY IDOCK:   -4.02 KCAL/MOL
REMARK 922        TOTAL FREE ENERGY PREDICTED BY IDOCK:   -5.38 KCAL/MOL
REMARK 923 INTER-LIGAND FREE ENERGY PREDICTED BY IDOCK:   -5.84 KCAL/MOL
REMARK 924 INTRA-LIGAND FREE ENERGY PREDICTED BY IDOCK:    0.46 KCAL/MOL
REMARK 927      BINDING AFFINITY PREDICTED BY RF-SCORE:    0.00 PKD
ROOT
HETATM    1  C   UNL     1     -10.845   6.661  71.915  1.00  0.00    -0.236 C  
HETATM    2  S   UNL     1     -11.353   6.535  70.185  1.00  0.00    -0.414 SA 
HETATM    3  C   UNL     1     -10.283   5.123  69.854  1.00  0.00    -0.291 C  
HETATM    4  C   UNL     1      -8.856   5.293  70.338  1.00  0.00    -0.146 C  
HETATM    5  C   UNL     1      -7.897   4.447  69.525  1.00  0.00    -0.057 C  
HETATM    6  CA  UNL     1      -8.467   6.132  71.342  1.00  0.00    -0.128 C  
HETATM    7  N   UNL     1      -9.412   6.888  71.980  1.00  0.00    -0.141 N  
HETATM    8  C   UNL     1      -6.993   6.229  71.711  1.00  0.00    -0.076 C  
HETATM    9  C   UNL     1      -9.471   7.983  72.769  1.00  0.00    -0.269 C  
HETATM   10  O   UNL     1      -6.673   7.011  72.761  1.00  0.00    -0.067 OA 
HETATM   11  OXT UNL     1      -6.112   5.580  71.165  1.00  0.00    -0.030 OA 
HETATM   12  O   UNL     1      -8.574   8.605  73.287  1.00  0.00    -0.375 OA 
HETATM   13  CA  UNL     1     -11.027   8.069  72.576  1.00  0.00    -0.364 C  
ENDROOT
BRANCH  13  14
HETATM   14  N   UNL     1     -11.501   9.137  71.670  1.00  0.00    -0.358 N  
HETATM   15  H   UNL     1     -12.494   9.370  71.698  1.00  0.00     0.000 HD 
HETATM   16  C   UNL     1     -10.708   9.842  70.792  1.00  0.00    -0.323 C  
HETATM   17  O   UNL     1      -9.496   9.690  70.707  1.00  0.00    -0.219 OA 
BRANCH  16  18
HETATM   18  CA  UNL     1     -11.530  10.821  69.900  1.00  0.00    -0.321 C  
HETATM   19  H2  UNL     1     -13.361  10.099  70.630  1.00  0.00     0.000 HD 
HETATM   20  N   UNL     1     -12.907  10.284  69.735  1.00  0.00    -0.510 NA 
HETATM   21  H1  UNL     1     -13.444  10.925  69.152  1.00  0.00     0.000 HD 
BRANCH  18  22
HETATM   22  C   UNL     1     -10.817  10.975  68.572  1.00  0.00    -0.254 C  
HETATM   23  C   UNL     1     -10.843  10.052  67.585  1.00  0.00    -0.336 C  
HETATM   24  C   UNL     1     -10.092  10.177  66.290  1.00  0.00    -0.303 C  
HETATM   25  C   UNL     1      -9.197  11.378  66.232  1.00  0.00    -0.220 C  
HETATM   26  C   UNL     1      -9.173  12.318  67.189  1.00  0.00    -0.196 C  
HETATM   27  C   UNL     1     -10.034  12.265  68.420  1.00  0.00    -0.210 C  
ENDBRANCH  18  22
ENDBRANCH  16  18
ENDBRANCH  13  14
TORSDOF 3
ENDMDL
MODEL      139
REMARK 921   NORMALIZED FREE ENERGY PREDICTED BY IDOCK:   -4.02 KCAL/MOL
REMARK 922        TOTAL FREE ENERGY PREDICTED BY IDOCK:   -5.38 KCAL/MOL
REMARK 923 INTER-LIGAND FREE ENERGY PREDICTED BY IDOCK:   -4.83 KCAL/MOL
REMARK 924 INTRA-LIGAND FREE ENERGY PREDICTED BY IDOCK:   -0.55 KCAL/MOL
REMARK 927      BINDING AFFINITY PREDICTED BY RF-SCORE:    0.00 PKD
ROOT
HETATM    1  C   UNL     1      -9.341  13.584  67.892  1.00  0.00    -0.215 C  
HETATM    2  S   UNL     1      -7.987  14.506  67.126  1.00  0.00    -0.056 SA 
HETATM    3  C   UNL     1      -9.046  15.878  66.634  1.00  0.00    -0.260 C  
HETATM    4  C   UNL     1     -10.326  15.460  65.936  1.00  0.00    -0.359 C  
HETATM    5  C   UNL     1     -10.832  16.554  65.017  1.00  0.00    -0.245 C  
HETATM    6  CA  UNL     1     -10.928  14.242  66.072  1.00  0.00    -0.312 C  
HETATM    7  N   UNL     1     -10.359  13.309  66.893  1.00  0.00    -0.253 N  
HETATM    8  C   UNL     1     -12.199  13.941  65.289  1.00  0.00    -0.433 C  
HETATM    9  C   UNL     1     -10.419  11.976  67.108  1.00  0.00    -0.220 C  
HETATM   10  O   UNL     1     -12.795  12.755  65.520  1.00  0.00    -0.531 OA 
HETATM   11  OXT UNL     1     -12.739  14.740  64.537  1.00  0.00    -0.569 OA 
HETATM   12  O   UNL     1     -11.180  11.158  66.647  1.00  0.00    -0.257 OA 
HETATM   13  CA  UNL     1      -9.132  12.037  68.004  1.00  0.00    -0.188 C  
ENDROOT
BRANCH  13  14
HETATM   14  N   UNL     1      -7.894  11.519  67.384  1.00  0.00    -0.135 N  
HETATM   15  H   UNL     1      -7.532  12.016  66.570  1.00  0.00     0.000 HD 
HETATM   16  C   UNL     1      -7.191  10.417  67.819  1.00  0.00    -0.086 C  
HETATM   17  O   UNL     1      -7.494   9.774  68.815  1.00  0.00    -0.073 OA 
BRANCH  16  18
HETATM   18  CA  UNL     1      -5.994  10.066  66.884  1.00  0.00    -0.055 C  
HETATM   19  H2  UNL     1      -6.085  11.925  65.913  1.00  0.00     0.000 HD 
HETATM   20  N   UNL     1      -6.054  10.933  65.677  1.00  0.00    -0.321 NA 
HETATM   21  H1  UNL     1      -5.271  10.703  65.066  1.00  0.00     0.000 HD 
BRANCH  18  22
HETATM   22  C   UNL     1      -6.074   8.595  66.532  1.00  0.00    -0.057 C  
HETATM   23  C   UNL     1      -5.287   7.640  67.076  1.00  0.00    -0.030 C  
HETATM   24  C   UNL     1      -5.326   6.190  66.688  1.00  0.00    -0.009 C  
HETATM   25  C   UNL     1      -6.244   5.902  65.539  1.00  0.00    -0.037 C  
HETATM   26  C   UNL     1      -7.051   6.829  65.000  1.00  0.00    -0.064 C  
HETATM   27  C   UNL     1      -7.117   8.250  65.485  1.00  0.00    -0.067 C  
ENDBRANCH  18  22
ENDBRANCH  16  18
ENDBRANCH  13  14
TORSDOF 3
ENDMDL
MODEL      140
REMARK 921   NORMALIZED FREE ENERGY PREDICTED BY IDOCK:   -3.98 KCAL/MOL
REMARK 922        TOTAL FREE ENERGY PREDICTED BY IDOCK:   -5.33 KCAL/MOL
REMARK 923 INTER-LIGAND FREE ENERGY PREDICTED BY IDOCK:   -4.81 KCAL/MOL
REMARK 924 INTRA-LIGAND FREE ENERGY PREDICTED BY IDOCK:   -0.52 KCAL/MOL
REMARK 927      BINDING AFFINITY PREDICTED BY RF-SCORE:    0.00 PKD
ROOT
HETATM    1  C   UNL     1      -9.334  11.431  67.304  1.00  0.00    -0.167 C  
HETATM    2  S   UNL     1     -10.892  11.026  68.127  1.00  0.00    -0.248 SA 
HETATM    3  C   UNL     1     -11.838  12.235  67.183  1.00  0.00    -0.258 C  
HETATM    4  C   UNL     1     -11.210  13.614  67.127  1.00  0.00    -0.327 C  
HETATM    5  C   UNL     1     -12.260  14.686  66.915  1.00  0.00    -0.114 C  
HETATM    6  CA  UNL     1      -9.880  13.874  67.292  1.00  0.00    -0.244 C  
HETATM    7  N   UNL     1      -9.025  12.833  67.526  1.00  0.00    -0.182 N  
HETATM    8  C   UNL     1      -9.383  15.312  67.239  1.00  0.00    -0.205 C  
HETATM    9  C   UNL     1      -7.776  12.634  68.002  1.00  0.00    -0.139 C  
HETATM   10  O   UNL     1      -8.053  15.505  67.329  1.00  0.00    -0.164 OA 
HETATM   11  OXT UNL     1     -10.110  16.275  67.042  1.00  0.00    -0.257 OA 
HETATM   12  O   UNL     1      -6.922  13.444  68.278  1.00  0.00    -0.085 OA 
HETATM   13  CA  UNL     1      -8.033  11.089  68.105  1.00  0.00    -0.119 C  
ENDROOT
BRANCH  13  14
HETATM   14  N   UNL     1      -8.250  10.567  69.471  1.00  0.00    -0.332 N  
HETATM   15  H   UNL     1      -8.471  11.241  70.203  1.00  0.00     0.000 HD 
HETATM   16  C   UNL     1      -8.177   9.239  69.832  1.00  0.00    -0.145 C  
HETATM   17  O   UNL     1      -7.973   8.333  69.034  1.00  0.00    -0.108 OA 
BRANCH  16  18
HETATM   18  CA  UNL     1      -8.345   9.029  71.368  1.00  0.00    -0.070 C  
HETATM   19  H2  UNL     1      -6.355   9.570  71.757  1.00  0.00     0.000 HD 
HETATM   20  N   UNL     1      -7.006   8.816  71.976  1.00  0.00    -0.251 NA 
HETATM   21  H1  UNL     1      -7.116   8.679  72.981  1.00  0.00     0.000 HD 
BRANCH  18  22
HETATM   22  C   UNL     1      -9.266   7.847  71.593  1.00  0.00    -0.180 C  
HETATM   23  C   UNL     1      -8.854   6.635  72.027  1.00  0.00    -0.135 C  
HETATM   24  C   UNL     1      -9.755   5.446  72.196  1.00  0.00    -0.196 C  
HETATM   25  C   UNL     1     -11.157   5.685  71.721  1.00  0.00    -0.265 C  
HETATM   26  C   UNL     1     -11.593   6.885  71.309  1.00  0.00    -0.352 C  
HETATM   27  C   UNL     1     -10.726   8.113  71.275  1.00  0.00    -0.270 C  
ENDBRANCH  18  22
ENDBRANCH  16  18
ENDBRANCH  13  14
TORSDOF 3
ENDMDL
MODEL      141
REMARK 921   NORMALIZED FREE ENERGY PREDICTED BY IDOCK:   -3.97 KCAL/MOL
REMARK 922        TOTAL FREE ENERGY PREDICTED BY IDOCK:   -5.32 KCAL/MOL
REMARK 923 INTER-LIGAND FREE ENERGY PREDICTED BY IDOCK:   -4.89 KCAL/MOL
REMARK 924 INTRA-LIGAND FREE ENERGY PREDICTED BY IDOCK:   -0.44 KCAL/MOL
REMARK 927      BINDING AFFINITY PREDICTED BY RF-SCORE:    0.00 PKD
ROOT
HETATM    1  C   UNL     1      -8.224   7.321  69.763  1.00  0.00    -0.130 C  
HETATM    2  S   UNL     1      -9.794   7.217  70.653  1.00  0.00    -0.181 SA 
HETATM    3  C   UNL     1      -9.512   5.519  71.187  1.00  0.00    -0.159 C  
HETATM    4  C   UNL     1      -9.069   4.582  70.079  1.00  0.00    -0.161 C  
HETATM    5  C   UNL     1      -9.453   3.149  70.388  1.00  0.00    -0.227 C  
HETATM    6  CA  UNL     1      -8.447   4.972  68.928  1.00  0.00    -0.086 C  
HETATM    7  N   UNL     1      -8.189   6.300  68.730  1.00  0.00    -0.118 N  
HETATM    8  C   UNL     1      -8.080   3.928  67.882  1.00  0.00    -0.088 C  
HETATM    9  C   UNL     1      -7.884   7.133  67.711  1.00  0.00    -0.114 C  
HETATM   10  O   UNL     1      -7.398   4.356  66.802  1.00  0.00    -0.078 OA 
HETATM   11  OXT UNL     1      -8.297   2.732  68.010  1.00  0.00    -0.075 OA 
HETATM   12  O   UNL     1      -7.606   6.872  66.564  1.00  0.00    -0.085 OA 
HETATM   13  CA  UNL     1      -8.162   8.385  68.617  1.00  0.00    -0.123 C  
ENDROOT
BRANCH  13  14
HETATM   14  N   UNL     1      -9.427   9.101  68.348  1.00  0.00    -0.142 N  
HETATM   15  H   UNL     1     -10.261   8.784  68.843  1.00  0.00     0.000 HD 
HETATM   16  C   UNL     1      -9.568  10.163  67.482  1.00  0.00    -0.156 C  
HETATM   17  O   UNL     1      -8.632  10.667  66.875  1.00  0.00    -0.125 OA 
BRANCH  16  18
HETATM   18  CA  UNL     1     -11.051  10.623  67.339  1.00  0.00    -0.272 C  
HETATM   19  H2  UNL     1     -10.825  11.035  65.293  1.00  0.00     0.000 HD 
HETATM   20  N   UNL     1     -11.174  11.489  66.137  1.00  0.00    -0.254 NA 
HETATM   21  H1  UNL     1     -12.145  11.789  66.043  1.00  0.00     0.000 HD 
BRANCH  18  22
HETATM   22  C   UNL     1     -11.454  11.347  68.606  1.00  0.00    -0.359 C  
HETATM   23  C   UNL     1     -11.965  10.738  69.700  1.00  0.00    -0.385 C  
HETATM   24  C   UNL     1     -12.418  11.460  70.936  1.00  0.00    -0.478 C  
HETATM   25  C   UNL     1     -12.368  12.953  70.809  1.00  0.00    -0.385 C  
HETATM   26  C   UNL     1     -11.844  13.578  69.744  1.00  0.00    -0.395 C  
HETATM   27  C   UNL     1     -11.258  12.851  68.565  1.00  0.00    -0.310 C  
ENDBRANCH  18  22
ENDBRANCH  16  18
ENDBRANCH  13  14
TORSDOF 3
ENDMDL
MODEL      142
REMARK 921   NORMALIZED FREE ENERGY PREDICTED BY IDOCK:   -3.95 KCAL/MOL
REMARK 922        TOTAL FREE ENERGY PREDICTED BY IDOCK:   -5.31 KCAL/MOL
REMARK 923 INTER-LIGAND FREE ENERGY PREDICTED BY IDOCK:   -5.56 KCAL/MOL
REMARK 924 INTRA-LIGAND FREE ENERGY PREDICTED BY IDOCK:    0.25 KCAL/MOL
REMARK 927      BINDING AFFINITY PREDICTED BY RF-SCORE:    0.00 PKD
ROOT
HETATM    1  C   UNL     1     -10.331  14.289  69.302  1.00  0.00    -0.057 C  
HETATM    2  S   UNL     1     -11.512  15.579  68.843  1.00  0.00    -0.372 SA 
HETATM    3  C   UNL     1     -12.442  15.436  70.379  1.00  0.00    -0.404 C  
HETATM    4  C   UNL     1     -12.804  14.013  70.761  1.00  0.00    -0.355 C  
HETATM    5  C   UNL     1     -14.049  13.977  71.623  1.00  0.00    -0.360 C  
HETATM    6  CA  UNL     1     -12.131  12.899  70.348  1.00  0.00    -0.306 C  
HETATM    7  N   UNL     1     -11.045  13.044  69.530  1.00  0.00    -0.066 N  
HETATM    8  C   UNL     1     -12.618  11.524  70.783  1.00  0.00    -0.298 C  
HETATM    9  C   UNL     1     -10.295  12.291  68.696  1.00  0.00    -0.188 C  
HETATM   10  O   UNL     1     -11.872  10.464  70.413  1.00  0.00    -0.278 OA 
HETATM   11  OXT UNL     1     -13.587  11.343  71.505  1.00  0.00    -0.007 OA 
HETATM   12  O   UNL     1     -10.317  11.096  68.513  1.00  0.00    -0.178 OA 
HETATM   13  CA  UNL     1      -9.607  13.575  68.112  1.00  0.00    -0.215 C  
ENDROOT
BRANCH  13  14
HETATM   14  N   UNL     1     -10.053  13.984  66.763  1.00  0.00    -0.259 N  
HETATM   15  H   UNL     1     -10.760  13.407  66.308  1.00  0.00     0.000 HD 
HETATM   16  C   UNL     1      -9.588  15.082  66.074  1.00  0.00    -0.325 C  
HETATM   17  O   UNL     1      -8.781  15.877  66.537  1.00  0.00    -0.257 OA 
BRANCH  16  18
HETATM   18  CA  UNL     1     -10.175  15.174  64.632  1.00  0.00     0.175 C  
HETATM   19  H2  UNL     1     -10.342  17.264  64.731  1.00  0.00     0.000 HD 
HETATM   20  N   UNL     1     -10.917  16.455  64.494  1.00  0.00    -1.022 NA 
HETATM   21  H1  UNL     1     -11.301  16.515  63.551  1.00  0.00     0.000 HD 
BRANCH  18  22
HETATM   22  C   UNL     1     -11.068  13.972  64.400  1.00  0.00    -0.300 C  
HETATM   23  C   UNL     1     -10.792  12.979  63.525  1.00  0.00    -0.029 C  
HETATM   24  C   UNL     1     -11.702  11.816  63.252  1.00  0.00    -0.340 C  
HETATM   25  C   UNL     1     -13.022  11.911  63.954  1.00  0.00    -0.244 C  
HETATM   26  C   UNL     1     -13.308  12.874  64.843  1.00  0.00     0.607 C  
HETATM   27  C   UNL     1     -12.341  13.960  65.225  1.00  0.00    -0.485 C  
ENDBRANCH  18  22
ENDBRANCH  16  18
ENDBRANCH  13  14
TORSDOF 3
ENDMDL
MODEL      143
REMARK 921   NORMALIZED FREE ENERGY PREDICTED BY IDOCK:   -3.94 KCAL/MOL
REMARK 922        TOTAL FREE ENERGY PREDICTED BY IDOCK:   -5.28 KCAL/MOL
REMARK 923 INTER-LIGAND FREE ENERGY PREDICTED BY IDOCK:   -4.75 KCAL/MOL
REMARK 924 INTRA-LIGAND FREE ENERGY PREDICTED BY IDOCK:   -0.53 KCAL/MOL
REMARK 927      BINDING AFFINITY PREDICTED BY RF-SCORE:    0.00 PKD
ROOT
HETATM    1  C   UNL     1      -8.215   8.517  68.762  1.00  0.00    -0.122 C  
HETATM    2  S   UNL     1      -7.819   6.753  68.768  1.00  0.00    -0.113 SA 
HETATM    3  C   UNL     1      -6.806   6.858  67.281  1.00  0.00    -0.072 C  
HETATM    4  C   UNL     1      -7.457   7.606  66.134  1.00  0.00    -0.083 C  
HETATM    5  C   UNL     1      -6.912   7.142  64.798  1.00  0.00    -0.051 C  
HETATM    6  CA  UNL     1      -8.441   8.543  66.270  1.00  0.00    -0.124 C  
HETATM    7  N   UNL     1      -8.894   8.852  67.522  1.00  0.00    -0.130 N  
HETATM    8  C   UNL     1      -9.030   9.200  65.029  1.00  0.00    -0.171 C  
HETATM    9  C   UNL     1      -9.961   9.450  68.096  1.00  0.00    -0.175 C  
HETATM   10  O   UNL     1      -9.941  10.173  65.224  1.00  0.00    -0.300 OA 
HETATM   11  OXT UNL     1      -8.664   8.950  63.889  1.00  0.00    -0.151 OA 
HETATM   12  O   UNL     1     -10.871  10.055  67.579  1.00  0.00    -0.277 OA 
HETATM   13  CA  UNL     1      -9.530   8.920  69.509  1.00  0.00    -0.159 C  
ENDROOT
BRANCH  13  14
HETATM   14  N   UNL     1     -10.327   7.794  70.041  1.00  0.00    -0.215 N  
HETATM   15  H   UNL     1     -10.228   6.890  69.582  1.00  0.00     0.000 HD 
HETATM   16  C   UNL     1     -11.193   7.872  71.110  1.00  0.00    -0.261 C  
HETATM   17  O   UNL     1     -11.355   8.887  71.775  1.00  0.00    -0.314 OA 
BRANCH  16  18
HETATM   18  CA  UNL     1     -11.964   6.538  71.351  1.00  0.00    -0.316 C  
HETATM   19  H2  UNL     1     -13.818   7.518  71.452  1.00  0.00     0.000 HD 
HETATM   20  N   UNL     1     -13.271   6.845  71.989  1.00  0.00    -0.547 NA 
HETATM   21  H1  UNL     1     -13.775   5.972  72.146  1.00  0.00     0.000 HD 
BRANCH  18  22
HETATM   22  C   UNL     1     -11.107   5.637  72.215  1.00  0.00    -0.318 C  
HETATM   23  C   UNL     1     -10.891   5.832  73.535  1.00  0.00    -0.272 C  
HETATM   24  C   UNL     1      -9.995   4.973  74.382  1.00  0.00    -0.236 C  
HETATM   25  C   UNL     1      -9.253   3.932  73.600  1.00  0.00    -0.103 C  
HETATM   26  C   UNL     1      -9.469   3.705  72.296  1.00  0.00    -0.189 C  
HETATM   27  C   UNL     1     -10.471   4.472  71.479  1.00  0.00    -0.052 C  
ENDBRANCH  18  22
ENDBRANCH  16  18
ENDBRANCH  13  14
TORSDOF 3
ENDMDL
MODEL      144
REMARK 921   NORMALIZED FREE ENERGY PREDICTED BY IDOCK:   -3.92 KCAL/MOL
REMARK 922        TOTAL FREE ENERGY PREDICTED BY IDOCK:   -5.27 KCAL/MOL
REMARK 923 INTER-LIGAND FREE ENERGY PREDICTED BY IDOCK:   -5.11 KCAL/MOL
REMARK 924 INTRA-LIGAND FREE ENERGY PREDICTED BY IDOCK:   -0.16 KCAL/MOL
REMARK 927      BINDING AFFINITY PREDICTED BY RF-SCORE:    0.00 PKD
ROOT
HETATM    1  C   UNL     1      -8.328   9.599  70.043  1.00  0.00    -0.182 C  
HETATM    2  S   UNL     1      -7.700   8.698  68.607  1.00  0.00    -0.100 SA 
HETATM    3  C   UNL     1      -8.080  10.034  67.458  1.00  0.00    -0.110 C  
HETATM    4  C   UNL     1      -9.482  10.596  67.596  1.00  0.00    -0.167 C  
HETATM    5  C   UNL     1      -9.959  11.203  66.292  1.00  0.00    -0.261 C  
HETATM    6  CA  UNL     1     -10.243  10.528  68.727  1.00  0.00    -0.190 C  
HETATM    7  N   UNL     1      -9.731   9.914  69.836  1.00  0.00    -0.236 N  
HETATM    8  C   UNL     1     -11.650  11.109  68.721  1.00  0.00    -0.322 C  
HETATM    9  C   UNL     1     -10.173   9.387  70.999  1.00  0.00    -0.299 C  
HETATM   10  O   UNL     1     -12.329  11.086  69.885  1.00  0.00    -0.322 OA 
HETATM   11  OXT UNL     1     -12.155  11.659  67.752  1.00  0.00    -0.613 OA 
HETATM   12  O   UNL     1     -11.278   9.426  71.487  1.00  0.00    -0.355 OA 
HETATM   13  CA  UNL     1      -8.777   8.716  71.255  1.00  0.00    -0.194 C  
ENDROOT
BRANCH  13  14
HETATM   14  N   UNL     1      -8.718   7.256  71.031  1.00  0.00    -0.139 N  
HETATM   15  H   UNL     1      -8.340   6.932  70.142  1.00  0.00     0.000 HD 
HETATM   16  C   UNL     1      -9.134   6.299  71.931  1.00  0.00    -0.143 C  
HETATM   17  O   UNL     1      -9.553   6.563  73.051  1.00  0.00    -0.148 OA 
BRANCH  16  18
HETATM   18  CA  UNL     1      -9.042   4.855  71.350  1.00  0.00    -0.142 C  
HETATM   19  H2  UNL     1      -9.747   5.465  69.470  1.00  0.00     0.000 HD 
HETATM   20  N   UNL     1      -9.942   4.751  70.171  1.00  0.00    -0.240 NA 
HETATM   21  H1  UNL     1      -9.882   3.806  69.792  1.00  0.00     0.000 HD 
BRANCH  18  22
HETATM   22  C   UNL     1      -9.418   3.873  72.441  1.00  0.00    -0.181 C  
HETATM   23  C   UNL     1      -8.555   3.001  73.008  1.00  0.00    -0.080 C  
HETATM   24  C   UNL     1      -8.937   1.988  74.049  1.00  0.00    -0.067 C  
HETATM   25  C   UNL     1     -10.409   1.943  74.327  1.00  0.00    -0.172 C  
HETATM   26  C   UNL     1     -11.280   2.814  73.794  1.00  0.00    -0.272 C  
HETATM   27  C   UNL     1     -10.875   3.921  72.861  1.00  0.00    -0.170 C  
ENDBRANCH  18  22
ENDBRANCH  16  18
ENDBRANCH  13  14
TORSDOF 3
ENDMDL
MODEL      145
REMARK 921   NORMALIZED FREE ENERGY PREDICTED BY IDOCK:   -3.87 KCAL/MOL
REMARK 922        TOTAL FREE ENERGY PREDICTED BY IDOCK:   -5.21 KCAL/MOL
REMARK 923 INTER-LIGAND FREE ENERGY PREDICTED BY IDOCK:   -4.67 KCAL/MOL
REMARK 924 INTRA-LIGAND FREE ENERGY PREDICTED BY IDOCK:   -0.53 KCAL/MOL
REMARK 927      BINDING AFFINITY PREDICTED BY RF-SCORE:    0.00 PKD
ROOT
HETATM    1  C   UNL     1     -10.983   6.946  69.134  1.00  0.00    -0.199 C  
HETATM    2  S   UNL     1      -9.719   6.002  68.251  1.00  0.00    -0.129 SA 
HETATM    3  C   UNL     1      -9.738   4.646  69.438  1.00  0.00    -0.202 C  
HETATM    4  C   UNL     1      -9.652   5.083  70.888  1.00  0.00    -0.242 C  
HETATM    5  C   UNL     1      -9.047   3.996  71.753  1.00  0.00    -0.171 C  
HETATM    6  CA  UNL     1     -10.022   6.311  71.357  1.00  0.00    -0.186 C  
HETATM    7  N   UNL     1     -10.513   7.237  70.478  1.00  0.00    -0.214 N  
HETATM    8  C   UNL     1      -9.857   6.631  72.836  1.00  0.00    -0.164 C  
HETATM    9  C   UNL     1     -10.722   8.570  70.421  1.00  0.00    -0.228 C  
HETATM   10  O   UNL     1     -10.311   7.827  73.259  1.00  0.00    -0.334 OA 
HETATM   11  OXT UNL     1      -9.415   5.841  73.657  1.00  0.00    -0.137 OA 
HETATM   12  O   UNL     1     -10.624   9.400  71.295  1.00  0.00    -0.313 OA 
HETATM   13  CA  UNL     1     -10.982   8.490  68.875  1.00  0.00     0.142 C  
ENDROOT
BRANCH  13  14
HETATM   14  N   UNL     1      -9.887   8.987  68.016  1.00  0.00    -0.160 N  
HETATM   15  H   UNL     1      -9.267   8.295  67.596  1.00  0.00     0.000 HD 
HETATM   16  C   UNL     1      -9.638  10.314  67.737  1.00  0.00    -0.152 C  
HETATM   17  O   UNL     1     -10.343  11.230  68.137  1.00  0.00    -0.175 OA 
BRANCH  16  18
HETATM   18  CA  UNL     1      -8.344  10.512  66.890  1.00  0.00    -0.126 C  
HETATM   19  H2  UNL     1      -7.733  12.160  68.037  1.00  0.00     0.000 HD 
HETATM   20  N   UNL     1      -7.867  11.910  67.058  1.00  0.00    -0.192 NA 
HETATM   21  H1  UNL     1      -7.021  12.040  66.503  1.00  0.00     0.000 HD 
BRANCH  18  22
HETATM   22  C   UNL     1      -8.662  10.189  65.445  1.00  0.00    -0.176 C  
HETATM   23  C   UNL     1      -8.029   9.237  64.723  1.00  0.00    -0.123 C  
HETATM   24  C   UNL     1      -8.303   8.952  63.274  1.00  0.00    -0.180 C  
HETATM   25  C   UNL     1      -9.270   9.911  62.649  1.00  0.00    -0.297 C  
HETATM   26  C   UNL     1      -9.927  10.848  63.350  1.00  0.00    -0.414 C  
HETATM   27  C   UNL     1      -9.759  11.039  64.832  1.00  0.00    -0.303 C  
ENDBRANCH  18  22
ENDBRANCH  16  18
ENDBRANCH  13  14
TORSDOF 3
ENDMDL
MODEL      146
REMARK 921   NORMALIZED FREE ENERGY PREDICTED BY IDOCK:   -3.87 KCAL/MOL
REMARK 922        TOTAL FREE ENERGY PREDICTED BY IDOCK:   -5.20 KCAL/MOL
REMARK 923 INTER-LIGAND FREE ENERGY PREDICTED BY IDOCK:   -4.74 KCAL/MOL
REMARK 924 INTRA-LIGAND FREE ENERGY PREDICTED BY IDOCK:   -0.46 KCAL/MOL
REMARK 927      BINDING AFFINITY PREDICTED BY RF-SCORE:    0.00 PKD
ROOT
HETATM    1  C   UNL     1      -8.010   8.006  67.983  1.00  0.00    -0.128 C  
HETATM    2  S   UNL     1      -9.483   7.361  67.155  1.00  0.00    -0.158 SA 
HETATM    3  C   UNL     1      -9.325   8.481  65.752  1.00  0.00    -0.118 C  
HETATM    4  C   UNL     1      -9.098   9.931  66.132  1.00  0.00    -0.193 C  
HETATM    5  C   UNL     1      -9.596  10.866  65.049  1.00  0.00    -0.299 C  
HETATM    6  CA  UNL     1      -8.561  10.354  67.314  1.00  0.00    -0.126 C  
HETATM    7  N   UNL     1      -8.188   9.424  68.244  1.00  0.00    -0.117 N  
HETATM    8  C   UNL     1      -8.414  11.845  67.581  1.00  0.00    -0.156 C  
HETATM    9  C   UNL     1      -7.904   9.366  69.564  1.00  0.00    -0.091 C  
HETATM   10  O   UNL     1      -7.805  12.206  68.728  1.00  0.00    -0.107 OA 
HETATM   11  OXT UNL     1      -8.740  12.714  66.785  1.00  0.00    -0.199 OA 
HETATM   12  O   UNL     1      -7.773  10.266  70.360  1.00  0.00    -0.194 OA 
HETATM   13  CA  UNL     1      -7.956   7.797  69.533  1.00  0.00    -0.117 C  
ENDROOT
BRANCH  13  14
HETATM   14  N   UNL     1      -9.160   7.185  70.132  1.00  0.00    -0.152 N  
HETATM   15  H   UNL     1      -9.859   6.801  69.496  1.00  0.00     0.000 HD 
HETATM   16  C   UNL     1      -9.413   7.092  71.484  1.00  0.00    -0.154 C  
HETATM   17  O   UNL     1      -8.628   7.466  72.344  1.00  0.00    -0.113 OA 
BRANCH  16  18
HETATM   18  CA  UNL     1     -10.821   6.493  71.787  1.00  0.00    -0.238 C  
HETATM   19  H2  UNL     1     -11.478   8.259  72.711  1.00  0.00     0.000 HD 
HETATM   20  N   UNL     1     -11.441   7.257  72.901  1.00  0.00    -0.545 NA 
HETATM   21  H1  UNL     1     -12.362   6.865  73.098  1.00  0.00     0.000 HD 
BRANCH  18  22
HETATM   22  C   UNL     1     -10.655   5.026  72.126  1.00  0.00    -0.259 C  
HETATM   23  C   UNL     1     -10.012   4.133  71.341  1.00  0.00    -0.223 C  
HETATM   24  C   UNL     1      -9.895   2.667  71.647  1.00  0.00    -0.213 C  
HETATM   25  C   UNL     1     -10.670   2.246  72.859  1.00  0.00    -0.220 C  
HETATM   26  C   UNL     1     -11.296   3.118  73.665  1.00  0.00    -0.228 C  
HETATM   27  C   UNL     1     -11.292   4.603  73.437  1.00  0.00    -0.394 C  
ENDBRANCH  18  22
ENDBRANCH  16  18
ENDBRANCH  13  14
TORSDOF 3
ENDMDL
MODEL      147
REMARK 921   NORMALIZED FREE ENERGY PREDICTED BY IDOCK:   -3.86 KCAL/MOL
REMARK 922        TOTAL FREE ENERGY PREDICTED BY IDOCK:   -5.20 KCAL/MOL
REMARK 923 INTER-LIGAND FREE ENERGY PREDICTED BY IDOCK:   -4.59 KCAL/MOL
REMARK 924 INTRA-LIGAND FREE ENERGY PREDICTED BY IDOCK:   -0.61 KCAL/MOL
REMARK 927      BINDING AFFINITY PREDICTED BY RF-SCORE:    0.00 PKD
ROOT
HETATM    1  C   UNL     1     -10.984   7.517  67.781  1.00  0.00     0.013 C  
HETATM    2  S   UNL     1     -10.393   9.119  68.378  1.00  0.00    -0.200 SA 
HETATM    3  C   UNL     1      -9.708   9.592  66.779  1.00  0.00    -0.197 C  
HETATM    4  C   UNL     1      -8.846   8.527  66.129  1.00  0.00    -0.200 C  
HETATM    5  C   UNL     1      -7.829   9.143  65.189  1.00  0.00    -0.106 C  
HETATM    6  CA  UNL     1      -8.932   7.188  66.385  1.00  0.00    -0.155 C  
HETATM    7  N   UNL     1      -9.857   6.743  67.288  1.00  0.00    -0.136 N  
HETATM    8  C   UNL     1      -7.984   6.226  65.682  1.00  0.00    -0.115 C  
HETATM    9  C   UNL     1     -10.104   5.639  68.027  1.00  0.00    -0.171 C  
HETATM   10  O   UNL     1      -8.165   4.911  65.910  1.00  0.00    -0.110 OA 
HETATM   11  OXT UNL     1      -7.137   6.577  64.873  1.00  0.00    -0.053 OA 
HETATM   12  O   UNL     1      -9.564   4.558  67.994  1.00  0.00    -0.150 OA 
HETATM   13  CA  UNL     1     -11.175   6.413  68.874  1.00  0.00    -0.307 C  
ENDROOT
BRANCH  13  14
HETATM   14  N   UNL     1     -10.757   6.795  70.239  1.00  0.00    -0.232 N  
HETATM   15  H   UNL     1      -9.758   6.903  70.413  1.00  0.00     0.000 HD 
HETATM   16  C   UNL     1     -11.612   7.017  71.297  1.00  0.00    -0.303 C  
HETATM   17  O   UNL     1     -12.831   6.972  71.199  1.00  0.00    -0.374 OA 
BRANCH  16  18
HETATM   18  CA  UNL     1     -10.852   7.295  72.630  1.00  0.00    -0.290 C  
HETATM   19  H2  UNL     1     -10.308   9.230  72.026  1.00  0.00     0.000 HD 
HETATM   20  N   UNL     1      -9.872   8.391  72.408  1.00  0.00    -0.300 NA 
HETATM   21  H1  UNL     1      -9.375   8.572  73.280  1.00  0.00     0.000 HD 
BRANCH  18  22
HETATM   22  C   UNL     1     -10.181   6.013  73.076  1.00  0.00    -0.210 C  
HETATM   23  C   UNL     1      -8.842   5.851  73.173  1.00  0.00    -0.121 C  
HETATM   24  C   UNL     1      -8.172   4.563  73.560  1.00  0.00    -0.102 C  
HETATM   25  C   UNL     1      -9.125   3.417  73.719  1.00  0.00    -0.092 C  
HETATM   26  C   UNL     1     -10.458   3.561  73.651  1.00  0.00    -0.262 C  
HETATM   27  C   UNL     1     -11.135   4.880  73.404  1.00  0.00    -0.415 C  
ENDBRANCH  18  22
ENDBRANCH  16  18
ENDBRANCH  13  14
TORSDOF 3
ENDMDL
MODEL      148
REMARK 921   NORMALIZED FREE ENERGY PREDICTED BY IDOCK:   -3.86 KCAL/MOL
REMARK 922        TOTAL FREE ENERGY PREDICTED BY IDOCK:   -5.19 KCAL/MOL
REMARK 923 INTER-LIGAND FREE ENERGY PREDICTED BY IDOCK:   -5.14 KCAL/MOL
REMARK 924 INTRA-LIGAND FREE ENERGY PREDICTED BY IDOCK:   -0.05 KCAL/MOL
REMARK 927      BINDING AFFINITY PREDICTED BY RF-SCORE:    0.00 PKD
ROOT
HETATM    1  C   UNL     1      -9.994  11.834  67.296  1.00  0.00    -0.192 C  
HETATM    2  S   UNL     1      -8.335  12.548  67.387  1.00  0.00    -0.191 SA 
HETATM    3  C   UNL     1      -7.518  10.942  67.364  1.00  0.00    -0.100 C  
HETATM    4  C   UNL     1      -8.093   9.934  68.341  1.00  0.00    -0.101 C  
HETATM    5  C   UNL     1      -7.054   8.907  68.743  1.00  0.00    -0.067 C  
HETATM    6  CA  UNL     1      -9.364   9.965  68.837  1.00  0.00    -0.170 C  
HETATM    7  N   UNL     1     -10.207  10.967  68.442  1.00  0.00    -0.171 N  
HETATM    8  C   UNL     1      -9.807   8.905  69.836  1.00  0.00    -0.182 C  
HETATM    9  C   UNL     1     -11.363  11.538  68.846  1.00  0.00    -0.268 C  
HETATM   10  O   UNL     1     -11.094   8.935  70.234  1.00  0.00    -0.245 OA 
HETATM   11  OXT UNL     1      -9.088   7.996  70.226  1.00  0.00    -0.146 OA 
HETATM   12  O   UNL     1     -12.125  11.193  69.718  1.00  0.00    -0.315 OA 
HETATM   13  CA  UNL     1     -11.151  12.732  67.849  1.00  0.00    -0.246 C  
ENDROOT
BRANCH  13  14
HETATM   14  N   UNL     1     -10.725  14.009  68.460  1.00  0.00    -0.249 N  
HETATM   15  H   UNL     1     -10.717  14.063  69.478  1.00  0.00     0.000 HD 
HETATM   16  C   UNL     1     -10.338  15.132  67.761  1.00  0.00    -0.243 C  
HETATM   17  O   UNL     1     -10.255  15.171  66.541  1.00  0.00    -0.262 OA 
BRANCH  16  18
HETATM   18  CA  UNL     1     -10.056  16.347  68.696  1.00  0.00    -0.244 C  
HETATM   19  H2  UNL     1     -11.598  17.485  67.840  1.00  0.00     0.000 HD 
HETATM   20  N   UNL     1     -10.609  17.577  68.070  1.00  0.00    -0.389 NA 
HETATM   21  H1  UNL     1     -10.424  18.372  68.681  1.00  0.00     0.000 HD 
BRANCH  18  22
HETATM   22  C   UNL     1      -8.561  16.445  68.919  1.00  0.00    -0.250 C  
HETATM   23  C   UNL     1      -7.800  15.441  69.409  1.00  0.00    -0.232 C  
HETATM   24  C   UNL     1      -6.327  15.554  69.685  1.00  0.00    -0.163 C  
HETATM   25  C   UNL     1      -5.784  16.935  69.479  1.00  0.00    -0.187 C  
HETATM   26  C   UNL     1      -6.516  17.939  68.971  1.00  0.00    -0.236 C  
HETATM   27  C   UNL     1      -7.954  17.788  68.561  1.00  0.00    -0.294 C  
ENDBRANCH  18  22
ENDBRANCH  16  18
ENDBRANCH  13  14
TORSDOF 3
ENDMDL
MODEL      149
REMARK 921   NORMALIZED FREE ENERGY PREDICTED BY IDOCK:   -3.85 KCAL/MOL
REMARK 922        TOTAL FREE ENERGY PREDICTED BY IDOCK:   -5.18 KCAL/MOL
REMARK 923 INTER-LIGAND FREE ENERGY PREDICTED BY IDOCK:   -4.64 KCAL/MOL
REMARK 924 INTRA-LIGAND FREE ENERGY PREDICTED BY IDOCK:   -0.54 KCAL/MOL
REMARK 927      BINDING AFFINITY PREDICTED BY RF-SCORE:    0.00 PKD
ROOT
HETATM    1  C   UNL     1     -11.087   9.791  67.818  1.00  0.00    -0.075 C  
HETATM    2  S   UNL     1     -10.295   9.835  69.443  1.00  0.00    -0.232 SA 
HETATM    3  C   UNL     1     -11.436  11.068  70.094  1.00  0.00    -0.296 C  
HETATM    4  C   UNL     1     -11.644  12.267  69.188  1.00  0.00    -0.373 C  
HETATM    5  C   UNL     1     -12.048  13.491  69.984  1.00  0.00    -0.411 C  
HETATM    6  CA  UNL     1     -11.450  12.268  67.837  1.00  0.00    -0.330 C  
HETATM    7  N   UNL     1     -11.038  11.116  67.225  1.00  0.00    -0.295 N  
HETATM    8  C   UNL     1     -11.669  13.551  67.047  1.00  0.00    -0.383 C  
HETATM    9  C   UNL     1     -10.480  10.733  66.055  1.00  0.00    -0.208 C  
HETATM   10  O   UNL     1     -11.540  13.477  65.708  1.00  0.00    -0.315 OA 
HETATM   11  OXT UNL     1     -12.028  14.606  67.551  1.00  0.00    -0.375 OA 
HETATM   12  O   UNL     1     -10.272  11.380  65.056  1.00  0.00    -0.251 OA 
HETATM   13  CA  UNL     1     -10.184   9.304  66.635  1.00  0.00    -0.253 C  
ENDROOT
BRANCH  13  14
HETATM   14  N   UNL     1      -8.774   9.034  66.985  1.00  0.00    -0.116 N  
HETATM   15  H   UNL     1      -8.192   9.831  67.241  1.00  0.00     0.000 HD 
HETATM   16  C   UNL     1      -8.184   7.789  66.991  1.00  0.00    -0.117 C  
HETATM   17  O   UNL     1      -8.792   6.753  66.755  1.00  0.00    -0.116 OA 
BRANCH  16  18
HETATM   18  CA  UNL     1      -6.656   7.855  67.296  1.00  0.00    -0.060 C  
HETATM   19  H2  UNL     1      -6.398   5.804  66.930  1.00  0.00     0.000 HD 
HETATM   20  N   UNL     1      -6.174   6.493  67.648  1.00  0.00    -0.033 NA 
HETATM   21  H1  UNL     1      -5.175   6.537  67.847  1.00  0.00     0.000 HD 
BRANCH  18  22
HETATM   22  C   UNL     1      -6.432   8.846  68.419  1.00  0.00    -0.055 C  
HETATM   23  C   UNL     1      -6.774   8.622  69.708  1.00  0.00    -0.042 C  
HETATM   24  C   UNL     1      -6.606   9.624  70.814  1.00  0.00    -0.099 C  
HETATM   25  C   UNL     1      -6.129  10.964  70.339  1.00  0.00    -0.129 C  
HETATM   26  C   UNL     1      -5.762  11.201  69.071  1.00  0.00    -0.040 C  
HETATM   27  C   UNL     1      -5.795  10.155  67.992  1.00  0.00    -0.038 C  
ENDBRANCH  18  22
ENDBRANCH  16  18
ENDBRANCH  13  14
TORSDOF 3
ENDMDL
MODEL      150
REMARK 921   NORMALIZED FREE ENERGY PREDICTED BY IDOCK:   -3.83 KCAL/MOL
REMARK 922        TOTAL FREE ENERGY PREDICTED BY IDOCK:   -5.16 KCAL/MOL
REMARK 923 INTER-LIGAND FREE ENERGY PREDICTED BY IDOCK:   -4.64 KCAL/MOL
REMARK 924 INTRA-LIGAND FREE ENERGY PREDICTED BY IDOCK:   -0.53 KCAL/MOL
REMARK 927      BINDING AFFINITY PREDICTED BY RF-SCORE:    0.00 PKD
ROOT
HETATM    1  C   UNL     1     -10.612  12.230  66.875  1.00  0.00    -0.224 C  
HETATM    2  S   UNL     1     -11.827  12.277  68.214  1.00  0.00    -0.225 SA 
HETATM    3  C   UNL     1     -11.900  14.078  68.240  1.00  0.00    -0.371 C  
HETATM    4  C   UNL     1     -10.545  14.757  68.263  1.00  0.00    -0.241 C  
HETATM    5  C   UNL     1     -10.630  16.127  68.906  1.00  0.00    -0.275 C  
HETATM    6  CA  UNL     1      -9.383  14.200  67.812  1.00  0.00    -0.200 C  
HETATM    7  N   UNL     1      -9.412  12.935  67.293  1.00  0.00    -0.209 N  
HETATM    8  C   UNL     1      -8.082  14.983  67.920  1.00  0.00    -0.136 C  
HETATM    9  C   UNL     1      -8.549  11.935  67.010  1.00  0.00    -0.176 C  
HETATM   10  O   UNL     1      -6.980  14.419  67.388  1.00  0.00    -0.186 OA 
HETATM   11  OXT UNL     1      -8.005  16.112  68.384  1.00  0.00    -0.150 OA 
HETATM   12  O   UNL     1      -7.340  11.934  67.038  1.00  0.00    -0.143 OA 
HETATM   13  CA  UNL     1      -9.739  10.934  66.796  1.00  0.00    -0.190 C  
ENDROOT
BRANCH  13  14
HETATM   14  N   UNL     1      -9.956   9.956  67.883  1.00  0.00    -0.154 N  
HETATM   15  H   UNL     1      -9.801  10.274  68.840  1.00  0.00     0.000 HD 
HETATM   16  C   UNL     1     -10.354   8.649  67.705  1.00  0.00    -0.242 C  
HETATM   17  O   UNL     1     -10.623   8.169  66.612  1.00  0.00    -0.272 OA 
BRANCH  16  18
HETATM   18  CA  UNL     1     -10.384   7.848  69.043  1.00  0.00    -0.214 C  
HETATM   19  H2  UNL     1     -10.441   9.598  70.199  1.00  0.00     0.000 HD 
HETATM   20  N   UNL     1      -9.912   8.728  70.144  1.00  0.00    -0.180 NA 
HETATM   21  H1  UNL     1      -9.933   8.204  71.018  1.00  0.00     0.000 HD 
BRANCH  18  22
HETATM   22  C   UNL     1      -9.516   6.617  68.886  1.00  0.00    -0.130 C  
HETATM   23  C   UNL     1      -8.165   6.642  68.848  1.00  0.00    -0.120 C  
HETATM   24  C   UNL     1      -7.302   5.430  68.635  1.00  0.00    -0.075 C  
HETATM   25  C   UNL     1      -8.083   4.184  68.345  1.00  0.00    -0.080 C  
HETATM   26  C   UNL     1      -9.423   4.132  68.400  1.00  0.00    -0.212 C  
HETATM   27  C   UNL     1     -10.281   5.314  68.754  1.00  0.00    -0.231 C  
ENDBRANCH  18  22
ENDBRANCH  16  18
ENDBRANCH  13  14
TORSDOF 3
ENDMDL
MODEL      151
REMARK 921   NORMALIZED FREE ENERGY PREDICTED BY IDOCK:   -3.83 KCAL/MOL
REMARK 922        TOTAL FREE ENERGY PREDICTED BY IDOCK:   -5.16 KCAL/MOL
REMARK 923 INTER-LIGAND FREE ENERGY PREDICTED BY IDOCK:   -5.42 KCAL/MOL
REMARK 924 INTRA-LIGAND FREE ENERGY PREDICTED BY IDOCK:    0.26 KCAL/MOL
REMARK 927      BINDING AFFINITY PREDICTED BY RF-SCORE:    0.00 PKD
ROOT
HETATM    1  C   UNL     1      -8.969  14.600  65.592  1.00  0.00     0.765 C  
HETATM    2  S   UNL     1      -8.718  13.554  67.045  1.00  0.00    -0.144 SA 
HETATM    3  C   UNL     1      -9.032  12.026  66.142  1.00  0.00    -0.079 C  
HETATM    4  C   UNL     1     -10.284  12.052  65.287  1.00  0.00    -0.304 C  
HETATM    5  C   UNL     1     -10.839  10.656  65.084  1.00  0.00     0.040 C  
HETATM    6  CA  UNL     1     -10.873  13.183  64.798  1.00  0.00    -0.352 C  
HETATM    7  N   UNL     1     -10.314  14.398  65.081  1.00  0.00    -0.403 N  
HETATM    8  C   UNL     1     -12.148  13.069  63.973  1.00  0.00    -0.450 C  
HETATM    9  C   UNL     1     -10.664  15.703  65.067  1.00  0.00    -0.436 C  
HETATM   10  O   UNL     1     -12.643  14.208  63.448  1.00  0.00    -0.818 OA 
HETATM   11  OXT UNL     1     -12.689  12.007  63.701  1.00  0.00    -0.647 OA 
HETATM   12  O   UNL     1     -11.663  16.225  64.631  1.00  0.00    -0.234 OA 
HETATM   13  CA  UNL     1      -9.378  16.083  65.885  1.00  0.00    -0.300 C  
ENDROOT
BRANCH  13  14
HETATM   14  N   UNL     1      -9.598  16.409  67.309  1.00  0.00    -0.232 N  
HETATM   15  H   UNL     1      -9.114  15.839  68.003  1.00  0.00     0.000 HD 
HETATM   16  C   UNL     1     -10.407  17.424  67.774  1.00  0.00    -0.358 C  
HETATM   17  O   UNL     1     -10.994  18.207  67.040  1.00  0.00    -0.219 OA 
BRANCH  16  18
HETATM   18  CA  UNL     1     -10.514  17.436  69.329  1.00  0.00    -0.171 C  
HETATM   19  H2  UNL     1      -8.587  18.238  69.550  1.00  0.00     0.000 HD 
HETATM   20  N   UNL     1      -9.144  17.462  69.907  1.00  0.00     1.185 NA 
HETATM   21  H1  UNL     1      -9.214  17.470  70.925  1.00  0.00     0.000 HD 
BRANCH  18  22
HETATM   22  C   UNL     1     -11.292  16.212  69.767  1.00  0.00    -0.323 C  
HETATM   23  C   UNL     1     -11.774  16.026  71.016  1.00  0.00    -0.458 C  
HETATM   24  C   UNL     1     -12.497  14.790  71.468  1.00  0.00    -0.403 C  
HETATM   25  C   UNL     1     -12.535  13.707  70.432  1.00  0.00    -0.364 C  
HETATM   26  C   UNL     1     -12.084  13.878  69.180  1.00  0.00    -0.377 C  
HETATM   27  C   UNL     1     -11.490  15.167  68.685  1.00  0.00    -0.341 C  
ENDBRANCH  18  22
ENDBRANCH  16  18
ENDBRANCH  13  14
TORSDOF 3
ENDMDL
MODEL      152
REMARK 921   NORMALIZED FREE ENERGY PREDICTED BY IDOCK:   -3.81 KCAL/MOL
REMARK 922        TOTAL FREE ENERGY PREDICTED BY IDOCK:   -5.14 KCAL/MOL
REMARK 923 INTER-LIGAND FREE ENERGY PREDICTED BY IDOCK:   -4.70 KCAL/MOL
REMARK 924 INTRA-LIGAND FREE ENERGY PREDICTED BY IDOCK:   -0.44 KCAL/MOL
REMARK 927      BINDING AFFINITY PREDICTED BY RF-SCORE:    0.00 PKD
ROOT
HETATM    1  C   UNL     1      -8.868  11.923  66.878  1.00  0.00    -0.197 C  
HETATM    2  S   UNL     1     -10.404  11.039  67.240  1.00  0.00    -0.223 SA 
HETATM    3  C   UNL     1     -11.414  12.529  67.168  1.00  0.00    -0.351 C  
HETATM    4  C   UNL     1     -10.866  13.695  67.968  1.00  0.00    -0.261 C  
HETATM    5  C   UNL     1     -11.974  14.635  68.399  1.00  0.00    -0.289 C  
HETATM    6  CA  UNL     1      -9.553  13.863  68.304  1.00  0.00    -0.218 C  
HETATM    7  N   UNL     1      -8.640  12.927  67.903  1.00  0.00    -0.174 N  
HETATM    8  C   UNL     1      -9.139  15.068  69.138  1.00  0.00    -0.183 C  
HETATM    9  C   UNL     1      -7.384  12.538  68.212  1.00  0.00    -0.115 C  
HETATM   10  O   UNL     1      -7.822  15.227  69.374  1.00  0.00    -0.204 OA 
HETATM   11  OXT UNL     1      -9.919  15.925  69.527  1.00  0.00    -0.255 OA 
HETATM   12  O   UNL     1      -6.579  13.059  68.948  1.00  0.00    -0.084 OA 
HETATM   13  CA  UNL     1      -7.553  11.228  67.365  1.00  0.00    -0.120 C  
ENDROOT
BRANCH  13  14
HETATM   14  N   UNL     1      -7.744   9.984  68.141  1.00  0.00    -0.085 N  
HETATM   15  H   UNL     1      -7.783  10.065  69.156  1.00  0.00     0.000 HD 
HETATM   16  C   UNL     1      -7.875   8.724  67.598  1.00  0.00    -0.102 C  
HETATM   17  O   UNL     1      -7.901   8.508  66.394  1.00  0.00    -0.096 OA 
BRANCH  16  18
HETATM   18  CA  UNL     1      -7.951   7.611  68.688  1.00  0.00    -0.122 C  
HETATM   19  H2  UNL     1      -7.587   6.087  67.291  1.00  0.00     0.000 HD 
HETATM   20  N   UNL     1      -8.252   6.312  68.030  1.00  0.00    -0.114 NA 
HETATM   21  H1  UNL     1      -8.301   5.584  68.743  1.00  0.00     0.000 HD 
BRANCH  18  22
HETATM   22  C   UNL     1      -9.011   7.998  69.697  1.00  0.00    -0.145 C  
HETATM   23  C   UNL     1     -10.321   8.156  69.400  1.00  0.00    -0.219 C  
HETATM   24  C   UNL     1     -11.365   8.595  70.386  1.00  0.00    -0.203 C  
HETATM   25  C   UNL     1     -10.804   8.966  71.726  1.00  0.00    -0.436 C  
HETATM   26  C   UNL     1      -9.513   8.794  72.049  1.00  0.00    -0.336 C  
HETATM   27  C   UNL     1      -8.494   8.220  71.106  1.00  0.00    -0.164 C  
ENDBRANCH  18  22
ENDBRANCH  16  18
ENDBRANCH  13  14
TORSDOF 3
ENDMDL
MODEL      153
REMARK 921   NORMALIZED FREE ENERGY PREDICTED BY IDOCK:   -3.79 KCAL/MOL
REMARK 922        TOTAL FREE ENERGY PREDICTED BY IDOCK:   -5.11 KCAL/MOL
REMARK 923 INTER-LIGAND FREE ENERGY PREDICTED BY IDOCK:   -4.70 KCAL/MOL
REMARK 924 INTRA-LIGAND FREE ENERGY PREDICTED BY IDOCK:   -0.42 KCAL/MOL
REMARK 927      BINDING AFFINITY PREDICTED BY RF-SCORE:    0.00 PKD
ROOT
HETATM    1  C   UNL     1      -7.916   8.758  68.391  1.00  0.00    -0.109 C  
HETATM    2  S   UNL     1      -9.594   8.084  68.410  1.00  0.00    -0.153 SA 
HETATM    3  C   UNL     1     -10.117   9.038  66.973  1.00  0.00    -0.250 C  
HETATM    4  C   UNL     1      -9.764  10.511  67.040  1.00  0.00    -0.212 C  
HETATM    5  C   UNL     1     -10.719  11.342  66.206  1.00  0.00    -0.322 C  
HETATM    6  CA  UNL     1      -8.751  11.039  67.788  1.00  0.00    -0.130 C  
HETATM    7  N   UNL     1      -7.978  10.202  68.543  1.00  0.00    -0.101 N  
HETATM    8  C   UNL     1      -8.522  12.544  67.787  1.00  0.00    -0.171 C  
HETATM    9  C   UNL     1      -7.118  10.277  69.582  1.00  0.00    -0.125 C  
HETATM   10  O   UNL     1      -7.461  13.004  68.478  1.00  0.00    -0.119 OA 
HETATM   11  OXT UNL     1      -9.192  13.333  67.136  1.00  0.00    -0.218 OA 
HETATM   12  O   UNL     1      -6.651  11.252  70.122  1.00  0.00    -0.147 OA 
HETATM   13  CA  UNL     1      -7.153   8.717  69.757  1.00  0.00    -0.051 C  
ENDROOT
BRANCH  13  14
HETATM   14  N   UNL     1      -7.937   8.219  70.906  1.00  0.00    -0.093 N  
HETATM   15  H   UNL     1      -8.818   7.745  70.705  1.00  0.00     0.000 HD 
HETATM   16  C   UNL     1      -7.572   8.344  72.229  1.00  0.00    -0.103 C  
HETATM   17  O   UNL     1      -6.515   8.843  72.592  1.00  0.00    -0.254 OA 
BRANCH  16  18
HETATM   18  CA  UNL     1      -8.668   7.814  73.203  1.00  0.00    -0.195 C  
HETATM   19  H2  UNL     1      -7.300   6.599  74.232  1.00  0.00     0.000 HD 
HETATM   20  N   UNL     1      -8.214   6.523  73.785  1.00  0.00    -0.107 NA 
HETATM   21  H1  UNL     1      -8.931   6.176  74.422  1.00  0.00     0.000 HD 
BRANCH  18  22
HETATM   22  C   UNL     1      -9.964   7.666  72.433  1.00  0.00    -0.256 C  
HETATM   23  C   UNL     1     -10.837   8.675  72.216  1.00  0.00    -0.392 C  
HETATM   24  C   UNL     1     -12.149   8.518  71.502  1.00  0.00    -0.351 C  
HETATM   25  C   UNL     1     -12.472   7.098  71.148  1.00  0.00    -0.400 C  
HETATM   26  C   UNL     1     -11.611   6.085  71.334  1.00  0.00    -0.211 C  
HETATM   27  C   UNL     1     -10.238   6.265  71.918  1.00  0.00    -0.227 C  
ENDBRANCH  18  22
ENDBRANCH  16  18
ENDBRANCH  13  14
TORSDOF 3
ENDMDL
MODEL      154
REMARK 921   NORMALIZED FREE ENERGY PREDICTED BY IDOCK:   -3.79 KCAL/MOL
REMARK 922        TOTAL FREE ENERGY PREDICTED BY IDOCK:   -5.11 KCAL/MOL
REMARK 923 INTER-LIGAND FREE ENERGY PREDICTED BY IDOCK:   -4.60 KCAL/MOL
REMARK 924 INTRA-LIGAND FREE ENERGY PREDICTED BY IDOCK:   -0.51 KCAL/MOL
REMARK 927      BINDING AFFINITY PREDICTED BY RF-SCORE:    0.00 PKD
ROOT
HETATM    1  C   UNL     1      -8.867   8.769  71.567  1.00  0.00    -0.225 C  
HETATM    2  S   UNL     1      -8.401   8.395  69.861  1.00  0.00    -0.127 SA 
HETATM    3  C   UNL     1      -9.273   9.822  69.188  1.00  0.00    -0.176 C  
HETATM    4  C   UNL     1     -10.694   9.981  69.694  1.00  0.00    -0.282 C  
HETATM    5  C   UNL     1     -11.551  10.731  68.694  1.00  0.00    -0.342 C  
HETATM    6  CA  UNL     1     -11.165   9.477  70.872  1.00  0.00    -0.341 C  
HETATM    7  N   UNL     1     -10.316   8.773  71.680  1.00  0.00    -0.292 N  
HETATM    8  C   UNL     1     -12.625   9.686  71.248  1.00  0.00    -0.352 C  
HETATM    9  C   UNL     1     -10.385   7.907  72.714  1.00  0.00    -0.333 C  
HETATM   10  O   UNL     1     -13.018   9.238  72.457  1.00  0.00    -0.393 OA 
HETATM   11  OXT UNL     1     -13.424  10.301  70.556  1.00  0.00    -0.175 OA 
HETATM   12  O   UNL     1     -11.344   7.566  73.366  1.00  0.00    -0.249 OA 
HETATM   13  CA  UNL     1      -8.863   7.554  72.555  1.00  0.00    -0.132 C  
ENDROOT
BRANCH  13  14
HETATM   14  N   UNL     1      -8.571   6.241  71.942  1.00  0.00    -0.128 N  
HETATM   15  H   UNL     1      -9.324   5.786  71.426  1.00  0.00     0.000 HD 
HETATM   16  C   UNL     1      -7.362   5.585  72.013  1.00  0.00    -0.093 C  
HETATM   17  O   UNL     1      -6.370   6.055  72.556  1.00  0.00    -0.051 OA 
BRANCH  16  18
HETATM   18  CA  UNL     1      -7.411   4.171  71.359  1.00  0.00    -0.059 C  
HETATM   19  H2  UNL     1      -7.334   4.962  69.416  1.00  0.00     0.000 HD 
HETATM   20  N   UNL     1      -7.893   4.303  69.958  1.00  0.00    -0.052 NA 
HETATM   21  H1  UNL     1      -7.925   3.378  69.531  1.00  0.00     0.000 HD 
BRANCH  18  22
HETATM   22  C   UNL     1      -8.319   3.288  72.191  1.00  0.00    -0.077 C  
HETATM   23  C   UNL     1      -9.305   2.519  71.680  1.00  0.00    -0.190 C  
HETATM   24  C   UNL     1     -10.243   1.686  72.508  1.00  0.00    -0.217 C  
HETATM   25  C   UNL     1     -10.067   1.877  73.984  1.00  0.00    -0.143 C  
HETATM   26  C   UNL     1      -9.080   2.617  74.512  1.00  0.00    -0.094 C  
HETATM   27  C   UNL     1      -8.053   3.336  73.684  1.00  0.00    -0.074 C  
ENDBRANCH  18  22
ENDBRANCH  16  18
ENDBRANCH  13  14
TORSDOF 3
ENDMDL
MODEL      155
REMARK 921   NORMALIZED FREE ENERGY PREDICTED BY IDOCK:   -3.77 KCAL/MOL
REMARK 922        TOTAL FREE ENERGY PREDICTED BY IDOCK:   -5.09 KCAL/MOL
REMARK 923 INTER-LIGAND FREE ENERGY PREDICTED BY IDOCK:   -4.66 KCAL/MOL
REMARK 924 INTRA-LIGAND FREE ENERGY PREDICTED BY IDOCK:   -0.43 KCAL/MOL
REMARK 927      BINDING AFFINITY PREDICTED BY RF-SCORE:    0.00 PKD
ROOT
HETATM    1  C   UNL     1      -9.656   8.470  68.799  1.00  0.00    -0.149 C  
HETATM    2  S   UNL     1      -7.859   8.299  68.912  1.00  0.00    -0.113 SA 
HETATM    3  C   UNL     1      -7.946   6.952  70.106  1.00  0.00    -0.115 C  
HETATM    4  C   UNL     1      -8.876   7.213  71.275  1.00  0.00    -0.129 C  
HETATM    5  C   UNL     1      -8.456   6.421  72.496  1.00  0.00    -0.123 C  
HETATM    6  CA  UNL     1      -9.929   8.082  71.257  1.00  0.00    -0.174 C  
HETATM    7  N   UNL     1     -10.191   8.784  70.113  1.00  0.00    -0.185 N  
HETATM    8  C   UNL     1     -10.769   8.271  72.513  1.00  0.00    -0.341 C  
HETATM    9  C   UNL     1     -10.883   9.880  69.731  1.00  0.00    -0.269 C  
HETATM   10  O   UNL     1     -11.842   9.080  72.417  1.00  0.00    -0.302 OA 
HETATM   11  OXT UNL     1     -10.568   7.674  73.561  1.00  0.00    -0.343 OA 
HETATM   12  O   UNL     1     -11.655  10.559  70.367  1.00  0.00    -0.293 OA 
HETATM   13  CA  UNL     1     -10.177   9.869  68.329  1.00  0.00    -0.176 C  
ENDROOT
BRANCH  13  14
HETATM   14  N   UNL     1      -9.136  10.899  68.130  1.00  0.00    -0.149 N  
HETATM   15  H   UNL     1      -8.726  11.321  68.963  1.00  0.00     0.000 HD 
HETATM   16  C   UNL     1      -8.674  11.332  66.906  1.00  0.00    -0.157 C  
HETATM   17  O   UNL     1      -9.048  10.861  65.839  1.00  0.00    -0.180 OA 
BRANCH  16  18
HETATM   18  CA  UNL     1      -7.655  12.505  67.034  1.00  0.00    -0.015 C  
HETATM   19  H2  UNL     1      -6.292  11.328  68.112  1.00  0.00     0.000 HD 
HETATM   20  N   UNL     1      -6.751  12.236  68.183  1.00  0.00    -0.062 NA 
HETATM   21  H1  UNL     1      -6.085  13.004  68.267  1.00  0.00     0.000 HD 
BRANCH  18  22
HETATM   22  C   UNL     1      -8.428  13.796  67.208  1.00  0.00    -0.204 C  
HETATM   23  C   UNL     1      -8.167  14.713  68.165  1.00  0.00    -0.142 C  
HETATM   24  C   UNL     1      -8.967  15.967  68.376  1.00  0.00    -0.188 C  
HETATM   25  C   UNL     1     -10.177  16.059  67.496  1.00  0.00    -0.275 C  
HETATM   26  C   UNL     1     -10.442  15.173  66.524  1.00  0.00    -0.292 C  
HETATM   27  C   UNL     1      -9.561  13.994  66.218  1.00  0.00    -0.284 C  
ENDBRANCH  18  22
ENDBRANCH  16  18
ENDBRANCH  13  14
TORSDOF 3
ENDMDL
MODEL      156
REMARK 921   NORMALIZED FREE ENERGY PREDICTED BY IDOCK:   -3.75 KCAL/MOL
REMARK 922        TOTAL FREE ENERGY PREDICTED BY IDOCK:   -5.06 KCAL/MOL
REMARK 923 INTER-LIGAND FREE ENERGY PREDICTED BY IDOCK:   -4.64 KCAL/MOL
REMARK 924 INTRA-LIGAND FREE ENERGY PREDICTED BY IDOCK:   -0.42 KCAL/MOL
REMARK 927      BINDING AFFINITY PREDICTED BY RF-SCORE:    0.00 PKD
ROOT
HETATM    1  C   UNL     1      -8.074   7.667  67.804  1.00  0.00    -0.118 C  
HETATM    2  S   UNL     1      -9.672   7.509  68.635  1.00  0.00    -0.157 SA 
HETATM    3  C   UNL     1      -9.442   5.758  68.994  1.00  0.00    -0.124 C  
HETATM    4  C   UNL     1      -8.987   4.931  67.807  1.00  0.00    -0.118 C  
HETATM    5  C   UNL     1      -9.411   3.483  67.952  1.00  0.00    -0.238 C  
HETATM    6  CA  UNL     1      -8.323   5.424  66.720  1.00  0.00    -0.108 C  
HETATM    7  N   UNL     1      -8.032   6.759  66.670  1.00  0.00    -0.106 N  
HETATM    8  C   UNL     1      -7.948   4.487  65.581  1.00  0.00    -0.095 C  
HETATM    9  C   UNL     1      -7.678   7.686  65.753  1.00  0.00    -0.100 C  
HETATM   10  O   UNL     1      -7.226   5.009  64.570  1.00  0.00    -0.056 OA 
HETATM   11  OXT UNL     1      -8.195   3.289  65.576  1.00  0.00    -0.095 OA 
HETATM   12  O   UNL     1      -7.372   7.540  64.593  1.00  0.00    -0.068 OA 
HETATM   13  CA  UNL     1      -7.956   8.843  66.777  1.00  0.00    -0.107 C  
ENDROOT
BRANCH  13  14
HETATM   14  N   UNL     1      -9.197   9.614  66.552  1.00  0.00    -0.152 N  
HETATM   15  H   UNL     1      -9.938   9.165  66.014  1.00  0.00     0.000 HD 
HETATM   16  C   UNL     1      -9.431  10.891  67.012  1.00  0.00    -0.164 C  
HETATM   17  O   UNL     1      -8.641  11.511  67.712  1.00  0.00    -0.130 OA 
BRANCH  16  18
HETATM   18  CA  UNL     1     -10.791  11.466  66.510  1.00  0.00    -0.283 C  
HETATM   19  H2  UNL     1     -10.256  11.230  64.495  1.00  0.00     0.000 HD 
HETATM   20  N   UNL     1     -10.625  11.950  65.115  1.00  0.00    -0.276 NA 
HETATM   21  H1  UNL     1     -11.515  12.326  64.787  1.00  0.00     0.000 HD 
BRANCH  18  22
HETATM   22  C   UNL     1     -11.220  12.573  67.450  1.00  0.00    -0.344 C  
HETATM   23  C   UNL     1     -11.151  13.890  67.153  1.00  0.00    -0.312 C  
HETATM   24  C   UNL     1     -11.522  14.993  68.103  1.00  0.00    -0.355 C  
HETATM   25  C   UNL     1     -11.870  14.506  69.477  1.00  0.00    -0.374 C  
HETATM   26  C   UNL     1     -11.968  13.204  69.787  1.00  0.00    -0.382 C  
HETATM   27  C   UNL     1     -11.735  12.098  68.796  1.00  0.00    -0.374 C  
ENDBRANCH  18  22
ENDBRANCH  16  18
ENDBRANCH  13  14
TORSDOF 3
ENDMDL
MODEL      157
REMARK 921   NORMALIZED FREE ENERGY PREDICTED BY IDOCK:   -3.70 KCAL/MOL
REMARK 922        TOTAL FREE ENERGY PREDICTED BY IDOCK:   -5.00 KCAL/MOL
REMARK 923 INTER-LIGAND FREE ENERGY PREDICTED BY IDOCK:   -4.55 KCAL/MOL
REMARK 924 INTRA-LIGAND FREE ENERGY PREDICTED BY IDOCK:   -0.45 KCAL/MOL
REMARK 927      BINDING AFFINITY PREDICTED BY RF-SCORE:    0.00 PKD
ROOT
HETATM    1  C   UNL     1     -11.648  10.532  68.626  1.00  0.00    -0.171 C  
HETATM    2  S   UNL     1     -11.162  11.909  69.693  1.00  0.00    -0.039 SA 
HETATM    3  C   UNL     1     -11.527  13.156  68.444  1.00  0.00    -0.315 C  
HETATM    4  C   UNL     1     -10.943  12.859  67.076  1.00  0.00    -0.290 C  
HETATM    5  C   UNL     1     -10.716  14.134  66.289  1.00  0.00    -0.293 C  
HETATM    6  CA  UNL     1     -10.616  11.615  66.619  1.00  0.00    -0.243 C  
HETATM    7  N   UNL     1     -10.820  10.535  67.432  1.00  0.00    -0.286 N  
HETATM    8  C   UNL     1     -10.010  11.459  65.232  1.00  0.00    -0.258 C  
HETATM    9  C   UNL     1     -10.419   9.248  67.529  1.00  0.00    -0.274 C  
HETATM   10  O   UNL     1      -9.780  10.204  64.800  1.00  0.00    -0.294 OA 
HETATM   11  OXT UNL     1      -9.801  12.395  64.472  1.00  0.00    -0.190 OA 
HETATM   12  O   UNL     1      -9.775   8.585  66.751  1.00  0.00    -0.193 OA 
HETATM   13  CA  UNL     1     -11.015   9.144  68.978  1.00  0.00    -0.008 C  
ENDROOT
BRANCH  13  14
HETATM   14  N   UNL     1     -10.028   9.159  70.079  1.00  0.00    -0.188 N  
HETATM   15  H   UNL     1      -9.182   9.712  69.944  1.00  0.00     0.000 HD 
HETATM   16  C   UNL     1     -10.163   8.485  71.273  1.00  0.00    -0.223 C  
HETATM   17  O   UNL     1     -11.156   7.835  71.572  1.00  0.00    -0.233 OA 
BRANCH  16  18
HETATM   18  CA  UNL     1      -8.899   8.614  72.176  1.00  0.00    -0.175 C  
HETATM   19  H2  UNL     1      -8.263  10.360  71.199  1.00  0.00     0.000 HD 
HETATM   20  N   UNL     1      -7.889   9.453  71.477  1.00  0.00    -0.246 NA 
HETATM   21  H1  UNL     1      -7.063   9.537  72.068  1.00  0.00     0.000 HD 
BRANCH  18  22
HETATM   22  C   UNL     1      -8.376   7.224  72.474  1.00  0.00    -0.124 C  
HETATM   23  C   UNL     1      -7.487   6.565  71.698  1.00  0.00    -0.089 C  
HETATM   24  C   UNL     1      -7.010   5.165  71.960  1.00  0.00    -0.073 C  
HETATM   25  C   UNL     1      -7.707   4.502  73.110  1.00  0.00    -0.087 C  
HETATM   26  C   UNL     1      -8.574   5.144  73.907  1.00  0.00    -0.113 C  
HETATM   27  C   UNL     1      -8.944   6.590  73.731  1.00  0.00    -0.144 C  
ENDBRANCH  18  22
ENDBRANCH  16  18
ENDBRANCH  13  14
TORSDOF 3
ENDMDL
MODEL      158
REMARK 921   NORMALIZED FREE ENERGY PREDICTED BY IDOCK:   -3.62 KCAL/MOL
REMARK 922        TOTAL FREE ENERGY PREDICTED BY IDOCK:   -4.92 KCAL/MOL
REMARK 923 INTER-LIGAND FREE ENERGY PREDICTED BY IDOCK:   -4.38 KCAL/MOL
REMARK 924 INTRA-LIGAND FREE ENERGY PREDICTED BY IDOCK:   -0.54 KCAL/MOL
REMARK 927      BINDING AFFINITY PREDICTED BY RF-SCORE:    0.00 PKD
ROOT
HETATM    1  C   UNL     1     -10.369   8.516  69.536  1.00  0.00    -0.218 C  
HETATM    2  S   UNL     1     -10.822   6.895  68.876  1.00  0.00    -0.178 SA 
HETATM    3  C   UNL     1     -11.695   6.401  70.373  1.00  0.00    -0.321 C  
HETATM    4  C   UNL     1     -10.922   6.640  71.656  1.00  0.00    -0.280 C  
HETATM    5  C   UNL     1     -11.362   5.685  72.747  1.00  0.00    -0.350 C  
HETATM    6  CA  UNL     1      -9.923   7.559  71.806  1.00  0.00    -0.171 C  
HETATM    7  N   UNL     1      -9.573   8.339  70.739  1.00  0.00    -0.169 N  
HETATM    8  C   UNL     1      -9.206   7.678  73.144  1.00  0.00    -0.216 C  
HETATM    9  C   UNL     1      -8.541   9.119  70.348  1.00  0.00    -0.209 C  
HETATM   10  O   UNL     1      -8.284   8.653  73.262  1.00  0.00    -0.411 OA 
HETATM   11  OXT UNL     1      -9.478   6.997  74.123  1.00  0.00    -0.222 OA 
HETATM   12  O   UNL     1      -7.570   9.476  70.973  1.00  0.00    -0.311 OA 
HETATM   13  CA  UNL     1      -9.112   9.186  68.887  1.00  0.00    -0.139 C  
ENDROOT
BRANCH  13  14
HETATM   14  N   UNL     1      -8.403   8.365  67.884  1.00  0.00    -0.130 N  
HETATM   15  H   UNL     1      -7.830   7.594  68.227  1.00  0.00     0.000 HD 
HETATM   16  C   UNL     1      -8.456   8.558  66.521  1.00  0.00    -0.115 C  
HETATM   17  O   UNL     1      -9.151   9.413  65.987  1.00  0.00    -0.158 OA 
BRANCH  16  18
HETATM   18  CA  UNL     1      -7.508   7.593  65.744  1.00  0.00    -0.079 C  
HETATM   19  H2  UNL     1      -7.854   8.569  63.919  1.00  0.00     0.000 HD 
HETATM   20  N   UNL     1      -7.864   7.624  64.301  1.00  0.00    -0.134 NA 
HETATM   21  H1  UNL     1      -7.244   6.993  63.794  1.00  0.00     0.000 HD 
BRANCH  18  22
HETATM   22  C   UNL     1      -7.647   6.205  66.335  1.00  0.00    -0.094 C  
HETATM   23  C   UNL     1      -6.738   5.636  67.157  1.00  0.00    -0.062 C  
HETATM   24  C   UNL     1      -6.845   4.239  67.699  1.00  0.00    -0.052 C  
HETATM   25  C   UNL     1      -8.007   3.470  67.145  1.00  0.00    -0.083 C  
HETATM   26  C   UNL     1      -8.934   4.022  66.347  1.00  0.00    -0.128 C  
HETATM   27  C   UNL     1      -8.904   5.463  65.920  1.00  0.00    -0.148 C  
ENDBRANCH  18  22
ENDBRANCH  16  18
ENDBRANCH  13  14
TORSDOF 3
ENDMDL
MODEL      159
REMARK 921   NORMALIZED FREE ENERGY PREDICTED BY IDOCK:   -3.57 KCAL/MOL
REMARK 922        TOTAL FREE ENERGY PREDICTED BY IDOCK:   -4.85 KCAL/MOL
REMARK 923 INTER-LIGAND FREE ENERGY PREDICTED BY IDOCK:   -4.59 KCAL/MOL
REMARK 924 INTRA-LIGAND FREE ENERGY PREDICTED BY IDOCK:   -0.27 KCAL/MOL
REMARK 927      BINDING AFFINITY PREDICTED BY RF-SCORE:    0.00 PKD
ROOT
HETATM    1  C   UNL     1      -8.268  14.992  67.823  1.00  0.00    -0.153 C  
HETATM    2  S   UNL     1      -8.563  16.160  69.172  1.00  0.00    -0.196 SA 
HETATM    3  C   UNL     1      -9.692  15.053  70.037  1.00  0.00     0.171 C  
HETATM    4  C   UNL     1     -10.765  14.441  69.157  1.00  0.00    -0.254 C  
HETATM    5  C   UNL     1     -11.994  14.077  69.965  1.00  0.00    -0.404 C  
HETATM    6  CA  UNL     1     -10.667  14.279  67.805  1.00  0.00    -0.251 C  
HETATM    7  N   UNL     1      -9.528  14.687  67.168  1.00  0.00    -0.221 N  
HETATM    8  C   UNL     1     -11.833  13.675  67.035  1.00  0.00    -0.408 C  
HETATM    9  C   UNL     1      -9.116  14.978  65.914  1.00  0.00     0.011 C  
HETATM   10  O   UNL     1     -11.654  13.464  65.716  1.00  0.00    -0.316 OA 
HETATM   11  OXT UNL     1     -12.874  13.303  67.558  1.00  0.00     0.524 OA 
HETATM   12  O   UNL     1      -9.690  14.822  64.863  1.00  0.00    -0.076 OA 
HETATM   13  CA  UNL     1      -7.797  15.623  66.470  1.00  0.00     0.024 C  
ENDROOT
BRANCH  13  14
HETATM   14  N   UNL     1      -7.746  17.100  66.443  1.00  0.00    -0.284 N  
HETATM   15  H   UNL     1      -8.556  17.605  66.802  1.00  0.00     0.000 HD 
HETATM   16  C   UNL     1      -6.689  17.848  65.972  1.00  0.00    -0.295 C  
HETATM   17  O   UNL     1      -5.643  17.357  65.569  1.00  0.00    -0.108 OA 
BRANCH  16  18
HETATM   18  CA  UNL     1      -6.992  19.377  65.978  1.00  0.00    -0.264 C  
HETATM   19  H2  UNL     1      -4.954  19.877  66.046  1.00  0.00     0.000 HD 
HETATM   20  N   UNL     1      -5.819  20.099  66.538  1.00  0.00    -0.170 NA 
HETATM   21  H1  UNL     1      -6.018  21.100  66.542  1.00  0.00     0.000 HD 
BRANCH  18  22
HETATM   22  C   UNL     1      -8.248  19.615  66.790  1.00  0.00    -0.331 C  
HETATM   23  C   UNL     1      -8.261  19.810  68.128  1.00  0.00    -0.324 C  
HETATM   24  C   UNL     1      -9.510  19.989  68.944  1.00  0.00    -0.110 C  
HETATM   25  C   UNL     1     -10.771  19.812  68.154  1.00  0.00    -0.232 C  
HETATM   26  C   UNL     1     -10.781  19.642  66.823  1.00  0.00    -0.562 C  
HETATM   27  C   UNL     1      -9.534  19.606  65.985  1.00  0.00    -0.358 C  
ENDBRANCH  18  22
ENDBRANCH  16  18
ENDBRANCH  13  14
TORSDOF 3
ENDMDL
MODEL      160
REMARK 921   NORMALIZED FREE ENERGY PREDICTED BY IDOCK:   -3.55 KCAL/MOL
REMARK 922        TOTAL FREE ENERGY PREDICTED BY IDOCK:   -4.83 KCAL/MOL
REMARK 923 INTER-LIGAND FREE ENERGY PREDICTED BY IDOCK:   -4.38 KCAL/MOL
REMARK 924 INTRA-LIGAND FREE ENERGY PREDICTED BY IDOCK:   -0.44 KCAL/MOL
REMARK 927      BINDING AFFINITY PREDICTED BY RF-SCORE:    0.00 PKD
ROOT
HETATM    1  C   UNL     1      -8.133   9.204  68.119  1.00  0.00    -0.104 C  
HETATM    2  S   UNL     1      -7.992   8.279  66.571  1.00  0.00    -0.102 SA 
HETATM    3  C   UNL     1      -8.463   9.689  65.552  1.00  0.00    -0.142 C  
HETATM    4  C   UNL     1      -9.706  10.416  66.028  1.00  0.00    -0.265 C  
HETATM    5  C   UNL     1     -10.402  11.120  64.880  1.00  0.00    -0.375 C  
HETATM    6  CA  UNL     1     -10.173  10.407  67.310  1.00  0.00    -0.211 C  
HETATM    7  N   UNL     1      -9.492   9.699  68.260  1.00  0.00    -0.136 N  
HETATM    8  C   UNL     1     -11.453  11.160  67.649  1.00  0.00    -0.250 C  
HETATM    9  C   UNL     1      -9.703   9.194  69.495  1.00  0.00    -0.173 C  
HETATM   10  O   UNL     1     -11.826  11.184  68.943  1.00  0.00    -0.318 OA 
HETATM   11  OXT UNL     1     -12.101  11.800  66.833  1.00  0.00    -0.566 OA 
HETATM   12  O   UNL     1     -10.642   9.354  70.239  1.00  0.00    -0.214 OA 
HETATM   13  CA  UNL     1      -8.386   8.345  69.403  1.00  0.00    -0.120 C  
ENDROOT
BRANCH  13  14
HETATM   14  N   UNL     1      -8.571   6.898  69.170  1.00  0.00    -0.128 N  
HETATM   15  H   UNL     1      -8.280   6.526  68.266  1.00  0.00     0.000 HD 
HETATM   16  C   UNL     1      -9.107   6.011  70.079  1.00  0.00    -0.146 C  
HETATM   17  O   UNL     1      -9.441   6.328  71.213  1.00  0.00    -0.159 OA 
BRANCH  16  18
HETATM   18  CA  UNL     1      -9.270   4.578  69.488  1.00  0.00    -0.128 C  
HETATM   19  H2  UNL     1      -8.100   3.717  71.004  1.00  0.00     0.000 HD 
HETATM   20  N   UNL     1      -8.161   3.721  69.986  1.00  0.00    -0.056 NA 
HETATM   21  H1  UNL     1      -8.268   2.783  69.599  1.00  0.00     0.000 HD 
BRANCH  18  22
HETATM   22  C   UNL     1      -9.276   4.678  67.977  1.00  0.00    -0.158 C  
HETATM   23  C   UNL     1     -10.351   5.051  67.245  1.00  0.00    -0.193 C  
HETATM   24  C   UNL     1     -10.377   5.097  65.744  1.00  0.00    -0.092 C  
HETATM   25  C   UNL     1      -9.126   4.571  65.108  1.00  0.00    -0.150 C  
HETATM   26  C   UNL     1      -8.040   4.219  65.813  1.00  0.00    -0.101 C  
HETATM   27  C   UNL     1      -7.964   4.308  67.312  1.00  0.00    -0.096 C  
ENDBRANCH  18  22
ENDBRANCH  16  18
ENDBRANCH  13  14
TORSDOF 3
ENDMDL
MODEL      161
REMARK 921   NORMALIZED FREE ENERGY PREDICTED BY IDOCK:   -3.53 KCAL/MOL
REMARK 922        TOTAL FREE ENERGY PREDICTED BY IDOCK:   -4.80 KCAL/MOL
REMARK 923 INTER-LIGAND FREE ENERGY PREDICTED BY IDOCK:   -4.39 KCAL/MOL
REMARK 924 INTRA-LIGAND FREE ENERGY PREDICTED BY IDOCK:   -0.41 KCAL/MOL
REMARK 927      BINDING AFFINITY PREDICTED BY RF-SCORE:    0.00 PKD
ROOT
HETATM    1  C   UNL     1      -9.636   9.158  65.988  1.00  0.00    -0.272 C  
HETATM    2  S   UNL     1      -8.298  10.193  66.628  1.00  0.00    -0.124 SA 
HETATM    3  C   UNL     1      -7.237   9.905  65.200  1.00  0.00    -0.133 C  
HETATM    4  C   UNL     1      -7.104   8.447  64.804  1.00  0.00    -0.080 C  
HETATM    5  C   UNL     1      -5.795   8.191  64.085  1.00  0.00    -0.057 C  
HETATM    6  CA  UNL     1      -8.015   7.472  65.095  1.00  0.00    -0.128 C  
HETATM    7  N   UNL     1      -9.143   7.805  65.792  1.00  0.00    -0.076 N  
HETATM    8  C   UNL     1      -7.745   6.038  64.662  1.00  0.00    -0.099 C  
HETATM    9  C   UNL     1     -10.112   7.191  66.507  1.00  0.00    -0.084 C  
HETATM   10  O   UNL     1      -8.712   5.131  64.903  1.00  0.00    -0.149 OA 
HETATM   11  OXT UNL     1      -6.748   5.691  64.045  1.00  0.00    -0.042 OA 
HETATM   12  O   UNL     1     -10.334   6.011  66.643  1.00  0.00    -0.205 OA 
HETATM   13  CA  UNL     1     -10.613   8.572  67.061  1.00  0.00    -0.235 C  
ENDROOT
BRANCH  13  14
HETATM   14  N   UNL     1     -10.260   8.864  68.467  1.00  0.00    -0.193 N  
HETATM   15  H   UNL     1      -9.619   8.222  68.933  1.00  0.00     0.000 HD 
HETATM   16  C   UNL     1     -10.728   9.935  69.195  1.00  0.00    -0.224 C  
HETATM   17  O   UNL     1     -11.456  10.801  68.729  1.00  0.00    -0.269 OA 
BRANCH  16  18
HETATM   18  CA  UNL     1     -10.256   9.898  70.681  1.00  0.00    -0.133 C  
HETATM   19  H2  UNL     1      -8.297  10.454  70.171  1.00  0.00     0.000 HD 
HETATM   20  N   UNL     1      -8.778   9.737  70.714  1.00  0.00    -0.359 NA 
HETATM   21  H1  UNL     1      -8.469   9.713  71.685  1.00  0.00     0.000 HD 
BRANCH  18  22
HETATM   22  C   UNL     1     -10.967   8.760  71.383  1.00  0.00    -0.360 C  
HETATM   23  C   UNL     1     -10.358   7.875  72.203  1.00  0.00    -0.297 C  
HETATM   24  C   UNL     1     -11.050   6.712  72.856  1.00  0.00    -0.263 C  
HETATM   25  C   UNL     1     -12.474   6.541  72.418  1.00  0.00     0.011 C  
HETATM   26  C   UNL     1     -13.104   7.420  71.624  1.00  0.00    -0.412 C  
HETATM   27  C   UNL     1     -12.452   8.663  71.086  1.00  0.00    -0.210 C  
ENDBRANCH  18  22
ENDBRANCH  16  18
ENDBRANCH  13  14
TORSDOF 3
ENDMDL
MODEL      162
REMARK 921   NORMALIZED FREE ENERGY PREDICTED BY IDOCK:   -3.52 KCAL/MOL
REMARK 922        TOTAL FREE ENERGY PREDICTED BY IDOCK:   -4.80 KCAL/MOL
REMARK 923 INTER-LIGAND FREE ENERGY PREDICTED BY IDOCK:   -4.17 KCAL/MOL
REMARK 924 INTRA-LIGAND FREE ENERGY PREDICTED BY IDOCK:   -0.63 KCAL/MOL
REMARK 927      BINDING AFFINITY PREDICTED BY RF-SCORE:    0.00 PKD
ROOT
HETATM    1  C   UNL     1      -7.735   6.817  70.241  1.00  0.00    -0.101 C  
HETATM    2  S   UNL     1      -8.463   8.461  70.434  1.00  0.00    -0.137 SA 
HETATM    3  C   UNL     1      -8.673   8.285  72.215  1.00  0.00    -0.200 C  
HETATM    4  C   UNL     1      -9.323   6.983  72.643  1.00  0.00    -0.159 C  
HETATM    5  C   UNL     1     -10.035   7.137  73.971  1.00  0.00    -0.314 C  
HETATM    6  CA  UNL     1      -9.316   5.830  71.912  1.00  0.00    -0.151 C  
HETATM    7  N   UNL     1      -8.682   5.815  70.701  1.00  0.00    -0.134 N  
HETATM    8  C   UNL     1     -10.034   4.598  72.446  1.00  0.00    -0.173 C  
HETATM    9  C   UNL     1      -8.655   5.062  69.579  1.00  0.00    -0.091 C  
HETATM   10  O   UNL     1      -9.929   3.465  71.724  1.00  0.00    -0.169 OA 
HETATM   11  OXT UNL     1     -10.621   4.565  73.518  1.00  0.00    -0.186 OA 
HETATM   12  O   UNL     1      -9.168   3.990  69.363  1.00  0.00    -0.118 OA 
HETATM   13  CA  UNL     1      -7.860   6.181  68.816  1.00  0.00    -0.101 C  
ENDROOT
BRANCH  13  14
HETATM   14  N   UNL     1      -8.641   6.968  67.839  1.00  0.00    -0.127 N  
HETATM   15  H   UNL     1      -9.601   7.208  68.087  1.00  0.00     0.000 HD 
HETATM   16  C   UNL     1      -8.174   7.402  66.617  1.00  0.00    -0.125 C  
HETATM   17  O   UNL     1      -7.026   7.224  66.232  1.00  0.00    -0.063 OA 
BRANCH  16  18
HETATM   18  CA  UNL     1      -9.278   8.110  65.774  1.00  0.00    -0.034 C  
HETATM   19  H2  UNL     1      -8.434   7.475  63.961  1.00  0.00     0.000 HD 
HETATM   20  N   UNL     1      -8.765   8.335  64.397  1.00  0.00    -0.400 NA 
HETATM   21  H1  UNL     1      -9.488   8.798  63.846  1.00  0.00     0.000 HD 
BRANCH  18  22
HETATM   22  C   UNL     1      -9.650   9.408  66.462  1.00  0.00    -0.267 C  
HETATM   23  C   UNL     1     -10.825   9.622  67.095  1.00  0.00    -0.184 C  
HETATM   24  C   UNL     1     -11.219  10.926  67.728  1.00  0.00    -0.384 C  
HETATM   25  C   UNL     1     -10.232  12.028  67.491  1.00  0.00    -0.211 C  
HETATM   26  C   UNL     1      -9.050  11.832  66.887  1.00  0.00    -0.192 C  
HETATM   27  C   UNL     1      -8.593  10.493  66.379  1.00  0.00    -0.147 C  
ENDBRANCH  18  22
ENDBRANCH  16  18
ENDBRANCH  13  14
TORSDOF 3
ENDMDL
MODEL      163
REMARK 921   NORMALIZED FREE ENERGY PREDICTED BY IDOCK:   -3.52 KCAL/MOL
REMARK 922        TOTAL FREE ENERGY PREDICTED BY IDOCK:   -4.79 KCAL/MOL
REMARK 923 INTER-LIGAND FREE ENERGY PREDICTED BY IDOCK:   -4.34 KCAL/MOL
REMARK 924 INTRA-LIGAND FREE ENERGY PREDICTED BY IDOCK:   -0.45 KCAL/MOL
REMARK 927      BINDING AFFINITY PREDICTED BY RF-SCORE:    0.00 PKD
ROOT
HETATM    1  C   UNL     1      -8.931  11.865  67.239  1.00  0.00    -0.176 C  
HETATM    2  S   UNL     1     -10.736  11.783  67.168  1.00  0.00    -0.254 SA 
HETATM    3  C   UNL     1     -10.907  13.492  66.622  1.00  0.00    -0.283 C  
HETATM    4  C   UNL     1     -10.107  14.491  67.435  1.00  0.00    -0.235 C  
HETATM    5  C   UNL     1     -10.737  15.868  67.385  1.00  0.00    -0.313 C  
HETATM    6  CA  UNL     1      -8.990  14.191  68.161  1.00  0.00    -0.188 C  
HETATM    7  N   UNL     1      -8.534  12.903  68.175  1.00  0.00    -0.171 N  
HETATM    8  C   UNL     1      -8.296  15.287  68.958  1.00  0.00    -0.215 C  
HETATM    9  C   UNL     1      -7.711  12.126  68.914  1.00  0.00     0.036 C  
HETATM   10  O   UNL     1      -7.154  14.955  69.593  1.00  0.00    -0.170 OA 
HETATM   11  OXT UNL     1      -8.671  16.451  68.984  1.00  0.00    -0.248 OA 
HETATM   12  O   UNL     1      -6.967  12.436  69.814  1.00  0.00     0.128 OA 
HETATM   13  CA  UNL     1      -8.240  10.835  68.194  1.00  0.00    -0.119 C  
ENDROOT
BRANCH  13  14
HETATM   14  N   UNL     1      -9.160   9.992  68.987  1.00  0.00    -0.160 N  
HETATM   15  H   UNL     1      -9.406  10.315  69.922  1.00  0.00     0.000 HD 
HETATM   16  C   UNL     1      -9.711   8.803  68.560  1.00  0.00    -0.162 C  
HETATM   17  O   UNL     1      -9.535   8.342  67.440  1.00  0.00    -0.144 OA 
BRANCH  16  18
HETATM   18  CA  UNL     1     -10.549   8.102  69.672  1.00  0.00    -0.223 C  
HETATM   19  H2  UNL     1     -12.118   9.485  69.494  1.00  0.00     0.000 HD 
HETATM   20  N   UNL     1     -11.532   9.073  70.221  1.00  0.00    -0.430 NA 
HETATM   21  H1  UNL     1     -12.081   8.614  70.948  1.00  0.00     0.000 HD 
BRANCH  18  22
HETATM   22  C   UNL     1      -9.602   7.589  70.737  1.00  0.00    -0.166 C  
HETATM   23  C   UNL     1      -8.536   6.797  70.486  1.00  0.00    -0.138 C  
HETATM   24  C   UNL     1      -7.628   6.241  71.545  1.00  0.00    -0.099 C  
HETATM   25  C   UNL     1      -8.081   6.545  72.941  1.00  0.00    -0.105 C  
HETATM   26  C   UNL     1      -9.121   7.348  73.213  1.00  0.00    -0.220 C  
HETATM   27  C   UNL     1      -9.944   8.021  72.151  1.00  0.00    -0.289 C  
ENDBRANCH  18  22
ENDBRANCH  16  18
ENDBRANCH  13  14
TORSDOF 3
ENDMDL
MODEL      164
REMARK 921   NORMALIZED FREE ENERGY PREDICTED BY IDOCK:   -3.46 KCAL/MOL
REMARK 922        TOTAL FREE ENERGY PREDICTED BY IDOCK:   -4.72 KCAL/MOL
REMARK 923 INTER-LIGAND FREE ENERGY PREDICTED BY IDOCK:   -4.21 KCAL/MOL
REMARK 924 INTRA-LIGAND FREE ENERGY PREDICTED BY IDOCK:   -0.52 KCAL/MOL
REMARK 927      BINDING AFFINITY PREDICTED BY RF-SCORE:    0.00 PKD
ROOT
HETATM    1  C   UNL     1      -7.435   6.810  67.875  1.00  0.00    -0.098 C  
HETATM    2  S   UNL     1      -8.029   5.930  69.338  1.00  0.00    -0.103 SA 
HETATM    3  C   UNL     1      -7.525   4.316  68.714  1.00  0.00    -0.056 C  
HETATM    4  C   UNL     1      -7.957   4.035  67.288  1.00  0.00    -0.092 C  
HETATM    5  C   UNL     1      -8.092   2.546  67.039  1.00  0.00    -0.076 C  
HETATM    6  CA  UNL     1      -8.237   4.991  66.354  1.00  0.00    -0.108 C  
HETATM    7  N   UNL     1      -8.128   6.309  66.700  1.00  0.00    -0.108 N  
HETATM    8  C   UNL     1      -8.689   4.571  64.962  1.00  0.00    -0.138 C  
HETATM    9  C   UNL     1      -8.543   7.514  66.249  1.00  0.00    -0.145 C  
HETATM   10  O   UNL     1      -8.876   5.551  64.056  1.00  0.00     0.025 OA 
HETATM   11  OXT UNL     1      -8.810   3.407  64.608  1.00  0.00    -0.110 OA 
HETATM   12  O   UNL     1      -9.100   7.795  65.215  1.00  0.00     0.103 OA 
HETATM   13  CA  UNL     1      -8.109   8.195  67.596  1.00  0.00    -0.127 C  
ENDROOT
BRANCH  13  14
HETATM   14  N   UNL     1      -9.210   8.560  68.512  1.00  0.00    -0.136 N  
HETATM   15  H   UNL     1      -9.943   7.868  68.665  1.00  0.00     0.000 HD 
HETATM   16  C   UNL     1      -9.323   9.762  69.176  1.00  0.00    -0.182 C  
HETATM   17  O   UNL     1      -8.479  10.647  69.116  1.00  0.00    -0.153 OA 
BRANCH  16  18
HETATM   18  CA  UNL     1     -10.655   9.877  69.978  1.00  0.00    -0.288 C  
HETATM   19  H2  UNL     1     -10.909  11.892  69.449  1.00  0.00     0.000 HD 
HETATM   20  N   UNL     1     -10.911  11.309  70.286  1.00  0.00    -0.377 NA 
HETATM   21  H1  UNL     1     -11.783  11.384  70.810  1.00  0.00     0.000 HD 
BRANCH  18  22
HETATM   22  C   UNL     1     -10.534   9.039  71.234  1.00  0.00    -0.381 C  
HETATM   23  C   UNL     1      -9.382   8.858  71.918  1.00  0.00    -0.275 C  
HETATM   24  C   UNL     1      -9.247   7.982  73.131  1.00  0.00    -0.347 C  
HETATM   25  C   UNL     1     -10.493   7.214  73.455  1.00  0.00    -0.422 C  
HETATM   26  C   UNL     1     -11.652   7.395  72.805  1.00  0.00    -0.255 C  
HETATM   27  C   UNL     1     -11.825   8.379  71.682  1.00  0.00    -0.357 C  
ENDBRANCH  18  22
ENDBRANCH  16  18
ENDBRANCH  13  14
TORSDOF 3
ENDMDL
MODEL      165
REMARK 921   NORMALIZED FREE ENERGY PREDICTED BY IDOCK:   -3.45 KCAL/MOL
REMARK 922        TOTAL FREE ENERGY PREDICTED BY IDOCK:   -4.72 KCAL/MOL
REMARK 923 INTER-LIGAND FREE ENERGY PREDICTED BY IDOCK:   -4.23 KCAL/MOL
REMARK 924 INTRA-LIGAND FREE ENERGY PREDICTED BY IDOCK:   -0.48 KCAL/MOL
REMARK 927      BINDING AFFINITY PREDICTED BY RF-SCORE:    0.00 PKD
ROOT
HETATM    1  C   UNL     1      -8.615  12.192  67.791  1.00  0.00    -0.164 C  
HETATM    2  S   UNL     1      -6.941  12.844  67.589  1.00  0.00    -0.157 SA 
HETATM    3  C   UNL     1      -7.294  14.354  68.508  1.00  0.00    -0.122 C  
HETATM    4  C   UNL     1      -8.567  15.060  68.082  1.00  0.00    -0.156 C  
HETATM    5  C   UNL     1      -8.496  16.544  68.381  1.00  0.00    -0.208 C  
HETATM    6  CA  UNL     1      -9.626  14.458  67.466  1.00  0.00    -0.215 C  
HETATM    7  N   UNL     1      -9.565  13.119  67.200  1.00  0.00    -0.228 N  
HETATM    8  C   UNL     1     -10.835  15.292  67.065  1.00  0.00    -0.321 C  
HETATM    9  C   UNL     1     -10.187  12.211  66.415  1.00  0.00    -0.220 C  
HETATM   10  O   UNL     1     -11.884  14.636  66.533  1.00  0.00    -0.373 OA 
HETATM   11  OXT UNL     1     -10.932  16.493  67.274  1.00  0.00    -0.225 OA 
HETATM   12  O   UNL     1     -11.173  12.338  65.729  1.00  0.00    -0.309 OA 
HETATM   13  CA  UNL     1      -9.071  11.148  66.717  1.00  0.00    -0.166 C  
ENDROOT
BRANCH  13  14
HETATM   14  N   UNL     1      -8.108  10.903  65.623  1.00  0.00    -0.312 N  
HETATM   15  H   UNL     1      -8.088  11.574  64.855  1.00  0.00     0.000 HD 
HETATM   16  C   UNL     1      -7.235   9.839  65.560  1.00  0.00    -0.108 C  
HETATM   17  O   UNL     1      -7.128   9.001  66.446  1.00  0.00    -0.079 OA 
BRANCH  16  18
HETATM   18  CA  UNL     1      -6.431   9.806  64.224  1.00  0.00    -0.118 C  
HETATM   19  H2  UNL     1      -7.072  11.729  63.681  1.00  0.00     0.000 HD 
HETATM   20  N   UNL     1      -7.021  10.792  63.281  1.00  0.00    -0.345 NA 
HETATM   21  H1  UNL     1      -6.495  10.770  62.408  1.00  0.00     0.000 HD 
BRANCH  18  22
HETATM   22  C   UNL     1      -6.473   8.396  63.673  1.00  0.00    -0.076 C  
HETATM   23  C   UNL     1      -5.405   7.568  63.623  1.00  0.00    -0.034 C  
HETATM   24  C   UNL     1      -5.430   6.190  63.025  1.00  0.00    -0.018 C  
HETATM   25  C   UNL     1      -6.733   5.848  62.367  1.00  0.00    -0.036 C  
HETATM   26  C   UNL     1      -7.811   6.643  62.425  1.00  0.00    -0.103 C  
HETATM   27  C   UNL     1      -7.828   7.961  63.148  1.00  0.00    -0.142 C  
ENDBRANCH  18  22
ENDBRANCH  16  18
ENDBRANCH  13  14
TORSDOF 3
ENDMDL
MODEL      166
REMARK 921   NORMALIZED FREE ENERGY PREDICTED BY IDOCK:   -3.44 KCAL/MOL
REMARK 922        TOTAL FREE ENERGY PREDICTED BY IDOCK:   -4.70 KCAL/MOL
REMARK 923 INTER-LIGAND FREE ENERGY PREDICTED BY IDOCK:   -4.29 KCAL/MOL
REMARK 924 INTRA-LIGAND FREE ENERGY PREDICTED BY IDOCK:   -0.41 KCAL/MOL
REMARK 927      BINDING AFFINITY PREDICTED BY RF-SCORE:    0.00 PKD
ROOT
HETATM    1  C   UNL     1      -8.119   8.524  66.689  1.00  0.00    -0.104 C  
HETATM    2  S   UNL     1      -9.630   8.313  67.660  1.00  0.00    -0.159 SA 
HETATM    3  C   UNL     1      -9.501   6.516  67.685  1.00  0.00    -0.123 C  
HETATM    4  C   UNL     1      -9.236   5.889  66.330  1.00  0.00    -0.171 C  
HETATM    5  C   UNL     1      -9.754   4.466  66.274  1.00  0.00    -0.224 C  
HETATM    6  CA  UNL     1      -8.652   6.528  65.274  1.00  0.00    -0.028 C  
HETATM    7  N   UNL     1      -8.264   7.831  65.420  1.00  0.00    -0.134 N  
HETATM    8  C   UNL     1      -8.470   5.789  63.956  1.00  0.00     0.032 C  
HETATM    9  C   UNL     1      -7.936   8.885  64.640  1.00  0.00    -0.132 C  
HETATM   10  O   UNL     1      -7.817   6.440  62.973  1.00  0.00    -0.093 OA 
HETATM   11  OXT UNL     1      -8.808   4.628  63.775  1.00  0.00    -0.138 OA 
HETATM   12  O   UNL     1      -7.763   8.930  63.445  1.00  0.00    -0.113 OA 
HETATM   13  CA  UNL     1      -8.016   9.855  65.872  1.00  0.00    -0.115 C  
ENDROOT
BRANCH  13  14
HETATM   14  N   UNL     1      -9.210  10.724  65.926  1.00  0.00    -0.182 N  
HETATM   15  H   UNL     1     -10.109  10.304  65.692  1.00  0.00     0.000 HD 
HETATM   16  C   UNL     1      -9.203  12.059  66.267  1.00  0.00    -0.206 C  
HETATM   17  O   UNL     1      -8.197  12.660  66.619  1.00  0.00    -0.033 OA 
BRANCH  16  18
HETATM   18  CA  UNL     1     -10.608  12.720  66.119  1.00  0.00    -0.266 C  
HETATM   19  H2  UNL     1     -10.657  12.376  64.049  1.00  0.00     0.000 HD 
HETATM   20  N   UNL     1     -10.797  13.143  64.707  1.00  0.00    -0.332 NA 
HETATM   21  H1  UNL     1     -11.716  13.574  64.611  1.00  0.00     0.000 HD 
BRANCH  18  22
HETATM   22  C   UNL     1     -10.693  13.888  67.079  1.00  0.00    -0.283 C  
HETATM   23  C   UNL     1     -11.023  13.775  68.385  1.00  0.00    -0.275 C  
HETATM   24  C   UNL     1     -11.164  14.937  69.326  1.00  0.00    -0.300 C  
HETATM   25  C   UNL     1     -11.022  16.270  68.655  1.00  0.00    -0.340 C  
HETATM   26  C   UNL     1     -10.672  16.405  67.367  1.00  0.00    -0.278 C  
HETATM   27  C   UNL     1     -10.391  15.240  66.460  1.00  0.00    -0.289 C  
ENDBRANCH  18  22
ENDBRANCH  16  18
ENDBRANCH  13  14
TORSDOF 3
ENDMDL
MODEL      167
REMARK 921   NORMALIZED FREE ENERGY PREDICTED BY IDOCK:   -3.40 KCAL/MOL
REMARK 922        TOTAL FREE ENERGY PREDICTED BY IDOCK:   -4.66 KCAL/MOL
REMARK 923 INTER-LIGAND FREE ENERGY PREDICTED BY IDOCK:   -4.09 KCAL/MOL
REMARK 924 INTRA-LIGAND FREE ENERGY PREDICTED BY IDOCK:   -0.57 KCAL/MOL
REMARK 927      BINDING AFFINITY PREDICTED BY RF-SCORE:    0.00 PKD
ROOT
HETATM    1  C   UNL     1      -9.582   7.363  68.601  1.00  0.00    -0.146 C  
HETATM    2  S   UNL     1     -10.516   7.796  67.114  1.00  0.00    -0.331 SA 
HETATM    3  C   UNL     1     -10.823   6.078  66.667  1.00  0.00    -0.213 C  
HETATM    4  C   UNL     1      -9.592   5.193  66.702  1.00  0.00    -0.162 C  
HETATM    5  C   UNL     1      -9.736   4.015  65.759  1.00  0.00    -0.192 C  
HETATM    6  CA  UNL     1      -8.473   5.440  67.445  1.00  0.00    -0.106 C  
HETATM    7  N   UNL     1      -8.431   6.560  68.228  1.00  0.00    -0.116 N  
HETATM    8  C   UNL     1      -7.293   4.483  67.366  1.00  0.00    -0.073 C  
HETATM    9  C   UNL     1      -7.510   7.320  68.862  1.00  0.00    -0.101 C  
HETATM   10  O   UNL     1      -6.246   4.730  68.179  1.00  0.00    -0.033 OA 
HETATM   11  OXT UNL     1      -7.280   3.474  66.675  1.00  0.00    -0.065 OA 
HETATM   12  O   UNL     1      -6.330   7.118  69.025  1.00  0.00    -0.033 OA 
HETATM   13  CA  UNL     1      -8.574   8.448  69.110  1.00  0.00    -0.134 C  
ENDROOT
BRANCH  13  14
HETATM   14  N   UNL     1      -8.448   9.646  68.254  1.00  0.00    -0.118 N  
HETATM   15  H   UNL     1      -8.854   9.602  67.319  1.00  0.00     0.000 HD 
HETATM   16  C   UNL     1      -7.824  10.819  68.620  1.00  0.00    -0.122 C  
HETATM   17  O   UNL     1      -7.348  11.011  69.731  1.00  0.00    -0.087 OA 
BRANCH  16  18
HETATM   18  CA  UNL     1      -7.763  11.851  67.452  1.00  0.00    -0.158 C  
HETATM   19  H2  UNL     1      -6.198  12.920  68.354  1.00  0.00     0.000 HD 
HETATM   20  N   UNL     1      -7.114  13.096  67.942  1.00  0.00    -0.111 NA 
HETATM   21  H1  UNL     1      -7.074  13.771  67.178  1.00  0.00     0.000 HD 
BRANCH  18  22
HETATM   22  C   UNL     1      -9.173  12.100  66.958  1.00  0.00    -0.202 C  
HETATM   23  C   UNL     1     -10.113  12.775  67.656  1.00  0.00    -0.220 C  
HETATM   24  C   UNL     1     -11.528  12.975  67.192  1.00  0.00    -0.379 C  
HETATM   25  C   UNL     1     -11.850  12.248  65.922  1.00  0.00    -0.420 C  
HETATM   26  C   UNL     1     -10.927  11.592  65.202  1.00  0.00    -0.326 C  
HETATM   27  C   UNL     1      -9.478  11.513  65.592  1.00  0.00    -0.244 C  
ENDBRANCH  18  22
ENDBRANCH  16  18
ENDBRANCH  13  14
TORSDOF 3
ENDMDL
MODEL      168
REMARK 921   NORMALIZED FREE ENERGY PREDICTED BY IDOCK:   -3.37 KCAL/MOL
REMARK 922        TOTAL FREE ENERGY PREDICTED BY IDOCK:   -4.62 KCAL/MOL
REMARK 923 INTER-LIGAND FREE ENERGY PREDICTED BY IDOCK:   -4.25 KCAL/MOL
REMARK 924 INTRA-LIGAND FREE ENERGY PREDICTED BY IDOCK:   -0.37 KCAL/MOL
REMARK 927      BINDING AFFINITY PREDICTED BY RF-SCORE:    0.00 PKD
ROOT
HETATM    1  C   UNL     1      -7.450   7.666  71.563  1.00  0.00    -0.079 C  
HETATM    2  S   UNL     1      -8.971   7.628  72.540  1.00  0.00    -0.156 SA 
HETATM    3  C   UNL     1      -8.360   6.353  73.656  1.00  0.00    -0.119 C  
HETATM    4  C   UNL     1      -7.737   5.159  72.959  1.00  0.00    -0.097 C  
HETATM    5  C   UNL     1      -7.830   3.913  73.817  1.00  0.00    -0.080 C  
HETATM    6  CA  UNL     1      -7.201   5.179  71.703  1.00  0.00    -0.075 C  
HETATM    7  N   UNL     1      -7.211   6.349  70.996  1.00  0.00    -0.077 N  
HETATM    8  C   UNL     1      -6.632   3.899  71.109  1.00  0.00    -0.027 C  
HETATM    9  C   UNL     1      -7.074   6.763  69.717  1.00  0.00    -0.068 C  
HETATM   10  O   UNL     1      -6.045   3.992  69.900  1.00  0.00    -0.021 OA 
HETATM   11  OXT UNL     1      -6.608   2.827  71.698  1.00  0.00    -0.018 OA 
HETATM   12  O   UNL     1      -6.746   6.134  68.739  1.00  0.00    -0.056 OA 
HETATM   13  CA  UNL     1      -7.597   8.194  70.097  1.00  0.00    -0.077 C  
ENDROOT
BRANCH  13  14
HETATM   14  N   UNL     1      -8.978   8.504  69.671  1.00  0.00    -0.144 N  
HETATM   15  H   UNL     1      -9.674   7.763  69.754  1.00  0.00     0.000 HD 
HETATM   16  C   UNL     1      -9.400   9.717  69.170  1.00  0.00    -0.172 C  
HETATM   17  O   UNL     1      -8.672  10.696  69.075  1.00  0.00    -0.153 OA 
BRANCH  16  18
HETATM   18  CA  UNL     1     -10.889   9.686  68.710  1.00  0.00    -0.168 C  
HETATM   19  H2  UNL     1     -10.793   7.649  68.215  1.00  0.00     0.000 HD 
HETATM   20  N   UNL     1     -11.088   8.530  67.796  1.00  0.00    -0.399 NA 
HETATM   21  H1  UNL     1     -12.063   8.511  67.495  1.00  0.00     0.000 HD 
BRANCH  18  22
HETATM   22  C   UNL     1     -11.211  11.005  68.037  1.00  0.00    -0.372 C  
HETATM   23  C   UNL     1     -11.011  11.256  66.724  1.00  0.00    -0.339 C  
HETATM   24  C   UNL     1     -11.276  12.580  66.067  1.00  0.00    -0.354 C  
HETATM   25  C   UNL     1     -11.675  13.657  67.030  1.00  0.00    -0.419 C  
HETATM   26  C   UNL     1     -11.902  13.425  68.332  1.00  0.00    -0.401 C  
HETATM   27  C   UNL     1     -11.775  12.066  68.963  1.00  0.00    -0.382 C  
ENDBRANCH  18  22
ENDBRANCH  16  18
ENDBRANCH  13  14
TORSDOF 3
ENDMDL
MODEL      169
REMARK 921   NORMALIZED FREE ENERGY PREDICTED BY IDOCK:   -3.34 KCAL/MOL
REMARK 922        TOTAL FREE ENERGY PREDICTED BY IDOCK:   -4.58 KCAL/MOL
REMARK 923 INTER-LIGAND FREE ENERGY PREDICTED BY IDOCK:   -4.87 KCAL/MOL
REMARK 924 INTRA-LIGAND FREE ENERGY PREDICTED BY IDOCK:    0.29 KCAL/MOL
REMARK 927      BINDING AFFINITY PREDICTED BY RF-SCORE:    0.00 PKD
ROOT
HETATM    1  C   UNL     1      -7.355   9.458  68.084  1.00  0.00    -0.078 C  
HETATM    2  S   UNL     1      -7.407   9.744  69.869  1.00  0.00    -0.152 SA 
HETATM    3  C   UNL     1      -6.897   8.063  70.270  1.00  0.00    -0.037 C  
HETATM    4  C   UNL     1      -7.667   6.984  69.532  1.00  0.00    -0.107 C  
HETATM    5  C   UNL     1      -7.678   5.686  70.315  1.00  0.00    -0.090 C  
HETATM    6  CA  UNL     1      -8.311   7.159  68.341  1.00  0.00    -0.125 C  
HETATM    7  N   UNL     1      -8.276   8.388  67.742  1.00  0.00    -0.125 N  
HETATM    8  C   UNL     1      -9.073   5.997  67.721  1.00  0.00    -0.109 C  
HETATM    9  C   UNL     1      -8.946   9.071  66.788  1.00  0.00    -0.135 C  
HETATM   10  O   UNL     1      -9.623   6.201  66.508  1.00  0.00    -0.155 OA 
HETATM   11  OXT UNL     1      -9.140   4.883  68.222  1.00  0.00    -0.107 OA 
HETATM   12  O   UNL     1      -9.798   8.683  66.023  1.00  0.00    -0.235 OA 
HETATM   13  CA  UNL     1      -8.247  10.409  67.218  1.00  0.00    -0.121 C  
ENDROOT
BRANCH  13  14
HETATM   14  N   UNL     1      -9.089  11.355  67.979  1.00  0.00    -0.164 N  
HETATM   15  H   UNL     1      -8.624  11.958  68.658  1.00  0.00     0.000 HD 
HETATM   16  C   UNL     1     -10.454  11.488  67.843  1.00  0.00    -0.184 C  
HETATM   17  O   UNL     1     -11.114  10.861  67.025  1.00  0.00    -0.272 OA 
BRANCH  16  18
HETATM   18  CA  UNL     1     -11.061  12.493  68.869  1.00  0.00    -0.260 C  
HETATM   19  H2  UNL     1      -9.581  13.930  68.478  1.00  0.00     0.000 HD 
HETATM   20  N   UNL     1     -10.008  13.461  69.276  1.00  0.00    -0.259 NA 
HETATM   21  H1  UNL     1     -10.405  14.119  69.947  1.00  0.00     0.000 HD 
BRANCH  18  22
HETATM   22  C   UNL     1     -11.601  11.711  70.047  1.00  0.00    -0.338 C  
HETATM   23  C   UNL     1     -11.158  10.487  70.413  1.00  0.00    -0.321 C  
HETATM   24  C   UNL     1     -11.731   9.684  71.546  1.00  0.00    -0.472 C  
HETATM   25  C   UNL     1     -12.938  10.314  72.175  1.00  0.00    -0.410 C  
HETATM   26  C   UNL     1     -13.380  11.536  71.843  1.00  0.00    -0.408 C  
HETATM   27  C   UNL     1     -12.719  12.401  70.807  1.00  0.00    -0.208 C  
ENDBRANCH  18  22
ENDBRANCH  16  18
ENDBRANCH  13  14
TORSDOF 3
ENDMDL
MODEL      170
REMARK 921   NORMALIZED FREE ENERGY PREDICTED BY IDOCK:   -3.27 KCAL/MOL
REMARK 922        TOTAL FREE ENERGY PREDICTED BY IDOCK:   -4.50 KCAL/MOL
REMARK 923 INTER-LIGAND FREE ENERGY PREDICTED BY IDOCK:   -4.05 KCAL/MOL
REMARK 924 INTRA-LIGAND FREE ENERGY PREDICTED BY IDOCK:   -0.45 KCAL/MOL
REMARK 927      BINDING AFFINITY PREDICTED BY RF-SCORE:    0.00 PKD
ROOT
HETATM    1  C   UNL     1      -8.963   8.118  66.166  1.00  0.00    -0.178 C  
HETATM    2  S   UNL     1      -7.179   8.192  66.450  1.00  0.00    -0.080 SA 
HETATM    3  C   UNL     1      -6.780   7.419  64.872  1.00  0.00    -0.047 C  
HETATM    4  C   UNL     1      -7.568   6.157  64.577  1.00  0.00    -0.094 C  
HETATM    5  C   UNL     1      -6.806   5.240  63.642  1.00  0.00    -0.045 C  
HETATM    6  CA  UNL     1      -8.785   5.853  65.116  1.00  0.00    -0.036 C  
HETATM    7  N   UNL     1      -9.363   6.733  65.988  1.00  0.00    -0.054 N  
HETATM    8  C   UNL     1      -9.457   4.535  64.756  1.00  0.00    -0.121 C  
HETATM    9  C   UNL     1     -10.338   6.740  66.924  1.00  0.00    -0.254 C  
HETATM   10  O   UNL     1     -10.692   4.321  65.252  1.00  0.00    -0.240 OA 
HETATM   11  OXT UNL     1      -8.976   3.714  63.988  1.00  0.00    -0.103 OA 
HETATM   12  O   UNL     1     -11.148   5.885  67.195  1.00  0.00    -0.256 OA 
HETATM   13  CA  UNL     1      -9.857   8.138  67.451  1.00  0.00    -0.184 C  
ENDROOT
BRANCH  13  14
HETATM   14  N   UNL     1      -9.122   8.120  68.734  1.00  0.00    -0.144 N  
HETATM   15  H   UNL     1      -8.207   7.669  68.745  1.00  0.00     0.000 HD 
HETATM   16  C   UNL     1      -9.576   8.665  69.915  1.00  0.00    -0.172 C  
HETATM   17  O   UNL     1     -10.630   9.279  70.013  1.00  0.00    -0.207 OA 
BRANCH  16  18
HETATM   18  CA  UNL     1      -8.616   8.382  71.110  1.00  0.00    -0.154 C  
HETATM   19  H2  UNL     1      -6.933   8.286  69.859  1.00  0.00     0.000 HD 
HETATM   20  N   UNL     1      -7.379   7.738  70.594  1.00  0.00    -0.064 NA 
HETATM   21  H1  UNL     1      -6.752   7.552  71.376  1.00  0.00     0.000 HD 
BRANCH  18  22
HETATM   22  C   UNL     1      -9.340   7.504  72.110  1.00  0.00    -0.176 C  
HETATM   23  C   UNL     1      -9.316   7.698  73.447  1.00  0.00    -0.324 C  
HETATM   24  C   UNL     1      -9.986   6.796  74.445  1.00  0.00    -0.310 C  
HETATM   25  C   UNL     1     -10.595   5.572  73.830  1.00  0.00    -0.316 C  
HETATM   26  C   UNL     1     -10.650   5.371  72.505  1.00  0.00    -0.277 C  
HETATM   27  C   UNL     1     -10.105   6.345  71.498  1.00  0.00    -0.215 C  
ENDBRANCH  18  22
ENDBRANCH  16  18
ENDBRANCH  13  14
TORSDOF 3
ENDMDL
MODEL      171
REMARK 921   NORMALIZED FREE ENERGY PREDICTED BY IDOCK:   -3.24 KCAL/MOL
REMARK 922        TOTAL FREE ENERGY PREDICTED BY IDOCK:   -4.47 KCAL/MOL
REMARK 923 INTER-LIGAND FREE ENERGY PREDICTED BY IDOCK:   -3.97 KCAL/MOL
REMARK 924 INTRA-LIGAND FREE ENERGY PREDICTED BY IDOCK:   -0.50 KCAL/MOL
REMARK 927      BINDING AFFINITY PREDICTED BY RF-SCORE:    0.00 PKD
ROOT
HETATM    1  C   UNL     1      -7.864   6.896  69.874  1.00  0.00    -0.115 C  
HETATM    2  S   UNL     1      -9.582   7.289  70.278  1.00  0.00    -0.164 SA 
HETATM    3  C   UNL     1      -9.738   5.928  71.449  1.00  0.00    -0.166 C  
HETATM    4  C   UNL     1      -9.245   4.593  70.925  1.00  0.00    -0.199 C  
HETATM    5  C   UNL     1      -9.943   3.440  71.618  1.00  0.00    -0.177 C  
HETATM    6  CA  UNL     1      -8.327   4.437  69.926  1.00  0.00    -0.062 C  
HETATM    7  N   UNL     1      -7.794   5.548  69.335  1.00  0.00    -0.086 N  
HETATM    8  C   UNL     1      -7.939   3.035  69.475  1.00  0.00    -0.048 C  
HETATM    9  C   UNL     1      -7.127   5.876  68.207  1.00  0.00    -0.078 C  
HETATM   10  O   UNL     1      -6.972   2.937  68.542  1.00  0.00    -0.047 OA 
HETATM   11  OXT UNL     1      -8.395   2.013  69.966  1.00  0.00    -0.044 OA 
HETATM   12  O   UNL     1      -6.659   5.156  67.356  1.00  0.00    -0.050 OA 
HETATM   13  CA  UNL     1      -7.361   7.404  68.481  1.00  0.00    -0.100 C  
ENDROOT
BRANCH  13  14
HETATM   14  N   UNL     1      -8.384   8.056  67.638  1.00  0.00    -0.127 N  
HETATM   15  H   UNL     1      -9.332   7.682  67.674  1.00  0.00     0.000 HD 
HETATM   16  C   UNL     1      -8.158   9.132  66.806  1.00  0.00    -0.111 C  
HETATM   17  O   UNL     1      -7.078   9.701  66.719  1.00  0.00    -0.084 OA 
BRANCH  16  18
HETATM   18  CA  UNL     1      -9.416   9.513  65.969  1.00  0.00    -0.233 C  
HETATM   19  H2  UNL     1      -8.408   9.233  64.150  1.00  0.00     0.000 HD 
HETATM   20  N   UNL     1      -8.983   9.937  64.612  1.00  0.00    -0.204 NA 
HETATM   21  H1  UNL     1      -9.807  10.187  64.064  1.00  0.00     0.000 HD 
BRANCH  18  22
HETATM   22  C   UNL     1     -10.163  10.612  66.697  1.00  0.00    -0.284 C  
HETATM   23  C   UNL     1     -11.115  10.393  67.631  1.00  0.00    -0.361 C  
HETATM   24  C   UNL     1     -11.897  11.479  68.313  1.00  0.00    -0.327 C  
HETATM   25  C   UNL     1     -11.611  12.849  67.776  1.00  0.00    -0.391 C  
HETATM   26  C   UNL     1     -10.655  13.092  66.867  1.00  0.00    -0.260 C  
HETATM   27  C   UNL     1      -9.773  12.021  66.289  1.00  0.00    -0.251 C  
ENDBRANCH  18  22
ENDBRANCH  16  18
ENDBRANCH  13  14
TORSDOF 3
ENDMDL
MODEL      172
REMARK 921   NORMALIZED FREE ENERGY PREDICTED BY IDOCK:   -3.18 KCAL/MOL
REMARK 922        TOTAL FREE ENERGY PREDICTED BY IDOCK:   -4.40 KCAL/MOL
REMARK 923 INTER-LIGAND FREE ENERGY PREDICTED BY IDOCK:   -5.34 KCAL/MOL
REMARK 924 INTRA-LIGAND FREE ENERGY PREDICTED BY IDOCK:    0.95 KCAL/MOL
REMARK 927      BINDING AFFINITY PREDICTED BY RF-SCORE:    0.00 PKD
ROOT
HETATM    1  C   UNL     1     -11.956  12.133  67.190  1.00  0.00    -0.078 C  
HETATM    2  S   UNL     1     -11.614  12.302  68.958  1.00  0.00    -0.332 SA 
HETATM    3  C   UNL     1     -11.953  14.072  68.972  1.00  0.00    -0.357 C  
HETATM    4  C   UNL     1     -11.262  14.849  67.868  1.00  0.00    -0.324 C  
HETATM    5  C   UNL     1     -11.044  16.294  68.268  1.00  0.00    -0.346 C  
HETATM    6  CA  UNL     1     -10.843  14.317  66.682  1.00  0.00    -0.301 C  
HETATM    7  N   UNL     1     -11.049  12.986  66.443  1.00  0.00    -0.281 N  
HETATM    8  C   UNL     1     -10.135  15.205  65.669  1.00  0.00    -0.363 C  
HETATM    9  C   UNL     1     -10.592  12.023  65.612  1.00  0.00    -0.265 C  
HETATM   10  O   UNL     1      -9.814  14.648  64.484  1.00  0.00     0.030 OA 
HETATM   11  OXT UNL     1      -9.921  16.396  65.841  1.00  0.00    -0.322 OA 
HETATM   12  O   UNL     1      -9.864  12.119  64.653  1.00  0.00    -0.222 OA 
HETATM   13  CA  UNL     1     -11.281  10.912  66.482  1.00  0.00     0.067 C  
ENDROOT
BRANCH  13  14
HETATM   14  N   UNL     1     -10.375  10.109  67.330  1.00  0.00    -0.222 N  
HETATM   15  H   UNL     1     -10.762   9.279  67.778  1.00  0.00     0.000 HD 
HETATM   16  C   UNL     1      -9.047  10.394  67.562  1.00  0.00    -0.134 C  
HETATM   17  O   UNL     1      -8.456  11.329  67.037  1.00  0.00    -0.140 OA 
BRANCH  16  18
HETATM   18  CA  UNL     1      -8.398   9.417  68.590  1.00  0.00    -0.117 C  
HETATM   19  H2  UNL     1      -6.730   9.081  67.360  1.00  0.00     0.000 HD 
HETATM   20  N   UNL     1      -7.426   8.545  67.879  1.00  0.00    -0.096 NA 
HETATM   21  H1  UNL     1      -7.001   7.906  68.552  1.00  0.00     0.000 HD 
BRANCH  18  22
HETATM   22  C   UNL     1      -9.499   8.618  69.254  1.00  0.00    -0.158 C  
HETATM   23  C   UNL     1      -9.977   7.445  68.782  1.00  0.00    -0.171 C  
HETATM   24  C   UNL     1     -11.108   6.679  69.407  1.00  0.00    -0.365 C  
HETATM   25  C   UNL     1     -11.755   7.397  70.553  1.00  0.00    -0.220 C  
HETATM   26  C   UNL     1     -11.283   8.550  71.052  1.00  0.00    -0.312 C  
HETATM   27  C   UNL     1     -10.063   9.245  70.516  1.00  0.00    -0.313 C  
ENDBRANCH  18  22
ENDBRANCH  16  18
ENDBRANCH  13  14
TORSDOF 3
ENDMDL
MODEL      173
REMARK 921   NORMALIZED FREE ENERGY PREDICTED BY IDOCK:   -3.13 KCAL/MOL
REMARK 922        TOTAL FREE ENERGY PREDICTED BY IDOCK:   -4.34 KCAL/MOL
REMARK 923 INTER-LIGAND FREE ENERGY PREDICTED BY IDOCK:   -3.91 KCAL/MOL
REMARK 924 INTRA-LIGAND FREE ENERGY PREDICTED BY IDOCK:   -0.43 KCAL/MOL
REMARK 927      BINDING AFFINITY PREDICTED BY RF-SCORE:    0.00 PKD
ROOT
HETATM    1  C   UNL     1      -9.768  11.485  69.576  1.00  0.00     0.675 C  
HETATM    2  S   UNL     1      -9.889  12.253  67.943  1.00  0.00    -0.206 SA 
HETATM    3  C   UNL     1     -10.507  13.815  68.596  1.00  0.00    -0.239 C  
HETATM    4  C   UNL     1     -11.649  13.671  69.584  1.00  0.00    -0.342 C  
HETATM    5  C   UNL     1     -12.517  14.913  69.603  1.00  0.00    -0.174 C  
HETATM    6  CA  UNL     1     -11.902  12.555  70.328  1.00  0.00    -0.223 C  
HETATM    7  N   UNL     1     -11.081  11.469  70.198  1.00  0.00     0.068 N  
HETATM    8  C   UNL     1     -13.103  12.532  71.264  1.00  0.00    -0.132 C  
HETATM    9  C   UNL     1     -11.094  10.148  70.480  1.00  0.00    -0.327 C  
HETATM   10  O   UNL     1     -13.261  11.438  72.034  1.00  0.00    -0.503 OA 
HETATM   11  OXT UNL     1     -13.870  13.474  71.409  1.00  0.00    -0.132 OA 
HETATM   12  O   UNL     1     -11.898   9.507  71.115  1.00  0.00    -0.306 OA 
HETATM   13  CA  UNL     1      -9.816   9.921  69.597  1.00  0.00    -0.232 C  
ENDROOT
BRANCH  13  14
HETATM   14  N   UNL     1     -10.050   9.277  68.287  1.00  0.00    -0.177 N  
HETATM   15  H   UNL     1     -10.068   9.879  67.464  1.00  0.00     0.000 HD 
HETATM   16  C   UNL     1     -10.245   7.927  68.091  1.00  0.00    -0.205 C  
HETATM   17  O   UNL     1     -10.190   7.100  68.991  1.00  0.00    -0.178 OA 
BRANCH  16  18
HETATM   18  CA  UNL     1     -10.575   7.582  66.606  1.00  0.00    -0.039 C  
HETATM   19  H2  UNL     1     -11.416   5.730  67.125  1.00  0.00     0.000 HD 
HETATM   20  N   UNL     1     -10.727   6.109  66.475  1.00  0.00    -0.524 NA 
HETATM   21  H1  UNL     1     -10.944   5.884  65.504  1.00  0.00     0.000 HD 
BRANCH  18  22
HETATM   22  C   UNL     1      -9.464   8.120  65.729  1.00  0.00     0.020 C  
HETATM   23  C   UNL     1      -8.303   7.469  65.490  1.00  0.00    -0.137 C  
HETATM   24  C   UNL     1      -7.176   8.025  64.667  1.00  0.00    -0.079 C  
HETATM   25  C   UNL     1      -7.401   9.438  64.222  1.00  0.00    -0.109 C  
HETATM   26  C   UNL     1      -8.553  10.094  64.428  1.00  0.00    -0.199 C  
HETATM   27  C   UNL     1      -9.736   9.486  65.128  1.00  0.00    -0.207 C  
ENDBRANCH  18  22
ENDBRANCH  16  18
ENDBRANCH  13  14
TORSDOF 3
ENDMDL
MODEL      174
REMARK 921   NORMALIZED FREE ENERGY PREDICTED BY IDOCK:   -3.03 KCAL/MOL
REMARK 922        TOTAL FREE ENERGY PREDICTED BY IDOCK:   -4.22 KCAL/MOL
REMARK 923 INTER-LIGAND FREE ENERGY PREDICTED BY IDOCK:   -3.71 KCAL/MOL
REMARK 924 INTRA-LIGAND FREE ENERGY PREDICTED BY IDOCK:   -0.51 KCAL/MOL
REMARK 927      BINDING AFFINITY PREDICTED BY RF-SCORE:    0.00 PKD
ROOT
HETATM    1  C   UNL     1      -7.707   6.061  70.668  1.00  0.00    -0.101 C  
HETATM    2  S   UNL     1      -8.661   7.577  70.419  1.00  0.00    -0.144 SA 
HETATM    3  C   UNL     1      -8.970   7.810  72.179  1.00  0.00    -0.137 C  
HETATM    4  C   UNL     1      -9.468   6.569  72.895  1.00  0.00    -0.151 C  
HETATM    5  C   UNL     1     -10.286   6.933  74.117  1.00  0.00    -0.278 C  
HETATM    6  CA  UNL     1      -9.255   5.287  72.476  1.00  0.00    -0.136 C  
HETATM    7  N   UNL     1      -8.542   5.073  71.330  1.00  0.00    -0.123 N  
HETATM    8  C   UNL     1      -9.837   4.129  73.276  1.00  0.00    -0.128 C  
HETATM    9  C   UNL     1      -8.335   4.083  70.434  1.00  0.00    -0.061 C  
HETATM   10  O   UNL     1      -9.531   2.884  72.863  1.00  0.00    -0.089 OA 
HETATM   11  OXT UNL     1     -10.489   4.271  74.301  1.00  0.00    -0.214 OA 
HETATM   12  O   UNL     1      -8.684   2.927  70.474  1.00  0.00    -0.060 OA 
HETATM   13  CA  UNL     1      -7.646   5.088  69.444  1.00  0.00    -0.061 C  
ENDROOT
BRANCH  13  14
HETATM   14  N   UNL     1      -8.454   5.491  68.274  1.00  0.00    -0.098 N  
HETATM   15  H   UNL     1      -9.326   5.989  68.453  1.00  0.00     0.000 HD 
HETATM   16  C   UNL     1      -8.123   5.245  66.959  1.00  0.00    -0.104 C  
HETATM   17  O   UNL     1      -7.079   4.706  66.617  1.00  0.00    -0.068 OA 
BRANCH  16  18
HETATM   18  CA  UNL     1      -9.238   5.698  65.968  1.00  0.00    -0.152 C  
HETATM   19  H2  UNL     1      -8.766   4.183  64.595  1.00  0.00     0.000 HD 
HETATM   20  N   UNL     1      -8.911   5.192  64.609  1.00  0.00    -0.316 NA 
HETATM   21  H1  UNL     1      -9.641   5.489  63.961  1.00  0.00     0.000 HD 
BRANCH  18  22
HETATM   22  C   UNL     1      -9.329   7.210  66.006  1.00  0.00    -0.019 C  
HETATM   23  C   UNL     1      -8.484   8.037  65.352  1.00  0.00    -0.155 C  
HETATM   24  C   UNL     1      -8.537   9.536  65.433  1.00  0.00    -0.173 C  
HETATM   25  C   UNL     1      -9.550  10.047  66.413  1.00  0.00    -0.248 C  
HETATM   26  C   UNL     1     -10.414   9.245  67.055  1.00  0.00    -0.303 C  
HETATM   27  C   UNL     1     -10.455   7.755  66.864  1.00  0.00    -0.388 C  
ENDBRANCH  18  22
ENDBRANCH  16  18
ENDBRANCH  13  14
TORSDOF 3
ENDMDL
MODEL      175
REMARK 921   NORMALIZED FREE ENERGY PREDICTED BY IDOCK:   -3.02 KCAL/MOL
REMARK 922        TOTAL FREE ENERGY PREDICTED BY IDOCK:   -4.21 KCAL/MOL
REMARK 923 INTER-LIGAND FREE ENERGY PREDICTED BY IDOCK:   -5.49 KCAL/MOL
REMARK 924 INTRA-LIGAND FREE ENERGY PREDICTED BY IDOCK:    1.28 KCAL/MOL
REMARK 927      BINDING AFFINITY PREDICTED BY RF-SCORE:    0.00 PKD
ROOT
HETATM    1  C   UNL     1     -10.134  11.611  66.568  1.00  0.00    -0.207 C  
HETATM    2  S   UNL     1     -11.059  13.063  67.120  1.00  0.00    -0.284 SA 
HETATM    3  C   UNL     1      -9.789  14.221  66.578  1.00  0.00    -0.288 C  
HETATM    4  C   UNL     1      -8.384  13.859  67.018  1.00  0.00    -0.113 C  
HETATM    5  C   UNL     1      -7.504  15.089  67.114  1.00  0.00    -0.145 C  
HETATM    6  CA  UNL     1      -7.965  12.598  67.335  1.00  0.00    -0.177 C  
HETATM    7  N   UNL     1      -8.857  11.564  67.259  1.00  0.00    -0.156 N  
HETATM    8  C   UNL     1      -6.530  12.375  67.791  1.00  0.00    -0.115 C  
HETATM    9  C   UNL     1      -8.982  10.297  67.712  1.00  0.00    -0.134 C  
HETATM   10  O   UNL     1      -6.147  11.103  68.015  1.00  0.00    -0.049 OA 
HETATM   11  OXT UNL     1      -5.699  13.268  67.882  1.00  0.00    -0.109 OA 
HETATM   12  O   UNL     1      -8.175   9.606  68.289  1.00  0.00    -0.105 OA 
HETATM   13  CA  UNL     1     -10.491  10.265  67.283  1.00  0.00    -0.253 C  
ENDROOT
BRANCH  13  14
HETATM   14  N   UNL     1     -11.472  10.374  68.383  1.00  0.00    -0.503 N  
HETATM   15  H   UNL     1     -12.430  10.084  68.190  1.00  0.00     0.000 HD 
HETATM   16  C   UNL     1     -11.193  10.838  69.651  1.00  0.00    -0.291 C  
HETATM   17  O   UNL     1     -10.071  11.162  70.018  1.00  0.00     0.433 OA 
BRANCH  16  18
HETATM   18  CA  UNL     1     -12.467  10.933  70.545  1.00  0.00    -0.351 C  
HETATM   19  H2  UNL     1     -13.527   9.578  69.343  1.00  0.00     0.000 HD 
HETATM   20  N   UNL     1     -13.648  10.505  69.749  1.00  0.00     0.120 NA 
HETATM   21  H1  UNL     1     -14.481  10.568  70.334  1.00  0.00     0.000 HD 
BRANCH  18  22
HETATM   22  C   UNL     1     -12.601  12.359  71.040  1.00  0.00    -0.349 C  
HETATM   23  C   UNL     1     -13.231  12.709  72.183  1.00  0.00    -0.527 C  
HETATM   24  C   UNL     1     -13.414  14.126  72.648  1.00  0.00    -0.634 C  
HETATM   25  C   UNL     1     -12.936  15.146  71.659  1.00  0.00    -0.454 C  
HETATM   26  C   UNL     1     -12.288  14.821  70.530  1.00  0.00    -0.398 C  
HETATM   27  C   UNL     1     -11.977  13.405  70.135  1.00  0.00    -0.396 C  
ENDBRANCH  18  22
ENDBRANCH  16  18
ENDBRANCH  13  14
TORSDOF 3
ENDMDL
MODEL      176
REMARK 921   NORMALIZED FREE ENERGY PREDICTED BY IDOCK:   -2.97 KCAL/MOL
REMARK 922        TOTAL FREE ENERGY PREDICTED BY IDOCK:   -4.15 KCAL/MOL
REMARK 923 INTER-LIGAND FREE ENERGY PREDICTED BY IDOCK:   -4.79 KCAL/MOL
REMARK 924 INTRA-LIGAND FREE ENERGY PREDICTED BY IDOCK:    0.64 KCAL/MOL
REMARK 927      BINDING AFFINITY PREDICTED BY RF-SCORE:    0.00 PKD
ROOT
HETATM    1  C   UNL     1      -6.741   8.165  66.266  1.00  0.00    -0.054 C  
HETATM    2  S   UNL     1      -7.448   7.963  67.918  1.00  0.00    -0.106 SA 
HETATM    3  C   UNL     1      -7.289   6.168  67.892  1.00  0.00    -0.084 C  
HETATM    4  C   UNL     1      -7.813   5.513  66.629  1.00  0.00    -0.101 C  
HETATM    5  C   UNL     1      -8.244   4.084  66.891  1.00  0.00    -0.100 C  
HETATM    6  CA  UNL     1      -7.930   6.133  65.418  1.00  0.00    -0.116 C  
HETATM    7  N   UNL     1      -7.555   7.443  65.304  1.00  0.00    -0.091 N  
HETATM    8  C   UNL     1      -8.499   5.365  64.233  1.00  0.00    -0.092 C  
HETATM    9  C   UNL     1      -7.740   8.481  64.459  1.00  0.00    -0.126 C  
HETATM   10  O   UNL     1      -8.520   5.999  63.044  1.00  0.00    -0.036 OA 
HETATM   11  OXT UNL     1      -8.856   4.197  64.288  1.00  0.00    -0.127 OA 
HETATM   12  O   UNL     1      -8.264   8.500  63.371  1.00  0.00    -0.169 OA 
HETATM   13  CA  UNL     1      -7.139   9.478  65.513  1.00  0.00    -0.090 C  
ENDROOT
BRANCH  13  14
HETATM   14  N   UNL     1      -8.118  10.337  66.212  1.00  0.00    -0.125 N  
HETATM   15  H   UNL     1      -7.769  11.192  66.644  1.00  0.00     0.000 HD 
HETATM   16  C   UNL     1      -9.466  10.073  66.325  1.00  0.00    -0.191 C  
HETATM   17  O   UNL     1     -10.010   9.109  65.803  1.00  0.00    -0.277 OA 
BRANCH  16  18
HETATM   18  CA  UNL     1     -10.205  11.116  67.218  1.00  0.00    -0.193 C  
HETATM   19  H2  UNL     1     -11.282   9.627  68.232  1.00  0.00     0.000 HD 
HETATM   20  N   UNL     1     -11.454  10.505  67.742  1.00  0.00    -0.625 NA 
HETATM   21  H1  UNL     1     -11.938  11.187  68.326  1.00  0.00     0.000 HD 
BRANCH  18  22
HETATM   22  C   UNL     1     -10.481  12.351  66.385  1.00  0.00    -0.267 C  
HETATM   23  C   UNL     1     -11.188  12.347  65.233  1.00  0.00    -0.359 C  
HETATM   24  C   UNL     1     -11.415  13.559  64.376  1.00  0.00    -0.422 C  
HETATM   25  C   UNL     1     -10.678  14.775  64.852  1.00  0.00    -0.438 C  
HETATM   26  C   UNL     1      -9.991  14.807  66.004  1.00  0.00    -0.336 C  
HETATM   27  C   UNL     1      -9.883  13.632  66.935  1.00  0.00    -0.261 C  
ENDBRANCH  18  22
ENDBRANCH  16  18
ENDBRANCH  13  14
TORSDOF 3
ENDMDL
MODEL      177
REMARK 921   NORMALIZED FREE ENERGY PREDICTED BY IDOCK:   -2.96 KCAL/MOL
REMARK 922        TOTAL FREE ENERGY PREDICTED BY IDOCK:   -4.14 KCAL/MOL
REMARK 923 INTER-LIGAND FREE ENERGY PREDICTED BY IDOCK:   -3.65 KCAL/MOL
REMARK 924 INTRA-LIGAND FREE ENERGY PREDICTED BY IDOCK:   -0.49 KCAL/MOL
REMARK 927      BINDING AFFINITY PREDICTED BY RF-SCORE:    0.00 PKD
ROOT
HETATM    1  C   UNL     1      -8.379  11.854  68.123  1.00  0.00    -0.161 C  
HETATM    2  S   UNL     1      -6.719  12.375  67.628  1.00  0.00    -0.147 SA 
HETATM    3  C   UNL     1      -7.042  14.117  67.961  1.00  0.00    -0.144 C  
HETATM    4  C   UNL     1      -8.337  14.637  67.367  1.00  0.00    -0.223 C  
HETATM    5  C   UNL     1      -8.262  16.129  67.113  1.00  0.00    -0.225 C  
HETATM    6  CA  UNL     1      -9.418  13.865  67.054  1.00  0.00    -0.254 C  
HETATM    7  N   UNL     1      -9.361  12.518  67.282  1.00  0.00    -0.184 N  
HETATM    8  C   UNL     1     -10.649  14.512  66.436  1.00  0.00    -0.302 C  
HETATM    9  C   UNL     1     -10.010  11.396  66.901  1.00  0.00    -0.206 C  
HETATM   10  O   UNL     1     -11.717  13.719  66.219  1.00  0.00    -0.342 OA 
HETATM   11  OXT UNL     1     -10.745  15.709  66.205  1.00  0.00    -0.308 OA 
HETATM   12  O   UNL     1     -11.027  11.279  66.260  1.00  0.00    -0.270 OA 
HETATM   13  CA  UNL     1      -8.876  10.500  67.514  1.00  0.00    -0.131 C  
ENDROOT
BRANCH  13  14
HETATM   14  N   UNL     1      -7.960   9.871  66.538  1.00  0.00    -0.109 N  
HETATM   15  H   UNL     1      -7.827  10.345  65.645  1.00  0.00     0.000 HD 
HETATM   16  C   UNL     1      -7.273   8.694  66.742  1.00  0.00    -0.078 C  
HETATM   17  O   UNL     1      -7.309   8.065  67.792  1.00  0.00    -0.089 OA 
BRANCH  16  18
HETATM   18  CA  UNL     1      -6.479   8.241  65.479  1.00  0.00    -0.049 C  
HETATM   19  H2  UNL     1      -6.917  10.018  64.451  1.00  0.00     0.000 HD 
HETATM   20  N   UNL     1      -6.964   9.010  64.303  1.00  0.00    -0.089 NA 
HETATM   21  H1  UNL     1      -6.444   8.714  63.476  1.00  0.00     0.000 HD 
BRANCH  18  22
HETATM   22  C   UNL     1      -6.669   6.749  65.301  1.00  0.00    -0.051 C  
HETATM   23  C   UNL     1      -7.803   6.179  64.835  1.00  0.00    -0.108 C  
HETATM   24  C   UNL     1      -8.015   4.697  64.712  1.00  0.00    -0.096 C  
HETATM   25  C   UNL     1      -6.887   3.883  65.271  1.00  0.00    -0.053 C  
HETATM   26  C   UNL     1      -5.744   4.427  65.716  1.00  0.00    -0.022 C  
HETATM   27  C   UNL     1      -5.475   5.906  65.707  1.00  0.00    -0.010 C  
ENDBRANCH  18  22
ENDBRANCH  16  18
ENDBRANCH  13  14
TORSDOF 3
ENDMDL
MODEL      178
REMARK 921   NORMALIZED FREE ENERGY PREDICTED BY IDOCK:   -2.93 KCAL/MOL
REMARK 922        TOTAL FREE ENERGY PREDICTED BY IDOCK:   -4.11 KCAL/MOL
REMARK 923 INTER-LIGAND FREE ENERGY PREDICTED BY IDOCK:   -4.67 KCAL/MOL
REMARK 924 INTRA-LIGAND FREE ENERGY PREDICTED BY IDOCK:    0.56 KCAL/MOL
REMARK 927      BINDING AFFINITY PREDICTED BY RF-SCORE:    0.00 PKD
ROOT
HETATM    1  C   UNL     1      -9.055  14.970  69.567  1.00  0.00    -0.058 C  
HETATM    2  S   UNL     1     -10.283  16.135  70.205  1.00  0.00     0.210 SA 
HETATM    3  C   UNL     1     -11.392  14.833  70.773  1.00  0.00    -0.173 C  
HETATM    4  C   UNL     1     -11.662  13.750  69.747  1.00  0.00    -0.367 C  
HETATM    5  C   UNL     1     -13.002  13.086  69.990  1.00  0.00     0.601 C  
HETATM    6  CA  UNL     1     -10.836  13.437  68.705  1.00  0.00    -0.246 C  
HETATM    7  N   UNL     1      -9.670  14.134  68.551  1.00  0.00    -0.222 N  
HETATM    8  C   UNL     1     -11.241  12.343  67.727  1.00  0.00    -0.275 C  
HETATM    9  C   UNL     1      -8.746  14.366  67.592  1.00  0.00    -0.189 C  
HETATM   10  O   UNL     1     -10.355  12.020  66.765  1.00  0.00    -0.204 OA 
HETATM   11  OXT UNL     1     -12.277  11.699  67.819  1.00  0.00    -0.560 OA 
HETATM   12  O   UNL     1      -8.629  13.858  66.501  1.00  0.00    -0.024 OA 
HETATM   13  CA  UNL     1      -8.114  15.522  68.445  1.00  0.00    -0.136 C  
ENDROOT
BRANCH  13  14
HETATM   14  N   UNL     1      -8.413  16.895  67.986  1.00  0.00    -0.207 N  
HETATM   15  H   UNL     1      -8.259  17.656  68.647  1.00  0.00     0.000 HD 
HETATM   16  C   UNL     1      -8.884  17.226  66.734  1.00  0.00    -0.247 C  
HETATM   17  O   UNL     1      -9.056  16.408  65.839  1.00  0.00    -0.429 OA 
BRANCH  16  18
HETATM   18  CA  UNL     1      -9.205  18.746  66.601  1.00  0.00    -0.329 C  
HETATM   19  H2  UNL     1     -11.118  18.371  65.822  1.00  0.00     0.000 HD 
HETATM   20  N   UNL     1     -10.290  18.925  65.601  1.00  0.00    -0.531 NA 
HETATM   21  H1  UNL     1     -10.500  19.920  65.514  1.00  0.00     0.000 HD 
BRANCH  18  22
HETATM   22  C   UNL     1      -7.937  19.472  66.201  1.00  0.00    -0.340 C  
HETATM   23  C   UNL     1      -7.168  19.128  65.143  1.00  0.00     0.338 C  
HETATM   24  C   UNL     1      -5.880  19.810  64.777  1.00  0.00    -0.270 C  
HETATM   25  C   UNL     1      -5.449  20.846  65.771  1.00  0.00    -0.251 C  
HETATM   26  C   UNL     1      -6.207  21.218  66.814  1.00  0.00    -0.392 C  
HETATM   27  C   UNL     1      -7.563  20.636  67.099  1.00  0.00    -0.364 C  
ENDBRANCH  18  22
ENDBRANCH  16  18
ENDBRANCH  13  14
TORSDOF 3
ENDMDL
MODEL      179
REMARK 921   NORMALIZED FREE ENERGY PREDICTED BY IDOCK:   -2.92 KCAL/MOL
REMARK 922        TOTAL FREE ENERGY PREDICTED BY IDOCK:   -4.09 KCAL/MOL
REMARK 923 INTER-LIGAND FREE ENERGY PREDICTED BY IDOCK:   -3.75 KCAL/MOL
REMARK 924 INTRA-LIGAND FREE ENERGY PREDICTED BY IDOCK:   -0.34 KCAL/MOL
REMARK 927      BINDING AFFINITY PREDICTED BY RF-SCORE:    0.00 PKD
ROOT
HETATM    1  C   UNL     1      -7.693  13.992  67.910  1.00  0.00    -0.159 C  
HETATM    2  S   UNL     1      -6.185  13.607  66.988  1.00  0.00     1.366 SA 
HETATM    3  C   UNL     1      -5.368  15.143  67.457  1.00  0.00     0.125 C  
HETATM    4  C   UNL     1      -6.217  16.386  67.269  1.00  0.00    -0.212 C  
HETATM    5  C   UNL     1      -5.354  17.612  67.055  1.00  0.00    -0.163 C  
HETATM    6  CA  UNL     1      -7.582  16.403  67.245  1.00  0.00    -0.166 C  
HETATM    7  N   UNL     1      -8.263  15.228  67.401  1.00  0.00    -0.169 N  
HETATM    8  C   UNL     1      -8.313  17.719  67.019  1.00  0.00    -0.226 C  
HETATM    9  C   UNL     1      -9.502  14.736  67.180  1.00  0.00    -0.227 C  
HETATM   10  O   UNL     1      -9.659  17.693  67.083  1.00  0.00    -0.265 OA 
HETATM   11  OXT UNL     1      -7.748  18.793  66.865  1.00  0.00    -0.226 OA 
HETATM   12  O   UNL     1     -10.509  15.316  66.845  1.00  0.00    -0.277 OA 
HETATM   13  CA  UNL     1      -8.992  13.271  67.418  1.00  0.00    -0.215 C  
ENDROOT
BRANCH  13  14
HETATM   14  N   UNL     1      -8.836  12.442  66.205  1.00  0.00    -0.420 N  
HETATM   15  H   UNL     1      -7.886  12.216  65.908  1.00  0.00     0.000 HD 
HETATM   16  C   UNL     1      -9.873  11.949  65.443  1.00  0.00    -0.233 C  
HETATM   17  O   UNL     1     -11.053  12.106  65.728  1.00  0.00    -0.296 OA 
BRANCH  16  18
HETATM   18  CA  UNL     1      -9.374  11.206  64.166  1.00  0.00    -0.165 C  
HETATM   19  H2  UNL     1     -10.659  12.295  62.914  1.00  0.00     0.000 HD 
HETATM   20  N   UNL     1     -10.406  11.325  63.103  1.00  0.00    -0.625 NA 
HETATM   21  H1  UNL     1     -10.080  10.839  62.268  1.00  0.00     0.000 HD 
BRANCH  18  22
HETATM   22  C   UNL     1      -9.095   9.762  64.529  1.00  0.00    -0.297 C  
HETATM   23  C   UNL     1      -9.421   9.201  65.715  1.00  0.00    -0.322 C  
HETATM   24  C   UNL     1      -9.094   7.786  66.099  1.00  0.00    -0.199 C  
HETATM   25  C   UNL     1      -8.256   7.069  65.085  1.00  0.00    -0.113 C  
HETATM   26  C   UNL     1      -7.942   7.598  63.892  1.00  0.00    -0.091 C  
HETATM   27  C   UNL     1      -8.390   8.962  63.449  1.00  0.00    -0.177 C  
ENDBRANCH  18  22
ENDBRANCH  16  18
ENDBRANCH  13  14
TORSDOF 3
ENDMDL
MODEL      180
REMARK 921   NORMALIZED FREE ENERGY PREDICTED BY IDOCK:   -2.88 KCAL/MOL
REMARK 922        TOTAL FREE ENERGY PREDICTED BY IDOCK:   -4.04 KCAL/MOL
REMARK 923 INTER-LIGAND FREE ENERGY PREDICTED BY IDOCK:   -4.63 KCAL/MOL
REMARK 924 INTRA-LIGAND FREE ENERGY PREDICTED BY IDOCK:    0.58 KCAL/MOL
REMARK 927      BINDING AFFINITY PREDICTED BY RF-SCORE:    0.00 PKD
ROOT
HETATM    1  C   UNL     1      -9.886   7.292  69.198  1.00  0.00    -0.166 C  
HETATM    2  S   UNL     1      -9.007   7.611  67.650  1.00  0.00    -0.126 SA 
HETATM    3  C   UNL     1      -7.467   6.887  68.242  1.00  0.00    -0.099 C  
HETATM    4  C   UNL     1      -7.033   7.373  69.612  1.00  0.00    -0.053 C  
HETATM    5  C   UNL     1      -5.531   7.269  69.780  1.00  0.00    -0.023 C  
HETATM    6  CA  UNL     1      -7.872   7.884  70.561  1.00  0.00    -0.095 C  
HETATM    7  N   UNL     1      -9.208   7.976  70.285  1.00  0.00    -0.154 N  
HETATM    8  C   UNL     1      -7.301   8.363  71.888  1.00  0.00    -0.097 C  
HETATM    9  C   UNL     1     -10.297   8.625  70.753  1.00  0.00    -0.204 C  
HETATM   10  O   UNL     1      -8.180   8.784  72.818  1.00  0.00    -0.407 OA 
HETATM   11  OXT UNL     1      -6.113   8.308  72.177  1.00  0.00    -0.045 OA 
HETATM   12  O   UNL     1     -10.419   9.300  71.747  1.00  0.00    -0.337 OA 
HETATM   13  CA  UNL     1     -11.120   8.213  69.481  1.00  0.00     0.052 C  
ENDROOT
BRANCH  13  14
HETATM   14  N   UNL     1     -11.349   9.286  68.491  1.00  0.00    -0.322 N  
HETATM   15  H   UNL     1     -11.962   9.076  67.703  1.00  0.00     0.000 HD 
HETATM   16  C   UNL     1     -10.800  10.549  68.549  1.00  0.00    -0.234 C  
HETATM   17  O   UNL     1     -10.095  10.935  69.472  1.00  0.00    -0.155 OA 
BRANCH  16  18
HETATM   18  CA  UNL     1     -11.147  11.409  67.296  1.00  0.00    -0.303 C  
HETATM   19  H2  UNL     1     -10.593   9.876  65.973  1.00  0.00     0.000 HD 
HETATM   20  N   UNL     1     -10.413  10.869  66.121  1.00  0.00    -0.246 NA 
HETATM   21  H1  UNL     1     -10.641  11.432  65.302  1.00  0.00     0.000 HD 
BRANCH  18  22
HETATM   22  C   UNL     1     -10.779  12.849  67.585  1.00  0.00    -0.237 C  
HETATM   23  C   UNL     1     -11.553  13.704  68.291  1.00  0.00    -0.374 C  
HETATM   24  C   UNL     1     -11.217  15.148  68.530  1.00  0.00    -0.301 C  
HETATM   25  C   UNL     1      -9.986  15.604  67.806  1.00  0.00    -0.223 C  
HETATM   26  C   UNL     1      -9.191  14.768  67.120  1.00  0.00    -0.233 C  
HETATM   27  C   UNL     1      -9.451  13.293  67.000  1.00  0.00    -0.243 C  
ENDBRANCH  18  22
ENDBRANCH  16  18
ENDBRANCH  13  14
TORSDOF 3
ENDMDL
MODEL      181
REMARK 921   NORMALIZED FREE ENERGY PREDICTED BY IDOCK:   -2.85 KCAL/MOL
REMARK 922        TOTAL FREE ENERGY PREDICTED BY IDOCK:   -4.00 KCAL/MOL
REMARK 923 INTER-LIGAND FREE ENERGY PREDICTED BY IDOCK:   -3.75 KCAL/MOL
REMARK 924 INTRA-LIGAND FREE ENERGY PREDICTED BY IDOCK:   -0.25 KCAL/MOL
REMARK 927      BINDING AFFINITY PREDICTED BY RF-SCORE:    0.00 PKD
ROOT
HETATM    1  C   UNL     1      -8.559  13.863  66.737  1.00  0.00    -0.041 C  
HETATM    2  S   UNL     1      -8.611  13.658  68.533  1.00  0.00    -0.046 SA 
HETATM    3  C   UNL     1      -9.765  12.276  68.457  1.00  0.00    -0.138 C  
HETATM    4  C   UNL     1     -10.970  12.516  67.568  1.00  0.00    -0.288 C  
HETATM    5  C   UNL     1     -12.153  11.678  68.010  1.00  0.00     0.005 C  
HETATM    6  CA  UNL     1     -11.011  13.403  66.531  1.00  0.00    -0.290 C  
HETATM    7  N   UNL     1      -9.898  14.144  66.247  1.00  0.00    -0.296 N  
HETATM    8  C   UNL     1     -12.297  13.567  65.734  1.00  0.00    -0.468 C  
HETATM    9  C   UNL     1      -9.572  15.263  65.564  1.00  0.00    -0.208 C  
HETATM   10  O   UNL     1     -12.260  14.396  64.672  1.00  0.00    -0.444 OA 
HETATM   11  OXT UNL     1     -13.320  12.933  65.955  1.00  0.00     0.377 OA 
HETATM   12  O   UNL     1     -10.251  15.936  64.824  1.00  0.00    -0.418 OA 
HETATM   13  CA  UNL     1      -8.149  15.285  66.227  1.00  0.00     0.515 C  
ENDROOT
BRANCH  13  14
HETATM   14  N   UNL     1      -7.949  16.302  67.281  1.00  0.00    -0.154 N  
HETATM   15  H   UNL     1      -8.763  16.577  67.829  1.00  0.00     0.000 HD 
HETATM   16  C   UNL     1      -6.748  16.907  67.580  1.00  0.00    -0.149 C  
HETATM   17  O   UNL     1      -5.693  16.621  67.030  1.00  0.00    -0.170 OA 
BRANCH  16  18
HETATM   18  CA  UNL     1      -6.893  18.016  68.667  1.00  0.00    -0.249 C  
HETATM   19  H2  UNL     1      -6.079  16.789  70.163  1.00  0.00     0.000 HD 
HETATM   20  N   UNL     1      -6.897  17.378  70.010  1.00  0.00     0.413 NA 
HETATM   21  H1  UNL     1      -6.993  18.103  70.720  1.00  0.00     0.000 HD 
BRANCH  18  22
HETATM   22  C   UNL     1      -8.169  18.786  68.399  1.00  0.00    -0.372 C  
HETATM   23  C   UNL     1      -9.087  19.087  69.345  1.00  0.00     0.145 C  
HETATM   24  C   UNL     1     -10.380  19.802  69.073  1.00  0.00    -0.240 C  
HETATM   25  C   UNL     1     -10.629  20.052  67.616  1.00  0.00    -0.414 C  
HETATM   26  C   UNL     1      -9.723  19.783  66.663  1.00  0.00    -0.519 C  
HETATM   27  C   UNL     1      -8.369  19.199  66.953  1.00  0.00    -0.300 C  
ENDBRANCH  18  22
ENDBRANCH  16  18
ENDBRANCH  13  14
TORSDOF 3
ENDMDL
MODEL      182
REMARK 921   NORMALIZED FREE ENERGY PREDICTED BY IDOCK:   -2.66 KCAL/MOL
REMARK 922        TOTAL FREE ENERGY PREDICTED BY IDOCK:   -3.78 KCAL/MOL
REMARK 923 INTER-LIGAND FREE ENERGY PREDICTED BY IDOCK:   -3.30 KCAL/MOL
REMARK 924 INTRA-LIGAND FREE ENERGY PREDICTED BY IDOCK:   -0.48 KCAL/MOL
REMARK 927      BINDING AFFINITY PREDICTED BY RF-SCORE:    0.00 PKD
ROOT
HETATM    1  C   UNL     1      -6.850   8.864  67.582  1.00  0.00    -0.070 C  
HETATM    2  S   UNL     1      -7.680   9.850  68.850  1.00  0.00    -0.090 SA 
HETATM    3  C   UNL     1      -6.950   8.924  70.213  1.00  0.00    -0.047 C  
HETATM    4  C   UNL     1      -7.051   7.418  70.069  1.00  0.00    -0.065 C  
HETATM    5  C   UNL     1      -7.032   6.735  71.422  1.00  0.00    -0.070 C  
HETATM    6  CA  UNL     1      -7.189   6.754  68.884  1.00  0.00    -0.091 C  
HETATM    7  N   UNL     1      -7.243   7.473  67.722  1.00  0.00    -0.091 N  
HETATM    8  C   UNL     1      -7.308   5.236  68.883  1.00  0.00    -0.070 C  
HETATM    9  C   UNL     1      -7.631   7.301  66.439  1.00  0.00    -0.092 C  
HETATM   10  O   UNL     1      -7.363   4.625  67.683  1.00  0.00    -0.071 OA 
HETATM   11  OXT UNL     1      -7.274   4.551  69.895  1.00  0.00    -0.048 OA 
HETATM   12  O   UNL     1      -7.975   6.291  65.871  1.00  0.00    -0.106 OA 
HETATM   13  CA  UNL     1      -7.539   8.846  66.177  1.00  0.00    -0.091 C  
ENDROOT
BRANCH  13  14
HETATM   14  N   UNL     1      -8.830   9.560  66.095  1.00  0.00    -0.146 N  
HETATM   15  H   UNL     1      -9.618   9.167  66.609  1.00  0.00     0.000 HD 
HETATM   16  C   UNL     1      -9.052  10.716  65.378  1.00  0.00    -0.189 C  
HETATM   17  O   UNL     1      -8.174  11.310  64.768  1.00  0.00     0.286 OA 
BRANCH  16  18
HETATM   18  CA  UNL     1     -10.548  11.155  65.406  1.00  0.00    -0.227 C  
HETATM   19  H2  UNL     1     -10.589  11.480  63.332  1.00  0.00     0.000 HD 
HETATM   20  N   UNL     1     -10.835  11.967  64.194  1.00  0.00    -0.320 NA 
HETATM   21  H1  UNL     1     -11.813  12.255  64.212  1.00  0.00     0.000 HD 
BRANCH  18  22
HETATM   22  C   UNL     1     -10.798  11.931  66.682  1.00  0.00    -0.315 C  
HETATM   23  C   UNL     1     -10.747  13.279  66.774  1.00  0.00    -0.279 C  
HETATM   24  C   UNL     1     -10.938  14.047  68.051  1.00  0.00    -0.266 C  
HETATM   25  C   UNL     1     -11.074  13.173  69.260  1.00  0.00    -0.201 C  
HETATM   26  C   UNL     1     -11.150  11.835  69.190  1.00  0.00    -0.294 C  
HETATM   27  C   UNL     1     -11.102  11.072  67.896  1.00  0.00    -0.347 C  
ENDBRANCH  18  22
ENDBRANCH  16  18
ENDBRANCH  13  14
TORSDOF 3
ENDMDL
MODEL      183
REMARK 921   NORMALIZED FREE ENERGY PREDICTED BY IDOCK:   -2.28 KCAL/MOL
REMARK 922        TOTAL FREE ENERGY PREDICTED BY IDOCK:   -3.33 KCAL/MOL
REMARK 923 INTER-LIGAND FREE ENERGY PREDICTED BY IDOCK:   -4.14 KCAL/MOL
REMARK 924 INTRA-LIGAND FREE ENERGY PREDICTED BY IDOCK:    0.81 KCAL/MOL
REMARK 927      BINDING AFFINITY PREDICTED BY RF-SCORE:    0.00 PKD
ROOT
HETATM    1  C   UNL     1      -8.695  10.334  68.561  1.00  0.00    -0.130 C  
HETATM    2  S   UNL     1      -9.598  11.849  68.166  1.00  0.00    -0.197 SA 
HETATM    3  C   UNL     1     -10.333  11.159  66.672  1.00  0.00    -0.241 C  
HETATM    4  C   UNL     1      -9.347  10.462  65.755  1.00  0.00    -0.230 C  
HETATM    5  C   UNL     1      -9.830  10.477  64.319  1.00  0.00    -0.402 C  
HETATM    6  CA  UNL     1      -8.154   9.929  66.151  1.00  0.00    -0.119 C  
HETATM    7  N   UNL     1      -7.794  10.012  67.468  1.00  0.00    -0.095 N  
HETATM    8  C   UNL     1      -7.242   9.280  65.120  1.00  0.00    -0.094 C  
HETATM    9  C   UNL     1      -6.680   9.901  68.224  1.00  0.00    -0.060 C  
HETATM   10  O   UNL     1      -6.114   8.700  65.576  1.00  0.00    -0.051 OA 
HETATM   11  OXT UNL     1      -7.516   9.189  63.931  1.00  0.00    -0.105 OA 
HETATM   12  O   UNL     1      -5.572   9.535  67.908  1.00  0.00    -0.040 OA 
HETATM   13  CA  UNL     1      -7.427  10.514  69.461  1.00  0.00    -0.146 C  
ENDROOT
BRANCH  13  14
HETATM   14  N   UNL     1      -7.079  11.912  69.792  1.00  0.00    -0.323 N  
HETATM   15  H   UNL     1      -7.465  12.301  70.652  1.00  0.00     0.000 HD 
HETATM   16  C   UNL     1      -6.273  12.729  69.030  1.00  0.00    -0.095 C  
HETATM   17  O   UNL     1      -5.709  12.358  68.009  1.00  0.00    -0.058 OA 
BRANCH  16  18
HETATM   18  CA  UNL     1      -6.192  14.180  69.595  1.00  0.00    -0.126 C  
HETATM   19  H2  UNL     1      -6.132  13.505  71.581  1.00  0.00     0.000 HD 
HETATM   20  N   UNL     1      -6.648  14.174  71.010  1.00  0.00    -0.303 NA 
HETATM   21  H1  UNL     1      -6.595  15.123  71.379  1.00  0.00     0.000 HD 
BRANCH  18  22
HETATM   22  C   UNL     1      -7.044  15.082  68.726  1.00  0.00    -0.114 C  
HETATM   23  C   UNL     1      -7.581  14.709  67.543  1.00  0.00    -0.215 C  
HETATM   24  C   UNL     1      -8.379  15.619  66.652  1.00  0.00    -0.310 C  
HETATM   25  C   UNL     1      -8.431  17.036  67.138  1.00  0.00    -0.222 C  
HETATM   26  C   UNL     1      -7.926  17.422  68.319  1.00  0.00    -0.253 C  
HETATM   27  C   UNL     1      -7.252  16.480  69.277  1.00  0.00    -0.213 C  
ENDBRANCH  18  22
ENDBRANCH  16  18
ENDBRANCH  13  14
TORSDOF 3
ENDMDL
MODEL      184
REMARK 921   NORMALIZED FREE ENERGY PREDICTED BY IDOCK:   -2.27 KCAL/MOL
REMARK 922        TOTAL FREE ENERGY PREDICTED BY IDOCK:   -3.33 KCAL/MOL
REMARK 923 INTER-LIGAND FREE ENERGY PREDICTED BY IDOCK:   -3.93 KCAL/MOL
REMARK 924 INTRA-LIGAND FREE ENERGY PREDICTED BY IDOCK:    0.60 KCAL/MOL
REMARK 927      BINDING AFFINITY PREDICTED BY RF-SCORE:    0.00 PKD
ROOT
HETATM    1  C   UNL     1      -7.169  10.269  66.932  1.00  0.00    -0.093 C  
HETATM    2  S   UNL     1      -6.841  12.004  67.320  1.00  0.00    -0.141 SA 
HETATM    3  C   UNL     1      -5.671  11.610  68.632  1.00  0.00    -0.045 C  
HETATM    4  C   UNL     1      -6.166  10.570  69.619  1.00  0.00    -0.063 C  
HETATM    5  C   UNL     1      -5.498  10.734  70.969  1.00  0.00    -0.081 C  
HETATM    6  CA  UNL     1      -7.124   9.634  69.353  1.00  0.00    -0.062 C  
HETATM    7  N   UNL     1      -7.697   9.605  68.112  1.00  0.00    -0.086 N  
HETATM    8  C   UNL     1      -7.551   8.664  70.446  1.00  0.00    -0.075 C  
HETATM    9  C   UNL     1      -8.798   9.097  67.514  1.00  0.00    -0.119 C  
HETATM   10  O   UNL     1      -8.441   7.711  70.107  1.00  0.00    -0.134 OA 
HETATM   11  OXT UNL     1      -7.074   8.656  71.572  1.00  0.00    -0.078 OA 
HETATM   12  O   UNL     1      -9.623   8.331  67.952  1.00  0.00    -0.147 OA 
HETATM   13  CA  UNL     1      -8.541   9.976  66.238  1.00  0.00    -0.129 C  
ENDROOT
BRANCH  13  14
HETATM   14  N   UNL     1      -9.432  11.144  66.076  1.00  0.00    -0.200 N  
HETATM   15  H   UNL     1      -9.486  11.570  65.151  1.00  0.00     0.000 HD 
HETATM   16  C   UNL     1     -10.195  11.704  67.077  1.00  0.00    -0.212 C  
HETATM   17  O   UNL     1     -10.256  11.250  68.212  1.00  0.00    -0.173 OA 
BRANCH  16  18
HETATM   18  CA  UNL     1     -10.938  12.993  66.611  1.00  0.00    -0.279 C  
HETATM   19  H2  UNL     1     -10.876  12.413  64.595  1.00  0.00     0.000 HD 
HETATM   20  N   UNL     1     -10.648  13.223  65.171  1.00  0.00    -0.316 NA 
HETATM   21  H1  UNL     1     -11.134  14.067  64.866  1.00  0.00     0.000 HD 
BRANCH  18  22
HETATM   22  C   UNL     1     -10.481  14.150  67.475  1.00  0.00    -0.249 C  
HETATM   23  C   UNL     1      -9.190  14.523  67.623  1.00  0.00    -0.195 C  
HETATM   24  C   UNL     1      -8.728  15.634  68.524  1.00  0.00    -0.182 C  
HETATM   25  C   UNL     1      -9.827  16.228  69.352  1.00  0.00    -0.217 C  
HETATM   26  C   UNL     1     -11.117  15.889  69.205  1.00  0.00    -0.302 C  
HETATM   27  C   UNL     1     -11.597  14.878  68.201  1.00  0.00    -0.356 C  
ENDBRANCH  18  22
ENDBRANCH  16  18
ENDBRANCH  13  14
TORSDOF 3
ENDMDL
MODEL      185
REMARK 921   NORMALIZED FREE ENERGY PREDICTED BY IDOCK:   -2.21 KCAL/MOL
REMARK 922        TOTAL FREE ENERGY PREDICTED BY IDOCK:   -3.26 KCAL/MOL
REMARK 923 INTER-LIGAND FREE ENERGY PREDICTED BY IDOCK:   -3.14 KCAL/MOL
REMARK 924 INTRA-LIGAND FREE ENERGY PREDICTED BY IDOCK:   -0.12 KCAL/MOL
REMARK 927      BINDING AFFINITY PREDICTED BY RF-SCORE:    0.00 PKD
ROOT
HETATM    1  C   UNL     1      -7.296   6.027  67.687  1.00  0.00    -0.077 C  
HETATM    2  S   UNL     1      -8.996   5.411  67.712  1.00  0.00    -0.108 SA 
HETATM    3  C   UNL     1      -9.596   6.686  66.588  1.00  0.00    -0.163 C  
HETATM    4  C   UNL     1      -9.169   8.094  66.955  1.00  0.00    -0.187 C  
HETATM    5  C   UNL     1     -10.152   9.120  66.429  1.00  0.00    -0.345 C  
HETATM    6  CA  UNL     1      -8.070   8.407  67.703  1.00  0.00    -0.118 C  
HETATM    7  N   UNL     1      -7.275   7.397  68.169  1.00  0.00    -0.088 N  
HETATM    8  C   UNL     1      -7.770   9.865  68.023  1.00  0.00    -0.086 C  
HETATM    9  C   UNL     1      -6.325   7.207  69.111  1.00  0.00    -0.035 C  
HETATM   10  O   UNL     1      -6.632  10.124  68.696  1.00  0.00    -0.052 OA 
HETATM   11  OXT UNL     1      -8.456  10.801  67.637  1.00  0.00    -0.119 OA 
HETATM   12  O   UNL     1      -5.767   8.018  69.812  1.00  0.00    -0.023 OA 
HETATM   13  CA  UNL     1      -6.419   5.651  68.928  1.00  0.00    -0.042 C  
ENDROOT
BRANCH  13  14
HETATM   14  N   UNL     1      -7.123   4.921  70.003  1.00  0.00    -0.052 N  
HETATM   15  H   UNL     1      -8.008   4.472  69.766  1.00  0.00     0.000 HD 
HETATM   16  C   UNL     1      -6.678   4.799  71.301  1.00  0.00    -0.035 C  
HETATM   17  O   UNL     1      -5.607   5.245  71.692  1.00  0.00    -0.008 OA 
BRANCH  16  18
HETATM   18  CA  UNL     1      -7.703   4.063  72.217  1.00  0.00    -0.079 C  
HETATM   19  H2  UNL     1      -6.955   2.172  71.697  1.00  0.00     0.000 HD 
HETATM   20  N   UNL     1      -7.849   2.660  71.748  1.00  0.00    -0.051 NA 
HETATM   21  H1  UNL     1      -8.520   2.179  72.347  1.00  0.00     0.000 HD 
BRANCH  18  22
HETATM   22  C   UNL     1      -9.016   4.818  72.171  1.00  0.00    -0.142 C  
HETATM   23  C   UNL     1      -9.188   6.004  71.545  1.00  0.00    -0.151 C  
HETATM   24  C   UNL     1     -10.473   6.782  71.547  1.00  0.00    -0.236 C  
HETATM   25  C   UNL     1     -11.536   6.180  72.416  1.00  0.00    -0.349 C  
HETATM   26  C   UNL     1     -11.394   4.994  73.026  1.00  0.00    -0.374 C  
HETATM   27  C   UNL     1     -10.159   4.146  72.909  1.00  0.00    -0.217 C  
ENDBRANCH  18  22
ENDBRANCH  16  18
ENDBRANCH  13  14
TORSDOF 3
ENDMDL
MODEL      186
REMARK 921   NORMALIZED FREE ENERGY PREDICTED BY IDOCK:   -2.00 KCAL/MOL
REMARK 922        TOTAL FREE ENERGY PREDICTED BY IDOCK:   -3.01 KCAL/MOL
REMARK 923 INTER-LIGAND FREE ENERGY PREDICTED BY IDOCK:   -3.36 KCAL/MOL
REMARK 924 INTRA-LIGAND FREE ENERGY PREDICTED BY IDOCK:    0.34 KCAL/MOL
REMARK 927      BINDING AFFINITY PREDICTED BY RF-SCORE:    0.00 PKD
ROOT
HETATM    1  C   UNL     1      -9.538   7.488  73.458  1.00  0.00    -0.285 C  
HETATM    2  S   UNL     1      -8.502   8.122  72.118  1.00  0.00    -0.176 SA 
HETATM    3  C   UNL     1      -9.683   9.402  71.656  1.00  0.00     0.189 C  
HETATM    4  C   UNL     1     -11.109   8.911  71.503  1.00  0.00    -0.397 C  
HETATM    5  C   UNL     1     -11.892   9.789  70.547  1.00  0.00    -0.316 C  
HETATM    6  CA  UNL     1     -11.621   7.797  72.105  1.00  0.00    -0.317 C  
HETATM    7  N   UNL     1     -10.811   7.049  72.913  1.00  0.00    -0.278 N  
HETATM    8  C   UNL     1     -13.067   7.399  71.844  1.00  0.00    -0.245 C  
HETATM    9  C   UNL     1     -10.780   5.809  73.451  1.00  0.00    -0.273 C  
HETATM   10  O   UNL     1     -13.543   6.338  72.524  1.00  0.00     0.250 OA 
HETATM   11  OXT UNL     1     -13.826   8.031  71.123  1.00  0.00    -0.191 OA 
HETATM   12  O   UNL     1     -11.634   4.954  73.454  1.00  0.00    -0.313 OA 
HETATM   13  CA  UNL     1      -9.280   6.000  73.870  1.00  0.00    -0.129 C  
ENDROOT
BRANCH  13  14
HETATM   14  N   UNL     1      -8.288   5.278  73.046  1.00  0.00    -0.112 N  
HETATM   15  H   UNL     1      -7.308   5.543  73.149  1.00  0.00     0.000 HD 
HETATM   16  C   UNL     1      -8.583   4.273  72.150  1.00  0.00    -0.108 C  
HETATM   17  O   UNL     1      -9.711   3.831  71.981  1.00  0.00    -0.147 OA 
BRANCH  16  18
HETATM   18  CA  UNL     1      -7.328   3.793  71.358  1.00  0.00    -0.040 C  
HETATM   19  H2  UNL     1      -6.031   4.271  72.938  1.00  0.00     0.000 HD 
HETATM   20  N   UNL     1      -6.118   4.436  71.935  1.00  0.00    -0.016 NA 
HETATM   21  H1  UNL     1      -5.298   4.122  71.417  1.00  0.00     0.000 HD 
BRANCH  18  22
HETATM   22  C   UNL     1      -7.518   4.146  69.898  1.00  0.00    -0.049 C  
HETATM   23  C   UNL     1      -7.621   5.410  69.430  1.00  0.00    -0.077 C  
HETATM   24  C   UNL     1      -7.867   5.761  67.990  1.00  0.00    -0.100 C  
HETATM   25  C   UNL     1      -8.112   4.568  67.117  1.00  0.00    -0.102 C  
HETATM   26  C   UNL     1      -7.992   3.305  67.555  1.00  0.00    -0.077 C  
HETATM   27  C   UNL     1      -7.605   2.953  68.964  1.00  0.00    -0.047 C  
ENDBRANCH  18  22
ENDBRANCH  16  18
ENDBRANCH  13  14
TORSDOF 3
ENDMDL
MODEL      187
REMARK 921   NORMALIZED FREE ENERGY PREDICTED BY IDOCK:   -1.63 KCAL/MOL
REMARK 922        TOTAL FREE ENERGY PREDICTED BY IDOCK:   -2.57 KCAL/MOL
REMARK 923 INTER-LIGAND FREE ENERGY PREDICTED BY IDOCK:   -2.10 KCAL/MOL
REMARK 924 INTRA-LIGAND FREE ENERGY PREDICTED BY IDOCK:   -0.47 KCAL/MOL
REMARK 927      BINDING AFFINITY PREDICTED BY RF-SCORE:    0.00 PKD
ROOT
HETATM    1  C   UNL     1      -9.930   9.983  70.685  1.00  0.00     0.133 C  
HETATM    2  S   UNL     1     -11.433   9.468  69.821  1.00  0.00     0.081 SA 
HETATM    3  C   UNL     1     -12.286   9.006  71.340  1.00  0.00    -0.323 C  
HETATM    4  C   UNL     1     -11.470   8.134  72.274  1.00  0.00    -0.435 C  
HETATM    5  C   UNL     1     -12.366   7.282  73.151  1.00  0.00     1.104 C  
HETATM    6  CA  UNL     1     -10.106   8.078  72.299  1.00  0.00    -0.246 C  
HETATM    7  N   UNL     1      -9.394   8.856  71.429  1.00  0.00    -0.258 N  
HETATM    8  C   UNL     1      -9.410   7.134  73.270  1.00  0.00    -0.168 C  
HETATM    9  C   UNL     1      -8.144   8.925  70.919  1.00  0.00    -0.166 C  
HETATM   10  O   UNL     1      -8.064   7.176  73.308  1.00  0.00    -0.098 OA 
HETATM   11  OXT UNL     1     -10.003   6.414  74.060  1.00  0.00    -0.220 OA 
HETATM   12  O   UNL     1      -7.155   8.302  71.227  1.00  0.00    -0.052 OA 
HETATM   13  CA  UNL     1      -8.616   9.958  69.835  1.00  0.00    -0.194 C  
ENDROOT
BRANCH  13  14
HETATM   14  N   UNL     1      -8.759   9.427  68.464  1.00  0.00    -0.127 N  
HETATM   15  H   UNL     1      -9.537   8.793  68.284  1.00  0.00     0.000 HD 
HETATM   16  C   UNL     1      -7.922   9.721  67.409  1.00  0.00    -0.102 C  
HETATM   17  O   UNL     1      -6.990  10.510  67.487  1.00  0.00    -0.078 OA 
BRANCH  16  18
HETATM   18  CA  UNL     1      -8.277   8.913  66.123  1.00  0.00    -0.116 C  
HETATM   19  H2  UNL     1      -7.158   7.250  66.745  1.00  0.00     0.000 HD 
HETATM   20  N   UNL     1      -7.259   7.849  65.925  1.00  0.00    -0.071 NA 
HETATM   21  H1  UNL     1      -7.491   7.320  65.085  1.00  0.00     0.000 HD 
BRANCH  18  22
HETATM   22  C   UNL     1      -8.333   9.872  64.953  1.00  0.00    -0.154 C  
HETATM   23  C   UNL     1      -9.377  10.689  64.689  1.00  0.00    -0.280 C  
HETATM   24  C   UNL     1      -9.459  11.600  63.497  1.00  0.00    -0.190 C  
HETATM   25  C   UNL     1      -8.316  11.438  62.541  1.00  0.00     0.020 C  
HETATM   26  C   UNL     1      -7.259  10.651  62.794  1.00  0.00    -0.029 C  
HETATM   27  C   UNL     1      -7.109   9.848  64.055  1.00  0.00    -0.127 C  
ENDBRANCH  18  22
ENDBRANCH  16  18
ENDBRANCH  13  14
TORSDOF 3
ENDMDL
MODEL      188
REMARK 921   NORMALIZED FREE ENERGY PREDICTED BY IDOCK:   -1.03 KCAL/MOL
REMARK 922        TOTAL FREE ENERGY PREDICTED BY IDOCK:   -1.87 KCAL/MOL
REMARK 923 INTER-LIGAND FREE ENERGY PREDICTED BY IDOCK:   -1.76 KCAL/MOL
REMARK 924 INTRA-LIGAND FREE ENERGY PREDICTED BY IDOCK:   -0.11 KCAL/MOL
REMARK 927      BINDING AFFINITY PREDICTED BY RF-SCORE:    0.00 PKD
ROOT
HETATM    1  C   UNL     1      -7.310   8.642  68.737  1.00  0.00    -0.083 C  
HETATM    2  S   UNL     1      -6.414   7.085  68.945  1.00  0.00    -0.029 SA 
HETATM    3  C   UNL     1      -5.811   7.072  67.247  1.00  0.00    -0.024 C  
HETATM    4  C   UNL     1      -6.879   7.336  66.203  1.00  0.00    -0.057 C  
HETATM    5  C   UNL     1      -6.511   6.710  64.872  1.00  0.00    -0.042 C  
HETATM    6  CA  UNL     1      -8.047   8.005  66.431  1.00  0.00    -0.107 C  
HETATM    7  N   UNL     1      -8.300   8.489  67.685  1.00  0.00    -0.128 N  
HETATM    8  C   UNL     1      -9.049   8.176  65.298  1.00  0.00     0.195 C  
HETATM    9  C   UNL     1      -9.354   8.926  68.410  1.00  0.00    -0.136 C  
HETATM   10  O   UNL     1     -10.148   8.913  65.557  1.00  0.00     0.126 OA 
HETATM   11  OXT UNL     1      -8.872   7.755  64.164  1.00  0.00     0.388 OA 
HETATM   12  O   UNL     1     -10.489   9.144  68.058  1.00  0.00    -0.218 OA 
HETATM   13  CA  UNL     1      -8.500   8.878  69.727  1.00  0.00    -0.131 C  
ENDROOT
BRANCH  13  14
HETATM   14  N   UNL     1      -8.796   7.754  70.641  1.00  0.00    -0.143 N  
HETATM   15  H   UNL     1      -8.631   6.810  70.294  1.00  0.00     0.000 HD 
HETATM   16  C   UNL     1      -9.276   7.884  71.926  1.00  0.00    -0.154 C  
HETATM   17  O   UNL     1      -9.461   8.964  72.471  1.00  0.00    -0.287 OA 
BRANCH  16  18
HETATM   18  CA  UNL     1      -9.589   6.507  72.587  1.00  0.00    -0.150 C  
HETATM   19  H2  UNL     1     -11.264   7.267  73.600  1.00  0.00     0.000 HD 
HETATM   20  N   UNL     1     -10.419   6.731  73.800  1.00  0.00    -0.380 NA 
HETATM   21  H1  UNL     1     -10.624   5.830  74.232  1.00  0.00     0.000 HD 
BRANCH  18  22
HETATM   22  C   UNL     1      -8.279   5.821  72.912  1.00  0.00    -0.119 C  
HETATM   23  C   UNL     1      -8.165   4.510  73.222  1.00  0.00    -0.099 C  
HETATM   24  C   UNL     1      -6.875   3.840  73.601  1.00  0.00    -0.045 C  
HETATM   25  C   UNL     1      -5.722   4.790  73.726  1.00  0.00    -0.017 C  
HETATM   26  C   UNL     1      -5.807   6.089  73.401  1.00  0.00    -0.049 C  
HETATM   27  C   UNL     1      -7.064   6.730  72.884  1.00  0.00    -0.075 C  
ENDBRANCH  18  22
ENDBRANCH  16  18
ENDBRANCH  13  14
TORSDOF 3
ENDMDL
MODEL      189
REMARK 921   NORMALIZED FREE ENERGY PREDICTED BY IDOCK:   -0.00 KCAL/MOL
REMARK 922        TOTAL FREE ENERGY PREDICTED BY IDOCK:   -0.66 KCAL/MOL
REMARK 923 INTER-LIGAND FREE ENERGY PREDICTED BY IDOCK:   -0.18 KCAL/MOL
REMARK 924 INTRA-LIGAND FREE ENERGY PREDICTED BY IDOCK:   -0.48 KCAL/MOL
REMARK 927      BINDING AFFINITY PREDICTED BY RF-SCORE:    0.00 PKD
ROOT
HETATM    1  C   UNL     1      -9.221  14.645  66.308  1.00  0.00    -0.222 C  
HETATM    2  S   UNL     1     -10.808  13.900  66.751  1.00  0.00    -0.287 SA 
HETATM    3  C   UNL     1     -11.599  15.490  67.058  1.00  0.00     0.066 C  
HETATM    4  C   UNL     1     -10.796  16.428  67.938  1.00  0.00    -0.328 C  
HETATM    5  C   UNL     1     -11.698  17.405  68.665  1.00  0.00     1.434 C  
HETATM    6  CA  UNL     1      -9.441  16.380  68.099  1.00  0.00    -0.213 C  
HETATM    7  N   UNL     1      -8.727  15.425  67.429  1.00  0.00    -0.170 N  
HETATM    8  C   UNL     1      -8.760  17.367  69.037  1.00  0.00    -0.054 C  
HETATM    9  C   UNL     1      -7.508  14.843  67.487  1.00  0.00    -0.200 C  
HETATM   10  O   UNL     1      -7.414  17.327  69.098  1.00  0.00    -0.226 OA 
HETATM   11  OXT UNL     1      -9.356  18.232  69.663  1.00  0.00     0.415 OA 
HETATM   12  O   UNL     1      -6.552  15.132  68.167  1.00  0.00    -0.103 OA 
HETATM   13  CA  UNL     1      -7.966  13.726  66.483  1.00  0.00     0.915 C  
ENDROOT
BRANCH  13  14
HETATM   14  N   UNL     1      -8.231  12.400  67.079  1.00  0.00    -0.280 N  
HETATM   15  H   UNL     1      -9.205  12.140  67.233  1.00  0.00     0.000 HD 
HETATM   16  C   UNL     1      -7.265  11.487  67.442  1.00  0.00    -0.119 C  
HETATM   17  O   UNL     1      -6.068  11.662  67.256  1.00  0.00    -0.082 OA 
BRANCH  16  18
HETATM   18  CA  UNL     1      -7.865  10.231  68.145  1.00  0.00    -0.104 C  
HETATM   19  H2  UNL     1      -7.485  11.003  70.059  1.00  0.00     0.000 HD 
HETATM   20  N   UNL     1      -7.326  10.147  69.528  1.00  0.00    -0.106 NA 
HETATM   21  H1  UNL     1      -7.719   9.325  69.987  1.00  0.00     0.000 HD 
BRANCH  18  22
HETATM   22  C   UNL     1      -7.516   9.008  67.322  1.00  0.00    -0.084 C  
HETATM   23  C   UNL     1      -6.363   8.314  67.447  1.00  0.00    -0.057 C  
HETATM   24  C   UNL     1      -5.989   7.135  66.594  1.00  0.00    -0.035 C  
HETATM   25  C   UNL     1      -6.968   6.860  65.492  1.00  0.00    -0.060 C  
HETATM   26  C   UNL     1      -8.128   7.521  65.365  1.00  0.00    -0.133 C  
HETATM   27  C   UNL     1      -8.569   8.607  66.306  1.00  0.00    -0.151 C  
ENDBRANCH  18  22
ENDBRANCH  16  18
ENDBRANCH  13  14
TORSDOF 3
ENDMDL
MODEL      190
REMARK 921   NORMALIZED FREE ENERGY PREDICTED BY IDOCK:    4.85 KCAL/MOL
REMARK 922        TOTAL FREE ENERGY PREDICTED BY IDOCK:    5.04 KCAL/MOL
REMARK 923 INTER-LIGAND FREE ENERGY PREDICTED BY IDOCK:    2.78 KCAL/MOL
REMARK 924 INTRA-LIGAND FREE ENERGY PREDICTED BY IDOCK:    2.26 KCAL/MOL
REMARK 927      BINDING AFFINITY PREDICTED BY RF-SCORE:    0.00 PKD
ROOT
HETATM    1  C   UNL     1      -7.454  12.329  69.507  1.00  0.00     0.534 C  
HETATM    2  S   UNL     1      -6.280  12.177  68.140  1.00  0.00    -0.061 SA 
HETATM    3  C   UNL     1      -5.262  13.551  68.710  1.00  0.00    -0.073 C  
HETATM    4  C   UNL     1      -6.043  14.804  69.059  1.00  0.00    -0.093 C  
HETATM    5  C   UNL     1      -5.186  16.044  68.907  1.00  0.00    -0.107 C  
HETATM    6  CA  UNL     1      -7.360  14.828  69.419  1.00  0.00    -0.162 C  
HETATM    7  N   UNL     1      -8.054  13.652  69.479  1.00  0.00     0.659 N  
HETATM    8  C   UNL     1      -8.033  16.161  69.717  1.00  0.00     0.386 C  
HETATM    9  C   UNL     1      -9.338  13.231  69.501  1.00  0.00     1.391 C  
HETATM   10  O   UNL     1      -9.310  16.122  70.144  1.00  0.00     0.396 OA 
HETATM   11  OXT UNL     1      -7.457  17.239  69.669  1.00  0.00     0.126 OA 
HETATM   12  O   UNL     1     -10.354  13.876  69.602  1.00  0.00     0.185 OA 
HETATM   13  CA  UNL     1      -8.884  11.751  69.240  1.00  0.00     0.625 C  
ENDROOT
BRANCH  13  14
HETATM   14  N   UNL     1      -9.117  11.242  67.872  1.00  0.00    -0.146 N  
HETATM   15  H   UNL     1      -8.781  10.303  67.656  1.00  0.00     0.000 HD 
HETATM   16  C   UNL     1      -9.752  11.936  66.865  1.00  0.00    -0.200 C  
HETATM   17  O   UNL     1     -10.245  13.046  67.019  1.00  0.00    -0.241 OA 
BRANCH  16  18
HETATM   18  CA  UNL     1      -9.738  11.166  65.510  1.00  0.00    -0.228 C  
HETATM   19  H2  UNL     1     -11.760  10.630  65.685  1.00  0.00     0.000 HD 
HETATM   20  N   UNL     1     -10.859  10.189  65.497  1.00  0.00     0.297 NA 
HETATM   21  H1  UNL     1     -10.850   9.686  64.610  1.00  0.00     0.000 HD 
BRANCH  18  22
HETATM   22  C   UNL     1      -8.392  10.488  65.356  1.00  0.00    -0.165 C  
HETATM   23  C   UNL     1      -7.718   9.900  66.369  1.00  0.00    -0.104 C  
HETATM   24  C   UNL     1      -6.358   9.277  66.231  1.00  0.00    -0.065 C  
HETATM   25  C   UNL     1      -5.745   9.473  64.877  1.00  0.00    -0.065 C  
HETATM   26  C   UNL     1      -6.404  10.032  63.851  1.00  0.00    -0.132 C  
HETATM   27  C   UNL     1      -7.820  10.527  63.950  1.00  0.00     0.025 C  
ENDBRANCH  18  22
ENDBRANCH  16  18
ENDBRANCH  13  14
TORSDOF 3
ENDMDL
MODEL      191
REMARK 921   NORMALIZED FREE ENERGY PREDICTED BY IDOCK:    9.40 KCAL/MOL
REMARK 922        TOTAL FREE ENERGY PREDICTED BY IDOCK:   10.39 KCAL/MOL
REMARK 923 INTER-LIGAND FREE ENERGY PREDICTED BY IDOCK:    6.42 KCAL/MOL
REMARK 924 INTRA-LIGAND FREE ENERGY PREDICTED BY IDOCK:    3.97 KCAL/MOL
REMARK 927      BINDING AFFINITY PREDICTED BY RF-SCORE:    0.00 PKD
ROOT
HETATM    1  C   UNL     1      -8.186  10.179  67.661  1.00  0.00    -0.110 C  
HETATM    2  S   UNL     1      -6.488   9.836  68.179  1.00  0.00    -0.056 SA 
HETATM    3  C   UNL     1      -5.963   9.336  66.530  1.00  0.00    -0.059 C  
HETATM    4  C   UNL     1      -6.890   8.343  65.854  1.00  0.00    -0.064 C  
HETATM    5  C   UNL     1      -6.144   7.502  64.837  1.00  0.00    -0.038 C  
HETATM    6  CA  UNL     1      -8.214   8.185  66.147  1.00  0.00    -0.117 C  
HETATM    7  N   UNL     1      -8.776   8.967  67.118  1.00  0.00    -0.119 N  
HETATM    8  C   UNL     1      -9.026   7.130  65.411  1.00  0.00     0.213 C  
HETATM    9  C   UNL     1      -9.880   8.979  67.898  1.00  0.00    -0.171 C  
HETATM   10  O   UNL     1     -10.345   7.069  65.682  1.00  0.00     1.174 OA 
HETATM   11  OXT UNL     1      -8.566   6.402  64.542  1.00  0.00     0.043 OA 
HETATM   12  O   UNL     1     -10.854   8.265  67.859  1.00  0.00    -0.117 OA 
HETATM   13  CA  UNL     1      -9.267  10.116  68.791  1.00  0.00    -0.164 C  
ENDROOT
BRANCH  13  14
HETATM   14  N   UNL     1      -8.773   9.691  70.118  1.00  0.00    -0.227 N  
HETATM   15  H   UNL     1      -8.092  10.294  70.581  1.00  0.00     0.000 HD 
HETATM   16  C   UNL     1      -9.159   8.545  70.778  1.00  0.00    -0.165 C  
HETATM   17  O   UNL     1     -10.007   7.773  70.350  1.00  0.00    -0.187 OA 
BRANCH  16  18
HETATM   18  CA  UNL     1      -8.371   8.328  72.106  1.00  0.00    -0.174 C  
HETATM   19  H2  UNL     1     -10.099   7.750  73.147  1.00  0.00     0.000 HD 
HETATM   20  N   UNL     1      -9.320   8.400  73.248  1.00  0.00    -0.165 NA 
HETATM   21  H1  UNL     1      -8.804   8.258  74.116  1.00  0.00     0.000 HD 
BRANCH  18  22
HETATM   22  C   UNL     1      -7.287   9.381  72.199  1.00  0.00     0.784 C  
HETATM   23  C   UNL     1      -6.283   9.359  73.104  1.00  0.00     0.410 C  
HETATM   24  C   UNL     1      -5.239  10.432  73.236  1.00  0.00     0.299 C  
HETATM   25  C   UNL     1      -5.478  11.611  72.342  1.00  0.00     0.858 C  
HETATM   26  C   UNL     1      -6.453  11.644  71.422  1.00  0.00     2.352 C  
HETATM   27  C   UNL     1      -7.411  10.509  71.191  1.00  0.00     2.217 C  
ENDBRANCH  18  22
ENDBRANCH  16  18
ENDBRANCH  13  14
TORSDOF 3
ENDMDL
MODEL      192
REMARK 921   NORMALIZED FREE ENERGY PREDICTED BY IDOCK:    9.48 KCAL/MOL
REMARK 922        TOTAL FREE ENERGY PREDICTED BY IDOCK:   10.49 KCAL/MOL
REMARK 923 INTER-LIGAND FREE ENERGY PREDICTED BY IDOCK:    6.21 KCAL/MOL
REMARK 924 INTRA-LIGAND FREE ENERGY PREDICTED BY IDOCK:    4.28 KCAL/MOL
REMARK 927      BINDING AFFINITY PREDICTED BY RF-SCORE:    0.00 PKD
ROOT
HETATM    1  C   UNL     1      -6.469   8.751  67.524  1.00  0.00    -0.057 C  
HETATM    2  S   UNL     1      -6.811  10.114  68.662  1.00  0.00    -0.058 SA 
HETATM    3  C   UNL     1      -5.610   9.550  69.881  1.00  0.00    -0.032 C  
HETATM    4  C   UNL     1      -5.712   8.076  70.223  1.00  0.00    -0.022 C  
HETATM    5  C   UNL     1      -5.184   7.799  71.616  1.00  0.00    -0.034 C  
HETATM    6  CA  UNL     1      -6.252   7.121  69.411  1.00  0.00    -0.035 C  
HETATM    7  N   UNL     1      -6.744   7.490  68.190  1.00  0.00    -0.057 N  
HETATM    8  C   UNL     1      -6.319   5.678  69.890  1.00  0.00    -0.034 C  
HETATM    9  C   UNL     1      -7.566   6.997  67.237  1.00  0.00    -0.108 C  
HETATM   10  O   UNL     1      -6.788   4.763  69.018  1.00  0.00    -0.048 OA 
HETATM   11  OXT UNL     1      -5.900   5.301  70.975  1.00  0.00    -0.019 OA 
HETATM   12  O   UNL     1      -8.063   5.900  67.145  1.00  0.00    -0.102 OA 
HETATM   13  CA  UNL     1      -7.620   8.395  66.524  1.00  0.00    -0.088 C  
ENDROOT
BRANCH  13  14
HETATM   14  N   UNL     1      -8.873   9.158  66.705  1.00  0.00    -0.126 N  
HETATM   15  H   UNL     1      -9.751   8.659  66.565  1.00  0.00     0.000 HD 
HETATM   16  C   UNL     1      -8.947  10.491  67.046  1.00  0.00    -0.140 C  
HETATM   17  O   UNL     1      -7.966  11.180  67.292  1.00  0.00    -0.126 OA 
BRANCH  16  18
HETATM   18  CA  UNL     1     -10.412  11.025  67.048  1.00  0.00    -0.240 C  
HETATM   19  H2  UNL     1      -9.783  13.025  67.150  1.00  0.00     0.000 HD 
HETATM   20  N   UNL     1     -10.426  12.394  67.628  1.00  0.00    -0.213 NA 
HETATM   21  H1  UNL     1     -11.385  12.743  67.629  1.00  0.00     0.000 HD 
BRANCH  18  22
HETATM   22  C   UNL     1     -11.274  10.063  67.839  1.00  0.00    -0.169 C  
HETATM   23  C   UNL     1     -12.030  10.419  68.901  1.00  0.00     0.076 C  
HETATM   24  C   UNL     1     -12.841   9.457  69.723  1.00  0.00     1.545 C  
HETATM   25  C   UNL     1     -12.643   8.024  69.333  1.00  0.00     3.103 C  
HETATM   26  C   UNL     1     -11.916   7.650  68.269  1.00  0.00     2.511 C  
HETATM   27  C   UNL     1     -11.220   8.624  67.360  1.00  0.00     0.681 C  
ENDBRANCH  18  22
ENDBRANCH  16  18
ENDBRANCH  13  14
TORSDOF 3
ENDMDL
MODEL      193
REMARK 921   NORMALIZED FREE ENERGY PREDICTED BY IDOCK:   12.15 KCAL/MOL
REMARK 922        TOTAL FREE ENERGY PREDICTED BY IDOCK:   13.62 KCAL/MOL
REMARK 923 INTER-LIGAND FREE ENERGY PREDICTED BY IDOCK:   12.93 KCAL/MOL
REMARK 924 INTRA-LIGAND FREE ENERGY PREDICTED BY IDOCK:    0.68 KCAL/MOL
REMARK 927      BINDING AFFINITY PREDICTED BY RF-SCORE:    0.00 PKD
ROOT
HETATM    1  C   UNL     1     -12.129  13.791  67.777  1.00  0.00    -0.290 C  
HETATM    2  S   UNL     1     -12.637  12.058  67.686  1.00  0.00     2.362 SA 
HETATM    3  C   UNL     1     -11.848  11.625  69.247  1.00  0.00    -0.331 C  
HETATM    4  C   UNL     1     -10.418  12.112  69.380  1.00  0.00     0.244 C  
HETATM    5  C   UNL     1      -9.627  11.238  70.332  1.00  0.00     2.787 C  
HETATM    6  CA  UNL     1      -9.887  13.171  68.701  1.00  0.00    -0.083 C  
HETATM    7  N   UNL     1     -10.679  13.864  67.828  1.00  0.00    -0.244 N  
HETATM    8  C   UNL     1      -8.424  13.538  68.907  1.00  0.00     0.196 C  
HETATM    9  C   UNL     1     -10.539  14.728  66.798  1.00  0.00    -0.302 C  
HETATM   10  O   UNL     1      -7.972  14.638  68.273  1.00  0.00    -0.120 OA 
HETATM   11  OXT UNL     1      -7.675  12.944  69.670  1.00  0.00     0.659 OA 
HETATM   12  O   UNL     1      -9.545  15.283  66.393  1.00  0.00    -0.252 OA 
HETATM   13  CA  UNL     1     -12.050  14.549  66.409  1.00  0.00    -0.301 C  
ENDROOT
BRANCH  13  14
HETATM   14  N   UNL     1     -12.309  13.722  65.212  1.00  0.00    -0.436 N  
HETATM   15  H   UNL     1     -12.155  12.717  65.292  1.00  0.00     0.000 HD 
HETATM   16  C   UNL     1     -12.743  14.204  63.996  1.00  0.00     0.225 C  
HETATM   17  O   UNL     1     -13.014  15.380  63.794  1.00  0.00    -0.375 OA 
BRANCH  16  18
HETATM   18  CA  UNL     1     -12.813  13.091  62.905  1.00  0.00     0.931 C  
HETATM   19  H2  UNL     1     -14.905  13.209  62.786  1.00  0.00     0.000 HD 
HETATM   20  N   UNL     1     -14.178  12.503  62.903  1.00  0.00     3.934 NA 
HETATM   21  H1  UNL     1     -14.224  11.775  62.190  1.00  0.00     0.000 HD 
BRANCH  18  22
HETATM   22  C   UNL     1     -11.748  12.057  63.204  1.00  0.00    -0.276 C  
HETATM   23  C   UNL     1     -10.785  12.208  64.142  1.00  0.00    -0.405 C  
HETATM   24  C   UNL     1      -9.694  11.209  64.401  1.00  0.00    -0.312 C  
HETATM   25  C   UNL     1      -9.690  10.063  63.436  1.00  0.00     0.029 C  
HETATM   26  C   UNL     1     -10.648   9.881  62.514  1.00  0.00     2.503 C  
HETATM   27  C   UNL     1     -11.821  10.806  62.348  1.00  0.00     2.791 C  
ENDBRANCH  18  22
ENDBRANCH  16  18
ENDBRANCH  13  14
TORSDOF 3
ENDMDL
MODEL      194
REMARK 921   NORMALIZED FREE ENERGY PREDICTED BY IDOCK:   13.37 KCAL/MOL
REMARK 922        TOTAL FREE ENERGY PREDICTED BY IDOCK:   15.06 KCAL/MOL
REMARK 923 INTER-LIGAND FREE ENERGY PREDICTED BY IDOCK:    8.63 KCAL/MOL
REMARK 924 INTRA-LIGAND FREE ENERGY PREDICTED BY IDOCK:    6.43 KCAL/MOL
REMARK 927      BINDING AFFINITY PREDICTED BY RF-SCORE:    0.00 PKD
ROOT
HETATM    1  C   UNL     1      -9.815   7.713  71.234  1.00  0.00    -0.171 C  
HETATM    2  S   UNL     1     -11.373   8.629  71.193  1.00  0.00    -0.289 SA 
HETATM    3  C   UNL     1     -11.919   7.999  72.791  1.00  0.00    -0.188 C  
HETATM    4  C   UNL     1     -11.790   6.496  72.947  1.00  0.00     0.200 C  
HETATM    5  C   UNL     1     -12.789   5.961  73.953  1.00  0.00     5.842 C  
HETATM    6  CA  UNL     1     -10.923   5.709  72.244  1.00  0.00    -0.258 C  
HETATM    7  N   UNL     1     -10.096   6.291  71.323  1.00  0.00    -0.187 N  
HETATM    8  C   UNL     1     -10.915   4.205  72.478  1.00  0.00     0.128 C  
HETATM    9  C   UNL     1      -9.338   5.925  70.266  1.00  0.00    -0.158 C  
HETATM   10  O   UNL     1      -9.987   3.486  71.816  1.00  0.00    -0.172 OA 
HETATM   11  OXT UNL     1     -11.641   3.638  73.283  1.00  0.00    -0.099 OA 
HETATM   12  O   UNL     1      -9.060   4.818  69.869  1.00  0.00    -0.095 OA 
HETATM   13  CA  UNL     1      -9.159   7.426  69.842  1.00  0.00    -0.141 C  
ENDROOT
BRANCH  13  14
HETATM   14  N   UNL     1      -9.948   7.858  68.669  1.00  0.00    -0.185 N  
HETATM   15  H   UNL     1      -9.517   7.761  67.750  1.00  0.00     0.000 HD 
HETATM   16  C   UNL     1     -11.222   8.381  68.720  1.00  0.00     0.505 C  
HETATM   17  O   UNL     1     -11.864   8.493  69.757  1.00  0.00     0.382 OA 
BRANCH  16  18
HETATM   18  CA  UNL     1     -11.734   8.841  67.321  1.00  0.00     3.113 C  
HETATM   19  H2  UNL     1     -11.550   6.912  66.514  1.00  0.00     0.000 HD 
HETATM   20  N   UNL     1     -11.273   7.869  66.295  1.00  0.00     1.173 NA 
HETATM   21  H1  UNL     1     -11.608   8.171  65.380  1.00  0.00     0.000 HD 
BRANCH  18  22
HETATM   22  C   UNL     1     -11.214  10.239  67.056  1.00  0.00     0.047 C  
HETATM   23  C   UNL     1     -11.265  10.851  65.852  1.00  0.00     0.163 C  
HETATM   24  C   UNL     1     -10.699  12.214  65.572  1.00  0.00    -0.321 C  
HETATM   25  C   UNL     1      -9.953  12.802  66.732  1.00  0.00    -0.237 C  
HETATM   26  C   UNL     1      -9.910  12.222  67.941  1.00  0.00    -0.201 C  
HETATM   27  C   UNL     1     -10.598  10.925  68.261  1.00  0.00    -0.223 C  
ENDBRANCH  18  22
ENDBRANCH  16  18
ENDBRANCH  13  14
TORSDOF 3
ENDMDL
